data_PCOD8219598
_publ_section_title
;
Structure prediction by ZEFSAII (Michael W. Deem and Ramdas Pophale) SiO2 
 PCOD8219598
Probable space group: P M N A
;
_chemical_formula_sum "Si O2"
_cell_formula_units_Z 64
_cell_length_a 8.754797
_cell_length_b 15.274851
_cell_length_c 23.419301
_cell_angle_alpha 90.000000
_cell_angle_beta 90.000000
_cell_angle_gamma 90.000000
_cell_volume 3131.821430
_symmetry_space_group_name_H-M "P M N A"
_symmetry_group_IT_number 53
_symmetry_cell_setting 'orthorhombic'
loop_
_space_group_symop_operation_xyz
x,y,z
1/2-x,-y,1/2+z
x,-y,-z
1/2-x,y,1/2-z
-x,-y,-z
1/2+x,y,1/2-z
-x,y,z
1/2+x,-y,1/2+z
loop_
_atom_site_type_symbol
_atom_site_label
_atom_site_fract_x
_atom_site_fract_y
_atom_site_fract_z
Si Si1 0.825520 0.652833 0.510199
Si Si2 0.679080 0.921141 0.123998
Si Si3 0.819987 0.249872 0.310548
Si Si4 0.680882 0.749639 0.188502
Si Si5 0.175209 0.856232 0.501176
Si Si6 0.678104 0.594459 0.624630
Si Si7 0.678228 0.586759 0.113415
Si Si8 0.822000 0.900030 0.884807
O O1 0.795612 0.753378 0.495432
O O2 0.714710 0.621432 0.559900
O O3 0.789786 0.596925 0.453881
O O4 0.000000 0.638051 0.530374
O O5 0.500000 0.936918 0.132842
O O6 0.739046 0.842102 0.163562
O O7 0.769788 0.008037 0.142629
O O8 0.717155 0.899722 0.058636
O O9 0.750000 0.224025 0.250000
O O10 0.765567 0.345195 0.330190
O O11 0.770133 0.179195 0.357063
O O12 0.000000 0.249739 0.305376
O O13 0.750000 0.732589 0.250000
O O14 0.500000 0.750166 0.192140
O O15 0.736386 0.672456 0.146689
O O16 0.284402 0.899645 0.548016
O O17 0.000000 0.875927 0.518063
O O18 0.500000 0.605667 0.635644
O O19 0.727208 0.495196 0.636793
O O20 0.500000 0.570496 0.124642
O O21 0.000000 0.885782 0.873951
#
# Coordination Sequence:
#
# PCOD8219598 Si02
#       8
#     8   8   8   8   8   8   8   8
#     4  10  19  36  64  92 121 164 210 252 308 371
#     4  10  21  40  64  91 123 165 212 256 305 368
#     4  12  26  47  70  91 119 160 208 260 309 364
#     4  10  22  41  64  89 119 158 208 258 305 356
#     4  10  19  36  64  92 121 164 210 252 308 371
#     4  12  25  40  61  95 131 164 201 249 310 373
#     4  10  21  40  64  91 123 165 212 256 305 368
#     4  12  25  40  61  95 131 164 201 249 310 373
#
# _framework density 20.435390999999999
#
# number of rings (size 3 to 8) (size 9 to 14) (size 15 to 20)
#    0.000    1.250    2.500    4.125    0.000    6.000 
#    0.000    2.500    0.000    0.000    0.000    0.000 
#    0.000    0.000    0.000    0.000    0.000    0.000 
#
# Total GULP energy -794006.161768 kJ/mol
# GULP energy per Si atom -12406.346278 kJ/mol
# Density = 2.038888 g / cm^3
# Si number density = 20.435391 Si / 1000 Ang^3
#
#
#
# Elastic Constant Matrix: (Units=GPa)
#
#
# Indices 1 2 3 4 5 6 
#
# 1 105.2516 37.6124 29.4431 0.0000 0.0000 0.0000
# 2 37.6124 105.2657 8.3108 0.0000 0.0000 0.0000
# 3 29.4431 8.3108 71.2568 0.0000 0.0000 0.0000
# 4 0.0000 0.0000 0.0000 19.2837 0.0000 0.0000
# 5 0.0000 0.0000 0.0000 0.0000 30.9920 0.0000
# 6 0.0000 0.0000 0.0000 0.0000 0.0000 12.8707
#
#
#
# Elastic Compliance Matrix: (Units=1/GPa)
#
#
# Indices 1 2 3 4 5 6 
#
# 1 0.012212 -0.004002 -0.004579 0.000000 0.000000 0.000000
# 2 -0.004002 0.010900 0.000382 0.000000 0.000000 0.000000
# 3 -0.004579 0.000382 0.015881 0.000000 0.000000 0.000000
# 4 0.000000 0.000000 0.000000 0.051857 0.000000 0.000000
# 5 0.000000 0.000000 0.000000 0.000000 0.032266 0.000000
# 6 0.000000 0.000000 0.000000 0.000000 0.000000 0.077696
#
#
# Mechanical properties :
#
#
# Convention : Reuss Voigt Hill
#
# Bulk Modulus (GPa) = 44.25713 48.05631 46.15672
# Shear Modulus (GPa) = 22.24772 26.38979 24.31876
#
# Velocity S-wave (km/s) = 3.30310 3.59747 3.45343
# Velocity P-wave (km/s) = 6.02092 6.38929 6.20784
#
# Compressibility (1/GPa) = 0.02259523
#
# Stress axis : x y z
#
# Youngs Moduli (GPa) = 81.88540 91.74710 62.96712
#
# Poissons Ratio (x) = 0.36717 0.28834
# Poissons Ratio (y) = 0.32770 -0.02408
# Poissons Ratio (z) = 0.37498 -0.03508
#
# Static dielectric constant tensor:
#      x y z
#    x 3.521820 0.000000 0.000000 
#    y 0.000000 3.925530 0.000000 
#    z 0.000000 0.000000 3.508200 
# 
# 
# High freq. dielectric constant tensor:
#      x y z
#    x 1.785310 0.000000 0.000000 
#    y 0.000000 1.818040 0.000000 
#    z 0.000000 0.000000 1.794940 
# 
# From -- ./inp_files/34146.got.cif
#   From: 2010.03.12/outbox.cif.g09.slc.cpg/sg53_18_cif.got.tgz:34146.got - 2010.04.16 14:36:59.
