data_PCOD8219695
_publ_section_title
;
Structure prediction by ZEFSAII (Michael W. Deem and Ramdas Pophale) SiO2 
 PCOD8219695
Probable space group: P M N A
;
_chemical_formula_sum "Si O2"
_cell_formula_units_Z 64
_cell_length_a 9.158287
_cell_length_b 20.249867
_cell_length_c 20.336182
_cell_angle_alpha 90.000000
_cell_angle_beta 90.000000
_cell_angle_gamma 90.000000
_cell_volume 3771.428202
_symmetry_space_group_name_H-M "P M N A"
_symmetry_group_IT_number 53
_symmetry_cell_setting 'orthorhombic'
loop_
_space_group_symop_operation_xyz
x,y,z
1/2-x,-y,1/2+z
x,-y,-z
1/2-x,y,1/2-z
-x,-y,-z
1/2+x,y,1/2-z
-x,y,z
1/2+x,-y,1/2+z
loop_
_atom_site_type_symbol
_atom_site_label
_atom_site_fract_x
_atom_site_fract_y
_atom_site_fract_z
Si Si1 0.158047 0.284983 0.166022
Si Si2 0.837943 0.312231 0.015265
Si Si3 0.169614 0.559035 0.550907
Si Si4 0.675546 0.568152 0.685197
Si Si5 0.673375 0.020466 0.184852
Si Si6 0.335538 0.164288 0.149453
Si Si7 0.666646 0.811345 0.004853
Si Si8 0.673425 0.050507 0.945940
O O1 0.144193 0.285313 0.088093
O O2 0.222288 0.354996 0.188874
O O3 0.258807 0.224372 0.188203
O O4 0.000000 0.273948 0.198220
O O5 0.739915 0.377842 0.014952
O O6 0.000000 0.327062 0.985934
O O7 0.759298 0.253514 0.974594
O O8 0.185898 0.500000 0.500000
O O9 0.254870 0.539144 0.618101
O O10 0.000000 0.573682 0.567472
O O11 0.750000 0.534570 0.750000
O O12 0.500000 0.557970 0.684027
O O13 0.750000 0.992808 0.250000
O O14 0.500000 0.020005 0.192870
O O15 0.733511 0.094175 0.170020
O O16 0.722670 0.972694 0.125963
O O17 0.500000 0.166277 0.173597
O O18 0.323169 0.172129 0.071762
O O19 0.500000 0.796930 0.025185
O O20 0.731458 0.874975 0.043041
O O21 0.500000 0.050925 0.954100
O O22 0.739294 0.000000 0.000000
#
# Coordination Sequence:
#
# PCOD8219695 Si02
#       8
#     8   8   8   8   8   8   8   8
#     4   8  16  28  41  60  89 124 159 193 227 269
#     4   9  17  29  45  69 101 130 156 192 241 295
#     4  10  20  34  53  77 104 134 169 208 247 293
#     4  10  20  33  49  70  99 135 172 209 245 288
#     4  10  20  32  44  62  89 119 153 195 244 296
#     4   9  16  26  42  62  84 116 156 195 233 274
#     4   9  15  26  48  71  88 114 157 207 245 277
#     4   9  15  28  50  70  87 114 160 207 243 285
#
# _framework density 16.969698999999999
#
# number of rings (size 3 to 8) (size 9 to 14) (size 15 to 20)
#    0.000    2.750    1.250    1.875    0.000    5.500 
#    0.000    3.125    0.000    0.750    0.000    0.875 
#    0.000    2.000    0.000    0.000    0.000    0.000 
#
# Total GULP energy -793190.657362 kJ/mol
# GULP energy per Si atom -12393.604021 kJ/mol
# Density = 1.693107 g / cm^3
# Si number density = 16.969699 Si / 1000 Ang^3
#
#
#
# Elastic Constant Matrix: (Units=GPa)
#
#
# Indices 1 2 3 4 5 6 
#
# 1 82.2248 43.5401 36.7452 0.0000 0.0000 0.0000
# 2 43.5401 83.6714 36.9731 0.0000 0.0000 0.0000
# 3 36.7452 36.9731 71.2933 0.0000 0.0000 0.0000
# 4 0.0000 0.0000 0.0000 8.9699 0.0000 0.0000
# 5 0.0000 0.0000 0.0000 0.0000 21.7563 0.0000
# 6 0.0000 0.0000 0.0000 0.0000 0.0000 16.8441
#
#
#
# Elastic Compliance Matrix: (Units=1/GPa)
#
#
# Indices 1 2 3 4 5 6 
#
# 1 0.018521 -0.007031 -0.005900 0.000000 0.000000 0.000000
# 2 -0.007031 0.018174 -0.005801 0.000000 0.000000 0.000000
# 3 -0.005900 -0.005801 0.020076 0.000000 0.000000 0.000000
# 4 0.000000 0.000000 0.000000 0.111484 0.000000 0.000000
# 5 0.000000 0.000000 0.000000 0.000000 0.045964 0.000000
# 6 0.000000 0.000000 0.000000 0.000000 0.000000 0.059368
#
#
# Mechanical properties :
#
#
# Convention : Reuss Voigt Hill
#
# Bulk Modulus (GPa) = 51.79433 52.41181 52.10307
# Shear Modulus (GPa) = 15.74872 17.50948 16.62910
#
# Velocity S-wave (km/s) = 3.04970 3.21566 3.13378
# Velocity P-wave (km/s) = 6.55658 6.68879 6.62302
#
# Compressibility (1/GPa) = 0.01930713
#
# Stress axis : x y z
#
# Youngs Moduli (GPa) = 53.99167 55.02486 49.81105
#
# Poissons Ratio (x) = 0.38688 0.29388
# Poissons Ratio (y) = 0.37961 0.28896
# Poissons Ratio (z) = 0.31854 0.31921
#
# Static dielectric constant tensor:
#      x y z
#    x 3.288780 0.000000 0.000000 
#    y 0.000000 3.137580 0.000000 
#    z 0.000000 0.000000 2.996370 
# 
# 
# High freq. dielectric constant tensor:
#      x y z
#    x 1.648100 0.000000 0.000000 
#    y 0.000000 1.637650 0.000000 
#    z 0.000000 0.000000 1.626470 
# 
# From -- ./inp_files/31366.got.cif
#   From: 2010.03.12/outbox.cif.g09.slc.cpg/sg53_16_cif.got.tgz:31366.got - 2010.04.16 14:36:59.
