data_PCOD8219600
_publ_section_title
;
Structure prediction by ZEFSAII (Michael W. Deem and Ramdas Pophale) SiO2 
 PCOD8219600
Probable space group: P M N A
;
_chemical_formula_sum "Si O2"
_cell_formula_units_Z 64
_cell_length_a 8.879954
_cell_length_b 19.834358
_cell_length_c 18.396622
_cell_angle_alpha 90.000000
_cell_angle_beta 90.000000
_cell_angle_gamma 90.000000
_cell_volume 3240.163674
_symmetry_space_group_name_H-M "P M N A"
_symmetry_group_IT_number 53
_symmetry_cell_setting 'orthorhombic'
loop_
_space_group_symop_operation_xyz
x,y,z
1/2-x,-y,1/2+z
x,-y,-z
1/2-x,y,1/2-z
-x,-y,-z
1/2+x,y,1/2-z
-x,y,z
1/2+x,-y,1/2+z
loop_
_atom_site_type_symbol
_atom_site_label
_atom_site_fract_x
_atom_site_fract_y
_atom_site_fract_z
Si Si1 0.177073 0.024667 0.827102
Si Si2 0.821364 0.660654 0.580732
Si Si3 0.173804 0.088452 0.419592
Si Si4 0.677353 0.605329 0.327319
Si Si5 0.175162 0.217976 0.325659
Si Si6 0.170782 0.490155 0.414558
Si Si7 0.675371 0.867485 0.080209
Si Si8 0.178394 0.287973 0.573688
O O1 0.250000 0.006725 0.750000
O O2 0.232014 0.097351 0.855356
O O3 0.000000 0.025516 0.816806
O O4 0.221772 0.968573 0.885804
O O5 0.758149 0.712647 0.640928
O O6 0.772952 0.585518 0.603693
O O7 0.758831 0.680002 0.501152
O O8 0.000000 0.667441 0.576136
O O9 0.210205 0.159561 0.382771
O O10 0.211410 0.095206 0.504532
O O11 0.000000 0.067910 0.407713
O O12 0.750000 0.591688 0.250000
O O13 0.500000 0.611941 0.319494
O O14 0.716249 0.541851 0.377762
O O15 0.742478 0.674390 0.359800
O O16 0.250000 0.199695 0.250000
O O17 0.000000 0.225551 0.310924
O O18 0.175292 0.500000 0.500000
O O19 0.000000 0.502101 0.386242
O O20 0.500000 0.873286 0.098846
O O21 0.725287 0.789987 0.076155
O O22 0.000000 0.297657 0.580719
#
# Coordination Sequence:
#
# PCOD8219600 Si02
#       8
#     8   8   8   8   8   8   8   8
#     4  12  26  42  60  85 122 162 203 251 304 361
#     4   9  17  34  61  89 117 153 198 240 292 359
#     4  10  20  38  64  91 121 157 199 244 297 360
#     4  12  26  42  61  89 126 163 207 258 308 363
#     4  10  20  35  56  86 121 156 193 237 289 349
#     4  10  19  36  65  91 118 158 201 246 301 363
#     4  10  21  39  67  95 120 155 201 251 301 366
#     4  10  19  39  67  92 118 157 203 247 302 366
#
# _framework density 19.752088000000001
#
# number of rings (size 3 to 8) (size 9 to 14) (size 15 to 20)
#    0.000    1.625    2.500    3.000    0.000    5.250 
#    0.000    2.500    0.000    0.000    0.000    0.000 
#    0.000    0.000    0.000    0.000    0.000    0.000 
#
# Total GULP energy -793830.395268 kJ/mol
# GULP energy per Si atom -12403.599926 kJ/mol
# Density = 1.970713 g / cm^3
# Si number density = 19.752088 Si / 1000 Ang^3
#
#
#
# Elastic Constant Matrix: (Units=GPa)
#
#
# Indices 1 2 3 4 5 6 
#
# 1 79.5043 48.7141 32.0344 0.0000 0.0000 0.0000
# 2 48.7141 108.7443 29.6619 0.0000 0.0000 0.0000
# 3 32.0344 29.6619 72.3003 0.0000 0.0000 0.0000
# 4 0.0000 0.0000 0.0000 -240.6224 0.0000 0.0000
# 5 0.0000 0.0000 0.0000 0.0000 26.5505 0.0000
# 6 0.0000 0.0000 0.0000 0.0000 0.0000 23.5507
#
#
#
# Elastic Compliance Matrix: (Units=1/GPa)
#
#
# Indices 1 2 3 4 5 6 
#
# 1 0.019154 -0.007055 -0.005592 0.000000 0.000000 0.000000
# 2 -0.007055 0.012953 -0.002188 0.000000 0.000000 0.000000
# 3 -0.005592 -0.002188 0.017207 0.000000 0.000000 0.000000
# 4 0.000000 0.000000 0.000000 -0.004156 0.000000 0.000000
# 5 0.000000 0.000000 0.000000 0.000000 0.037664 0.000000
# 6 0.000000 0.000000 0.000000 0.000000 0.000000 0.042462
#
#
# Mechanical properties :
#
#
# Convention : Reuss Voigt Hill
#
# Bulk Modulus (GPa) = 50.90911 53.48551 52.19731
# Shear Modulus (GPa) = 30.95930 -28.09500 1.43215
#
# Velocity S-wave (km/s) = 3.96333 -3.77554 0.85243
# Velocity P-wave (km/s) = 6.83915 2.85148 5.23951
#
# Compressibility (1/GPa) = 0.01964285
#
# Stress axis : x y z
#
# Youngs Moduli (GPa) = 52.20849 77.20096 58.11676
#
# Poissons Ratio (x) = 0.54465 0.32500
# Poissons Ratio (y) = 0.36833 0.12718
# Poissons Ratio (z) = 0.29196 0.16894
#
# Static dielectric constant tensor:
#      x y z
#    x 3.349830 0.000000 0.000000 
#    y 0.000000 3.928430 0.000000 
#    z 0.000000 0.000000 3.622010 
# 
# 
# High freq. dielectric constant tensor:
#      x y z
#    x 1.742700 0.000000 0.000000 
#    y 0.000000 1.787580 0.000000 
#    z 0.000000 0.000000 1.773630 
# 
# From -- ./inp_files/26843.got.cif
#   From: 2010.03.12/outbox.cif.g09.slc.cpg/sg53_14_cif.got.tgz:26843.got - 2010.04.16 14:36:59.
