data_PCOD8219163
_publ_section_title
;
Structure prediction by ZEFSAII (Michael W. Deem and Ramdas Pophale) SiO2 
 PCOD8219163
Probable space group: P M N A
;
_chemical_formula_sum "Si O2"
_cell_formula_units_Z 64
_cell_length_a 8.820183
_cell_length_b 20.904932
_cell_length_c 18.588803
_cell_angle_alpha 90.000000
_cell_angle_beta 90.000000
_cell_angle_gamma 90.000000
_cell_volume 3427.502498
_symmetry_space_group_name_H-M "P M N A"
_symmetry_group_IT_number 53
_symmetry_cell_setting 'orthorhombic'
loop_
_space_group_symop_operation_xyz
x,y,z
1/2-x,-y,1/2+z
x,-y,-z
1/2-x,y,1/2-z
-x,-y,-z
1/2+x,y,1/2-z
-x,y,z
1/2+x,-y,1/2+z
loop_
_atom_site_type_symbol
_atom_site_label
_atom_site_fract_x
_atom_site_fract_y
_atom_site_fract_z
Si Si1 0.679775 0.120157 0.827322
Si Si2 0.677303 0.105757 0.322958
Si Si3 0.324559 0.997026 0.916452
Si Si4 0.175943 0.568974 0.034196
Si Si5 0.320240 0.312265 0.037729
Si Si6 0.821268 0.251441 0.607923
Si Si7 0.680487 0.615713 0.173989
Si Si8 0.679022 0.251377 0.324261
O O1 0.750000 0.107157 0.750000
O O2 0.500000 0.124416 0.819788
O O3 0.729490 0.062678 0.879505
O O4 0.748684 0.185808 0.860773
O O5 0.750000 0.078539 0.250000
O O6 0.500000 0.101310 0.313504
O O7 0.730474 0.178257 0.337423
O O8 0.729761 0.062881 0.388856
O O9 0.500000 0.984126 0.900236
O O10 0.289728 0.000000 0.000000
O O11 0.249431 0.569249 0.113639
O O12 0.000000 0.588568 0.039355
O O13 0.197527 0.500000 0.000000
O O14 0.265095 0.617350 0.982735
O O15 0.500000 0.312673 0.047305
O O16 0.241981 0.293692 0.111585
O O17 0.269429 0.262929 0.974574
O O18 0.769308 0.311294 0.656702
O O19 0.000000 0.245803 0.609675
O O20 0.750000 0.595180 0.250000
O O21 0.500000 0.608018 0.174576
O O22 0.750000 0.276965 0.250000
O O23 0.500000 0.258629 0.320082
#
# Coordination Sequence:
#
# PCOD8219163 Si02
#       8
#     8   8   8   8   8   8   8   8
#     4  10  20  35  52  74 104 137 176 218 267 325
#     4  10  21  37  57  78 104 139 181 230 280 335
#     4  10  22  36  53  76 103 141 184 228 278 330
#     4  10  21  38  59  83 115 154 191 228 272 324
#     4  10  20  35  59  86 113 146 180 226 277 324
#     4   8  17  32  52  79 108 140 177 218 268 325
#     4  10  19  33  55  83 114 147 187 231 278 329
#     4  10  21  37  57  83 111 143 184 231 283 337
#
# _framework density 18.672488000000001
#
# number of rings (size 3 to 8) (size 9 to 14) (size 15 to 20)
#    0.000    2.250    0.000    3.375    1.750    4.250 
#    0.000    3.750    0.000    3.000    0.000    0.000 
#    0.000    0.000    0.000    0.000    0.000    0.000 
#
# Total GULP energy -793741.348660 kJ/mol
# GULP energy per Si atom -12402.208573 kJ/mol
# Density = 1.862999 g / cm^3
# Si number density = 18.672488 Si / 1000 Ang^3
#
#
#
# Elastic Constant Matrix: (Units=GPa)
#
#
# Indices 1 2 3 4 5 6 
#
# 1 59.7900 25.6322 42.5674 0.0000 0.0000 0.0000
# 2 25.6322 77.0571 60.4603 0.0000 0.0000 0.0000
# 3 42.5674 60.4603 141.6501 0.0000 0.0000 0.0000
# 4 0.0000 0.0000 0.0000 -12.3089 0.0000 0.0000
# 5 0.0000 0.0000 0.0000 0.0000 34.3748 0.0000
# 6 0.0000 0.0000 0.0000 0.0000 0.0000 26.5564
#
#
#
# Elastic Compliance Matrix: (Units=1/GPa)
#
#
# Indices 1 2 3 4 5 6 
#
# 1 0.021781 -0.003172 -0.005192 0.000000 0.000000 0.000000
# 2 -0.003172 0.019974 -0.007572 0.000000 0.000000 0.000000
# 3 -0.005192 -0.007572 0.011852 0.000000 0.000000 0.000000
# 4 0.000000 0.000000 0.000000 -0.081242 0.000000 0.000000
# 5 0.000000 0.000000 0.000000 0.000000 0.029091 0.000000
# 6 0.000000 0.000000 0.000000 0.000000 0.000000 0.037656
#
#
# Mechanical properties :
#
#
# Convention : Reuss Voigt Hill
#
# Bulk Modulus (GPa) = 46.00790 59.53524 52.77157
# Shear Modulus (GPa) = 63.91571 19.71361 41.81466
#
# Velocity S-wave (km/s) = 5.85698 3.25277 4.73733
# Velocity P-wave (km/s) = 8.39237 6.78679 7.63192
#
# Compressibility (1/GPa) = 0.02173540
#
# Stress axis : x y z
#
# Youngs Moduli (GPa) = 45.91126 50.06572 84.37507
#
# Poissons Ratio (x) = 0.15880 0.43805
# Poissons Ratio (y) = 0.14562 0.63891
# Poissons Ratio (z) = 0.23836 0.37911
#
# Static dielectric constant tensor:
#      x y z
#    x 3.372320 0.000000 0.000000 
#    y 0.000000 3.457010 0.000000 
#    z 0.000000 0.000000 3.503080 
# 
# 
# High freq. dielectric constant tensor:
#      x y z
#    x 1.721780 0.000000 0.000000 
#    y 0.000000 1.716770 0.000000 
#    z 0.000000 0.000000 1.734320 
# 
# From -- ./inp_files/26999.got.cif
#   From: 2010.03.12/outbox.cif.g09.slc.cpg/sg53_14_cif.got.tgz:26999.got - 2010.04.16 14:36:59.
