data_PCOD8219957
_publ_section_title
;
Structure prediction by ZEFSAII (Michael W. Deem and Ramdas Pophale) SiO2 
 PCOD8219957
Probable space group: P M N A
;
_chemical_formula_sum "Si O2"
_cell_formula_units_Z 64
_cell_length_a 9.044196
_cell_length_b 14.935522
_cell_length_c 29.390625
_cell_angle_alpha 90.000000
_cell_angle_beta 90.000000
_cell_angle_gamma 90.000000
_cell_volume 3970.079404
_symmetry_space_group_name_H-M "P M N A"
_symmetry_group_IT_number 53
_symmetry_cell_setting 'orthorhombic'
loop_
_space_group_symop_operation_xyz
x,y,z
1/2-x,-y,1/2+z
x,-y,-z
1/2-x,y,1/2-z
-x,-y,-z
1/2+x,y,1/2-z
-x,y,z
1/2+x,-y,1/2+z
loop_
_atom_site_type_symbol
_atom_site_label
_atom_site_fract_x
_atom_site_fract_y
_atom_site_fract_z
Si Si1 0.327399 0.288865 0.705943
Si Si2 0.674188 0.944328 0.066293
Si Si3 0.827875 0.637177 0.440115
Si Si4 0.174640 0.793480 0.111616
Si Si5 0.674704 0.532702 0.605024
Si Si6 0.827811 0.493278 0.794555
Si Si7 0.173608 0.128362 0.470068
Si Si8 0.328129 0.326329 0.043667
O O1 0.250000 0.245993 0.750000
O O2 0.500000 0.282931 0.713798
O O3 0.277393 0.233737 0.662120
O O4 0.275258 0.390971 0.699092
O O5 0.500000 0.928297 0.073356
O O6 0.767502 0.895024 0.105449
O O7 0.710829 0.050850 0.066865
O O8 0.733404 0.902336 0.019031
O O9 0.755327 0.729818 0.424507
O O10 0.750439 0.554418 0.415904
O O11 0.806803 0.629084 0.494299
O O12 0.000000 0.637676 0.427103
O O13 0.000000 0.786073 0.104327
O O14 0.500000 0.521169 0.598448
O O15 0.714755 0.543359 0.658552
O O16 0.731940 0.620936 0.580287
O O17 0.750000 0.536489 0.750000
O O18 0.000000 0.499451 0.785048
O O19 0.236610 0.224863 0.455391
O O20 0.000000 0.138949 0.475869
O O21 0.500000 0.329896 0.057978
#
# Coordination Sequence:
#
# PCOD8219957 Si02
#       8
#     8   8   8   8   8   8   8   8
#     4   9  18  32  47  66  93 124 155 193 237 285
#     4   9  16  30  51  71  91 125 163 194 234 279
#     4  11  21  33  49  68  94 132 174 202 223 274
#     4  11  20  31  47  71 103 129 154 196 245 287
#     4  11  22  35  48  69 100 130 158 197 247 290
#     4   9  18  33  49  67  92 121 156 195 238 285
#     4   8  15  30  50  69  94 123 160 205 234 264
#     4  10  20  34  49  69  95 129 171 206 232 271
#
# _framework density 16.120584000000001
#
# number of rings (size 3 to 8) (size 9 to 14) (size 15 to 20)
#    0.000    2.250    2.500    2.250    0.000    4.500 
#    0.000    1.875    0.000    0.000    0.000    0.875 
#    0.000    0.000    0.000    0.000    0.000    0.000 
#
# Total GULP energy -793437.375290 kJ/mol
# GULP energy per Si atom -12397.458989 kJ/mol
# Density = 1.608389 g / cm^3
# Si number density = 16.120584 Si / 1000 Ang^3
#
#
#
# Elastic Constant Matrix: (Units=GPa)
#
#
# Indices 1 2 3 4 5 6 
#
# 1 61.1804 32.5122 47.8191 0.0000 0.0000 0.0000
# 2 32.5122 81.6778 42.4040 0.0000 0.0000 0.0000
# 3 47.8191 42.4040 106.9393 0.0000 0.0000 0.0000
# 4 0.0000 0.0000 0.0000 19.4847 0.0000 0.0000
# 5 0.0000 0.0000 0.0000 0.0000 28.0901 0.0000
# 6 0.0000 0.0000 0.0000 0.0000 0.0000 14.7200
#
#
#
# Elastic Compliance Matrix: (Units=1/GPa)
#
#
# Indices 1 2 3 4 5 6 
#
# 1 0.027051 -0.005651 -0.009855 0.000000 0.000000 0.000000
# 2 -0.005651 0.016598 -0.004054 0.000000 0.000000 0.000000
# 3 -0.009855 -0.004054 0.015366 0.000000 0.000000 0.000000
# 4 0.000000 0.000000 0.000000 0.051322 0.000000 0.000000
# 5 0.000000 0.000000 0.000000 0.000000 0.035600 0.000000
# 6 0.000000 0.000000 0.000000 0.000000 0.000000 0.067935
#
#
# Mechanical properties :
#
#
# Convention : Reuss Voigt Hill
#
# Bulk Modulus (GPa) = 50.27008 55.02978 52.64993
# Shear Modulus (GPa) = 19.25859 20.92978 20.09418
#
# Velocity S-wave (km/s) = 3.46013 3.60714 3.53440
# Velocity P-wave (km/s) = 6.87131 7.18046 7.02758
#
# Compressibility (1/GPa) = 0.01989255
#
# Stress axis : x y z
#
# Youngs Moduli (GPa) = 36.96667 60.24970 65.08013
#
# Poissons Ratio (x) = 0.34049 0.64139
# Poissons Ratio (y) = 0.20891 0.26385
# Poissons Ratio (z) = 0.36432 0.24427
#
# Static dielectric constant tensor:
#      x y z
#    x 2.955960 0.000000 0.000000 
#    y 0.000000 3.142680 0.000000 
#    z 0.000000 0.000000 3.078800 
# 
# 
# High freq. dielectric constant tensor:
#      x y z
#    x 1.614290 0.000000 0.000000 
#    y 0.000000 1.603540 0.000000 
#    z 0.000000 0.000000 1.607080 
# 
# From -- ./inp_files/38411.got.cif
#   From: 2010.03.12/outbox.cif.g09.slc.cpg/sg53_20_cif.got.tgz:38411.got - 2010.04.16 14:36:59.
