data_PCOD8219812
_publ_section_title
;
Structure prediction by ZEFSAII (Michael W. Deem and Ramdas Pophale) SiO2 
 PCOD8219812
Probable space group: P M N A
;
_chemical_formula_sum "Si O2"
_cell_formula_units_Z 40
_cell_length_a 9.382030
_cell_length_b 12.587261
_cell_length_c 19.975182
_cell_angle_alpha 90.000000
_cell_angle_beta 90.000000
_cell_angle_gamma 90.000000
_cell_volume 2358.950348
_symmetry_space_group_name_H-M "P M N A"
_symmetry_group_IT_number 53
_symmetry_cell_setting 'orthorhombic'
loop_
_space_group_symop_operation_xyz
x,y,z
1/2-x,-y,1/2+z
x,-y,-z
1/2-x,y,1/2-z
-x,-y,-z
1/2+x,y,1/2-z
-x,y,z
1/2+x,-y,1/2+z
loop_
_atom_site_type_symbol
_atom_site_label
_atom_site_fract_x
_atom_site_fract_y
_atom_site_fract_z
Si Si1 0.338900 0.477293 0.421620
Si Si2 0.168760 0.957831 0.569699
Si Si3 0.667587 0.118148 0.818285
Si Si4 0.335284 0.279607 0.053846
Si Si5 0.163619 0.675182 0.400486
O O1 0.333363 0.500000 0.500000
O O2 0.500000 0.468880 0.394943
O O3 0.258490 0.366797 0.407231
O O4 0.260575 0.573325 0.383350
O O5 0.211449 0.835314 0.581535
O O6 0.000000 0.970266 0.564970
O O7 0.235892 0.000000 0.500000
O O8 0.225978 0.028285 0.631003
O O9 0.750000 0.102011 0.750000
O O10 0.500000 0.105402 0.805593
O O11 0.703399 0.233521 0.848131
O O12 0.500000 0.304223 0.069082
O O13 0.306643 0.280252 0.974518
O O14 0.000000 0.639632 0.393803
#
# Coordination Sequence:
#
# PCOD8219812 Si02
#       5
#     8   8   8   8   8
#     4   9  17  27  41  66 100 128 150 187 243 295
#     4   9  15  28  51  75  96 124 167 211 243 279
#     4  10  20  33  50  73 101 131 163 202 249 299
#     4   9  15  26  48  73  94 120 160 206 242 278
#     4   9  16  28  47  69  93 123 161 200 237 284
#
# _framework density 16.956693999999999
#
# number of rings (size 3 to 8) (size 9 to 14) (size 15 to 20)
#    0.000    2.800    2.000    0.600    0.000    3.200 
#    0.000    1.000    0.000    2.400    0.000    2.800 
#    0.000    0.000    0.000    0.000    0.000    0.000 
#
# Total GULP energy -495949.878124 kJ/mol
# GULP energy per Si atom -12398.746953 kJ/mol
# Density = 1.691810 g / cm^3
# Si number density = 16.956694 Si / 1000 Ang^3
#
#
#
# Elastic Constant Matrix: (Units=GPa)
#
#
# Indices 1 2 3 4 5 6 
#
# 1 74.7320 68.5901 38.7984 0.0000 0.0000 0.0000
# 2 68.5901 152.1844 67.6765 0.0000 0.0000 0.0000
# 3 38.7984 67.6765 81.9812 0.0000 0.0000 0.0000
# 4 0.0000 0.0000 0.0000 19.0240 0.0000 0.0000
# 5 0.0000 0.0000 0.0000 0.0000 21.4589 0.0000
# 6 0.0000 0.0000 0.0000 0.0000 0.0000 15.1401
#
#
#
# Elastic Compliance Matrix: (Units=1/GPa)
#
#
# Indices 1 2 3 4 5 6 
#
# 1 0.023534 -0.008933 -0.003763 0.000000 0.000000 0.000000
# 2 -0.008933 0.013774 -0.007142 0.000000 0.000000 0.000000
# 3 -0.003763 -0.007142 0.019875 0.000000 0.000000 0.000000
# 4 0.000000 0.000000 0.000000 0.052565 0.000000 0.000000
# 5 0.000000 0.000000 0.000000 0.000000 0.046601 0.000000
# 6 0.000000 0.000000 0.000000 0.000000 0.000000 0.066050
#
#
# Mechanical properties :
#
#
# Convention : Reuss Voigt Hill
#
# Bulk Modulus (GPa) = 57.12728 73.22527 65.17628
# Shear Modulus (GPa) = 18.66293 20.04677 19.35485
#
# Velocity S-wave (km/s) = 3.32116 3.44209 3.38217
# Velocity P-wave (km/s) = 6.96205 7.68601 7.33297
#
# Compressibility (1/GPa) = 0.01750477
#
# Stress axis : x y z
#
# Youngs Moduli (GPa) = 42.49163 72.60302 50.31460
#
# Poissons Ratio (x) = 0.64860 0.18934
# Poissons Ratio (y) = 0.37960 0.35937
# Poissons Ratio (z) = 0.15990 0.51856
#
# Static dielectric constant tensor:
#      x y z
#    x 3.013660 0.000000 0.000000 
#    y 0.000000 3.382260 0.000000 
#    z 0.000000 0.000000 2.807130 
# 
# 
# High freq. dielectric constant tensor:
#      x y z
#    x 1.631850 0.000000 0.000000 
#    y 0.000000 1.669940 0.000000 
#    z 0.000000 0.000000 1.609130 
# 
# From -- ./inp_files/21663.got.cif
#   From: 2010.03.12/outbox.cif.g09.slc.cpg/sg53_11_cif.got.tgz:21663.got - 2010.04.16 14:36:59.
