data_PCOD8219158
_publ_section_title
;
Structure prediction by ZEFSAII (Michael W. Deem and Ramdas Pophale) SiO2 
 PCOD8219158
Probable space group: P M N A
;
_chemical_formula_sum "Si O2"
_cell_formula_units_Z 40
_cell_length_a 15.663561
_cell_length_b 12.934950
_cell_length_c 9.128382
_cell_angle_alpha 90.000000
_cell_angle_beta 90.000000
_cell_angle_gamma 90.000000
_cell_volume 1849.477546
_symmetry_space_group_name_H-M "P M N A"
_symmetry_group_IT_number 53
_symmetry_cell_setting 'orthorhombic'
loop_
_space_group_symop_operation_xyz
x,y,z
1/2-x,-y,1/2+z
x,-y,-z
1/2-x,y,1/2-z
-x,-y,-z
1/2+x,y,1/2-z
-x,y,z
1/2+x,-y,1/2+z
loop_
_atom_site_type_symbol
_atom_site_label
_atom_site_fract_x
_atom_site_fract_y
_atom_site_fract_z
Si Si1 0.844333 0.901270 0.312556
Si Si2 0.601702 0.692409 0.668108
Si Si3 0.601927 0.490262 0.835959
Si Si4 0.599277 0.121033 0.132706
Si Si5 0.097849 0.701619 0.156490
O O1 0.750000 0.904431 0.250000
O O2 0.844686 0.875294 0.485182
O O3 0.896000 0.814268 0.226337
O O4 0.889386 0.011520 0.285087
O O5 0.500000 0.696492 0.664115
O O6 0.634875 0.587372 0.742032
O O7 0.634832 0.789797 0.761748
O O8 0.640805 0.699364 0.504506
O O9 0.500000 0.487718 0.841725
O O10 0.639342 0.385744 0.761706
O O11 0.638849 0.500000 0.000000
O O12 0.500000 0.137107 0.091003
O O13 0.000000 0.671176 0.136009
#
# Coordination Sequence:
#
# PCOD8219158 Si02
#       5
#     8   8   8   8   8
#     4  11  23  37  56  81 111 146 189 237 286 341
#     4   9  18  31  53  85 112 138 180 235 284 330
#     4   9  16  28  51  82 112 142 180 228 281 336
#     4  10  21  40  62  83 113 154 198 238 288 354
#     4  10  19  33  55  82 113 145 183 232 283 338
#
# _framework density 21.627728000000001
#
# number of rings (size 3 to 8) (size 9 to 14) (size 15 to 20)
#    0.000    2.200    0.000    4.200    0.000    9.600 
#    0.000    3.000    0.000    8.400    0.000    0.000 
#    0.000    0.000    0.000    0.000    0.000    0.000 
#
# Total GULP energy -496006.234834 kJ/mol
# GULP energy per Si atom -12400.155871 kJ/mol
# Density = 2.157850 g / cm^3
# Si number density = 21.627728 Si / 1000 Ang^3
#
#
#
# Elastic Constant Matrix: (Units=GPa)
#
#
# Indices 1 2 3 4 5 6 
#
# 1 34.5485 9.6592 26.1716 0.0000 0.0000 0.0000
# 2 9.6592 157.0847 93.0745 0.0000 0.0000 0.0000
# 3 26.1716 93.0745 183.3680 0.0000 0.0000 0.0000
# 4 0.0000 0.0000 0.0000 40.3241 0.0000 0.0000
# 5 0.0000 0.0000 0.0000 0.0000 34.3869 0.0000
# 6 0.0000 0.0000 0.0000 0.0000 0.0000 -3.0385
#
#
#
# Elastic Compliance Matrix: (Units=1/GPa)
#
#
# Indices 1 2 3 4 5 6 
#
# 1 0.032580 0.001075 -0.005196 0.000000 0.000000 0.000000
# 2 0.001075 0.009139 -0.004793 0.000000 0.000000 0.000000
# 3 -0.005196 -0.004793 0.008628 0.000000 0.000000 0.000000
# 4 0.000000 0.000000 0.000000 0.024799 0.000000 0.000000
# 5 0.000000 0.000000 0.000000 0.000000 0.029081 0.000000
# 6 0.000000 0.000000 0.000000 0.000000 0.000000 -0.329115
#
#
# Mechanical properties :
#
#
# Convention : Reuss Voigt Hill
#
# Bulk Modulus (GPa) = 30.74919 70.31240 50.53080
# Shear Modulus (GPa) = -25.48146 30.74090 2.62972
#
# Velocity S-wave (km/s) = -3.43619 3.77419 1.10388
# Velocity P-wave (km/s) = 1.22266 7.18147 5.00393
#
# Compressibility (1/GPa) = 0.03252119
#
# Stress axis : x y z
#
# Youngs Moduli (GPa) = 30.69342 109.41519 115.90569
#
# Poissons Ratio (x) = -0.11765 0.60223
# Poissons Ratio (y) = -0.03300 0.55548
# Poissons Ratio (z) = 0.15948 0.52437
#
# Static dielectric constant tensor:
#      x y z
#    x 3.277460 0.000000 0.000000 
#    y 0.000000 4.150560 0.000000 
#    z 0.000000 0.000000 4.149540 
# 
# 
# High freq. dielectric constant tensor:
#      x y z
#    x 1.798990 0.000000 0.000000 
#    y 0.000000 1.866200 0.000000 
#    z 0.000000 0.000000 1.860310 
# 
# From -- ./inp_files/9766.got.cif
#   From: 2010.03.12/outbox.cif.g09.slc.cpg/sg53_5_cif.got.tgz:9766.got - 2010.04.16 14:36:59.
