data_PCOD8219881
_publ_section_title
;
Structure prediction by ZEFSAII (Michael W. Deem and Ramdas Pophale) SiO2 
 PCOD8219881
Probable space group: P M N A
;
_chemical_formula_sum "Si O2"
_cell_formula_units_Z 48
_cell_length_a 8.950018
_cell_length_b 14.724329
_cell_length_c 20.493276
_cell_angle_alpha 90.000000
_cell_angle_beta 90.000000
_cell_angle_gamma 90.000000
_cell_volume 2700.665588
_symmetry_space_group_name_H-M "P M N A"
_symmetry_group_IT_number 53
_symmetry_cell_setting 'orthorhombic'
loop_
_space_group_symop_operation_xyz
x,y,z
1/2-x,-y,1/2+z
x,-y,-z
1/2-x,y,1/2-z
-x,-y,-z
1/2+x,y,1/2-z
-x,y,z
1/2+x,-y,1/2+z
loop_
_atom_site_type_symbol
_atom_site_label
_atom_site_fract_x
_atom_site_fract_y
_atom_site_fract_z
Si Si1 0.323888 0.894208 0.183825
Si Si2 0.832858 0.311784 0.656841
Si Si3 0.176776 0.574702 0.947663
Si Si4 0.829876 0.737139 0.489064
Si Si5 0.174630 0.081057 0.950346
Si Si6 0.174356 0.489642 0.813070
O O1 0.250000 0.934644 0.250000
O O2 0.500000 0.913800 0.183714
O O3 0.287669 0.787363 0.182051
O O4 0.253732 0.939986 0.119129
O O5 0.823487 0.315269 0.579084
O O6 0.716148 0.383212 0.685360
O O7 0.000000 0.337684 0.680001
O O8 0.255743 0.671208 0.957959
O O9 0.231617 0.540675 0.877246
O O10 0.000000 0.588938 0.951720
O O11 0.229546 0.500000 0.000000
O O12 0.738752 0.830059 0.485299
O O13 0.000000 0.759640 0.508890
O O14 0.000000 0.094689 0.936836
O O15 0.207116 0.000000 0.000000
O O16 0.250000 0.535961 0.750000
O O17 0.000000 0.498964 0.806030
#
# Coordination Sequence:
#
# PCOD8219881 Si02
#       6
#     8   8   8   8   8   8
#     4  10  20  33  51  78 110 144 177 216 267 323
#     4   9  18  31  47  72 104 137 172 208 255 311
#     4  10  20  35  53  75 103 139 181 220 262 311
#     4  10  20  33  54  81 106 137 175 221 268 315
#     4  10  21  37  58  82 109 142 179 222 273 326
#     4  11  22  33  48  70 101 140 178 220 265 310
#
# _framework density 17.773398
#
# number of rings (size 3 to 8) (size 9 to 14) (size 15 to 20)
#    0.000    2.000    1.667    3.500    0.000    7.667 
#    0.000    0.000    0.000    1.000    0.000    4.667 
#    0.000    0.000    0.000    0.000    0.000    0.000 
#
# Total GULP energy -595253.505565 kJ/mol
# GULP energy per Si atom -12401.114699 kJ/mol
# Density = 1.773294 g / cm^3
# Si number density = 17.773398 Si / 1000 Ang^3
#
#
#
# Elastic Constant Matrix: (Units=GPa)
#
#
# Indices 1 2 3 4 5 6 
#
# 1 94.0174 42.6736 65.6299 0.0000 0.0000 0.0000
# 2 42.6736 68.2402 54.1753 0.0000 0.0000 0.0000
# 3 65.6299 54.1753 141.3237 0.0000 0.0000 0.0000
# 4 0.0000 0.0000 0.0000 20.3632 0.0000 0.0000
# 5 0.0000 0.0000 0.0000 0.0000 32.6631 0.0000
# 6 0.0000 0.0000 0.0000 0.0000 0.0000 23.1870
#
#
#
# Elastic Compliance Matrix: (Units=1/GPa)
#
#
# Indices 1 2 3 4 5 6 
#
# 1 0.017520 -0.006464 -0.005658 0.000000 0.000000 0.000000
# 2 -0.006464 0.023450 -0.005987 0.000000 0.000000 0.000000
# 3 -0.005658 -0.005987 0.011999 0.000000 0.000000 0.000000
# 4 0.000000 0.000000 0.000000 0.049108 0.000000 0.000000
# 5 0.000000 0.000000 0.000000 0.000000 0.030616 0.000000
# 6 0.000000 0.000000 0.000000 0.000000 0.000000 0.043128
#
#
# Mechanical properties :
#
#
# Convention : Reuss Voigt Hill
#
# Bulk Modulus (GPa) = 59.70423 69.83764 64.77093
# Shear Modulus (GPa) = 22.97555 24.64949 23.81252
#
# Velocity S-wave (km/s) = 3.59930 3.72812 3.66428
# Velocity P-wave (km/s) = 7.13710 7.60989 7.37728
#
# Compressibility (1/GPa) = 0.01674923
#
# Stress axis : x y z
#
# Youngs Moduli (GPa) = 57.07717 42.64448 83.34123
#
# Poissons Ratio (x) = 0.27565 0.47157
# Poissons Ratio (y) = 0.36895 0.49900
# Poissons Ratio (z) = 0.32296 0.25533
#
# Static dielectric constant tensor:
#      x y z
#    x 3.322080 0.000000 0.000000 
#    y 0.000000 2.966360 0.000000 
#    z 0.000000 0.000000 3.488720 
# 
# 
# High freq. dielectric constant tensor:
#      x y z
#    x 1.698720 0.000000 0.000000 
#    y 0.000000 1.650630 0.000000 
#    z 0.000000 0.000000 1.692600 
# 
# From -- ./inp_files/26166.got.cif
#   From: 2010.03.12/outbox.cif.g09.slc.cpg/sg53_14_cif.got.tgz:26166.got - 2010.04.16 14:36:59.
