data_PCOD8219946
_publ_section_title
;
Structure prediction by ZEFSAII (Michael W. Deem and Ramdas Pophale) SiO2 
 PCOD8219946
Probable space group: P M N A
;
_chemical_formula_sum "Si O2"
_cell_formula_units_Z 64
_cell_length_a 14.094099
_cell_length_b 12.069425
_cell_length_c 17.905800
_cell_angle_alpha 90.000000
_cell_angle_beta 90.000000
_cell_angle_gamma 90.000000
_cell_volume 3045.913932
_symmetry_space_group_name_H-M "P M N A"
_symmetry_group_IT_number 53
_symmetry_cell_setting 'orthorhombic'
loop_
_space_group_symop_operation_xyz
x,y,z
1/2-x,-y,1/2+z
x,-y,-z
1/2-x,y,1/2-z
-x,-y,-z
1/2+x,y,1/2-z
-x,y,z
1/2+x,-y,1/2+z
loop_
_atom_site_type_symbol
_atom_site_label
_atom_site_fract_x
_atom_site_fract_y
_atom_site_fract_z
Si Si1 0.103435 0.253544 0.171260
Si Si2 0.353362 0.431711 0.435535
Si Si3 0.606925 0.370879 0.184776
Si Si4 0.735158 0.948976 0.662840
Si Si5 0.109918 0.091628 0.935978
Si Si6 0.255594 0.272032 0.967417
Si Si7 0.265839 0.423343 0.834936
Si Si8 0.609371 0.832777 0.923932
O O1 0.084855 0.336250 0.102307
O O2 0.153203 0.316665 0.240705
O O3 0.173406 0.159106 0.144080
O O4 0.000000 0.203358 0.193655
O O5 0.409988 0.500000 0.500000
O O6 0.261548 0.375748 0.476489
O O7 0.326289 0.517002 0.369491
O O8 0.500000 0.398792 0.205749
O O9 0.651408 0.486464 0.161670
O O10 0.615490 0.282644 0.119301
O O11 0.750000 0.967601 0.750000
O O12 0.836407 0.930718 0.621446
O O13 0.675936 0.053405 0.633107
O O14 0.155046 0.207212 0.962560
O O15 0.000000 0.109905 0.911931
O O16 0.116236 0.000000 0.000000
O O17 0.290308 0.317110 0.886482
O O18 0.338010 0.189487 0.997258
O O19 0.250000 0.382788 0.750000
O O20 0.500000 0.869548 0.936614
#
# Coordination Sequence:
#
# PCOD8219946 Si02
#       8
#     8   8   8   8   8   8   8   8
#     4  11  20  33  58  92 126 161 207 266 322 378
#     4  10  20  34  56  87 121 164 209 260 309 378
#     4  10  20  33  56  92 127 164 212 257 309 375
#     4  12  23  39  67  97 134 163 209 269 344 392
#     4  11  24  45  71  96 125 168 222 275 331 401
#     4  11  23  40  62  93 126 167 218 264 324 383
#     4  11  21  37  61  85 128 176 212 257 316 381
#     4  11  22  38  63  96 131 165 212 269 321 381
#
# _framework density 21.011755999999998
#
# number of rings (size 3 to 8) (size 9 to 14) (size 15 to 20)
#    0.000    1.125    6.250    0.375    0.000    3.250 
#    0.000    5.000    0.000    1.500    0.000    0.000 
#    0.000    0.000    0.000    0.000    0.000    0.000 
#
# Total GULP energy -793325.292588 kJ/mol
# GULP energy per Si atom -12395.707697 kJ/mol
# Density = 2.096393 g / cm^3
# Si number density = 21.011756 Si / 1000 Ang^3
#
#
#
# Elastic Constant Matrix: (Units=GPa)
#
#
# Indices 1 2 3 4 5 6 
#
# 1 116.9186 27.6140 38.6696 0.0000 0.0000 0.0000
# 2 27.6140 54.8210 27.4732 0.0000 0.0000 0.0000
# 3 38.6696 27.4732 114.5640 0.0000 0.0000 0.0000
# 4 0.0000 0.0000 0.0000 30.2460 0.0000 0.0000
# 5 0.0000 0.0000 0.0000 0.0000 23.5944 0.0000
# 6 0.0000 0.0000 0.0000 0.0000 0.0000 20.9489
#
#
#
# Elastic Compliance Matrix: (Units=1/GPa)
#
#
# Indices 1 2 3 4 5 6 
#
# 1 0.010321 -0.003925 -0.002543 0.000000 0.000000 0.000000
# 2 -0.003925 0.022225 -0.004005 0.000000 0.000000 0.000000
# 3 -0.002543 -0.004005 0.010547 0.000000 0.000000 0.000000
# 4 0.000000 0.000000 0.000000 0.033062 0.000000 0.000000
# 5 0.000000 0.000000 0.000000 0.000000 0.042383 0.000000
# 6 0.000000 0.000000 0.000000 0.000000 0.000000 0.047735
#
#
# Mechanical properties :
#
#
# Convention : Reuss Voigt Hill
#
# Bulk Modulus (GPa) = 45.14862 52.64636 48.89749
# Shear Modulus (GPa) = 25.69361 27.79431 26.74396
#
# Velocity S-wave (km/s) = 3.50068 3.64097 3.57152
# Velocity P-wave (km/s) = 6.15416 6.54107 6.35056
#
# Compressibility (1/GPa) = 0.02214907
#
# Stress axis : x y z
#
# Youngs Moduli (GPa) = 96.89196 44.99414 94.81031
#
# Poissons Ratio (x) = 0.17658 0.24106
# Poissons Ratio (y) = 0.38026 0.37972
# Poissons Ratio (z) = 0.24635 0.18020
#
# Static dielectric constant tensor:
#      x y z
#    x 3.725770 0.000000 0.000000 
#    y 0.000000 3.635320 0.000000 
#    z 0.000000 0.000000 4.046150 
# 
# 
# High freq. dielectric constant tensor:
#      x y z
#    x 1.811870 0.000000 0.000000 
#    y 0.000000 1.801160 0.000000 
#    z 0.000000 0.000000 1.828960 
# 
# From -- ./inp_files/28590.got.cif
#   From: 2010.03.12/outbox.cif.g09.slc.cpg/sg53_15_cif.got.tgz:28590.got - 2010.04.16 14:36:59.
