data_PCOD8219367
_publ_section_title
;
Structure prediction by ZEFSAII (Michael W. Deem and Ramdas Pophale) SiO2 
 PCOD8219367
Probable space group: P M N A
;
_chemical_formula_sum "Si O2"
_cell_formula_units_Z 40
_cell_length_a 9.023513
_cell_length_b 7.922527
_cell_length_c 28.908204
_cell_angle_alpha 90.000000
_cell_angle_beta 90.000000
_cell_angle_gamma 90.000000
_cell_volume 2066.619329
_symmetry_space_group_name_H-M "P M N A"
_symmetry_group_IT_number 53
_symmetry_cell_setting 'orthorhombic'
loop_
_space_group_symop_operation_xyz
x,y,z
1/2-x,-y,1/2+z
x,-y,-z
1/2-x,y,1/2-z
-x,-y,-z
1/2+x,y,1/2-z
-x,y,z
1/2+x,-y,1/2+z
loop_
_atom_site_type_symbol
_atom_site_label
_atom_site_fract_x
_atom_site_fract_y
_atom_site_fract_z
Si Si1 0.823670 0.746918 0.200631
Si Si2 0.672894 0.084055 0.547731
Si Si3 0.174934 0.433742 0.137656
Si Si4 0.675004 0.435096 0.950219
Si Si5 0.827584 0.062799 0.143989
O O1 0.750000 0.731744 0.250000
O O2 0.773704 0.582732 0.171566
O O3 0.756728 0.914416 0.175483
O O4 0.000000 0.751500 0.205947
O O5 0.500000 0.133884 0.546257
O O6 0.768734 0.247403 0.557500
O O7 0.709722 0.957833 0.589710
O O8 0.724576 0.000000 0.500000
O O9 0.254456 0.445842 0.088439
O O10 0.000000 0.440505 0.128590
O O11 0.222168 0.251319 0.159273
O O12 0.500000 0.440756 0.945316
O O13 0.728787 0.500000 0.000000
O O14 0.000000 0.040209 0.151742
#
# Coordination Sequence:
#
# PCOD8219367 Si02
#       5
#     8   8   8   8   8
#     4  10  21  38  59  85 116 149 190 238 288 340
#     4  10  19  34  58  85 112 148 196 240 280 339
#     4  10  20  38  63  84 111 151 194 243 283 331
#     4  11  23  36  52  81 122 157 189 234 289 348
#     4   9  18  35  58  86 113 142 188 239 284 332
#
# _framework density 19.355281999999999
#
# number of rings (size 3 to 8) (size 9 to 14) (size 15 to 20)
#    0.000    2.000    2.000    1.800    0.000    5.200 
#    0.000    2.000    0.000    0.000    0.000    0.000 
#    0.000    0.000    0.000    0.000    0.000    0.000 
#
# Total GULP energy -495954.366556 kJ/mol
# GULP energy per Si atom -12398.859164 kJ/mol
# Density = 1.931123 g / cm^3
# Si number density = 19.355282 Si / 1000 Ang^3
#
#
#
# Elastic Constant Matrix: (Units=GPa)
#
#
# Indices 1 2 3 4 5 6 
#
# 1 28.2702 29.2574 31.6444 0.0000 0.0000 0.0000
# 2 29.2574 160.7524 66.3234 0.0000 0.0000 0.0000
# 3 31.6444 66.3234 135.9047 0.0000 0.0000 0.0000
# 4 0.0000 0.0000 0.0000 29.4127 0.0000 0.0000
# 5 0.0000 0.0000 0.0000 0.0000 31.0657 0.0000
# 6 0.0000 0.0000 0.0000 0.0000 0.0000 0.1961
#
#
#
# Elastic Compliance Matrix: (Units=1/GPa)
#
#
# Indices 1 2 3 4 5 6 
#
# 1 0.051505 -0.005542 -0.009288 0.000000 0.000000 0.000000
# 2 -0.005542 0.008385 -0.002802 0.000000 0.000000 0.000000
# 3 -0.009288 -0.002802 0.010888 0.000000 0.000000 0.000000
# 4 0.000000 0.000000 0.000000 0.033999 0.000000 0.000000
# 5 0.000000 0.000000 0.000000 0.000000 0.032190 0.000000
# 6 0.000000 0.000000 0.000000 0.000000 0.000000 5.100076
#
#
# Mechanical properties :
#
#
# Convention : Reuss Voigt Hill
#
# Bulk Modulus (GPa) = 28.15718 64.37530 46.26624
# Shear Modulus (GPa) = 0.94623 25.31504 13.13063
#
# Velocity S-wave (km/s) = 0.69995 3.62043 2.60744
# Velocity P-wave (km/s) = 3.90287 7.12802 5.74635
#
# Compressibility (1/GPa) = 0.03551492
#
# Stress axis : x y z
#
# Youngs Moduli (GPa) = 19.41556 119.25548 91.84395
#
# Poissons Ratio (x) = 0.66092 0.85305
# Poissons Ratio (y) = 0.10760 0.25732
# Poissons Ratio (z) = 0.18033 0.33412
#
# Static dielectric constant tensor:
#      x y z
#    x 3.206580 0.000000 0.000000 
#    y 0.000000 3.945740 0.000000 
#    z 0.000000 0.000000 3.620460 
# 
# 
# High freq. dielectric constant tensor:
#      x y z
#    x 1.720620 0.000000 0.000000 
#    y 0.000000 1.770670 0.000000 
#    z 0.000000 0.000000 1.754280 
# 
# From -- ./inp_files/36033.got.cif
#   From: 2010.03.12/outbox.cif.g09.slc.cpg/sg53_19_cif.got.tgz:36033.got - 2010.04.16 14:36:59.
