data_PCOD8219611
_publ_section_title
;
Structure prediction by ZEFSAII (Michael W. Deem and Ramdas Pophale) SiO2 
 PCOD8219611
Probable space group: P M N A
;
_chemical_formula_sum "Si O2"
_cell_formula_units_Z 64
_cell_length_a 8.877925
_cell_length_b 24.168709
_cell_length_c 14.454125
_cell_angle_alpha 90.000000
_cell_angle_beta 90.000000
_cell_angle_gamma 90.000000
_cell_volume 3101.392488
_symmetry_space_group_name_H-M "P M N A"
_symmetry_group_IT_number 53
_symmetry_cell_setting 'orthorhombic'
loop_
_space_group_symop_operation_xyz
x,y,z
1/2-x,-y,1/2+z
x,-y,-z
1/2-x,y,1/2-z
-x,-y,-z
1/2+x,y,1/2-z
-x,y,z
1/2+x,-y,1/2+z
loop_
_atom_site_type_symbol
_atom_site_label
_atom_site_fract_x
_atom_site_fract_y
_atom_site_fract_z
Si Si1 0.825191 0.635266 0.156653
Si Si2 0.177278 0.405871 0.341178
Si Si3 0.174853 0.970775 0.844413
Si Si4 0.324059 0.884645 0.969045
Si Si5 0.676566 0.680650 0.535440
Si Si6 0.672507 0.512918 0.392865
Si Si7 0.676093 0.222291 0.149738
Si Si8 0.325186 0.899352 0.344813
O O1 0.750000 0.657763 0.250000
O O2 0.765732 0.574146 0.129511
O O3 0.000000 0.630760 0.175595
O O4 0.792316 0.679253 0.074794
O O5 0.250000 0.377803 0.250000
O O6 0.255196 0.376645 0.427889
O O7 0.217775 0.470715 0.340056
O O8 0.000000 0.396043 0.342565
O O9 0.250000 0.949131 0.750000
O O10 0.249946 0.940815 0.931470
O O11 0.000000 0.955465 0.841039
O O12 0.202710 0.035540 0.856755
O O13 0.500000 0.894283 0.983766
O O14 0.289443 0.836805 0.895451
O O15 0.251200 0.868999 0.067930
O O16 0.500000 0.682722 0.557643
O O17 0.757806 0.732455 0.580736
O O18 0.686052 0.500000 0.500000
O O19 0.500000 0.504508 0.359659
O O20 0.750000 0.225443 0.250000
O O21 0.500000 0.233433 0.161131
O O22 0.250000 0.877935 0.250000
O O23 0.500000 0.884025 0.341948
#
# Coordination Sequence:
#
# PCOD8219611 Si02
#       8
#     8   8   8   8   8   8   8   8
#     4  10  22  39  62  88 118 155 193 238 290 343
#     4  12  24  37  57  86 118 154 194 236 287 347
#     4  10  20  34  55  86 123 162 204 249 298 356
#     4  11  23  38  59  87 121 159 201 247 301 360
#     4  11  23  43  65  86 114 153 195 241 298 350
#     4  10  19  37  59  84 121 157 191 236 286 343
#     4  11  25  44  65  92 120 151 191 243 298 354
#     4  10  21  37  58  86 122 162 205 250 298 351
#
# _framework density 20.635891999999998
#
# number of rings (size 3 to 8) (size 9 to 14) (size 15 to 20)
#    0.000    1.375    1.250    4.500    0.000    8.750 
#    0.000    0.625    0.000    1.500    0.000    0.000 
#    0.000    0.000    0.000    0.000    0.000    0.000 
#
# Total GULP energy -793847.886915 kJ/mol
# GULP energy per Si atom -12403.873233 kJ/mol
# Density = 2.058892 g / cm^3
# Si number density = 20.635892 Si / 1000 Ang^3
#
#
#
# Elastic Constant Matrix: (Units=GPa)
#
#
# Indices 1 2 3 4 5 6 
#
# 1 116.2306 46.3960 69.8437 0.0000 0.0000 0.0000
# 2 46.3960 48.3193 27.7067 0.0000 0.0000 0.0000
# 3 69.8437 27.7067 143.8580 0.0000 0.0000 0.0000
# 4 0.0000 0.0000 0.0000 27.3484 0.0000 0.0000
# 5 0.0000 0.0000 0.0000 0.0000 41.7611 0.0000
# 6 0.0000 0.0000 0.0000 0.0000 0.0000 10.0919
#
#
#
# Elastic Compliance Matrix: (Units=1/GPa)
#
#
# Indices 1 2 3 4 5 6 
#
# 1 0.017522 -0.013430 -0.005920 0.000000 0.000000 0.000000
# 2 -0.013430 0.033558 0.000057 0.000000 0.000000 0.000000
# 3 -0.005920 0.000057 0.009815 0.000000 0.000000 0.000000
# 4 0.000000 0.000000 0.000000 0.036565 0.000000 0.000000
# 5 0.000000 0.000000 0.000000 0.000000 0.023946 0.000000
# 6 0.000000 0.000000 0.000000 0.000000 0.000000 0.099090
#
#
# Mechanical properties :
#
#
# Convention : Reuss Voigt Hill
#
# Bulk Modulus (GPa) = 44.82602 66.25564 55.54083
# Shear Modulus (GPa) = 18.76045 26.80437 22.78241
#
# Velocity S-wave (km/s) = 3.01843 3.60796 3.32628
# Velocity P-wave (km/s) = 5.82386 7.03798 6.45951
#
# Compressibility (1/GPa) = 0.02230847
#
# Stress axis : x y z
#
# Youngs Moduli (GPa) = 57.07103 29.79897 101.88747
#
# Poissons Ratio (x) = 0.40019 0.60322
# Poissons Ratio (y) = 0.76645 -0.00580
# Poissons Ratio (z) = 0.33789 -0.00170
#
# Static dielectric constant tensor:
#      x y z
#    x 3.726230 0.000000 0.000000 
#    y 0.000000 3.551940 0.000000 
#    z 0.000000 0.000000 3.907560 
# 
# 
# High freq. dielectric constant tensor:
#      x y z
#    x 1.812800 0.000000 0.000000 
#    y 0.000000 1.784740 0.000000 
#    z 0.000000 0.000000 1.824610 
# 
# From -- ./inp_files/20835.got.cif
#   From: 2010.03.12/outbox.cif.g09.slc.cpg/sg53_11_cif.got.tgz:20835.got - 2010.04.16 14:36:59.
