data_PCOD8219741
_publ_section_title
;
Structure prediction by ZEFSAII (Michael W. Deem and Ramdas Pophale) SiO2 
 PCOD8219741
Probable space group: P M N A
;
_chemical_formula_sum "Si O2"
_cell_formula_units_Z 64
_cell_length_a 9.298960
_cell_length_b 23.001183
_cell_length_c 15.954188
_cell_angle_alpha 90.000000
_cell_angle_beta 90.000000
_cell_angle_gamma 90.000000
_cell_volume 3412.394696
_symmetry_space_group_name_H-M "P M N A"
_symmetry_group_IT_number 53
_symmetry_cell_setting 'orthorhombic'
loop_
_space_group_symop_operation_xyz
x,y,z
1/2-x,-y,1/2+z
x,-y,-z
1/2-x,y,1/2-z
-x,-y,-z
1/2+x,y,1/2-z
-x,y,z
1/2+x,-y,1/2+z
loop_
_atom_site_type_symbol
_atom_site_label
_atom_site_fract_x
_atom_site_fract_y
_atom_site_fract_z
Si Si1 0.330228 0.134008 0.506308
Si Si2 0.832163 0.074954 0.167611
Si Si3 0.667072 0.940323 0.331859
Si Si4 0.331566 0.253037 0.995619
Si Si5 0.837963 0.644276 0.071487
Si Si6 0.667310 0.534754 0.331919
Si Si7 0.659517 0.412754 0.392752
Si Si8 0.832623 0.689385 0.671588
O O1 0.500000 0.146071 0.505964
O O2 0.281281 0.107325 0.417016
O O3 0.286483 0.091737 0.582694
O O4 0.245336 0.192825 0.522444
O O5 0.750000 0.099406 0.250000
O O6 0.000000 0.084823 0.183490
O O7 0.794471 0.007580 0.154176
O O8 0.750000 0.915734 0.250000
O O9 0.500000 0.930961 0.313717
O O10 0.500000 0.247466 0.977886
O O11 0.266733 0.300378 0.931419
O O12 0.298404 0.271708 0.090658
O O13 0.774769 0.597236 0.136644
O O14 0.000000 0.665149 0.093875
O O15 0.839695 0.609025 0.986355
O O16 0.750000 0.516328 0.250000
O O17 0.500000 0.541547 0.313378
O O18 0.697626 0.481236 0.395226
O O19 0.500000 0.403269 0.353303
O O20 0.774485 0.376188 0.339324
O O21 0.750000 0.718837 0.750000
O O22 0.000000 0.686886 0.691211
#
# Coordination Sequence:
#
# PCOD8219741 Si02
#       8
#     8   8   8   8   8   8   8   8
#     4  10  20  35  56  79 106 143 181 215 257 310
#     4   9  18  33  54  82 115 146 175 210 254 307
#     4   9  18  34  56  82 110 140 176 217 261 309
#     4  10  22  37  52  73 100 130 171 219 257 293
#     4   9  18  35  55  71  93 129 168 202 243 298
#     4  10  20  32  49  75 102 126 156 198 248 301
#     4   9  17  31  52  75  98 125 159 200 246 299
#     4  10  20  33  49  71 100 133 167 205 251 302
#
# _framework density 18.755158999999999
#
# number of rings (size 3 to 8) (size 9 to 14) (size 15 to 20)
#    0.000    2.500    0.000    1.875    0.000    8.000 
#    0.000    3.125    0.000    7.500    0.000    0.000 
#    0.000    0.000    0.000    0.000    0.000    0.000 
#
# Total GULP energy -793444.922815 kJ/mol
# GULP energy per Si atom -12397.576919 kJ/mol
# Density = 1.871247 g / cm^3
# Si number density = 18.755159 Si / 1000 Ang^3
#
#
#
# Elastic Constant Matrix: (Units=GPa)
#
#
# Indices 1 2 3 4 5 6 
#
# 1 56.3570 37.3454 25.2458 0.0000 0.0000 0.0000
# 2 37.3454 100.6309 33.6266 0.0000 0.0000 0.0000
# 3 25.2458 33.6266 68.6970 0.0000 0.0000 0.0000
# 4 0.0000 0.0000 0.0000 51.0842 0.0000 0.0000
# 5 0.0000 0.0000 0.0000 0.0000 29.5514 0.0000
# 6 0.0000 0.0000 0.0000 0.0000 0.0000 24.6435
#
#
#
# Elastic Compliance Matrix: (Units=1/GPa)
#
#
# Indices 1 2 3 4 5 6 
#
# 1 0.025214 -0.007485 -0.005602 0.000000 0.000000 0.000000
# 2 -0.007485 0.014103 -0.004152 0.000000 0.000000 0.000000
# 3 -0.005602 -0.004152 0.018648 0.000000 0.000000 0.000000
# 4 0.000000 0.000000 0.000000 0.019576 0.000000 0.000000
# 5 0.000000 0.000000 0.000000 0.000000 0.033839 0.000000
# 6 0.000000 0.000000 0.000000 0.000000 0.000000 0.040579
#
#
# Mechanical properties :
#
#
# Convention : Reuss Voigt Hill
#
# Bulk Modulus (GPa) = 42.57995 46.45783 44.51889
# Shear Modulus (GPa) = 25.73801 29.68694 27.71247
#
# Velocity S-wave (km/s) = 3.70850 3.98284 3.84812
# Velocity P-wave (km/s) = 6.41012 6.78050 6.59791
#
# Compressibility (1/GPa) = 0.02348523
#
# Stress axis : x y z
#
# Youngs Moduli (GPa) = 39.66116 70.90840 53.62524
#
# Poissons Ratio (x) = 0.53076 0.30041
# Poissons Ratio (y) = 0.29687 0.22267
# Poissons Ratio (z) = 0.22218 0.29444
#
# Static dielectric constant tensor:
#      x y z
#    x 3.444520 0.000000 0.000000 
#    y 0.000000 3.409180 0.000000 
#    z 0.000000 0.000000 3.511270 
# 
# 
# High freq. dielectric constant tensor:
#      x y z
#    x 1.722110 0.000000 0.000000 
#    y 0.000000 1.723320 0.000000 
#    z 0.000000 0.000000 1.722720 
# 
# From -- ./inp_files/20849.got.cif
#   From: 2010.03.12/outbox.cif.g09.slc.cpg/sg53_11_cif.got.tgz:20849.got - 2010.04.16 14:36:59.
