data_PCOD8219231
_publ_section_title
;
Structure prediction by ZEFSAII (Michael W. Deem and Ramdas Pophale) SiO2 
 PCOD8219231
Probable space group: P M N A
;
_chemical_formula_sum "Si O2"
_cell_formula_units_Z 48
_cell_length_a 18.532312
_cell_length_b 8.639744
_cell_length_c 16.268902
_cell_angle_alpha 90.000000
_cell_angle_beta 90.000000
_cell_angle_gamma 90.000000
_cell_volume 2604.885993
_symmetry_space_group_name_H-M "P M N A"
_symmetry_group_IT_number 53
_symmetry_cell_setting 'orthorhombic'
loop_
_space_group_symop_operation_xyz
x,y,z
1/2-x,-y,1/2+z
x,-y,-z
1/2-x,y,1/2-z
-x,-y,-z
1/2+x,y,1/2-z
-x,y,z
1/2+x,-y,1/2+z
loop_
_atom_site_type_symbol
_atom_site_label
_atom_site_fract_x
_atom_site_fract_y
_atom_site_fract_z
Si Si1 0.420370 0.485264 0.390876
Si Si2 0.179439 0.058907 0.202769
Si Si3 0.198197 0.266067 0.866680
Si Si4 0.311307 0.734472 0.549692
Si Si5 0.286375 0.548385 0.833812
Si Si6 0.579654 0.295231 0.226095
O O1 0.500000 0.538688 0.420108
O O2 0.372615 0.628604 0.361797
O O3 0.382255 0.377191 0.460718
O O4 0.426604 0.374235 0.313433
O O5 0.250000 0.117939 0.250000
O O6 0.175060 0.121935 0.109655
O O7 0.113283 0.123431 0.258287
O O8 0.181956 0.873502 0.195720
O O9 0.269776 0.363450 0.839360
O O10 0.210586 0.204757 0.959811
O O11 0.248495 0.626936 0.586538
O O12 0.250000 0.613642 0.750000
O O13 0.370770 0.595283 0.832458
O O14 0.500000 0.277480 0.185803
#
# Coordination Sequence:
#
# PCOD8219231 Si02
#       6
#     8   8   8   8   8   8
#     4   9  18  32  50  75 109 145 175 207 256 310
#     4  11  20  36  54  76 104 138 176 217 264 313
#     4  11  22  29  54  82 109 134 174 227 265 307
#     4  10  19  34  51  78 106 141 177 213 264 318
#     4  11  16  35  55  77 101 137 181 219 256 302
#     4  10  19  34  56  76 103 142 180 215 257 313
#
# _framework density 18.426909999999999
#
# number of rings (size 3 to 8) (size 9 to 14) (size 15 to 20)
#    0.000    1.667    6.667    3.000    0.000    2.000 
#    0.000    0.000    0.000    7.000    0.000    1.167 
#    0.000    0.000    0.000    0.000    0.000    0.000 
#
# Total GULP energy -594829.707441 kJ/mol
# GULP energy per Si atom -12392.285572 kJ/mol
# Density = 1.838497 g / cm^3
# Si number density = 18.426910 Si / 1000 Ang^3
#
#
#
# Elastic Constant Matrix: (Units=GPa)
#
#
# Indices 1 2 3 4 5 6 
#
# 1 146.3419 51.7242 28.9892 0.0000 0.0000 0.0000
# 2 51.7242 112.7990 11.5015 0.0000 0.0000 0.0000
# 3 28.9892 11.5015 41.0613 0.0000 0.0000 0.0000
# 4 0.0000 0.0000 0.0000 26.8616 0.0000 0.0000
# 5 0.0000 0.0000 0.0000 0.0000 14.1675 0.0000
# 6 0.0000 0.0000 0.0000 0.0000 0.0000 16.1273
#
#
#
# Elastic Compliance Matrix: (Units=1/GPa)
#
#
# Indices 1 2 3 4 5 6 
#
# 1 0.009215 -0.003667 -0.005478 0.000000 0.000000 0.000000
# 2 -0.003667 0.010585 -0.000376 0.000000 0.000000 0.000000
# 3 -0.005478 -0.000376 0.028327 0.000000 0.000000 0.000000
# 4 0.000000 0.000000 0.000000 0.037228 0.000000 0.000000
# 5 0.000000 0.000000 0.000000 0.000000 0.070584 0.000000
# 6 0.000000 0.000000 0.000000 0.000000 0.000000 0.062007
#
#
# Mechanical properties :
#
#
# Convention : Reuss Voigt Hill
#
# Bulk Modulus (GPa) = 34.38335 53.84801 44.11568
# Shear Modulus (GPa) = 20.26899 25.29710 22.78304
#
# Velocity S-wave (km/s) = 3.32017 3.70920 3.52006
# Velocity P-wave (km/s) = 5.77909 6.90146 6.36506
#
# Compressibility (1/GPa) = 0.02908384
#
# Stress axis : x y z
#
# Youngs Moduli (GPa) = 108.52407 94.47253 35.30212
#
# Poissons Ratio (x) = 0.34641 0.19340
# Poissons Ratio (y) = 0.39793 0.01328
# Poissons Ratio (z) = 0.59454 0.03554
#
# Static dielectric constant tensor:
#      x y z
#    x 3.890180 0.000000 0.000000 
#    y 0.000000 3.325640 0.000000 
#    z 0.000000 0.000000 3.282970 
# 
# 
# High freq. dielectric constant tensor:
#      x y z
#    x 1.693560 0.000000 0.000000 
#    y 0.000000 1.713360 0.000000 
#    z 0.000000 0.000000 1.701950 
# 
# From -- ./inp_files/24196.got.cif
#   From: 2010.03.12/outbox.cif.g09.slc.cpg/sg53_13_cif.got.tgz:24196.got - 2010.04.16 14:36:59.
