data_PCOD8219434
_publ_section_title
;
Structure prediction by ZEFSAII (Michael W. Deem and Ramdas Pophale) SiO2 
 PCOD8219434
Probable space group: P M N A
;
_chemical_formula_sum "Si O2"
_cell_formula_units_Z 56
_cell_length_a 8.808638
_cell_length_b 19.097099
_cell_length_c 17.200975
_cell_angle_alpha 90.000000
_cell_angle_beta 90.000000
_cell_angle_gamma 90.000000
_cell_volume 2893.538243
_symmetry_space_group_name_H-M "P M N A"
_symmetry_group_IT_number 53
_symmetry_cell_setting 'orthorhombic'
loop_
_space_group_symop_operation_xyz
x,y,z
1/2-x,-y,1/2+z
x,-y,-z
1/2-x,y,1/2-z
-x,-y,-z
1/2+x,y,1/2-z
-x,y,z
1/2+x,-y,1/2+z
loop_
_atom_site_type_symbol
_atom_site_label
_atom_site_fract_x
_atom_site_fract_y
_atom_site_fract_z
Si Si1 0.179658 0.331625 0.166147
Si Si2 0.328413 0.276872 0.602367
Si Si3 0.169557 0.790362 0.935928
Si Si4 0.320179 0.144104 0.830002
Si Si5 0.322352 0.474338 0.414590
Si Si6 0.679970 0.921477 0.477507
Si Si7 0.178846 0.403658 0.669001
O O1 0.250000 0.346863 0.250000
O O2 0.247909 0.258170 0.130658
O O3 0.217435 0.393576 0.104594
O O4 0.000000 0.325831 0.175925
O O5 0.500000 0.282453 0.634376
O O6 0.329182 0.254791 0.513617
O O7 0.236805 0.222675 0.655542
O O8 0.245426 0.351456 0.604202
O O9 0.000000 0.804743 0.906835
O O10 0.242523 0.866846 0.955912
O O11 0.250000 0.115578 0.750000
O O12 0.500000 0.142856 0.825717
O O13 0.263336 0.092263 0.896961
O O14 0.269394 0.500000 0.500000
O O15 0.500000 0.489499 0.403629
O O16 0.229372 0.518042 0.351184
O O17 0.500000 0.909005 0.466084
O O18 0.720483 0.000000 0.500000
O O19 0.250000 0.379667 0.750000
O O20 0.000000 0.398548 0.672939
#
# Coordination Sequence:
#
# PCOD8219434 Si02
#       7
#     8   8   8   8   8   8   8
#     4  10  20  35  55  78 105 139 180 225 273 326
#     4  10  19  35  57  79 105 139 180 223 270 326
#     4   8  16  33  57  80 103 137 178 216 261 322
#     4  11  21  34  53  80 113 146 182 223 272 330
#     4  10  21  38  58  77 100 136 181 228 281 336
#     4   9  18  35  59  84 111 145 184 227 276 330
#     4  12  24  36  51  75 107 140 175 218 269 322
#
# _framework density 19.353467999999999
#
# number of rings (size 3 to 8) (size 9 to 14) (size 15 to 20)
#    0.000    2.000    0.000    5.571    0.000    4.571 
#    0.000    5.714    0.000    1.714    0.000    0.000 
#    0.000    0.000    0.000    0.000    0.000    0.000 
#
# Total GULP energy -694180.665852 kJ/mol
# GULP energy per Si atom -12396.083319 kJ/mol
# Density = 1.930942 g / cm^3
# Si number density = 19.353468 Si / 1000 Ang^3
#
#
#
# Elastic Constant Matrix: (Units=GPa)
#
#
# Indices 1 2 3 4 5 6 
#
# 1 92.0845 42.5767 31.9698 0.0000 0.0000 0.0000
# 2 42.5767 141.2202 53.7029 0.0000 0.0000 0.0000
# 3 31.9698 53.7029 94.3247 0.0000 0.0000 0.0000
# 4 0.0000 0.0000 0.0000 22.9165 0.0000 0.0000
# 5 0.0000 0.0000 0.0000 0.0000 25.5670 0.0000
# 6 0.0000 0.0000 0.0000 0.0000 0.0000 10.8116
#
#
#
# Elastic Compliance Matrix: (Units=1/GPa)
#
#
# Indices 1 2 3 4 5 6 
#
# 1 0.013179 -0.002903 -0.002814 0.000000 0.000000 0.000000
# 2 -0.002903 0.009678 -0.004526 0.000000 0.000000 0.000000
# 3 -0.002814 -0.004526 0.014132 0.000000 0.000000 0.000000
# 4 0.000000 0.000000 0.000000 0.043637 0.000000 0.000000
# 5 0.000000 0.000000 0.000000 0.000000 0.039113 0.000000
# 6 0.000000 0.000000 0.000000 0.000000 0.000000 0.092494
#
#
# Mechanical properties :
#
#
# Convention : Reuss Voigt Hill
#
# Bulk Modulus (GPa) = 60.59608 64.90314 62.74961
# Shear Modulus (GPa) = 20.98915 25.15100 23.07008
#
# Velocity S-wave (km/s) = 3.29677 3.60885 3.45634
# Velocity P-wave (km/s) = 6.77272 7.13958 6.95857
#
# Compressibility (1/GPa) = 0.01650272
#
# Stress axis : x y z
#
# Youngs Moduli (GPa) = 75.87901 103.33239 70.76096
#
# Poissons Ratio (x) = 0.30000 0.19911
# Poissons Ratio (y) = 0.22030 0.32025
# Poissons Ratio (z) = 0.21351 0.46766
#
# Static dielectric constant tensor:
#      x y z
#    x 3.363510 0.000000 0.000000 
#    y 0.000000 3.689290 0.000000 
#    z 0.000000 0.000000 3.485670 
# 
# 
# High freq. dielectric constant tensor:
#      x y z
#    x 1.734660 0.000000 0.000000 
#    y 0.000000 1.755220 0.000000 
#    z 0.000000 0.000000 1.748600 
# 
# From -- ./inp_files/20471.got.cif
#   From: 2010.03.12/outbox.cif.g09.slc.cpg/sg53_11_cif.got.tgz:20471.got - 2010.04.16 14:36:59.
