data_PCOD8219006
_publ_section_title
;
Structure prediction by ZEFSAII (Michael W. Deem and Ramdas Pophale) SiO2 
 PCOD8219006
Probable space group: P M N A
;
_chemical_formula_sum "Si O2"
_cell_formula_units_Z 36
_cell_length_a 25.233300
_cell_length_b 10.040117
_cell_length_c 7.215017
_cell_angle_alpha 90.000000
_cell_angle_beta 90.000000
_cell_angle_gamma 90.000000
_cell_volume 1827.890533
_symmetry_space_group_name_H-M "P M N A"
_symmetry_group_IT_number 53
_symmetry_cell_setting 'orthorhombic'
loop_
_space_group_symop_operation_xyz
x,y,z
1/2-x,-y,1/2+z
x,-y,-z
1/2-x,y,1/2-z
-x,-y,-z
1/2+x,y,1/2-z
-x,y,z
1/2+x,-y,1/2+z
loop_
_atom_site_type_symbol
_atom_site_label
_atom_site_fract_x
_atom_site_fract_y
_atom_site_fract_z
Si Si1 0.364744 0.500000 0.500000
Si Si2 0.061044 0.930922 0.741623
Si Si3 0.441169 0.721404 0.468215
Si Si4 0.196304 0.390659 0.658929
Si Si5 0.602539 0.196222 0.895649
O O1 0.400634 0.622912 0.566003
O O2 0.330667 0.528709 0.321862
O O3 0.074268 0.811673 0.595332
O O4 0.000000 0.980672 0.713638
O O5 0.103134 0.048074 0.697752
O O6 0.068076 0.870410 0.947952
O O7 0.500000 0.673112 0.516022
O O8 0.432731 0.717382 0.246669
O O9 0.207648 0.500000 0.500000
O O10 0.250000 0.331558 0.750000
O O11 0.160773 0.264842 0.589238
#
# Coordination Sequence:
#
# PCOD8219006 Si02
#       5
#     4   8   8   8   8
#     4  10  21  36  56  84 110 142 185 230 270 328
#     4  10  19  34  57  83 116 151 177 210 272 338
#     4  10  19  32  54  84 116 147 177 217 268 326
#     4  11  22  39  60  77 101 141 189 235 285 327
#     4  10  20  33  55  79 110 142 186 223 264 331
#
# _framework density 19.694835000000001
#
# number of rings (size 3 to 8) (size 9 to 14) (size 15 to 20)
#    0.000    1.778    1.111    5.000    0.000    1.778 
#    0.000    0.000   19.556   14.000    0.000    0.000 
#    0.000    0.000    0.000    0.000    0.000    0.000 
#
# Total GULP energy -446072.271384 kJ/mol
# GULP energy per Si atom -12390.896427 kJ/mol
# Density = 1.965001 g / cm^3
# Si number density = 19.694835 Si / 1000 Ang^3
#
#
#
# Elastic Constant Matrix: (Units=GPa)
#
#
# Indices 1 2 3 4 5 6 
#
# 1 107.8293 43.7231 17.5176 0.0000 0.0000 0.0000
# 2 43.7231 74.2267 0.8266 0.0000 0.0000 0.0000
# 3 17.5176 0.8266 50.3900 0.0000 0.0000 0.0000
# 4 0.0000 0.0000 0.0000 24.1652 0.0000 0.0000
# 5 0.0000 0.0000 0.0000 0.0000 192.5633 0.0000
# 6 0.0000 0.0000 0.0000 0.0000 0.0000 28.1885
#
#
#
# Elastic Compliance Matrix: (Units=1/GPa)
#
#
# Indices 1 2 3 4 5 6 
#
# 1 0.013103 -0.007669 -0.004429 0.000000 0.000000 0.000000
# 2 -0.007669 0.017963 0.002371 0.000000 0.000000 0.000000
# 3 -0.004429 0.002371 0.021346 0.000000 0.000000 0.000000
# 4 0.000000 0.000000 0.000000 0.041382 0.000000 0.000000
# 5 0.000000 0.000000 0.000000 0.000000 0.005193 0.000000
# 6 0.000000 0.000000 0.000000 0.000000 0.000000 0.035475
#
#
# Mechanical properties :
#
#
# Convention : Reuss Voigt Hill
#
# Bulk Modulus (GPa) = 30.34119 39.62007 34.98063
# Shear Modulus (GPa) = 30.32079 60.34198 45.33138
#
# Velocity S-wave (km/s) = 3.92794 5.54121 4.80280
# Velocity P-wave (km/s) = 6.00089 7.81669 6.96819
#
# Compressibility (1/GPa) = 0.03295850
#
# Stress axis : x y z
#
# Youngs Moduli (GPa) = 76.31722 55.66901 46.84687
#
# Poissons Ratio (x) = 0.42693 0.20750
# Poissons Ratio (y) = 0.58528 -0.11109
# Poissons Ratio (z) = 0.33804 -0.13201
#
# Static dielectric constant tensor:
#      x y z
#    x 3.561020 0.000000 0.000000 
#    y 0.000000 3.543480 0.000000 
#    z 0.000000 0.000000 4.011310 
# 
# 
# High freq. dielectric constant tensor:
#      x y z
#    x 1.746610 0.000000 0.000000 
#    y 0.000000 1.756720 0.000000 
#    z 0.000000 0.000000 1.786000 
# 
# From -- ./inp_files/11587.got.cif
#   From: 2010.03.12/outbox.cif.g09.slc.cpg/sg53_6_cif.got.tgz:11587.got - 2010.04.16 14:36:59.
