data_PCOD8219439
_publ_section_title
;
Structure prediction by ZEFSAII (Michael W. Deem and Ramdas Pophale) SiO2 
 PCOD8219439
Probable space group: P M N A
;
_chemical_formula_sum "Si O2"
_cell_formula_units_Z 64
_cell_length_a 17.650856
_cell_length_b 20.201506
_cell_length_c 9.638666
_cell_angle_alpha 90.000000
_cell_angle_beta 90.000000
_cell_angle_gamma 90.000000
_cell_volume 3436.896470
_symmetry_space_group_name_H-M "P M N A"
_symmetry_group_IT_number 53
_symmetry_cell_setting 'orthorhombic'
loop_
_space_group_symop_operation_xyz
x,y,z
1/2-x,-y,1/2+z
x,-y,-z
1/2-x,y,1/2-z
-x,-y,-z
1/2+x,y,1/2-z
-x,y,z
1/2+x,-y,1/2+z
loop_
_atom_site_type_symbol
_atom_site_label
_atom_site_fract_x
_atom_site_fract_y
_atom_site_fract_z
Si Si1 0.586247 0.378700 0.185455
Si Si2 0.337426 0.745450 0.713012
Si Si3 0.200458 0.186579 0.951013
Si Si4 0.415303 0.846327 0.914601
Si Si5 0.913667 0.361551 0.637212
Si Si6 0.857114 0.220086 0.668098
Si Si7 0.774472 0.935645 0.593664
Si Si8 0.175451 0.508403 0.339502
O O1 0.500000 0.374980 0.237931
O O2 0.638982 0.331101 0.277847
O O3 0.614479 0.453347 0.203918
O O4 0.592908 0.354833 0.027697
O O5 0.250000 0.757802 0.750000
O O6 0.348906 0.768657 0.554980
O O7 0.390931 0.787731 0.812401
O O8 0.278329 0.224668 0.916204
O O9 0.152570 0.177884 0.809680
O O10 0.217090 0.116421 0.023483
O O11 0.500000 0.869589 0.876547
O O12 0.360023 0.908728 0.901665
O O13 0.416850 0.818205 0.071758
O O14 0.884557 0.293732 0.705608
O O15 0.861892 0.420915 0.693151
O O16 0.000000 0.375424 0.681786
O O17 0.750000 0.952516 0.750000
O O18 0.772145 0.000000 0.500000
O O19 0.197531 0.500000 0.500000
O O20 0.250000 0.499643 0.250000
#
# Coordination Sequence:
#
# PCOD8219439 Si02
#       8
#     8   8   8   8   8   8   8   8
#     4  10  20  35  58  86 112 149 197 247 298 354
#     4  12  18  36  61  88 117 152 200 247 295 341
#     4  10  21  37  58  92 120 149 193 249 290 338
#     4  11  21  38  61  89 124 159 195 243 293 344
#     4  10  19  35  57  82 113 152 196 240 293 356
#     4  10  20  34  59  88 120 154 195 245 294 348
#     4  11  23  41  67  93 119 157 200 241 287 350
#     4  10  22  38  57  80 110 152 196 247 296 349
#
# _framework density 18.621451
#
# number of rings (size 3 to 8) (size 9 to 14) (size 15 to 20)
#    0.000    1.500    5.000    1.500    5.250    2.750 
#    0.000    2.500    0.000    1.125    0.000    0.000 
#    0.000    0.000    0.000    0.000    0.000    0.000 
#
# Total GULP energy -793767.595739 kJ/mol
# GULP energy per Si atom -12402.618683 kJ/mol
# Density = 1.857907 g / cm^3
# Si number density = 18.621451 Si / 1000 Ang^3
#
#
#
# Elastic Constant Matrix: (Units=GPa)
#
#
# Indices 1 2 3 4 5 6 
#
# 1 89.4284 34.7814 44.2313 0.0000 0.0000 0.0000
# 2 34.7814 105.8880 45.3284 0.0000 0.0000 0.0000
# 3 44.2313 45.3284 102.1307 0.0000 0.0000 0.0000
# 4 0.0000 0.0000 0.0000 27.2251 0.0000 0.0000
# 5 0.0000 0.0000 0.0000 0.0000 19.1661 0.0000
# 6 0.0000 0.0000 0.0000 0.0000 0.0000 16.8512
#
#
#
# Elastic Compliance Matrix: (Units=1/GPa)
#
#
# Indices 1 2 3 4 5 6 
#
# 1 0.014794 -0.002613 -0.005247 0.000000 0.000000 0.000000
# 2 -0.002613 0.012121 -0.004248 0.000000 0.000000 0.000000
# 3 -0.005247 -0.004248 0.013949 0.000000 0.000000 0.000000
# 4 0.000000 0.000000 0.000000 0.036731 0.000000 0.000000
# 5 0.000000 0.000000 0.000000 0.000000 0.052176 0.000000
# 6 0.000000 0.000000 0.000000 0.000000 0.000000 0.059343
#
#
# Mechanical properties :
#
#
# Convention : Reuss Voigt Hill
#
# Bulk Modulus (GPa) = 60.06960 60.68104 60.37532
# Shear Modulus (GPa) = 22.84378 24.18887 23.51632
#
# Velocity S-wave (km/s) = 3.50629 3.60804 3.55753
# Velocity P-wave (km/s) = 6.98000 7.07211 7.02620
#
# Compressibility (1/GPa) = 0.01664736
#
# Stress axis : x y z
#
# Youngs Moduli (GPa) = 67.59627 82.50361 71.68907
#
# Poissons Ratio (x) = 0.21559 0.37616
# Poissons Ratio (y) = 0.17664 0.30452
# Poissons Ratio (z) = 0.35469 0.35046
#
# Static dielectric constant tensor:
#      x y z
#    x 3.371530 0.000000 0.000000 
#    y 0.000000 3.370590 0.000000 
#    z 0.000000 0.000000 3.467600 
# 
# 
# High freq. dielectric constant tensor:
#      x y z
#    x 1.716060 0.000000 0.000000 
#    y 0.000000 1.718950 0.000000 
#    z 0.000000 0.000000 1.714720 
# 
# From -- ./inp_files/10217.got.cif
#   From: 2010.03.12/outbox.cif.g09.slc.cpg/sg53_6_cif.got.tgz:10217.got - 2010.04.16 14:36:59.
