data_PCOD8219654
_publ_section_title
;
Structure prediction by ZEFSAII (Michael W. Deem and Ramdas Pophale) SiO2 
 PCOD8219654
Probable space group: P M N A
;
_chemical_formula_sum "Si O2"
_cell_formula_units_Z 48
_cell_length_a 9.025608
_cell_length_b 18.557391
_cell_length_c 14.615917
_cell_angle_alpha 90.000000
_cell_angle_beta 90.000000
_cell_angle_gamma 90.000000
_cell_volume 2448.045321
_symmetry_space_group_name_H-M "P M N A"
_symmetry_group_IT_number 53
_symmetry_cell_setting 'orthorhombic'
loop_
_space_group_symop_operation_xyz
x,y,z
1/2-x,-y,1/2+z
x,-y,-z
1/2-x,y,1/2-z
-x,-y,-z
1/2+x,y,1/2-z
-x,y,z
1/2+x,-y,1/2+z
loop_
_atom_site_type_symbol
_atom_site_label
_atom_site_fract_x
_atom_site_fract_y
_atom_site_fract_z
Si Si1 0.327111 0.481397 0.348331
Si Si2 0.326067 0.388390 0.520611
Si Si3 0.830030 0.836484 0.661414
Si Si4 0.828215 0.760667 0.477239
Si Si5 0.331052 0.993796 0.892234
Si Si6 0.824771 0.865033 0.159906
O O1 0.250000 0.472486 0.250000
O O2 0.500000 0.476572 0.329011
O O3 0.279880 0.419315 0.420771
O O4 0.287321 0.556689 0.397364
O O5 0.500000 0.370282 0.521037
O O6 0.231045 0.318439 0.543663
O O7 0.750000 0.805203 0.750000
O O8 0.804471 0.777479 0.583534
O O9 0.768289 0.915355 0.634633
O O10 0.000000 0.845591 0.685049
O O11 0.734430 0.820450 0.425273
O O12 0.000000 0.766739 0.448650
O O13 0.500000 0.007024 0.858500
O O14 0.222787 0.051705 0.847003
O O15 0.324693 0.000000 0.000000
O O16 0.750000 0.830928 0.250000
O O17 0.000000 0.858700 0.165850
#
# Coordination Sequence:
#
# PCOD8219654 Si02
#       6
#     8   8   8   8   8   8
#     4   9  19  37  62  88 119 152 190 232 281 337
#     4   9  20  39  59  85 119 156 189 232 285 341
#     4  10  22  38  58  82 113 152 193 239 294 346
#     4  11  23  41  60  84 118 157 195 240 293 347
#     4  10  19  38  62  83 114 151 190 246 300 347
#     4  12  25  40  60  86 115 152 198 246 296 354
#
# _framework density 19.607479000000001
#
# number of rings (size 3 to 8) (size 9 to 14) (size 15 to 20)
#    0.000    1.833    1.667    3.500    0.000    6.333 
#    0.000    6.667    0.000    0.000    0.000    0.000 
#    0.000    0.000    0.000    0.000    0.000    0.000 
#
# Total GULP energy -595234.426872 kJ/mol
# GULP energy per Si atom -12400.717227 kJ/mol
# Density = 1.956285 g / cm^3
# Si number density = 19.607479 Si / 1000 Ang^3
#
#
#
# Elastic Constant Matrix: (Units=GPa)
#
#
# Indices 1 2 3 4 5 6 
#
# 1 93.5848 26.4386 33.4881 0.0000 0.0000 0.0000
# 2 26.4386 65.4210 -6.0369 0.0000 0.0000 0.0000
# 3 33.4881 -6.0369 78.1665 0.0000 0.0000 0.0000
# 4 0.0000 0.0000 0.0000 13.9858 0.0000 0.0000
# 5 0.0000 0.0000 0.0000 0.0000 36.0178 0.0000
# 6 0.0000 0.0000 0.0000 0.0000 0.0000 -41.9980
#
#
#
# Elastic Compliance Matrix: (Units=1/GPa)
#
#
# Indices 1 2 3 4 5 6 
#
# 1 0.015090 -0.006743 -0.006986 0.000000 0.000000 0.000000
# 2 -0.006743 0.018408 0.004311 0.000000 0.000000 0.000000
# 3 -0.006986 0.004311 0.016119 0.000000 0.000000 0.000000
# 4 0.000000 0.000000 0.000000 0.071501 0.000000 0.000000
# 5 0.000000 0.000000 0.000000 0.000000 0.027764 0.000000
# 6 0.000000 0.000000 0.000000 0.000000 0.000000 -0.023811
#
#
# Mechanical properties :
#
#
# Convention : Reuss Voigt Hill
#
# Bulk Modulus (GPa) = 32.48736 38.32798 35.40767
# Shear Modulus (GPa) = 32.43192 13.81994 23.12593
#
# Velocity S-wave (km/s) = 4.07142 2.65774 3.43803
# Velocity P-wave (km/s) = 6.22148 5.38593 5.81872
#
# Compressibility (1/GPa) = 0.03078120
#
# Stress axis : x y z
#
# Youngs Moduli (GPa) = 66.26808 54.32294 62.03876
#
# Poissons Ratio (x) = 0.36630 0.43339
# Poissons Ratio (y) = 0.44685 -0.26742
# Poissons Ratio (z) = 0.46293 -0.23416
#
# Static dielectric constant tensor:
#      x y z
#    x 3.478840 0.000000 0.000000 
#    y 0.000000 3.515990 0.000000 
#    z 0.000000 0.000000 3.950140 
# 
# 
# High freq. dielectric constant tensor:
#      x y z
#    x 1.758530 0.000000 0.000000 
#    y 0.000000 1.759340 0.000000 
#    z 0.000000 0.000000 1.774550 
# 
# From -- ./inp_files/20154.got.cif
#   From: 2010.03.12/outbox.cif.g09.slc.cpg/sg53_11_cif.got.tgz:20154.got - 2010.04.16 14:36:59.
