data_PCOD8219016
_publ_section_title
;
Structure prediction by ZEFSAII (Michael W. Deem and Ramdas Pophale) SiO2 
 PCOD8219016
Probable space group: P M N A
;
_chemical_formula_sum "Si O2"
_cell_formula_units_Z 64
_cell_length_a 14.762467
_cell_length_b 9.390836
_cell_length_c 22.624200
_cell_angle_alpha 90.000000
_cell_angle_beta 90.000000
_cell_angle_gamma 90.000000
_cell_volume 3136.435980
_symmetry_space_group_name_H-M "P M N A"
_symmetry_group_IT_number 53
_symmetry_cell_setting 'orthorhombic'
loop_
_space_group_symop_operation_xyz
x,y,z
1/2-x,-y,1/2+z
x,-y,-z
1/2-x,y,1/2-z
-x,-y,-z
1/2+x,y,1/2-z
-x,y,z
1/2+x,-y,1/2+z
loop_
_atom_site_type_symbol
_atom_site_label
_atom_site_fract_x
_atom_site_fract_y
_atom_site_fract_z
Si Si1 0.604916 0.365289 0.708259
Si Si2 0.289810 0.147052 0.405192
Si Si3 0.400067 0.452351 0.836921
Si Si4 0.898185 0.140681 0.885444
Si Si5 0.268630 0.377357 0.316108
Si Si6 0.661665 0.340020 0.514865
Si Si7 0.099805 0.882635 0.544579
Si Si8 0.867150 0.365217 0.537019
O O1 0.500000 0.398140 0.696146
O O2 0.626332 0.357570 0.778889
O O3 0.631509 0.216428 0.676369
O O4 0.661684 0.492362 0.678938
O O5 0.311104 0.239634 0.347305
O O6 0.333678 0.235499 0.458663
O O7 0.180117 0.136476 0.408206
O O8 0.331772 0.989892 0.400289
O O9 0.500000 0.520160 0.826464
O O10 0.326599 0.577137 0.846568
O O11 0.404243 0.357907 0.895981
O O12 0.899377 0.261053 0.936564
O O13 0.000000 0.079921 0.880049
O O14 0.250000 0.329513 0.250000
O O15 0.623813 0.500000 0.500000
O O16 0.759754 0.356061 0.543207
O O17 0.085115 0.752994 0.500998
O O18 0.000000 0.915500 0.573576
O O19 0.136148 0.000000 0.500000
O O20 0.897907 0.500000 0.500000
#
# Coordination Sequence:
#
# PCOD8219016 Si02
#       8
#     8   8   8   8   8   8   8   8
#     4   9  20  39  61  83 110 147 193 243 289 337
#     4  11  22  37  57  83 118 151 187 236 289 345
#     4  10  19  33  58  89 116 145 187 236 281 332
#     4  11  23  39  59  83 112 150 195 243 298 348
#     4  10  21  38  59  84 112 149 192 231 280 339
#     4  10  20  36  58  84 115 149 188 238 291 347
#     4  10  21  36  53  77 112 149 179 214 270 338
#     4  10  19  32  55  86 116 146 180 221 275 337
#
# _framework density 20.405325999999999
#
# number of rings (size 3 to 8) (size 9 to 14) (size 15 to 20)
#    0.000    1.875    0.000    6.000    0.000    4.250 
#    0.000    4.375    0.000    1.500    0.000    0.000 
#    0.000    0.000    0.000    0.000    0.000    0.000 
#
# Total GULP energy -793164.736870 kJ/mol
# GULP energy per Si atom -12393.199014 kJ/mol
# Density = 2.035888 g / cm^3
# Si number density = 20.405326 Si / 1000 Ang^3
#
#
#
# Elastic Constant Matrix: (Units=GPa)
#
#
# Indices 1 2 3 4 5 6 
#
# 1 77.1675 38.4372 37.3543 0.0000 0.0000 0.0000
# 2 38.4372 132.0823 56.5020 0.0000 0.0000 0.0000
# 3 37.3543 56.5020 105.0687 0.0000 0.0000 0.0000
# 4 0.0000 0.0000 0.0000 26.2697 0.0000 0.0000
# 5 0.0000 0.0000 0.0000 0.0000 14.0439 0.0000
# 6 0.0000 0.0000 0.0000 0.0000 0.0000 14.6547
#
#
#
# Elastic Compliance Matrix: (Units=1/GPa)
#
#
# Indices 1 2 3 4 5 6 
#
# 1 0.016508 -0.002979 -0.004267 0.000000 0.000000 0.000000
# 2 -0.002979 0.010370 -0.004518 0.000000 0.000000 0.000000
# 3 -0.004267 -0.004518 0.013464 0.000000 0.000000 0.000000
# 4 0.000000 0.000000 0.000000 0.038067 0.000000 0.000000
# 5 0.000000 0.000000 0.000000 0.000000 0.071205 0.000000
# 6 0.000000 0.000000 0.000000 0.000000 0.000000 0.068237
#
#
# Mechanical properties :
#
#
# Convention : Reuss Voigt Hill
#
# Bulk Modulus (GPa) = 59.46934 64.32282 61.89608
# Shear Modulus (GPa) = 20.24416 23.12867 21.68642
#
# Velocity S-wave (km/s) = 3.15318 3.37035 3.26357
# Velocity P-wave (km/s) = 6.51644 6.83642 6.67835
#
# Compressibility (1/GPa) = 0.01681539
#
# Stress axis : x y z
#
# Youngs Moduli (GPa) = 60.57638 96.42747 74.27078
#
# Poissons Ratio (x) = 0.28722 0.31693
# Poissons Ratio (y) = 0.18043 0.33555
# Poissons Ratio (z) = 0.25849 0.43565
#
# Static dielectric constant tensor:
#      x y z
#    x 3.715660 0.000000 0.000000 
#    y 0.000000 3.603280 0.000000 
#    z 0.000000 0.000000 3.740480 
# 
# 
# High freq. dielectric constant tensor:
#      x y z
#    x 1.805070 0.000000 0.000000 
#    y 0.000000 1.783440 0.000000 
#    z 0.000000 0.000000 1.795370 
# 
# From -- ./inp_files/35339.got.cif
#   From: 2010.03.12/outbox.cif.g09.slc.cpg/sg53_18_cif.got.tgz:35339.got - 2010.04.16 14:36:59.
