data_PCOD8219835
_publ_section_title
;
Structure prediction by ZEFSAII (Michael W. Deem and Ramdas Pophale) SiO2 
 PCOD8219835
Probable space group: P M N A
;
_chemical_formula_sum "Si O2"
_cell_formula_units_Z 64
_cell_length_a 8.731647
_cell_length_b 14.598180
_cell_length_c 27.292038
_cell_angle_alpha 90.000000
_cell_angle_beta 90.000000
_cell_angle_gamma 90.000000
_cell_volume 3478.811135
_symmetry_space_group_name_H-M "P M N A"
_symmetry_group_IT_number 53
_symmetry_cell_setting 'orthorhombic'
loop_
_space_group_symop_operation_xyz
x,y,z
1/2-x,-y,1/2+z
x,-y,-z
1/2-x,y,1/2-z
-x,-y,-z
1/2+x,y,1/2-z
-x,y,z
1/2+x,-y,1/2+z
loop_
_atom_site_type_symbol
_atom_site_label
_atom_site_fract_x
_atom_site_fract_y
_atom_site_fract_z
Si Si1 0.181013 0.470910 0.607381
Si Si2 0.181229 0.855047 0.301129
Si Si3 0.179903 0.353827 0.699569
Si Si4 0.819376 0.970623 0.111330
Si Si5 0.821928 0.341162 0.969066
Si Si6 0.822075 0.848037 0.468294
Si Si7 0.320660 0.154599 0.082507
Si Si8 0.321555 0.345496 0.416945
O O1 0.238576 0.416944 0.655329
O O2 0.264730 0.429266 0.560140
O O3 0.232325 0.575999 0.612760
O O4 0.000000 0.463357 0.600343
O O5 0.250000 0.890708 0.250000
O O6 0.233104 0.750291 0.310458
O O7 0.247762 0.915414 0.344234
O O8 0.000000 0.865092 0.299894
O O9 0.250000 0.391506 0.750000
O O10 0.000000 0.359662 0.704779
O O11 0.773011 0.924601 0.060075
O O12 0.000000 0.972810 0.116571
O O13 0.754805 0.073350 0.113348
O O14 0.728511 0.252624 0.950583
O O15 0.000000 0.323246 0.959317
O O16 0.788611 0.360015 0.025749
O O17 0.786097 0.861353 0.525298
O O18 0.000000 0.861249 0.455862
O O19 0.500000 0.158784 0.093089
O O20 0.244164 0.248441 0.100764
O O21 0.500000 0.350502 0.404537
#
# Coordination Sequence:
#
# PCOD8219835 Si02
#       8
#     8   8   8   8   8   8   8   8
#     4  11  21  33  52  78 106 139 178 215 258 313
#     4  10  20  37  58  81 110 140 173 215 263 315
#     4   9  20  36  55  79 106 135 168 209 256 308
#     4  12  23  34  53  80 108 141 179 217 262 315
#     4  10  20  33  50  75 107 141 177 217 261 310
#     4  10  20  34  52  76 107 142 179 218 263 315
#     4  10  21  37  55  75 103 141 181 222 267 312
#     4  10  21  36  52  74 105 140 179 221 262 307
#
# _framework density 18.397089999999999
#
# number of rings (size 3 to 8) (size 9 to 14) (size 15 to 20)
#    0.000    1.750    0.000    4.875    0.000    8.500 
#    0.000    0.000    0.000    0.750    0.000    3.500 
#    0.000    0.000    0.000    0.000    0.000    0.000 
#
# Total GULP energy -793972.055095 kJ/mol
# GULP energy per Si atom -12405.813361 kJ/mol
# Density = 1.835522 g / cm^3
# Si number density = 18.397090 Si / 1000 Ang^3
#
#
#
# Elastic Constant Matrix: (Units=GPa)
#
#
# Indices 1 2 3 4 5 6 
#
# 1 69.3895 31.7132 40.8809 0.0000 0.0000 0.0000
# 2 31.7132 119.6181 52.7524 0.0000 0.0000 0.0000
# 3 40.8809 52.7524 69.3424 0.0000 0.0000 0.0000
# 4 0.0000 0.0000 0.0000 25.3093 0.0000 0.0000
# 5 0.0000 0.0000 0.0000 0.0000 28.0236 0.0000
# 6 0.0000 0.0000 0.0000 0.0000 0.0000 35.0618
#
#
#
# Elastic Compliance Matrix: (Units=1/GPa)
#
#
# Indices 1 2 3 4 5 6 
#
# 1 0.022083 -0.000170 -0.012890 0.000000 0.000000 0.000000
# 2 -0.000170 0.012582 -0.009471 0.000000 0.000000 0.000000
# 3 -0.012890 -0.009471 0.029226 0.000000 0.000000 0.000000
# 4 0.000000 0.000000 0.000000 0.039511 0.000000 0.000000
# 5 0.000000 0.000000 0.000000 0.000000 0.035684 0.000000
# 6 0.000000 0.000000 0.000000 0.000000 0.000000 0.028521
#
#
# Mechanical properties :
#
#
# Convention : Reuss Voigt Hill
#
# Bulk Modulus (GPa) = 53.11168 56.56032 54.83600
# Shear Modulus (GPa) = 22.83665 26.54581 24.69123
#
# Velocity S-wave (km/s) = 3.52706 3.80272 3.66748
# Velocity P-wave (km/s) = 6.74679 7.07756 6.91415
#
# Compressibility (1/GPa) = 0.01882825
#
# Stress axis : x y z
#
# Youngs Moduli (GPa) = 45.28336 79.47820 34.21643
#
# Poissons Ratio (x) = 0.01353 0.44104
# Poissons Ratio (y) = 0.00771 0.32408
# Poissons Ratio (z) = 0.58368 0.75277
#
# Static dielectric constant tensor:
#      x y z
#    x 3.459350 0.000000 0.000000 
#    y 0.000000 3.509340 0.000000 
#    z 0.000000 0.000000 3.255140 
# 
# 
# High freq. dielectric constant tensor:
#      x y z
#    x 1.727500 0.000000 0.000000 
#    y 0.000000 1.717550 0.000000 
#    z 0.000000 0.000000 1.688880 
# 
# From -- ./inp_files/34275.got.cif
#   From: 2010.03.12/outbox.cif.g09.slc.cpg/sg53_18_cif.got.tgz:34275.got - 2010.04.16 14:36:59.
