data_PCOD8219490
_publ_section_title
;
Structure prediction by ZEFSAII (Michael W. Deem and Ramdas Pophale) SiO2 
 PCOD8219490
Probable space group: P M N A
;
_chemical_formula_sum "Si O2"
_cell_formula_units_Z 44
_cell_length_a 7.426646
_cell_length_b 11.450521
_cell_length_c 28.314918
_cell_angle_alpha 90.000000
_cell_angle_beta 90.000000
_cell_angle_gamma 90.000000
_cell_volume 2407.871349
_symmetry_space_group_name_H-M "P M N A"
_symmetry_group_IT_number 53
_symmetry_cell_setting 'orthorhombic'
loop_
_space_group_symop_operation_xyz
x,y,z
1/2-x,-y,1/2+z
x,-y,-z
1/2-x,y,1/2-z
-x,-y,-z
1/2+x,y,1/2-z
-x,y,z
1/2+x,-y,1/2+z
loop_
_atom_site_type_symbol
_atom_site_label
_atom_site_fract_x
_atom_site_fract_y
_atom_site_fract_z
Si Si1 0.791914 0.270133 0.199926
Si Si2 0.000000 0.036274 0.623785
Si Si3 0.290984 0.361198 0.396865
Si Si4 0.000000 0.228619 0.543523
Si Si5 0.710880 0.992124 0.698056
Si Si6 0.500000 0.802422 0.937767
Si Si7 0.206828 0.577643 0.044274
O O1 0.750000 0.332353 0.250000
O O2 0.717555 0.347581 0.156846
O O3 0.000000 0.254447 0.192653
O O4 0.709408 0.140088 0.199054
O O5 0.000000 0.135778 0.584907
O O6 0.823461 0.054613 0.656635
O O7 0.000000 0.913227 0.596503
O O8 0.500000 0.325694 0.403101
O O9 0.262553 0.496496 0.409807
O O10 0.178584 0.274684 0.429930
O O11 0.000000 0.162282 0.493024
O O12 0.822714 0.306823 0.549003
O O13 0.750000 0.047396 0.750000
O O14 0.500000 0.001837 0.685617
O O15 0.000000 0.616402 0.038521
O O16 0.269759 0.500000 0.000000
#
# Coordination Sequence:
#
# PCOD8219490 Si02
#       7
#     8   4   8   4   8   4   8
#     4   9  18  29  49  82 116 140 171 227 297 359
#     4  12  25  37  56  88 125 162 190 240 298 351
#     4  10  20  34  57  87 113 142 192 244 294 353
#     4  12  25  40  55  86 120 159 208 238 280 356
#     4  10  19  35  59  86 115 148 196 242 285 347
#     4  12  22  36  58  81 122 159 188 241 296 343
#     4  10  20  38  63  84 107 147 200 253 292 337
#
# _framework density 18.273399999999999
#
# number of rings (size 3 to 8) (size 9 to 14) (size 15 to 20)
#    0.000    1.636    4.545    1.091    2.545    0.727 
#    0.000    0.000    0.000    4.364    0.000    0.000 
#    0.000    0.000    0.000    0.000    0.000    0.000 
#
# Total GULP energy -545451.592886 kJ/mol
# GULP energy per Si atom -12396.627111 kJ/mol
# Density = 1.823181 g / cm^3
# Si number density = 18.273400 Si / 1000 Ang^3
#
#
#
# Elastic Constant Matrix: (Units=GPa)
#
#
# Indices 1 2 3 4 5 6 
#
# 1 100.5381 33.5731 44.0581 0.0000 0.0000 0.0000
# 2 33.5731 51.6917 38.9323 0.0000 0.0000 0.0000
# 3 44.0581 38.9323 156.9119 0.0000 0.0000 0.0000
# 4 0.0000 0.0000 0.0000 23.2289 0.0000 0.0000
# 5 0.0000 0.0000 0.0000 0.0000 24.8080 0.0000
# 6 0.0000 0.0000 0.0000 0.0000 0.0000 16.1258
#
#
#
# Elastic Compliance Matrix: (Units=1/GPa)
#
#
# Indices 1 2 3 4 5 6 
#
# 1 0.013163 -0.007091 -0.001937 0.000000 0.000000 0.000000
# 2 -0.007091 0.027611 -0.004860 0.000000 0.000000 0.000000
# 3 -0.001937 -0.004860 0.008123 0.000000 0.000000 0.000000
# 4 0.000000 0.000000 0.000000 0.043050 0.000000 0.000000
# 5 0.000000 0.000000 0.000000 0.000000 0.040310 0.000000
# 6 0.000000 0.000000 0.000000 0.000000 0.000000 0.062012
#
#
# Mechanical properties :
#
#
# Convention : Reuss Voigt Hill
#
# Bulk Modulus (GPa) = 47.34303 60.25208 53.79756
# Shear Modulus (GPa) = 21.82615 25.67109 23.74862
#
# Velocity S-wave (km/s) = 3.45979 3.75218 3.60895
# Velocity P-wave (km/s) = 6.47492 7.19833 6.84619
#
# Compressibility (1/GPa) = 0.02112243
#
# Stress axis : x y z
#
# Youngs Moduli (GPa) = 75.97094 36.21756 123.11367
#
# Poissons Ratio (x) = 0.25680 0.23843
# Poissons Ratio (y) = 0.53868 0.59831
# Poissons Ratio (z) = 0.14713 0.17601
#
# Static dielectric constant tensor:
#      x y z
#    x 3.419290 0.000000 0.000000 
#    y 0.000000 3.059790 0.000000 
#    z 0.000000 0.000000 4.266430 
# 
# 
# High freq. dielectric constant tensor:
#      x y z
#    x 1.722210 0.000000 0.000000 
#    y 0.000000 1.654960 0.000000 
#    z 0.000000 0.000000 1.723840 
# 
# From -- ./inp_files/37645.got.cif
#   From: 2010.03.12/outbox.cif.g09.slc.cpg/sg53_19_cif.got.tgz:37645.got - 2010.04.16 14:36:59.
