data_PCOD8219457
_publ_section_title
;
Structure prediction by ZEFSAII (Michael W. Deem and Ramdas Pophale) SiO2 
 PCOD8219457
Probable space group: P M N A
;
_chemical_formula_sum "Si O2"
_cell_formula_units_Z 48
_cell_length_a 9.059014
_cell_length_b 16.584323
_cell_length_c 15.823286
_cell_angle_alpha 90.000000
_cell_angle_beta 90.000000
_cell_angle_gamma 90.000000
_cell_volume 2377.252738
_symmetry_space_group_name_H-M "P M N A"
_symmetry_group_IT_number 53
_symmetry_cell_setting 'orthorhombic'
loop_
_space_group_symop_operation_xyz
x,y,z
1/2-x,-y,1/2+z
x,-y,-z
1/2-x,y,1/2-z
-x,-y,-z
1/2+x,y,1/2-z
-x,y,z
1/2+x,-y,1/2+z
loop_
_atom_site_type_symbol
_atom_site_label
_atom_site_fract_x
_atom_site_fract_y
_atom_site_fract_z
Si Si1 0.169668 0.996708 0.333380
Si Si2 0.830396 0.405247 0.004580
Si Si3 0.327841 0.667412 0.834443
Si Si4 0.825614 0.686653 0.165028
Si Si5 0.328022 0.836976 0.901181
Si Si6 0.670645 0.170180 0.913315
O O1 0.250000 0.967234 0.250000
O O2 0.243638 0.080175 0.366585
O O3 0.000000 0.012089 0.311179
O O4 0.189707 0.925470 0.400579
O O5 0.777727 0.367426 0.915429
O O6 0.000000 0.382111 0.022337
O O7 0.807356 0.500000 0.000000
O O8 0.733091 0.373559 0.081536
O O9 0.250000 0.633316 0.750000
O O10 0.500000 0.647682 0.828356
O O11 0.297410 0.763486 0.837739
O O12 0.750000 0.651242 0.250000
O O13 0.768194 0.777867 0.151352
O O14 0.000000 0.686635 0.178293
O O15 0.500000 0.853711 0.915357
O O16 0.265032 0.812888 0.993068
O O17 0.500000 0.196358 0.902075
#
# Coordination Sequence:
#
# PCOD8219457 Si02
#       6
#     8   8   8   8   8   8
#     4  10  20  33  51  77 112 153 197 244 289 340
#     4  10  23  44  66  90 121 154 194 247 302 357
#     4  11  22  38  63  92 124 160 201 245 296 357
#     4  11  23  39  62  89 120 156 195 242 296 355
#     4   9  18  34  56  82 112 154 200 242 290 344
#     4  10  19  35  58  82 113 152 200 246 290 346
#
# _framework density 20.191375000000001
#
# number of rings (size 3 to 8) (size 9 to 14) (size 15 to 20)
#    0.000    1.833    1.667    2.500    0.000    5.667 
#    0.000    3.333    0.000    2.000    0.000    0.000 
#    0.000    0.000    0.000    0.000    0.000    0.000 
#
# Total GULP energy -595242.054546 kJ/mol
# GULP energy per Si atom -12400.876136 kJ/mol
# Density = 2.014542 g / cm^3
# Si number density = 20.191375 Si / 1000 Ang^3
#
#
#
# Elastic Constant Matrix: (Units=GPa)
#
#
# Indices 1 2 3 4 5 6 
#
# 1 84.1850 39.7231 65.4667 0.0000 0.0000 0.0000
# 2 39.7231 84.6463 37.6266 0.0000 0.0000 0.0000
# 3 65.4667 37.6266 153.4132 0.0000 0.0000 0.0000
# 4 0.0000 0.0000 0.0000 21.0685 0.0000 0.0000
# 5 0.0000 0.0000 0.0000 0.0000 34.0666 0.0000
# 6 0.0000 0.0000 0.0000 0.0000 0.0000 24.0023
#
#
#
# Elastic Compliance Matrix: (Units=1/GPa)
#
#
# Indices 1 2 3 4 5 6 
#
# 1 0.020483 -0.006428 -0.007164 0.000000 0.000000 0.000000
# 2 -0.006428 0.015276 -0.001004 0.000000 0.000000 0.000000
# 3 -0.007164 -0.001004 0.009822 0.000000 0.000000 0.000000
# 4 0.000000 0.000000 0.000000 0.047464 0.000000 0.000000
# 5 0.000000 0.000000 0.000000 0.000000 0.029354 0.000000
# 6 0.000000 0.000000 0.000000 0.000000 0.000000 0.041663
#
#
# Mechanical properties :
#
#
# Convention : Reuss Voigt Hill
#
# Bulk Modulus (GPa) = 61.01438 67.54192 64.27815
# Shear Modulus (GPa) = 25.16143 27.78936 26.47540
#
# Velocity S-wave (km/s) = 3.53391 3.71387 3.62501
# Velocity P-wave (km/s) = 6.85091 7.20514 7.03026
#
# Compressibility (1/GPa) = 0.01638958
#
# Stress axis : x y z
#
# Youngs Moduli (GPa) = 48.82138 65.46012 101.81434
#
# Poissons Ratio (x) = 0.42075 0.72943
# Poissons Ratio (y) = 0.31381 0.10221
# Poissons Ratio (z) = 0.34977 0.06571
#
# Static dielectric constant tensor:
#      x y z
#    x 3.457160 0.000000 0.000000 
#    y 0.000000 3.632970 0.000000 
#    z 0.000000 0.000000 3.759070 
# 
# 
# High freq. dielectric constant tensor:
#      x y z
#    x 1.766300 0.000000 0.000000 
#    y 0.000000 1.787630 0.000000 
#    z 0.000000 0.000000 1.801110 
# 
# From -- ./inp_files/20128.got.cif
#   From: 2010.03.12/outbox.cif.g09.slc.cpg/sg53_11_cif.got.tgz:20128.got - 2010.04.16 14:36:59.
