data_PCOD8219939
_publ_section_title
;
Structure prediction by ZEFSAII (Michael W. Deem and Ramdas Pophale) SiO2 
 PCOD8219939
Probable space group: P M N A
;
_chemical_formula_sum "Si O2"
_cell_formula_units_Z 48
_cell_length_a 14.121637
_cell_length_b 15.247029
_cell_length_c 11.561250
_cell_angle_alpha 90.000000
_cell_angle_beta 90.000000
_cell_angle_gamma 90.000000
_cell_volume 2489.287524
_symmetry_space_group_name_H-M "P M N A"
_symmetry_group_IT_number 53
_symmetry_cell_setting 'orthorhombic'
loop_
_space_group_symop_operation_xyz
x,y,z
1/2-x,-y,1/2+z
x,-y,-z
1/2-x,y,1/2-z
-x,-y,-z
1/2+x,y,1/2-z
-x,y,z
1/2+x,-y,1/2+z
loop_
_atom_site_type_symbol
_atom_site_label
_atom_site_fract_x
_atom_site_fract_y
_atom_site_fract_z
Si Si1 0.665490 0.185966 0.164514
Si Si2 0.894811 0.370305 0.280813
Si Si3 0.257371 0.761054 0.072403
Si Si4 0.274257 0.410221 0.437839
Si Si5 0.887113 0.173151 0.756819
Si Si6 0.608205 0.001562 0.872639
O O1 0.750000 0.205177 0.250000
O O2 0.595301 0.267286 0.185503
O O3 0.617509 0.092429 0.190698
O O4 0.704747 0.182850 0.034789
O O5 0.856545 0.382996 0.151062
O O6 0.826013 0.419094 0.371360
O O7 0.000000 0.411170 0.289208
O O8 0.162482 0.809030 0.119983
O O9 0.342466 0.756980 0.166588
O O10 0.231726 0.662457 0.037451
O O11 0.301352 0.500000 0.500000
O O12 0.852284 0.077219 0.711738
O O13 0.000000 0.184268 0.767950
O O14 0.500000 0.026734 0.892261
O O15 0.657489 0.000000 0.000000
#
# Coordination Sequence:
#
# PCOD8219939 Si02
#       6
#     8   8   8   8   8   8
#     4  11  20  36  59  86 116 157 201 244 291 342
#     4  10  21  39  61  88 117 155 199 242 301 363
#     4  10  21  39  58  86 113 159 194 242 305 353
#     4  10  22  42  61  87 121 150 193 255 304 361
#     4  10  22  38  57  87 123 158 199 243 295 354
#     4  10  20  33  54  84 117 157 202 245 282 335
#
# _framework density 19.282624999999999
#
# number of rings (size 3 to 8) (size 9 to 14) (size 15 to 20)
#    0.000    1.833    5.000    0.500    2.333    6.667 
#    0.000    1.667    0.000    2.000    0.000    0.000 
#    0.000    0.000    0.000    0.000    0.000    0.000 
#
# Total GULP energy -595004.435579 kJ/mol
# GULP energy per Si atom -12395.925741 kJ/mol
# Density = 1.923874 g / cm^3
# Si number density = 19.282625 Si / 1000 Ang^3
#
#
#
# Elastic Constant Matrix: (Units=GPa)
#
#
# Indices 1 2 3 4 5 6 
#
# 1 118.6178 18.1848 43.1792 0.0000 0.0000 0.0000
# 2 18.1848 113.6024 48.9633 0.0000 0.0000 0.0000
# 3 43.1792 48.9633 96.9784 0.0000 0.0000 0.0000
# 4 0.0000 0.0000 0.0000 30.2742 0.0000 0.0000
# 5 0.0000 0.0000 0.0000 0.0000 17.5299 0.0000
# 6 0.0000 0.0000 0.0000 0.0000 0.0000 19.0150
#
#
#
# Elastic Compliance Matrix: (Units=1/GPa)
#
#
# Indices 1 2 3 4 5 6 
#
# 1 0.010076 0.000410 -0.004693 0.000000 0.000000 0.000000
# 2 0.000410 0.011268 -0.005871 0.000000 0.000000 0.000000
# 3 -0.004693 -0.005871 0.015366 0.000000 0.000000 0.000000
# 4 0.000000 0.000000 0.000000 0.033031 0.000000 0.000000
# 5 0.000000 0.000000 0.000000 0.000000 0.057045 0.000000
# 6 0.000000 0.000000 0.000000 0.000000 0.000000 0.052590
#
#
# Mechanical properties :
#
#
# Convention : Reuss Voigt Hill
#
# Bulk Modulus (GPa) = 60.97646 61.09480 61.03563
# Shear Modulus (GPa) = 24.37215 27.95525 26.16370
#
# Velocity S-wave (km/s) = 3.55906 3.81171 3.68755
# Velocity P-wave (km/s) = 6.96996 7.15016 7.06063
#
# Compressibility (1/GPa) = 0.01639977
#
# Stress axis : x y z
#
# Youngs Moduli (GPa) = 99.24537 88.74978 65.08026
#
# Poissons Ratio (x) = -0.03638 0.30544
# Poissons Ratio (y) = -0.04068 0.38211
# Poissons Ratio (z) = 0.46579 0.52109
#
# Static dielectric constant tensor:
#      x y z
#    x 3.309970 0.000000 0.000000 
#    y 0.000000 3.494270 0.000000 
#    z 0.000000 0.000000 2.646560 
# 
# 
# High freq. dielectric constant tensor:
#      x y z
#    x 1.740260 0.000000 0.000000 
#    y 0.000000 1.743100 0.000000 
#    z 0.000000 0.000000 1.750930 
# 
# From -- ./inp_files/15950.got.cif
#   From: 2010.03.12/outbox.cif.g09.slc.cpg/sg53_8_cif.got.tgz:15950.got - 2010.04.16 14:36:59.
