data_PCOD8219555
_publ_section_title
;
Structure prediction by ZEFSAII (Michael W. Deem and Ramdas Pophale) SiO2 
 PCOD8219555
Probable space group: P M N A
;
_chemical_formula_sum "Si O2"
_cell_formula_units_Z 48
_cell_length_a 8.875120
_cell_length_b 16.729511
_cell_length_c 15.909283
_cell_angle_alpha 90.000000
_cell_angle_beta 90.000000
_cell_angle_gamma 90.000000
_cell_volume 2362.153347
_symmetry_space_group_name_H-M "P M N A"
_symmetry_group_IT_number 53
_symmetry_cell_setting 'orthorhombic'
loop_
_space_group_symop_operation_xyz
x,y,z
1/2-x,-y,1/2+z
x,-y,-z
1/2-x,y,1/2-z
-x,-y,-z
1/2+x,y,1/2-z
-x,y,z
1/2+x,-y,1/2+z
loop_
_atom_site_type_symbol
_atom_site_label
_atom_site_fract_x
_atom_site_fract_y
_atom_site_fract_z
Si Si1 0.324722 0.329329 0.912419
Si Si2 0.325328 0.495973 0.835679
Si Si3 0.821409 0.818256 0.162616
Si Si4 0.323641 0.338804 0.097825
Si Si5 0.324358 0.827572 0.834561
Si Si6 0.824878 0.093771 0.505983
O O1 0.500000 0.307035 0.899626
O O2 0.296675 0.423394 0.899100
O O3 0.228038 0.273945 0.850380
O O4 0.264375 0.312474 0.006317
O O5 0.250000 0.469885 0.750000
O O6 0.500000 0.510439 0.818711
O O7 0.249991 0.578130 0.870387
O O8 0.750000 0.849857 0.250000
O O9 0.764587 0.872314 0.085492
O O10 0.000000 0.824258 0.169023
O O11 0.500000 0.353917 0.087055
O O12 0.287312 0.267142 0.161773
O O13 0.250000 0.862966 0.750000
O O14 0.500000 0.844932 0.827751
O O15 0.261163 0.869541 0.918717
O O16 0.000000 0.117035 0.517435
O O17 0.799729 0.000000 0.500000
#
# Coordination Sequence:
#
# PCOD8219555 Si02
#       6
#     8   8   8   8   8   8
#     4  10  19  36  59  82 114 154 204 252 299 355
#     4  10  20  32  51  79 112 153 198 247 296 355
#     4  12  25  41  64  92 124 162 206 252 304 363
#     4   9  17  33  56  81 111 153 200 243 296 356
#     4  10  20  36  60  88 121 157 195 241 293 357
#     4  10  22  43  68  93 123 159 198 246 306 365
#
# _framework density 20.320442
#
# number of rings (size 3 to 8) (size 9 to 14) (size 15 to 20)
#    0.000    1.833    1.667    3.000    0.000    5.667 
#    0.000    2.500    0.000    2.000    0.000    0.000 
#    0.000    0.000    0.000    0.000    0.000    0.000 
#
# Total GULP energy -595174.291376 kJ/mol
# GULP energy per Si atom -12399.464404 kJ/mol
# Density = 2.027419 g / cm^3
# Si number density = 20.320442 Si / 1000 Ang^3
#
#
#
# Elastic Constant Matrix: (Units=GPa)
#
#
# Indices 1 2 3 4 5 6 
#
# 1 75.2114 35.5951 53.5139 0.0000 0.0000 0.0000
# 2 35.5951 94.9369 40.1772 0.0000 0.0000 0.0000
# 3 53.5139 40.1772 158.5557 0.0000 0.0000 0.0000
# 4 0.0000 0.0000 0.0000 21.7524 0.0000 0.0000
# 5 0.0000 0.0000 0.0000 0.0000 32.1007 0.0000
# 6 0.0000 0.0000 0.0000 0.0000 0.0000 -7.3831
#
#
#
# Elastic Compliance Matrix: (Units=1/GPa)
#
#
# Indices 1 2 3 4 5 6 
#
# 1 0.019447 -0.005056 -0.005282 0.000000 0.000000 0.000000
# 2 -0.005056 0.013113 -0.001616 0.000000 0.000000 0.000000
# 3 -0.005282 -0.001616 0.008499 0.000000 0.000000 0.000000
# 4 0.000000 0.000000 0.000000 0.045972 0.000000 0.000000
# 5 0.000000 0.000000 0.000000 0.000000 0.031152 0.000000
# 6 0.000000 0.000000 0.000000 0.000000 0.000000 -0.135445
#
#
# Mechanical properties :
#
#
# Convention : Reuss Voigt Hill
#
# Bulk Modulus (GPa) = 58.30856 65.25295 61.78076
# Shear Modulus (GPa) = 404.36731 22.58852 213.47791
#
# Velocity S-wave (km/s) = 14.12187 3.33771 10.26079
# Velocity P-wave (km/s) = 17.16566 6.85824 13.07087
#
# Compressibility (1/GPa) = 0.01715014
#
# Stress axis : x y z
#
# Youngs Moduli (GPa) = 51.42136 76.26034 117.65563
#
# Poissons Ratio (x) = 0.38556 0.62151
# Poissons Ratio (y) = 0.25998 0.19017
# Poissons Ratio (z) = 0.27163 0.12326
#
# Static dielectric constant tensor:
#      x y z
#    x 3.353110 0.000000 0.000000 
#    y 0.000000 3.704400 0.000000 
#    z 0.000000 0.000000 3.840030 
# 
# 
# High freq. dielectric constant tensor:
#      x y z
#    x 1.756130 0.000000 0.000000 
#    y 0.000000 1.799680 0.000000 
#    z 0.000000 0.000000 1.808090 
# 
# From -- ./inp_files/20158.got.cif
#   From: 2010.03.12/outbox.cif.g09.slc.cpg/sg53_11_cif.got.tgz:20158.got - 2010.04.16 14:36:59.
