data_PCOD8219755
_publ_section_title
;
Structure prediction by ZEFSAII (Michael W. Deem and Ramdas Pophale) SiO2 
 PCOD8219755
Probable space group: P M N A
;
_chemical_formula_sum "Si O2"
_cell_formula_units_Z 40
_cell_length_a 17.504323
_cell_length_b 4.981908
_cell_length_c 23.697072
_cell_angle_alpha 90.000000
_cell_angle_beta 90.000000
_cell_angle_gamma 90.000000
_cell_volume 2066.501429
_symmetry_space_group_name_H-M "P M N A"
_symmetry_group_IT_number 53
_symmetry_cell_setting 'orthorhombic'
loop_
_space_group_symop_operation_xyz
x,y,z
1/2-x,-y,1/2+z
x,-y,-z
1/2-x,y,1/2-z
-x,-y,-z
1/2+x,y,1/2-z
-x,y,z
1/2+x,-y,1/2+z
loop_
_atom_site_type_symbol
_atom_site_label
_atom_site_fract_x
_atom_site_fract_y
_atom_site_fract_z
Si Si1 0.261768 0.907443 0.685594
Si Si2 0.915077 0.114958 0.124876
Si Si3 0.713238 0.397909 0.879133
Si Si4 0.866986 0.616264 0.061198
Si Si5 0.914459 0.758611 0.462078
O O1 0.250000 0.826443 0.750000
O O2 0.352597 0.925001 0.673793
O O3 0.216590 0.698790 0.645374
O O4 0.227912 0.200042 0.673263
O O5 0.908686 0.420556 0.104865
O O6 0.000000 0.068389 0.149689
O O7 0.900308 0.914070 0.071848
O O8 0.776238 0.370699 0.928408
O O9 0.633043 0.313803 0.906277
O O10 0.884864 0.500000 0.000000
O O11 0.916938 0.500000 0.500000
O O12 0.000000 0.840683 0.442335
O O13 0.878663 0.000000 0.500000
#
# Coordination Sequence:
#
# PCOD8219755 Si02
#       5
#     8   8   8   8   8
#     4  10  21  38  57  75 100 138 180 225 269 305
#     4  10  21  35  51  75 105 134 169 211 256 305
#     4  10  20  35  55  78 105 137 179 219 256 317
#     4  10  20  32  51  77 105 139 170 201 247 307
#     4  10  20  34  54  81 114 145 171 212 270 324
#
# _framework density 19.356387000000002
#
# number of rings (size 3 to 8) (size 9 to 14) (size 15 to 20)
#    0.000    2.000    0.000    3.600    0.000    5.600 
#    0.000    2.000    0.000    0.000    0.000    0.000 
#    0.000    0.000    0.000    0.000    0.000    0.000 
#
# Total GULP energy -495965.774524 kJ/mol
# GULP energy per Si atom -12399.144363 kJ/mol
# Density = 1.931233 g / cm^3
# Si number density = 19.356387 Si / 1000 Ang^3
#
#
#
# Elastic Constant Matrix: (Units=GPa)
#
#
# Indices 1 2 3 4 5 6 
#
# 1 111.6524 20.2623 52.1196 0.0000 0.0000 0.0000
# 2 20.2623 89.1051 8.1659 0.0000 0.0000 0.0000
# 3 52.1196 8.1659 81.3884 0.0000 0.0000 0.0000
# 4 0.0000 0.0000 0.0000 22.0607 0.0000 0.0000
# 5 0.0000 0.0000 0.0000 0.0000 15.5687 0.0000
# 6 0.0000 0.0000 0.0000 0.0000 0.0000 18.5471
#
#
#
# Elastic Compliance Matrix: (Units=1/GPa)
#
#
# Indices 1 2 3 4 5 6 
#
# 1 0.013207 -0.002249 -0.008232 0.000000 0.000000 0.000000
# 2 -0.002249 0.011710 0.000265 0.000000 0.000000 0.000000
# 3 -0.008232 0.000265 0.017532 0.000000 0.000000 0.000000
# 4 0.000000 0.000000 0.000000 0.045329 0.000000 0.000000
# 5 0.000000 0.000000 0.000000 0.000000 0.064231 0.000000
# 6 0.000000 0.000000 0.000000 0.000000 0.000000 0.053917
#
#
# Mechanical properties :
#
#
# Convention : Reuss Voigt Hill
#
# Bulk Modulus (GPa) = 45.41838 49.24905 47.33372
# Shear Modulus (GPa) = 21.39527 24.67519 23.03523
#
# Velocity S-wave (km/s) = 3.32826 3.57428 3.45346
# Velocity P-wave (km/s) = 6.18749 6.52170 6.35679
#
# Compressibility (1/GPa) = 0.02201752
#
# Stress axis : x y z
#
# Youngs Moduli (GPa) = 75.71624 85.39869 57.03933
#
# Poissons Ratio (x) = 0.19205 0.46955
# Poissons Ratio (y) = 0.17028 -0.01513
# Poissons Ratio (z) = 0.62330 -0.02265
#
# Static dielectric constant tensor:
#      x y z
#    x 3.694690 0.000000 0.000000 
#    y 0.000000 3.743570 0.000000 
#    z 0.000000 0.000000 3.071910 
# 
# 
# High freq. dielectric constant tensor:
#      x y z
#    x 1.748830 0.000000 0.000000 
#    y 0.000000 1.778150 0.000000 
#    z 0.000000 0.000000 1.716880 
# 
# From -- ./inp_files/28735.got.cif
#   From: 2010.03.12/outbox.cif.g09.slc.cpg/sg53_15_cif.got.tgz:28735.got - 2010.04.16 14:36:59.
