data_PCOD8219388
_publ_section_title
;
Structure prediction by ZEFSAII (Michael W. Deem and Ramdas Pophale) SiO2 
 PCOD8219388
Probable space group: P M N A
;
_chemical_formula_sum "Si O2"
_cell_formula_units_Z 56
_cell_length_a 17.693618
_cell_length_b 13.780135
_cell_length_c 11.791416
_cell_angle_alpha 90.000000
_cell_angle_beta 90.000000
_cell_angle_gamma 90.000000
_cell_volume 2874.988293
_symmetry_space_group_name_H-M "P M N A"
_symmetry_group_IT_number 53
_symmetry_cell_setting 'orthorhombic'
loop_
_space_group_symop_operation_xyz
x,y,z
1/2-x,-y,1/2+z
x,-y,-z
1/2-x,y,1/2-z
-x,-y,-z
1/2+x,y,1/2-z
-x,y,z
1/2+x,-y,1/2+z
loop_
_atom_site_type_symbol
_atom_site_label
_atom_site_fract_x
_atom_site_fract_y
_atom_site_fract_z
Si Si1 0.414179 0.645028 0.349157
Si Si2 0.414085 0.248139 0.885710
Si Si3 0.589054 0.969409 0.122267
Si Si4 0.170639 0.313620 0.399877
Si Si5 0.163869 0.867121 0.756628
Si Si6 0.087262 0.564113 0.773508
Si Si7 0.655092 0.714524 0.568724
O O1 0.500000 0.644695 0.395224
O O2 0.408901 0.695431 0.229621
O O3 0.384060 0.535789 0.330626
O O4 0.361598 0.706348 0.435288
O O5 0.500000 0.244195 0.932818
O O6 0.383439 0.140387 0.859443
O O7 0.361974 0.305029 0.974277
O O8 0.500000 0.977981 0.122520
O O9 0.616671 0.037559 0.225162
O O10 0.622574 0.000000 0.000000
O O11 0.144822 0.218153 0.331898
O O12 0.136692 0.408622 0.337622
O O13 0.260913 0.323059 0.401858
O O14 0.250000 0.899772 0.750000
O O15 0.145197 0.824932 0.883152
O O16 0.095254 0.645580 0.869218
O O17 0.000000 0.554370 0.735790
#
# Coordination Sequence:
#
# PCOD8219388 Si02
#       7
#     8   8   8   8   8   8   8
#     4  10  22  40  57  80 117 156 194 233 279 345
#     4  10  21  38  58  83 116 149 190 239 288 343
#     4  10  19  34  60  88 109 138 190 243 283 328
#     4  10  20  37  57  85 117 146 187 243 293 335
#     4   9  19  36  56  82 117 148 185 235 284 343
#     4  10  20  37  62  84 108 149 196 236 282 336
#     4  10  21  38  57  83 118 154 190 233 281 344
#
# _framework density 19.478341
#
# number of rings (size 3 to 8) (size 9 to 14) (size 15 to 20)
#    0.000    2.143    1.429    2.571    0.000    5.143 
#   10.286    2.857    0.000    2.571    0.000    0.000 
#    0.000    0.000    0.000    0.000    0.000    0.000 
#
# Total GULP energy -694348.415708 kJ/mol
# GULP energy per Si atom -12399.078852 kJ/mol
# Density = 1.943401 g / cm^3
# Si number density = 19.478341 Si / 1000 Ang^3
#
#
#
# Elastic Constant Matrix: (Units=GPa)
#
#
# Indices 1 2 3 4 5 6 
#
# 1 51.6156 16.3539 35.5319 0.0000 0.0000 0.0000
# 2 16.3539 60.0961 32.7455 0.0000 0.0000 0.0000
# 3 35.5319 32.7455 90.3858 0.0000 0.0000 0.0000
# 4 0.0000 0.0000 0.0000 30.6814 0.0000 0.0000
# 5 0.0000 0.0000 0.0000 0.0000 19.5400 0.0000
# 6 0.0000 0.0000 0.0000 0.0000 0.0000 15.4415
#
#
#
# Elastic Compliance Matrix: (Units=1/GPa)
#
#
# Indices 1 2 3 4 5 6 
#
# 1 0.026741 -0.001930 -0.009813 0.000000 0.000000 0.000000
# 2 -0.001930 0.020872 -0.006803 0.000000 0.000000 0.000000
# 3 -0.009813 -0.006803 0.017386 0.000000 0.000000 0.000000
# 4 0.000000 0.000000 0.000000 0.032593 0.000000 0.000000
# 5 0.000000 0.000000 0.000000 0.000000 0.051177 0.000000
# 6 0.000000 0.000000 0.000000 0.000000 0.000000 0.064761
#
#
# Mechanical properties :
#
#
# Convention : Reuss Voigt Hill
#
# Bulk Modulus (GPa) = 35.83347 41.26225 38.54786
# Shear Modulus (GPa) = 19.23644 20.96366 20.10005
#
# Velocity S-wave (km/s) = 3.14599 3.28419 3.21583
# Velocity P-wave (km/s) = 5.62431 5.96748 5.79844
#
# Compressibility (1/GPa) = 0.02790687
#
# Stress axis : x y z
#
# Youngs Moduli (GPa) = 37.39626 47.91093 57.51791
#
# Poissons Ratio (x) = 0.09247 0.56442
# Poissons Ratio (y) = 0.07218 0.39129
# Poissons Ratio (z) = 0.36697 0.32594
#
# Static dielectric constant tensor:
#      x y z
#    x 3.476020 0.000000 0.000000 
#    y 0.000000 3.591180 0.000000 
#    z 0.000000 0.000000 3.535260 
# 
# 
# High freq. dielectric constant tensor:
#      x y z
#    x 1.749810 0.000000 0.000000 
#    y 0.000000 1.752020 0.000000 
#    z 0.000000 0.000000 1.754490 
# 
# From -- ./inp_files/16073.got.cif
#   From: 2010.03.12/outbox.cif.g09.slc.cpg/sg53_9_cif.got.tgz:16073.got - 2010.04.16 14:36:59.
