data_PCOD8219888
_publ_section_title
;
Structure prediction by ZEFSAII (Michael W. Deem and Ramdas Pophale) SiO2 
 PCOD8219888
Probable space group: P M N A
;
_chemical_formula_sum "Si O2"
_cell_formula_units_Z 48
_cell_length_a 24.043322
_cell_length_b 21.510469
_cell_length_c 5.052387
_cell_angle_alpha 90.000000
_cell_angle_beta 90.000000
_cell_angle_gamma 90.000000
_cell_volume 2613.009335
_symmetry_space_group_name_H-M "P M N A"
_symmetry_group_IT_number 53
_symmetry_cell_setting 'orthorhombic'
loop_
_space_group_symop_operation_xyz
x,y,z
1/2-x,-y,1/2+z
x,-y,-z
1/2-x,y,1/2-z
-x,-y,-z
1/2+x,y,1/2-z
-x,y,z
1/2+x,-y,1/2+z
loop_
_atom_site_type_symbol
_atom_site_label
_atom_site_fract_x
_atom_site_fract_y
_atom_site_fract_z
Si Si1 0.626218 0.166475 0.149270
Si Si2 0.372985 0.670821 0.347626
Si Si3 0.312258 0.797058 0.345003
Si Si4 0.786697 0.427716 0.996621
Si Si5 0.935476 0.292793 0.346541
Si Si6 0.063578 0.040711 0.241401
O O1 0.676184 0.180645 0.355728
O O2 0.579844 0.220156 0.141183
O O3 0.598877 0.102518 0.232382
O O4 0.650343 0.162029 0.853873
O O5 0.326489 0.724260 0.332059
O O6 0.344335 0.608646 0.459646
O O7 0.422494 0.685114 0.550820
O O8 0.400614 0.665499 0.057143
O O9 0.250000 0.807179 0.250000
O O10 0.750000 0.409354 0.750000
O O11 0.802543 0.500000 0.000000
O O12 0.750000 0.407903 0.250000
O O13 0.000000 0.301324 0.408479
O O14 0.000000 0.059994 0.185769
O O15 0.069460 0.000000 0.500000
O O16 0.087337 0.000000 0.000000
#
# Coordination Sequence:
#
# PCOD8219888 Si02
#       6
#     8   8   8   8   8   8
#     4  10  20  34  53  76 102 132 166 208 255 303
#     4  10  20  33  53  78 104 136 171 212 258 305
#     4  10  20  33  52  76 102 133 167 207 253 301
#     4  10  20  34  54  79 107 138 172 215 263 309
#     4  10  20  34  53  77 105 136 170 211 258 307
#     4  10  20  34  54  77 100 128 163 207 255 301
#
# _framework density 18.369624999999999
#
# number of rings (size 3 to 8) (size 9 to 14) (size 15 to 20)
#    0.000    2.000    0.000    4.000    0.000    2.667 
#    0.000    5.000    0.000   13.000    0.000    0.000 
#    0.000    0.000    0.000    0.000    0.000    0.000 
#
# Total GULP energy -595181.187461 kJ/mol
# GULP energy per Si atom -12399.608072 kJ/mol
# Density = 1.832781 g / cm^3
# Si number density = 18.369625 Si / 1000 Ang^3
#
#
#
# Elastic Constant Matrix: (Units=GPa)
#
#
# Indices 1 2 3 4 5 6 
#
# 1 86.0053 44.2424 15.3017 0.0000 0.0000 0.0000
# 2 44.2424 80.4681 24.5255 0.0000 0.0000 0.0000
# 3 15.3017 24.5255 101.0011 0.0000 0.0000 0.0000
# 4 0.0000 0.0000 0.0000 28.4026 0.0000 0.0000
# 5 0.0000 0.0000 0.0000 0.0000 17.3776 0.0000
# 6 0.0000 0.0000 0.0000 0.0000 0.0000 18.4869
#
#
#
# Elastic Compliance Matrix: (Units=1/GPa)
#
#
# Indices 1 2 3 4 5 6 
#
# 1 0.016222 -0.008823 -0.000315 0.000000 0.000000 0.000000
# 2 -0.008823 0.018219 -0.003087 0.000000 0.000000 0.000000
# 3 -0.000315 -0.003087 0.010698 0.000000 0.000000 0.000000
# 4 0.000000 0.000000 0.000000 0.035208 0.000000 0.000000
# 5 0.000000 0.000000 0.000000 0.000000 0.057545 0.000000
# 6 0.000000 0.000000 0.000000 0.000000 0.000000 0.054092
#
#
# Mechanical properties :
#
#
# Convention : Reuss Voigt Hill
#
# Bulk Modulus (GPa) = 48.33626 48.40153 48.36889
# Shear Modulus (GPa) = 22.38817 25.08043 23.73430
#
# Velocity S-wave (km/s) = 3.49486 3.69903 3.59840
# Velocity P-wave (km/s) = 6.53113 6.68204 6.60702
#
# Compressibility (1/GPa) = 0.02068840
#
# Stress axis : x y z
#
# Youngs Moduli (GPa) = 61.64491 54.88702 93.47255
#
# Poissons Ratio (x) = 0.48427 0.02946
# Poissons Ratio (y) = 0.54389 0.28859
# Poissons Ratio (z) = 0.01943 0.16946
#
# Static dielectric constant tensor:
#      x y z
#    x 3.126940 0.000000 0.000000 
#    y 0.000000 3.204450 0.000000 
#    z 0.000000 0.000000 3.668540 
# 
# 
# High freq. dielectric constant tensor:
#      x y z
#    x 1.699870 0.000000 0.000000 
#    y 0.000000 1.694280 0.000000 
#    z 0.000000 0.000000 1.738130 
# 
# From -- ./inp_files/3736.got.cif
#   From: 2010.03.12/outbox.cif.g09.slc.cpg/sg53_2_cif.got.tgz:3736.got - 2010.04.16 14:36:59.
