data_PCOD8219518
_publ_section_title
;
Structure prediction by ZEFSAII (Michael W. Deem and Ramdas Pophale) SiO2 
 PCOD8219518
Probable space group: P M N A
;
_chemical_formula_sum "Si O2"
_cell_formula_units_Z 48
_cell_length_a 10.126018
_cell_length_b 15.101275
_cell_length_c 17.287742
_cell_angle_alpha 90.000000
_cell_angle_beta 90.000000
_cell_angle_gamma 90.000000
_cell_volume 2643.568595
_symmetry_space_group_name_H-M "P M N A"
_symmetry_group_IT_number 53
_symmetry_cell_setting 'orthorhombic'
loop_
_space_group_symop_operation_xyz
x,y,z
1/2-x,-y,1/2+z
x,-y,-z
1/2-x,y,1/2-z
-x,-y,-z
1/2+x,y,1/2-z
-x,y,z
1/2+x,-y,1/2+z
loop_
_atom_site_type_symbol
_atom_site_label
_atom_site_fract_x
_atom_site_fract_y
_atom_site_fract_z
Si Si1 0.500000 0.291895 0.341169
Si Si2 0.000000 0.399680 0.480065
Si Si3 0.254609 0.194600 0.114968
Si Si4 0.153256 0.990637 0.587233
Si Si5 0.757115 0.706839 0.460291
Si Si6 0.000000 0.303609 0.329464
Si Si7 0.500000 0.606439 0.501718
Si Si8 0.343657 0.827709 0.176046
O O1 0.376741 0.226757 0.344040
O O2 0.500000 0.341055 0.258074
O O3 0.500000 0.365803 0.407936
O O4 0.000000 0.500000 0.500000
O O5 0.872090 0.358844 0.517707
O O6 0.000000 0.387213 0.387222
O O7 0.267103 0.089394 0.127137
O O8 0.373796 0.243546 0.156165
O O9 0.248573 0.215061 0.023339
O O10 0.000000 0.964183 0.585891
O O11 0.205572 0.000000 0.500000
O O12 0.179864 0.079169 0.634493
O O13 0.624974 0.647762 0.457265
O O14 0.790744 0.748996 0.377894
O O15 0.500000 0.500000 0.500000
O O16 0.250000 0.825125 0.250000
O O17 0.500000 0.814849 0.195695
#
# Coordination Sequence:
#
# PCOD8219518 Si02
#       8
#     4   4   8   8   8   4   4   8
#     4  10  22  36  54  88 123 145 190 247 300 349
#     4  10  20  36  63  91 112 144 204 252 292 358
#     4  10  19  36  58  84 111 158 195 234 292 356
#     4  10  19  35  62  84 113 154 203 244 284 347
#     4  10  20  38  62  85 115 154 200 242 294 368
#     4  10  20  34  58  82 117 149 190 243 300 351
#     4  10  22  40  63  87 120 160 194 236 306 378
#     4  11  24  40  59  87 123 163 208 253 296 345
#
# _framework density 18.157274000000001
#
# number of rings (size 3 to 8) (size 9 to 14) (size 15 to 20)
#    0.000    1.833    3.333    1.000    1.167    1.333 
#    1.500    2.083    0.000    0.000    0.000    0.000 
#    0.000    0.000    0.000    0.000    0.000    0.000 
#
# Total GULP energy -595167.016687 kJ/mol
# GULP energy per Si atom -12399.312848 kJ/mol
# Density = 1.811595 g / cm^3
# Si number density = 18.157274 Si / 1000 Ang^3
#
#
#
# Elastic Constant Matrix: (Units=GPa)
#
#
# Indices 1 2 3 4 5 6 
#
# 1 146.9709 59.4744 57.7291 0.0000 0.0000 0.0000
# 2 59.4744 133.2102 58.9276 0.0000 0.0000 0.0000
# 3 57.7291 58.9276 137.8254 0.0000 0.0000 0.0000
# 4 0.0000 0.0000 0.0000 16.7790 0.0000 0.0000
# 5 0.0000 0.0000 0.0000 0.0000 38.3133 0.0000
# 6 0.0000 0.0000 0.0000 0.0000 0.0000 77.1277
#
#
#
# Elastic Compliance Matrix: (Units=1/GPa)
#
#
# Indices 1 2 3 4 5 6 
#
# 1 0.008962 -0.002887 -0.002520 0.000000 0.000000 0.000000
# 2 -0.002887 0.010188 -0.003147 0.000000 0.000000 0.000000
# 3 -0.002520 -0.003147 0.009656 0.000000 0.000000 0.000000
# 4 0.000000 0.000000 0.000000 0.059598 0.000000 0.000000
# 5 0.000000 0.000000 0.000000 0.000000 0.026101 0.000000
# 6 0.000000 0.000000 0.000000 0.000000 0.000000 0.012966
#
#
# Mechanical properties :
#
#
# Convention : Reuss Voigt Hill
#
# Bulk Modulus (GPa) = 85.46952 85.58540 85.52746
# Shear Modulus (GPa) = 33.67550 42.56904 38.12227
#
# Velocity S-wave (km/s) = 4.31124 4.84722 4.58707
# Velocity P-wave (km/s) = 8.48271 8.86371 8.67530
#
# Compressibility (1/GPa) = 0.01170008
#
# Stress axis : x y z
#
# Youngs Moduli (GPa) = 111.58402 98.15730 103.55970
#
# Poissons Ratio (x) = 0.28335 0.26092
# Poissons Ratio (y) = 0.32210 0.32587
# Poissons Ratio (z) = 0.28114 0.30887
#
# Static dielectric constant tensor:
#      x y z
#    x 3.427270 0.000000 0.000000 
#    y 0.000000 3.149240 0.000000 
#    z 0.000000 0.000000 3.370310 
# 
# 
# High freq. dielectric constant tensor:
#      x y z
#    x 1.714150 0.000000 0.000000 
#    y 0.000000 1.695350 0.000000 
#    z 0.000000 0.000000 1.699380 
# 
# From -- ./inp_files/26363.got.cif
#   From: 2010.03.12/outbox.cif.g09.slc.cpg/sg53_14_cif.got.tgz:26363.got - 2010.04.16 14:36:59.
