data_PCOD8219188
_publ_section_title
;
Structure prediction by ZEFSAII (Michael W. Deem and Ramdas Pophale) SiO2 
 PCOD8219188
Probable space group: P M N A
;
_chemical_formula_sum "Si O2"
_cell_formula_units_Z 48
_cell_length_a 8.889826
_cell_length_b 14.818118
_cell_length_c 18.887785
_cell_angle_alpha 90.000000
_cell_angle_beta 90.000000
_cell_angle_gamma 90.000000
_cell_volume 2488.097186
_symmetry_space_group_name_H-M "P M N A"
_symmetry_group_IT_number 53
_symmetry_cell_setting 'orthorhombic'
loop_
_space_group_symop_operation_xyz
x,y,z
1/2-x,-y,1/2+z
x,-y,-z
1/2-x,y,1/2-z
-x,-y,-z
1/2+x,y,1/2-z
-x,y,z
1/2+x,-y,1/2+z
loop_
_atom_site_type_symbol
_atom_site_label
_atom_site_fract_x
_atom_site_fract_y
_atom_site_fract_z
Si Si1 0.325546 0.469821 0.826258
Si Si2 0.176996 0.120420 0.546125
Si Si3 0.172828 0.674634 0.439484
Si Si4 0.325422 0.215366 0.322100
Si Si5 0.677277 0.045742 0.405707
Si Si6 0.822992 0.376489 0.080400
O O1 0.250000 0.467743 0.750000
O O2 0.500000 0.491597 0.815543
O O3 0.299888 0.373466 0.864267
O O4 0.256108 0.545056 0.876422
O O5 0.219258 0.220973 0.570770
O O6 0.269136 0.096496 0.476164
O O7 0.000000 0.108633 0.532776
O O8 0.233717 0.048604 0.605543
O O9 0.270772 0.624729 0.499121
O O10 0.000000 0.666704 0.463539
O O11 0.250000 0.246463 0.250000
O O12 0.500000 0.226653 0.309743
O O13 0.282864 0.112276 0.340909
O O14 0.273791 0.281297 0.385153
O O15 0.500000 0.027620 0.411056
O O16 0.000000 0.393060 0.082701
#
# Coordination Sequence:
#
# PCOD8219188 Si02
#       6
#     8   8   8   8   8   8
#     4  11  24  42  60  83 115 153 193 237 291 345
#     4  10  19  33  56  84 109 144 187 230 279 333
#     4  10  22  39  60  86 117 150 190 240 288 340
#     4  10  22  36  53  80 115 152 189 232 286 342
#     4  10  19  34  53  79 113 147 183 232 282 333
#     4  11  22  38  60  88 116 149 192 238 289 347
#
# _framework density 19.291851000000001
#
# number of rings (size 3 to 8) (size 9 to 14) (size 15 to 20)
#    0.000    1.667    1.667    4.000    0.000    8.000 
#    0.000    0.833    0.000    4.000    0.000    0.000 
#    0.000    0.000    0.000    0.000    0.000    0.000 
#
# Total GULP energy -595224.163236 kJ/mol
# GULP energy per Si atom -12400.503401 kJ/mol
# Density = 1.924794 g / cm^3
# Si number density = 19.291851 Si / 1000 Ang^3
#
#
#
# Elastic Constant Matrix: (Units=GPa)
#
#
# Indices 1 2 3 4 5 6 
#
# 1 68.1138 51.3278 28.2018 0.0000 0.0000 0.0000
# 2 51.3278 132.9530 37.0214 0.0000 0.0000 0.0000
# 3 28.2018 37.0214 54.9913 0.0000 0.0000 0.0000
# 4 0.0000 0.0000 0.0000 28.0616 0.0000 0.0000
# 5 0.0000 0.0000 0.0000 0.0000 29.6539 0.0000
# 6 0.0000 0.0000 0.0000 0.0000 0.0000 33.3186
#
#
#
# Elastic Compliance Matrix: (Units=1/GPa)
#
#
# Indices 1 2 3 4 5 6 
#
# 1 0.022744 -0.006809 -0.007080 0.000000 0.000000 0.000000
# 2 -0.006809 0.011295 -0.004112 0.000000 0.000000 0.000000
# 3 -0.007080 -0.004112 0.024584 0.000000 0.000000 0.000000
# 4 0.000000 0.000000 0.000000 0.035636 0.000000 0.000000
# 5 0.000000 0.000000 0.000000 0.000000 0.033722 0.000000
# 6 0.000000 0.000000 0.000000 0.000000 0.000000 0.030013
#
#
# Mechanical properties :
#
#
# Convention : Reuss Voigt Hill
#
# Bulk Modulus (GPa) = 44.20754 54.35112 49.27933
# Shear Modulus (GPa) = 24.80935 27.50729 26.15832
#
# Velocity S-wave (km/s) = 3.58998 3.78014 3.68628
# Velocity P-wave (km/s) = 6.33631 6.87655 6.61195
#
# Compressibility (1/GPa) = 0.02262058
#
# Stress axis : x y z
#
# Youngs Moduli (GPa) = 43.96835 88.53318 40.67678
#
# Poissons Ratio (x) = 0.60282 0.28799
# Poissons Ratio (y) = 0.29938 0.16727
# Poissons Ratio (z) = 0.31129 0.36407
#
# Static dielectric constant tensor:
#      x y z
#    x 3.575940 0.000000 0.000000 
#    y 0.000000 4.097130 0.000000 
#    z 0.000000 0.000000 3.346570 
# 
# 
# High freq. dielectric constant tensor:
#      x y z
#    x 1.759400 0.000000 0.000000 
#    y 0.000000 1.766280 0.000000 
#    z 0.000000 0.000000 1.729990 
# 
# From -- ./inp_files/30537.got.cif
#   From: 2010.03.12/outbox.cif.g09.slc.cpg/sg53_16_cif.got.tgz:30537.got - 2010.04.16 14:36:59.
