data_PCOD8219751
_publ_section_title
;
Structure prediction by ZEFSAII (Michael W. Deem and Ramdas Pophale) SiO2 
 PCOD8219751
Probable space group: P M N A
;
_chemical_formula_sum "Si O2"
_cell_formula_units_Z 28
_cell_length_a 25.436358
_cell_length_b 4.930184
_cell_length_c 11.800346
_cell_angle_alpha 90.000000
_cell_angle_beta 90.000000
_cell_angle_gamma 90.000000
_cell_volume 1479.833308
_symmetry_space_group_name_H-M "P M N A"
_symmetry_group_IT_number 53
_symmetry_cell_setting 'orthorhombic'
loop_
_space_group_symop_operation_xyz
x,y,z
1/2-x,-y,1/2+z
x,-y,-z
1/2-x,y,1/2-z
-x,-y,-z
1/2+x,y,1/2-z
-x,y,z
1/2+x,-y,1/2+z
loop_
_atom_site_type_symbol
_atom_site_label
_atom_site_fract_x
_atom_site_fract_y
_atom_site_fract_z
Si Si1 0.387988 0.622953 0.873129
Si Si2 0.500000 0.749290 0.919094
Si Si3 0.232942 0.245073 0.923314
Si Si4 0.332484 0.846492 0.214315
O O1 0.446205 0.741685 0.846985
O O2 0.380634 0.365753 0.790822
O O3 0.347101 0.863775 0.841812
O O4 0.380154 0.500000 0.000000
O O5 0.500000 0.500000 0.000000
O O6 0.500000 0.000000 0.000000
O O7 0.184914 0.134517 0.845261
O O8 0.285051 0.307789 0.850920
O O9 0.215663 0.500000 0.000000
O O10 0.250252 0.000000 0.000000
#
# Coordination Sequence:
#
# PCOD8219751 Si02
#       4
#     8   4   8   8
#     4  11  20  34  53  79 110 138 168 212 261 317
#     4  10  20  32  50  78 108 136 166 206 262 316
#     4  11  22  36  52  76 108 139 176 220 254 304
#     4  11  22  34  54  79 104 142 179 206 263 316
#
# _framework density 18.921050999999999
#
# number of rings (size 3 to 8) (size 9 to 14) (size 15 to 20)
#    0.000    1.143    0.000   10.286    0.000    4.571 
#    0.000    0.000    0.000    0.000    0.000   20.000 
#    0.000    0.000    0.000    0.000    0.000    0.000 
#
# Total GULP energy -346946.449151 kJ/mol
# GULP energy per Si atom -12390.944613 kJ/mol
# Density = 1.887799 g / cm^3
# Si number density = 18.921051 Si / 1000 Ang^3
#
#
#
# Elastic Constant Matrix: (Units=GPa)
#
#
# Indices 1 2 3 4 5 6 
#
# 1 80.3654 28.2386 32.9210 0.0000 0.0000 0.0000
# 2 28.2386 127.8547 28.1544 0.0000 0.0000 0.0000
# 3 32.9210 28.1544 67.3145 0.0000 0.0000 0.0000
# 4 0.0000 0.0000 0.0000 27.4333 0.0000 0.0000
# 5 0.0000 0.0000 0.0000 0.0000 31.1312 0.0000
# 6 0.0000 0.0000 0.0000 0.0000 0.0000 33.9754
#
#
#
# Elastic Compliance Matrix: (Units=1/GPa)
#
#
# Indices 1 2 3 4 5 6 
#
# 1 0.016010 -0.001996 -0.006995 0.000000 0.000000 0.000000
# 2 -0.001996 0.008864 -0.002731 0.000000 0.000000 0.000000
# 3 -0.006995 -0.002731 0.019419 0.000000 0.000000 0.000000
# 4 0.000000 0.000000 0.000000 0.036452 0.000000 0.000000
# 5 0.000000 0.000000 0.000000 0.000000 0.032122 0.000000
# 6 0.000000 0.000000 0.000000 0.000000 0.000000 0.029433
#
#
# Mechanical properties :
#
#
# Convention : Reuss Voigt Hill
#
# Bulk Modulus (GPa) = 47.96509 50.46249 49.21379
# Shear Modulus (GPa) = 28.95307 30.92269 29.93788
#
# Velocity S-wave (km/s) = 3.91603 4.04703 3.98207
# Velocity P-wave (km/s) = 6.77142 6.96892 6.87088
#
# Compressibility (1/GPa) = 0.02084850
#
# Stress axis : x y z
#
# Youngs Moduli (GPa) = 62.46142 112.82132 51.49586
#
# Poissons Ratio (x) = 0.22515 0.36022
# Poissons Ratio (y) = 0.12465 0.14065
# Poissons Ratio (z) = 0.43693 0.30814
#
# Static dielectric constant tensor:
#      x y z
#    x 3.611110 0.000000 0.000000 
#    y 0.000000 3.319940 0.000000 
#    z 0.000000 0.000000 3.281180 
# 
# 
# High freq. dielectric constant tensor:
#      x y z
#    x 1.726250 0.000000 0.000000 
#    y 0.000000 1.758510 0.000000 
#    z 0.000000 0.000000 1.699860 
# 
# From -- ./inp_files/17308.got.cif
#   From: 2010.03.12/outbox.cif.g09.slc.cpg/sg53_9_cif.got.tgz:17308.got - 2010.04.16 14:36:59.
