data_PCOD8219029
_publ_section_title
;
Structure prediction by ZEFSAII (Michael W. Deem and Ramdas Pophale) SiO2 
 PCOD8219029
Probable space group: P M N A
;
_chemical_formula_sum "Si O2"
_cell_formula_units_Z 64
_cell_length_a 27.735992
_cell_length_b 8.916363
_cell_length_c 14.602490
_cell_angle_alpha 90.000000
_cell_angle_beta 90.000000
_cell_angle_gamma 90.000000
_cell_volume 3611.256711
_symmetry_space_group_name_H-M "P M N A"
_symmetry_group_IT_number 53
_symmetry_cell_setting 'orthorhombic'
loop_
_space_group_symop_operation_xyz
x,y,z
1/2-x,-y,1/2+z
x,-y,-z
1/2-x,y,1/2-z
-x,-y,-z
1/2+x,y,1/2-z
-x,y,z
1/2+x,-y,1/2+z
loop_
_atom_site_type_symbol
_atom_site_label
_atom_site_fract_x
_atom_site_fract_y
_atom_site_fract_z
Si Si1 0.323112 0.076778 0.591289
Si Si2 0.946016 0.426525 0.593924
Si Si3 0.279589 0.064461 0.095992
Si Si4 0.357786 0.574203 0.213558
Si Si5 0.268725 0.391783 0.150795
Si Si6 0.178449 0.574056 0.089933
Si Si7 0.141241 0.078484 0.716220
Si Si8 0.053956 0.074758 0.593494
O O1 0.314665 0.250915 0.571898
O O2 0.360420 0.051223 0.674455
O O3 0.344659 0.000000 0.500000
O O4 0.272329 0.004241 0.618889
O O5 0.927582 0.500000 0.500000
O O6 0.910690 0.471718 0.677174
O O7 0.945594 0.250614 0.577366
O O8 0.000000 0.482837 0.618877
O O9 0.275626 0.244299 0.089166
O O10 0.316675 0.022938 0.175264
O O11 0.299207 0.000000 0.000000
O O12 0.318981 0.479036 0.157731
O O13 0.355413 0.541425 0.322279
O O14 0.346881 0.748643 0.194139
O O15 0.250000 0.340597 0.250000
O O16 0.231049 0.503070 0.103675
O O17 0.153996 0.500000 0.000000
O O18 0.089632 0.028700 0.675786
O O19 0.000000 0.018341 0.618564
O O20 0.072445 0.000000 0.500000
#
# Coordination Sequence:
#
# PCOD8219029 Si02
#       8
#     8   8   8   8   8   8   8   8
#     4  10  20  33  49  69  94 128 164 198 238 281
#     4   9  18  33  52  73  97 124 154 191 235 283
#     4  11  21  31  46  71 100 130 162 195 236 282
#     4   9  20  33  49  72  95 126 162 197 239 284
#     4  10  20  33  48  69  97 130 165 199 236 279
#     4  10  19  33  50  68  95 127 162 201 238 279
#     4  10  19  33  50  70  98 127 159 198 238 283
#     4   9  18  33  52  74  98 124 155 190 233 283
#
# _framework density 17.722363000000001
#
# number of rings (size 3 to 8) (size 9 to 14) (size 15 to 20)
#    0.000    2.250    0.000    3.750    0.000    6.500 
#    0.000    0.000    0.000    0.750    0.000    0.000 
#    0.000    0.000    0.000    0.000    0.000    2.125 
#
# Total GULP energy -793636.450974 kJ/mol
# GULP energy per Si atom -12400.569546 kJ/mol
# Density = 1.768203 g / cm^3
# Si number density = 17.722363 Si / 1000 Ang^3
#
#
#
# Elastic Constant Matrix: (Units=GPa)
#
#
# Indices 1 2 3 4 5 6 
#
# 1 96.6871 38.7369 68.1222 0.0000 0.0000 0.0000
# 2 38.7369 85.7528 55.3123 0.0000 0.0000 0.0000
# 3 68.1222 55.3123 132.7661 0.0000 0.0000 0.0000
# 4 0.0000 0.0000 0.0000 32.3255 0.0000 0.0000
# 5 0.0000 0.0000 0.0000 0.0000 29.1000 0.0000
# 6 0.0000 0.0000 0.0000 0.0000 0.0000 16.9532
#
#
#
# Elastic Compliance Matrix: (Units=1/GPa)
#
#
# Indices 1 2 3 4 5 6 
#
# 1 0.016660 -0.002751 -0.007402 0.000000 0.000000 0.000000
# 2 -0.002751 0.016401 -0.005421 0.000000 0.000000 0.000000
# 3 -0.007402 -0.005421 0.013589 0.000000 0.000000 0.000000
# 4 0.000000 0.000000 0.000000 0.030935 0.000000 0.000000
# 5 0.000000 0.000000 0.000000 0.000000 0.034364 0.000000
# 6 0.000000 0.000000 0.000000 0.000000 0.000000 0.058986
#
#
# Mechanical properties :
#
#
# Convention : Reuss Voigt Hill
#
# Bulk Modulus (GPa) = 64.51378 71.06098 67.78738
# Shear Modulus (GPa) = 24.12525 25.87803 25.00164
#
# Velocity S-wave (km/s) = 3.69357 3.82539 3.76006
# Velocity P-wave (km/s) = 7.39401 7.72627 7.56197
#
# Compressibility (1/GPa) = 0.01550056
#
# Stress axis : x y z
#
# Youngs Moduli (GPa) = 60.02333 60.97157 73.59124
#
# Poissons Ratio (x) = 0.16776 0.54473
# Poissons Ratio (y) = 0.16515 0.39895
# Poissons Ratio (z) = 0.44430 0.33054
#
# Static dielectric constant tensor:
#      x y z
#    x 3.256990 0.000000 0.000000 
#    y 0.000000 3.311090 0.000000 
#    z 0.000000 0.000000 3.438110 
# 
# 
# High freq. dielectric constant tensor:
#      x y z
#    x 1.659040 0.000000 0.000000 
#    y 0.000000 1.691980 0.000000 
#    z 0.000000 0.000000 1.687590 
# 
# From -- ./inp_files/25231.got.cif
#   From: 2010.03.12/outbox.cif.g09.slc.cpg/sg53_13_cif.got.tgz:25231.got - 2010.04.16 14:36:59.
