data_PCOD8219996
_publ_section_title
;
Structure prediction by ZEFSAII (Michael W. Deem and Ramdas Pophale) SiO2 
 PCOD8219996
Probable space group: P M N A
;
_chemical_formula_sum "Si O2"
_cell_formula_units_Z 40
_cell_length_a 8.797750
_cell_length_b 25.480716
_cell_length_c 9.663101
_cell_angle_alpha 90.000000
_cell_angle_beta 90.000000
_cell_angle_gamma 90.000000
_cell_volume 2166.206043
_symmetry_space_group_name_H-M "P M N A"
_symmetry_group_IT_number 53
_symmetry_cell_setting 'orthorhombic'
loop_
_space_group_symop_operation_xyz
x,y,z
1/2-x,-y,1/2+z
x,-y,-z
1/2-x,y,1/2-z
-x,-y,-z
1/2+x,y,1/2-z
-x,y,z
1/2+x,-y,1/2+z
loop_
_atom_site_type_symbol
_atom_site_label
_atom_site_fract_x
_atom_site_fract_y
_atom_site_fract_z
Si Si1 0.179486 0.043091 0.104856
Si Si2 0.819150 0.750877 0.103509
Si Si3 0.821306 0.160404 0.105183
Si Si4 0.679905 0.641129 0.102157
Si Si5 0.321300 0.546871 0.902453
O O1 0.250000 0.028107 0.250000
O O2 0.229528 0.101808 0.058720
O O3 0.000000 0.039053 0.116849
O O4 0.245244 0.000000 0.000000
O O5 0.750000 0.765775 0.250000
O O6 0.750427 0.695955 0.051084
O O7 0.000000 0.746155 0.112127
O O8 0.763164 0.797379 0.004657
O O9 0.750000 0.176297 0.250000
O O10 0.000000 0.163144 0.122348
O O11 0.750000 0.623705 0.250000
O O12 0.500000 0.646442 0.122347
O O13 0.722229 0.600211 0.982018
O O14 0.250000 0.545415 0.750000
O O15 0.500000 0.541054 0.881767
O O16 0.259325 0.500000 0.000000
#
# Coordination Sequence:
#
# PCOD8219996 Si02
#       5
#     8   8   8   8   8
#     4   9  18  33  51  72  99 129 164 206 250 298
#     4  10  20  34  52  75 103 134 169 207 250 298
#     4   9  19  34  51  72  99 132 167 205 250 298
#     4  10  20  35  55  78 104 134 170 209 250 297
#     4  10  22  38  56  80 107 136 171 209 251 300
#
# _framework density 18.465464999999998
#
# number of rings (size 3 to 8) (size 9 to 14) (size 15 to 20)
#    0.000    2.400    0.000    3.000    0.000    5.600 
#    0.000    4.000    0.000    0.000    0.000    0.000 
#    0.000    0.000    0.000    0.000    0.000    0.000 
#
# Total GULP energy -495942.235181 kJ/mol
# GULP energy per Si atom -12398.555880 kJ/mol
# Density = 1.842344 g / cm^3
# Si number density = 18.465465 Si / 1000 Ang^3
#
#
#
# Elastic Constant Matrix: (Units=GPa)
#
#
# Indices 1 2 3 4 5 6 
#
# 1 50.7671 47.3267 46.4536 0.0000 0.0000 0.0000
# 2 47.3267 165.0194 125.6808 0.0000 0.0000 0.0000
# 3 46.4536 125.6808 157.3010 0.0000 0.0000 0.0000
# 4 0.0000 0.0000 0.0000 40.6400 0.0000 0.0000
# 5 0.0000 0.0000 0.0000 0.0000 33.5458 0.0000
# 6 0.0000 0.0000 0.0000 0.0000 0.0000 30.7691
#
#
#
# Elastic Compliance Matrix: (Units=1/GPa)
#
#
# Indices 1 2 3 4 5 6 
#
# 1 0.028221 -0.004461 -0.004770 0.000000 0.000000 0.000000
# 2 -0.004461 0.016184 -0.011614 0.000000 0.000000 0.000000
# 3 -0.004770 -0.011614 0.017045 0.000000 0.000000 0.000000
# 4 0.000000 0.000000 0.000000 0.024606 0.000000 0.000000
# 5 0.000000 0.000000 0.000000 0.000000 0.029810 0.000000
# 6 0.000000 0.000000 0.000000 0.000000 0.000000 0.032500
#
#
# Mechanical properties :
#
#
# Convention : Reuss Voigt Hill
#
# Bulk Modulus (GPa) = 50.60362 90.22329 70.41345
# Shear Modulus (GPa) = 25.42680 31.23273 28.32977
#
# Velocity S-wave (km/s) = 3.71481 4.11714 3.92114
# Velocity P-wave (km/s) = 6.77228 8.45977 7.66262
#
# Compressibility (1/GPa) = 0.01976143
#
# Stress axis : x y z
#
# Youngs Moduli (GPa) = 35.43463 61.78838 58.66797
#
# Poissons Ratio (x) = 0.27561 0.27986
# Poissons Ratio (y) = 0.15806 0.68135
# Poissons Ratio (z) = 0.16903 0.71759
#
# Static dielectric constant tensor:
#      x y z
#    x 3.345730 0.000000 0.000000 
#    y 0.000000 3.757680 0.000000 
#    z 0.000000 0.000000 3.322690 
# 
# 
# High freq. dielectric constant tensor:
#      x y z
#    x 1.715140 0.000000 0.000000 
#    y 0.000000 1.730750 0.000000 
#    z 0.000000 0.000000 1.714730 
# 
# From -- ./inp_files/6304.got.cif
#   From: 2010.03.12/outbox.cif.g09.slc.cpg/sg53_4_cif.got.tgz:6304.got - 2010.04.16 14:36:59.
