data_PCOD8219433
_publ_section_title
;
Structure prediction by ZEFSAII (Michael W. Deem and Ramdas Pophale) SiO2 
 PCOD8219433
Probable space group: P M N A
;
_chemical_formula_sum "Si O2"
_cell_formula_units_Z 40
_cell_length_a 14.970143
_cell_length_b 9.687384
_cell_length_c 13.799496
_cell_angle_alpha 90.000000
_cell_angle_beta 90.000000
_cell_angle_gamma 90.000000
_cell_volume 2001.223937
_symmetry_space_group_name_H-M "P M N A"
_symmetry_group_IT_number 53
_symmetry_cell_setting 'orthorhombic'
loop_
_space_group_symop_operation_xyz
x,y,z
1/2-x,-y,1/2+z
x,-y,-z
1/2-x,y,1/2-z
-x,-y,-z
1/2+x,y,1/2-z
-x,y,z
1/2+x,-y,1/2+z
loop_
_atom_site_type_symbol
_atom_site_label
_atom_site_fract_x
_atom_site_fract_y
_atom_site_fract_z
Si Si1 0.601344 0.959367 0.345289
Si Si2 0.774859 0.241344 0.949943
Si Si3 0.598140 0.770811 0.168754
Si Si4 0.179515 0.248886 0.165181
Si Si5 0.157173 0.452756 0.803732
O O1 0.500000 0.923185 0.376874
O O2 0.670520 0.897773 0.423587
O O3 0.623535 0.896323 0.240014
O O4 0.610042 0.123846 0.338060
O O5 0.672845 0.234069 0.913480
O O6 0.828389 0.370439 0.904122
O O7 0.766702 0.259459 0.064432
O O8 0.500000 0.792449 0.121284
O O9 0.591635 0.631097 0.233066
O O10 0.250000 0.222849 0.250000
O O11 0.122945 0.391211 0.177993
O O12 0.250000 0.465796 0.750000
#
# Coordination Sequence:
#
# PCOD8219433 Si02
#       5
#     8   8   8   8   8
#     4  10  21  36  55  79 106 138 178 225 273 321
#     4  10  19  35  57  78 106 145 183 217 264 327
#     4   9  18  36  60  82 105 138 183 227 268 322
#     4  11  21  33  52  78 111 145 177 219 269 315
#     4   8  17  33  54  78 104 138 176 214 262 313
#
# _framework density 19.987767999999999
#
# number of rings (size 3 to 8) (size 9 to 14) (size 15 to 20)
#    0.000    2.400    0.000    4.200    0.000    2.400 
#    0.000    1.000    0.000   26.400    0.000    0.000 
#    0.000    0.000    0.000    0.000    0.000    0.000 
#
# Total GULP energy -495873.920531 kJ/mol
# GULP energy per Si atom -12396.848013 kJ/mol
# Density = 1.994227 g / cm^3
# Si number density = 19.987768 Si / 1000 Ang^3
#
#
#
# Elastic Constant Matrix: (Units=GPa)
#
#
# Indices 1 2 3 4 5 6 
#
# 1 84.3747 20.6558 32.5940 0.0000 0.0000 0.0000
# 2 20.6558 147.8314 25.9244 0.0000 0.0000 0.0000
# 3 32.5940 25.9244 112.6702 0.0000 0.0000 0.0000
# 4 0.0000 0.0000 0.0000 13.9798 0.0000 0.0000
# 5 0.0000 0.0000 0.0000 0.0000 13.4558 0.0000
# 6 0.0000 0.0000 0.0000 0.0000 0.0000 28.0872
#
#
#
# Elastic Compliance Matrix: (Units=1/GPa)
#
#
# Indices 1 2 3 4 5 6 
#
# 1 0.013564 -0.001258 -0.003634 0.000000 0.000000 0.000000
# 2 -0.001258 0.007166 -0.001285 0.000000 0.000000 0.000000
# 3 -0.003634 -0.001285 0.010222 0.000000 0.000000 0.000000
# 4 0.000000 0.000000 0.000000 0.071532 0.000000 0.000000
# 5 0.000000 0.000000 0.000000 0.000000 0.074317 0.000000
# 6 0.000000 0.000000 0.000000 0.000000 0.000000 0.035603
#
#
# Mechanical properties :
#
#
# Convention : Reuss Voigt Hill
#
# Bulk Modulus (GPa) = 53.77037 55.91384 54.84211
# Shear Modulus (GPa) = 21.64898 28.81804 25.23351
#
# Velocity S-wave (km/s) = 3.29464 3.80120 3.55695
# Velocity P-wave (km/s) = 6.43684 6.87752 6.66082
#
# Compressibility (1/GPa) = 0.01859760
#
# Stress axis : x y z
#
# Youngs Moduli (GPa) = 73.72563 139.55691 97.82370
#
# Poissons Ratio (x) = 0.17554 0.35553
# Poissons Ratio (y) = 0.09274 0.12569
# Poissons Ratio (z) = 0.26795 0.17931
#
# Static dielectric constant tensor:
#      x y z
#    x 3.424380 0.000000 0.000000 
#    y 0.000000 4.209560 0.000000 
#    z 0.000000 0.000000 3.450000 
# 
# 
# High freq. dielectric constant tensor:
#      x y z
#    x 1.759250 0.000000 0.000000 
#    y 0.000000 1.793020 0.000000 
#    z 0.000000 0.000000 1.765850 
# 
# From -- ./inp_files/22425.got.cif
#   From: 2010.03.12/outbox.cif.g09.slc.cpg/sg53_12_cif.got.tgz:22425.got - 2010.04.16 14:36:59.
