data_PCOD8219722
_publ_section_title
;
Structure prediction by ZEFSAII (Michael W. Deem and Ramdas Pophale) SiO2 
 PCOD8219722
Probable space group: P M N A
;
_chemical_formula_sum "Si O2"
_cell_formula_units_Z 48
_cell_length_a 8.785445
_cell_length_b 31.466423
_cell_length_c 9.063579
_cell_angle_alpha 90.000000
_cell_angle_beta 90.000000
_cell_angle_gamma 90.000000
_cell_volume 2505.594951
_symmetry_space_group_name_H-M "P M N A"
_symmetry_group_IT_number 53
_symmetry_cell_setting 'orthorhombic'
loop_
_space_group_symop_operation_xyz
x,y,z
1/2-x,-y,1/2+z
x,-y,-z
1/2-x,y,1/2-z
-x,-y,-z
1/2+x,y,1/2-z
-x,y,z
1/2+x,-y,1/2+z
loop_
_atom_site_type_symbol
_atom_site_label
_atom_site_fract_x
_atom_site_fract_y
_atom_site_fract_z
Si Si1 0.175787 0.957662 0.406942
Si Si2 0.821773 0.624084 0.410773
Si Si3 0.679916 0.540993 0.411131
Si Si4 0.178208 0.283851 0.589567
Si Si5 0.179377 0.799834 0.088511
Si Si6 0.679420 0.117427 0.410339
O O1 0.250000 0.966229 0.250000
O O2 0.261178 0.919555 0.485877
O O3 0.000000 0.945315 0.387446
O O4 0.196896 0.000000 0.500000
O O5 0.750000 0.626397 0.250000
O O6 0.742401 0.583989 0.492856
O O7 0.792365 0.670135 0.489812
O O8 0.000000 0.614979 0.397092
O O9 0.736142 0.500000 0.500000
O O10 0.750000 0.537506 0.250000
O O11 0.500000 0.543285 0.401583
O O12 0.250000 0.286143 0.750000
O O13 0.257913 0.243591 0.510317
O O14 0.000000 0.274779 0.602749
O O15 0.250000 0.806979 0.250000
O O16 0.000000 0.796902 0.106345
O O17 0.228794 0.838015 0.982356
O O18 0.750000 0.113237 0.250000
O O19 0.500000 0.113264 0.395778
#
# Coordination Sequence:
#
# PCOD8219722 Si02
#       6
#     8   8   8   8   8   8
#     4  11  24  41  63  90 119 151 187 228 273 322
#     4   9  16  26  43  68  96 127 163 204 252 303
#     4  10  20  32  48  71  97 128 166 206 252 305
#     4   9  16  26  44  71 100 130 165 207 255 306
#     4  10  20  33  52  79 107 137 173 214 262 313
#     4  11  24  40  59  83 112 148 188 228 272 321
#
# _framework density 19.157128
#
# number of rings (size 3 to 8) (size 9 to 14) (size 15 to 20)
#    0.000    2.000    0.000    6.000    0.000   10.000 
#    0.000    0.000    0.000    1.000    0.000    0.000 
#    0.000    0.000    0.000    0.000    0.000    0.000 
#
# Total GULP energy -594880.596539 kJ/mol
# GULP energy per Si atom -12393.345761 kJ/mol
# Density = 1.911353 g / cm^3
# Si number density = 19.157128 Si / 1000 Ang^3
#
#
#
# Elastic Constant Matrix: (Units=GPa)
#
#
# Indices 1 2 3 4 5 6 
#
# 1 88.6110 57.2591 26.8495 0.0000 0.0000 0.0000
# 2 57.2591 157.9994 36.2527 0.0000 0.0000 0.0000
# 3 26.8495 36.2527 67.5502 0.0000 0.0000 0.0000
# 4 0.0000 0.0000 0.0000 20.1087 0.0000 0.0000
# 5 0.0000 0.0000 0.0000 0.0000 20.0319 0.0000
# 6 0.0000 0.0000 0.0000 0.0000 0.0000 39.6543
#
#
#
# Elastic Compliance Matrix: (Units=1/GPa)
#
#
# Indices 1 2 3 4 5 6 
#
# 1 0.015459 -0.004781 -0.003579 0.000000 0.000000 0.000000
# 2 -0.004781 0.008697 -0.002767 0.000000 0.000000 0.000000
# 3 -0.003579 -0.002767 0.017711 0.000000 0.000000 0.000000
# 4 0.000000 0.000000 0.000000 0.049730 0.000000 0.000000
# 5 0.000000 0.000000 0.000000 0.000000 0.049920 0.000000
# 6 0.000000 0.000000 0.000000 0.000000 0.000000 0.025218
#
#
# Mechanical properties :
#
#
# Convention : Reuss Voigt Hill
#
# Bulk Modulus (GPa) = 50.98543 61.65367 56.31955
# Shear Modulus (GPa) = 25.57196 28.87894 27.22545
#
# Velocity S-wave (km/s) = 3.65753 3.88684 3.77392
# Velocity P-wave (km/s) = 6.67149 7.23853 6.96079
#
# Compressibility (1/GPa) = 0.01961345
#
# Stress axis : x y z
#
# Youngs Moduli (GPa) = 64.68625 114.98547 56.46162
#
# Poissons Ratio (x) = 0.54978 0.20205
# Poissons Ratio (y) = 0.30929 0.15622
# Poissons Ratio (z) = 0.23149 0.31815
#
# Static dielectric constant tensor:
#      x y z
#    x 3.698100 0.000000 0.000000 
#    y 0.000000 4.679110 0.000000 
#    z 0.000000 0.000000 3.080390 
# 
# 
# High freq. dielectric constant tensor:
#      x y z
#    x 1.764290 0.000000 0.000000 
#    y 0.000000 1.780920 0.000000 
#    z 0.000000 0.000000 1.691500 
# 
# From -- ./inp_files/6667.got.cif
#   From: 2010.03.12/outbox.cif.g09.slc.cpg/sg53_4_cif.got.tgz:6667.got - 2010.04.16 14:36:59.
