data_PCOD8219301
_publ_section_title
;
Structure prediction by ZEFSAII (Michael W. Deem and Ramdas Pophale) SiO2 
 PCOD8219301
Probable space group: P M N A
;
_chemical_formula_sum "Si O2"
_cell_formula_units_Z 48
_cell_length_a 8.683218
_cell_length_b 31.410518
_cell_length_c 9.092130
_cell_angle_alpha 90.000000
_cell_angle_beta 90.000000
_cell_angle_gamma 90.000000
_cell_volume 2479.827317
_symmetry_space_group_name_H-M "P M N A"
_symmetry_group_IT_number 53
_symmetry_cell_setting 'orthorhombic'
loop_
_space_group_symop_operation_xyz
x,y,z
1/2-x,-y,1/2+z
x,-y,-z
1/2-x,y,1/2-z
-x,-y,-z
1/2+x,y,1/2-z
-x,y,z
1/2+x,-y,1/2+z
loop_
_atom_site_type_symbol
_atom_site_label
_atom_site_fract_x
_atom_site_fract_y
_atom_site_fract_z
Si Si1 0.182626 0.700477 0.410595
Si Si2 0.681428 0.459644 0.589412
Si Si3 0.681839 0.039374 0.410533
Si Si4 0.682898 0.776827 0.586237
Si Si5 0.179067 0.130461 0.092191
Si Si6 0.682551 0.376576 0.410052
O O1 0.250000 0.691664 0.250000
O O2 0.238200 0.745730 0.470636
O O3 0.241694 0.665098 0.522368
O O4 0.000000 0.699288 0.401464
O O5 0.747651 0.500000 0.500000
O O6 0.750000 0.459379 0.750000
O O7 0.500000 0.463099 0.603313
O O8 0.731735 0.416760 0.507659
O O9 0.750000 0.037344 0.250000
O O10 0.500000 0.033952 0.399325
O O11 0.724561 0.085548 0.487946
O O12 0.754764 0.000000 0.500000
O O13 0.750000 0.770085 0.750000
O O14 0.500000 0.768752 0.591776
O O15 0.725618 0.824117 0.520405
O O16 0.250000 0.128725 0.250000
O O17 0.000000 0.131125 0.118200
O O18 0.750000 0.384476 0.250000
O O19 0.500000 0.370548 0.402118
#
# Coordination Sequence:
#
# PCOD8219301 Si02
#       6
#     8   8   8   8   8   8
#     4  12  25  41  59  81 111 145 182 224 274 328
#     4  10  22  39  60  88 120 154 192 233 278 328
#     4   9  17  30  48  71 100 133 170 212 258 309
#     4  10  19  34  56  81 107 137 177 222 269 320
#     4   8  15  28  48  72  99 132 170 213 258 308
#     4  11  23  40  62  88 117 150 190 232 276 325
#
# _framework density 19.356185
#
# number of rings (size 3 to 8) (size 9 to 14) (size 15 to 20)
#    0.000    2.000    0.000    4.000    0.000    4.000 
#    0.000    0.833    0.000    2.000    0.000    0.000 
#    0.000    0.000    0.000    0.000    0.000    0.000 
#
# Total GULP energy -594797.310577 kJ/mol
# GULP energy per Si atom -12391.610637 kJ/mol
# Density = 1.931213 g / cm^3
# Si number density = 19.356185 Si / 1000 Ang^3
#
#
#
# Elastic Constant Matrix: (Units=GPa)
#
#
# Indices 1 2 3 4 5 6 
#
# 1 66.1717 47.2670 34.9219 0.0000 0.0000 0.0000
# 2 47.2670 173.6951 60.7969 0.0000 0.0000 0.0000
# 3 34.9219 60.7969 109.5818 0.0000 0.0000 0.0000
# 4 0.0000 0.0000 0.0000 876.7889 0.0000 0.0000
# 5 0.0000 0.0000 0.0000 0.0000 31.1336 0.0000
# 6 0.0000 0.0000 0.0000 0.0000 0.0000 21.3811
#
#
#
# Elastic Compliance Matrix: (Units=1/GPa)
#
#
# Indices 1 2 3 4 5 6 
#
# 1 0.020208 -0.004027 -0.004206 0.000000 0.000000 0.000000
# 2 -0.004027 0.007947 -0.003126 0.000000 0.000000 0.000000
# 3 -0.004206 -0.003126 0.012200 0.000000 0.000000 0.000000
# 4 0.000000 0.000000 0.000000 0.001141 0.000000 0.000000
# 5 0.000000 0.000000 0.000000 0.000000 0.032120 0.000000
# 6 0.000000 0.000000 0.000000 0.000000 0.000000 0.046770
#
#
# Mechanical properties :
#
#
# Convention : Reuss Voigt Hill
#
# Bulk Modulus (GPa) = 56.69477 70.60223 63.64850
# Shear Modulus (GPa) = 33.56086 199.62490 116.59288
#
# Velocity S-wave (km/s) = 4.16848 10.16643 7.76957
# Velocity P-wave (km/s) = 7.24722 13.20465 10.65094
#
# Compressibility (1/GPa) = 0.01763831
#
# Stress axis : x y z
#
# Youngs Moduli (GPa) = 49.48433 125.83054 81.96628
#
# Poissons Ratio (x) = 0.50674 0.34473
# Poissons Ratio (y) = 0.19928 0.25621
# Poissons Ratio (z) = 0.20812 0.39332
#
# Static dielectric constant tensor:
#      x y z
#    x 3.718910 0.000000 0.000000 
#    y 0.000000 4.457330 0.000000 
#    z 0.000000 0.000000 3.594330 
# 
# 
# High freq. dielectric constant tensor:
#      x y z
#    x 1.756370 0.000000 0.000000 
#    y 0.000000 1.787600 0.000000 
#    z 0.000000 0.000000 1.729100 
# 
# From -- ./inp_files/6664.got.cif
#   From: 2010.03.12/outbox.cif.g09.slc.cpg/sg53_4_cif.got.tgz:6664.got - 2010.04.16 14:36:59.
