data_PCOD8219102
_publ_section_title
;
Structure prediction by ZEFSAII (Michael W. Deem and Ramdas Pophale) SiO2 
 PCOD8219102
Probable space group: P M N A
;
_chemical_formula_sum "Si O2"
_cell_formula_units_Z 48
_cell_length_a 8.989870
_cell_length_b 31.392964
_cell_length_c 9.080056
_cell_angle_alpha 90.000000
_cell_angle_beta 90.000000
_cell_angle_gamma 90.000000
_cell_volume 2562.561285
_symmetry_space_group_name_H-M "P M N A"
_symmetry_group_IT_number 53
_symmetry_cell_setting 'orthorhombic'
loop_
_space_group_symop_operation_xyz
x,y,z
1/2-x,-y,1/2+z
x,-y,-z
1/2-x,y,1/2-z
-x,-y,-z
1/2+x,y,1/2-z
-x,y,z
1/2+x,-y,1/2+z
loop_
_atom_site_type_symbol
_atom_site_label
_atom_site_fract_x
_atom_site_fract_y
_atom_site_fract_z
Si Si1 0.325414 0.038817 0.906715
Si Si2 0.675431 0.458930 0.407632
Si Si3 0.173827 0.621511 0.093121
Si Si4 0.329493 0.130109 0.902598
Si Si5 0.323921 0.222890 0.910479
Si Si6 0.324269 0.295802 0.405754
O O1 0.250000 0.037563 0.750000
O O2 0.500000 0.031854 0.885271
O O3 0.291432 0.085222 0.985975
O O4 0.256639 0.000000 0.000000
O O5 0.724998 0.500000 0.500000
O O6 0.750000 0.460831 0.250000
O O7 0.500000 0.457351 0.383845
O O8 0.733378 0.417358 0.494012
O O9 0.250000 0.620681 0.250000
O O10 0.000000 0.616603 0.120088
O O11 0.214026 0.665257 0.012633
O O12 0.250000 0.129521 0.750000
O O13 0.500000 0.129860 0.860412
O O14 0.292451 0.175392 0.980033
O O15 0.250000 0.228390 0.750000
O O16 0.500000 0.232431 0.897012
O O17 0.247810 0.253839 0.026129
O O18 0.250000 0.305682 0.250000
O O19 0.500000 0.289391 0.385696
#
# Coordination Sequence:
#
# PCOD8219102 Si02
#       6
#     8   8   8   8   8   8
#     4   9  17  30  48  70  97 128 163 203 247 297
#     4  10  21  37  57  83 113 144 180 219 261 310
#     4  10  22  38  57  82 109 139 177 219 261 309
#     4   8  15  28  47  70  96 127 163 204 248 295
#     4  10  19  33  54  78 103 132 170 214 258 306
#     4  11  23  38  55  77 106 139 175 214 261 313
#
# _framework density 18.731259999999999
#
# number of rings (size 3 to 8) (size 9 to 14) (size 15 to 20)
#    0.000    2.333    0.000    2.500    0.000    4.667 
#    0.000    0.833    0.000    2.000    0.000    0.000 
#    0.000    0.000    0.000    0.000    0.000    0.000 
#
# Total GULP energy -594784.450808 kJ/mol
# GULP energy per Si atom -12391.342725 kJ/mol
# Density = 1.868863 g / cm^3
# Si number density = 18.731260 Si / 1000 Ang^3
#
#
#
# Elastic Constant Matrix: (Units=GPa)
#
#
# Indices 1 2 3 4 5 6 
#
# 1 55.8986 55.4886 47.2277 0.0000 0.0000 0.0000
# 2 55.4886 181.0893 73.2735 0.0000 0.0000 0.0000
# 3 47.2277 73.2735 122.6589 0.0000 0.0000 0.0000
# 4 0.0000 0.0000 0.0000 28.2239 0.0000 0.0000
# 5 0.0000 0.0000 0.0000 0.0000 32.0699 0.0000
# 6 0.0000 0.0000 0.0000 0.0000 0.0000 23.7368
#
#
#
# Elastic Compliance Matrix: (Units=1/GPa)
#
#
# Indices 1 2 3 4 5 6 
#
# 1 0.030963 -0.006150 -0.008248 0.000000 0.000000 0.000000
# 2 -0.006150 0.008504 -0.002712 0.000000 0.000000 0.000000
# 3 -0.008248 -0.002712 0.012948 0.000000 0.000000 0.000000
# 4 0.000000 0.000000 0.000000 0.035431 0.000000 0.000000
# 5 0.000000 0.000000 0.000000 0.000000 0.031182 0.000000
# 6 0.000000 0.000000 0.000000 0.000000 0.000000 0.042129
#
#
# Mechanical properties :
#
#
# Convention : Reuss Voigt Hill
#
# Bulk Modulus (GPa) = 54.95897 79.06958 67.01428
# Shear Modulus (GPa) = 24.82097 29.04992 26.93545
#
# Velocity S-wave (km/s) = 3.64415 3.94239 3.79620
# Velocity P-wave (km/s) = 6.86374 7.93899 7.42087
#
# Compressibility (1/GPa) = 0.01819539
#
# Stress axis : x y z
#
# Youngs Moduli (GPa) = 32.29647 117.59103 77.22931
#
# Poissons Ratio (x) = 0.72322 0.63697
# Poissons Ratio (y) = 0.19863 0.20945
# Poissons Ratio (z) = 0.26637 0.31891
#
# Static dielectric constant tensor:
#      x y z
#    x 2.850710 0.000000 0.000000 
#    y 0.000000 4.346520 0.000000 
#    z 0.000000 0.000000 3.173480 
# 
# 
# High freq. dielectric constant tensor:
#      x y z
#    x 1.728300 0.000000 0.000000 
#    y 0.000000 1.759950 0.000000 
#    z 0.000000 0.000000 1.700970 
# 
# From -- ./inp_files/6614.got.cif
#   From: 2010.03.12/outbox.cif.g09.slc.cpg/sg53_4_cif.got.tgz:6614.got - 2010.04.16 14:36:59.
