data_PCOD8219956
_publ_section_title
;
Structure prediction by ZEFSAII (Michael W. Deem and Ramdas Pophale) SiO2 
 PCOD8219956
Probable space group: P M N A
;
_chemical_formula_sum "Si O2"
_cell_formula_units_Z 48
_cell_length_a 9.376616
_cell_length_b 14.980548
_cell_length_c 20.394735
_cell_angle_alpha 90.000000
_cell_angle_beta 90.000000
_cell_angle_gamma 90.000000
_cell_volume 2864.784102
_symmetry_space_group_name_H-M "P M N A"
_symmetry_group_IT_number 53
_symmetry_cell_setting 'orthorhombic'
loop_
_space_group_symop_operation_xyz
x,y,z
1/2-x,-y,1/2+z
x,-y,-z
1/2-x,y,1/2-z
-x,-y,-z
1/2+x,y,1/2-z
-x,y,z
1/2+x,-y,1/2+z
loop_
_atom_site_type_symbol
_atom_site_label
_atom_site_fract_x
_atom_site_fract_y
_atom_site_fract_z
Si Si1 0.670182 0.418617 0.456380
Si Si2 0.659455 0.819021 0.655762
Si Si3 0.833173 0.073342 0.551830
Si Si4 0.832833 0.013357 0.310755
Si Si5 0.338015 0.225541 0.492968
Si Si6 0.664951 0.616016 0.687640
O O1 0.730065 0.500000 0.500000
O O2 0.500000 0.415647 0.455351
O O3 0.724265 0.326299 0.488878
O O4 0.721776 0.427718 0.380638
O O5 0.500000 0.850335 0.676317
O O6 0.777946 0.885054 0.683997
O O7 0.670854 0.819660 0.577711
O O8 0.690841 0.721573 0.683950
O O9 0.756448 0.168050 0.542667
O O10 0.000000 0.088630 0.541410
O O11 0.776534 0.000000 0.500000
O O12 0.794925 0.041193 0.624393
O O13 0.750000 0.967019 0.250000
O O14 0.000000 0.015076 0.296971
O O15 0.500000 0.226444 0.519017
O O16 0.750000 0.576484 0.750000
O O17 0.500000 0.592805 0.698069
#
# Coordination Sequence:
#
# PCOD8219956 Si02
#       6
#     8   8   8   8   8   8
#     4   8  15  30  51  73  97 124 158 198 240 284
#     4   9  17  29  44  67  97 124 154 190 232 282
#     4  10  20  34  49  68  96 129 162 194 238 288
#     4  11  22  33  46  65  93 128 164 199 238 283
#     4   9  17  29  50  76  95 120 161 203 235 275
#     4   9  17  28  44  68  96 125 154 187 232 286
#
# _framework density 16.755189999999999
#
# number of rings (size 3 to 8) (size 9 to 14) (size 15 to 20)
#    0.000    2.667    1.667    3.000    0.000    3.667 
#    0.000    2.500    0.000    3.000    0.000    4.667 
#    0.000    0.000    0.000    0.000    0.000    0.000 
#
# Total GULP energy -595056.208450 kJ/mol
# GULP energy per Si atom -12397.004343 kJ/mol
# Density = 1.671705 g / cm^3
# Si number density = 16.755190 Si / 1000 Ang^3
#
#
#
# Elastic Constant Matrix: (Units=GPa)
#
#
# Indices 1 2 3 4 5 6 
#
# 1 57.1172 33.9331 53.6302 0.0000 0.0000 0.0000
# 2 33.9331 83.0241 62.8502 0.0000 0.0000 0.0000
# 3 53.6302 62.8502 129.5543 0.0000 0.0000 0.0000
# 4 0.0000 0.0000 0.0000 23.2381 0.0000 0.0000
# 5 0.0000 0.0000 0.0000 0.0000 28.0833 0.0000
# 6 0.0000 0.0000 0.0000 0.0000 0.0000 14.4489
#
#
#
# Elastic Compliance Matrix: (Units=1/GPa)
#
#
# Indices 1 2 3 4 5 6 
#
# 1 0.029653 -0.004468 -0.010107 0.000000 0.000000 0.000000
# 2 -0.004468 0.019709 -0.007712 0.000000 0.000000 0.000000
# 3 -0.010107 -0.007712 0.015644 0.000000 0.000000 0.000000
# 4 0.000000 0.000000 0.000000 0.043033 0.000000 0.000000
# 5 0.000000 0.000000 0.000000 0.000000 0.035608 0.000000
# 6 0.000000 0.000000 0.000000 0.000000 0.000000 0.069210
#
#
# Mechanical properties :
#
#
# Convention : Reuss Voigt Hill
#
# Bulk Modulus (GPa) = 48.94496 63.39142 56.16819
# Shear Modulus (GPa) = 18.92216 21.10618 20.01417
#
# Velocity S-wave (km/s) = 3.36420 3.55305 3.45991
# Velocity P-wave (km/s) = 6.66076 7.39920 7.03967
#
# Compressibility (1/GPa) = 0.02043111
#
# Stress axis : x y z
#
# Youngs Moduli (GPa) = 33.72379 50.73920 63.92258
#
# Poissons Ratio (x) = 0.22670 0.64609
# Poissons Ratio (y) = 0.15068 0.49295
# Poissons Ratio (z) = 0.34086 0.39128
#
# Static dielectric constant tensor:
#      x y z
#    x 2.958360 0.000000 0.000000 
#    y 0.000000 2.984990 0.000000 
#    z 0.000000 0.000000 3.300940 
# 
# 
# High freq. dielectric constant tensor:
#      x y z
#    x 1.629140 0.000000 0.000000 
#    y 0.000000 1.614080 0.000000 
#    z 0.000000 0.000000 1.649880 
# 
# From -- ./inp_files/26411.got.cif
#   From: 2010.03.12/outbox.cif.g09.slc.cpg/sg53_14_cif.got.tgz:26411.got - 2010.04.16 14:36:59.
