data_PCOD8219770
_publ_section_title
;
Structure prediction by ZEFSAII (Michael W. Deem and Ramdas Pophale) SiO2 
 PCOD8219770
Probable space group: P M N A
;
_chemical_formula_sum "Si O2"
_cell_formula_units_Z 64
_cell_length_a 8.828111
_cell_length_b 12.479085
_cell_length_c 31.489446
_cell_angle_alpha 90.000000
_cell_angle_beta 90.000000
_cell_angle_gamma 90.000000
_cell_volume 3469.089848
_symmetry_space_group_name_H-M "P M N A"
_symmetry_group_IT_number 53
_symmetry_cell_setting 'orthorhombic'
loop_
_space_group_symop_operation_xyz
x,y,z
1/2-x,-y,1/2+z
x,-y,-z
1/2-x,y,1/2-z
-x,-y,-z
1/2+x,y,1/2-z
-x,y,z
1/2+x,-y,1/2+z
loop_
_atom_site_type_symbol
_atom_site_label
_atom_site_fract_x
_atom_site_fract_y
_atom_site_fract_z
Si Si1 0.178850 0.811233 0.295057
Si Si2 0.320780 0.354430 0.866927
Si Si3 0.673250 0.585774 0.880374
Si Si4 0.678508 0.974497 0.354592
Si Si5 0.680370 0.821342 0.890147
Si Si6 0.666551 0.574103 0.537139
Si Si7 0.667545 0.183472 0.478726
Si Si8 0.321500 0.190023 0.572703
O O1 0.250000 0.783717 0.250000
O O2 0.225326 0.713436 0.325732
O O3 0.249420 0.921011 0.312888
O O4 0.000000 0.824799 0.291217
O O5 0.500000 0.357720 0.873944
O O6 0.259545 0.477323 0.858354
O O7 0.251209 0.300275 0.909388
O O8 0.500000 0.595205 0.867932
O O9 0.744847 0.705117 0.872888
O O10 0.697844 0.563945 0.929805
O O11 0.500000 0.982767 0.348363
O O12 0.724068 0.906511 0.396060
O O13 0.748615 0.092396 0.358553
O O14 0.500000 0.824211 0.888301
O O15 0.728565 0.848511 0.938705
O O16 0.722280 0.500000 0.500000
O O17 0.500000 0.539923 0.555497
O O18 0.651129 0.690678 0.518013
O O19 0.500000 0.130862 0.471987
O O20 0.735649 0.153402 0.525469
O O21 0.500000 0.209307 0.571138
#
# Coordination Sequence:
#
# PCOD8219770 Si02
#       8
#     8   8   8   8   8   8   8   8
#     4  10  20  36  59  85 108 127 151 188 239 297
#     4   9  18  32  51  75 102 130 160 198 246 298
#     4   9  18  31  46  66  94 130 167 201 241 288
#     4  10  20  35  54  75 100 130 167 209 252 298
#     4  10  20  33  48  68  97 136 180 217 251 293
#     4   9  16  25  39  60  87 122 165 211 251 287
#     4   9  17  29  43  62  92 130 172 216 260 299
#     4   9  18  31  48  70  96 129 169 214 261 305
#
# _framework density 18.448644000000002
#
# number of rings (size 3 to 8) (size 9 to 14) (size 15 to 20)
#    0.000    2.625    0.000    1.875    0.000    4.250 
#    0.000    5.000    0.000    0.750    0.000    1.750 
#    0.000    0.000    0.000    0.000    0.000    0.000 
#
# Total GULP energy -792872.976359 kJ/mol
# GULP energy per Si atom -12388.640256 kJ/mol
# Density = 1.840665 g / cm^3
# Si number density = 18.448644 Si / 1000 Ang^3
#
#
#
# Elastic Constant Matrix: (Units=GPa)
#
#
# Indices 1 2 3 4 5 6 
#
# 1 46.2450 27.5253 20.8167 0.0000 0.0000 0.0000
# 2 27.5253 116.1538 33.9691 0.0000 0.0000 0.0000
# 3 20.8167 33.9691 65.5675 0.0000 0.0000 0.0000
# 4 0.0000 0.0000 0.0000 17.2401 0.0000 0.0000
# 5 0.0000 0.0000 0.0000 0.0000 26.4312 0.0000
# 6 0.0000 0.0000 0.0000 0.0000 0.0000 20.8980
#
#
#
# Elastic Compliance Matrix: (Units=1/GPa)
#
#
# Indices 1 2 3 4 5 6 
#
# 1 0.027179 -0.004617 -0.006237 0.000000 0.000000 0.000000
# 2 -0.004617 0.010931 -0.004197 0.000000 0.000000 0.000000
# 3 -0.006237 -0.004197 0.019406 0.000000 0.000000 0.000000
# 4 0.000000 0.000000 0.000000 0.058004 0.000000 0.000000
# 5 0.000000 0.000000 0.000000 0.000000 0.037834 0.000000
# 6 0.000000 0.000000 0.000000 0.000000 0.000000 0.047851
#
#
# Mechanical properties :
#
#
# Convention : Reuss Voigt Hill
#
# Bulk Modulus (GPa) = 36.47769 43.62094 40.04931
# Shear Modulus (GPa) = 20.79461 22.62420 21.70940
#
# Velocity S-wave (km/s) = 3.36097 3.50570 3.43410
# Velocity P-wave (km/s) = 5.90567 6.33107 6.12207
#
# Compressibility (1/GPa) = 0.02741402
#
# Stress axis : x y z
#
# Youngs Moduli (GPa) = 36.79244 91.48460 51.52992
#
# Poissons Ratio (x) = 0.42236 0.32140
# Poissons Ratio (y) = 0.16986 0.21629
# Poissons Ratio (z) = 0.22948 0.38399
#
# Static dielectric constant tensor:
#      x y z
#    x 3.326060 0.000000 0.000000 
#    y 0.000000 3.717240 0.000000 
#    z 0.000000 0.000000 3.155900 
# 
# 
# High freq. dielectric constant tensor:
#      x y z
#    x 1.706620 0.000000 0.000000 
#    y 0.000000 1.726070 0.000000 
#    z 0.000000 0.000000 1.679600 
# 
# From -- ./inp_files/38293.got.cif
#   From: 2010.03.12/outbox.cif.g09.slc.cpg/sg53_20_cif.got.tgz:38293.got - 2010.04.16 14:36:59.
