data_PCOD8219740
_publ_section_title
;
Structure prediction by ZEFSAII (Michael W. Deem and Ramdas Pophale) SiO2 
 PCOD8219740
Probable space group: P M N A
;
_chemical_formula_sum "Si O2"
_cell_formula_units_Z 40
_cell_length_a 9.032349
_cell_length_b 9.380564
_cell_length_c 26.084998
_cell_angle_alpha 90.000000
_cell_angle_beta 90.000000
_cell_angle_gamma 90.000000
_cell_volume 2210.143480
_symmetry_space_group_name_H-M "P M N A"
_symmetry_group_IT_number 53
_symmetry_cell_setting 'orthorhombic'
loop_
_space_group_symop_operation_xyz
x,y,z
1/2-x,-y,1/2+z
x,-y,-z
1/2-x,y,1/2-z
-x,-y,-z
1/2+x,y,1/2-z
-x,y,z
1/2+x,-y,1/2+z
loop_
_atom_site_type_symbol
_atom_site_label
_atom_site_fract_x
_atom_site_fract_y
_atom_site_fract_z
Si Si1 0.671637 0.647588 0.702994
Si Si2 0.671207 0.657420 0.589130
Si Si3 0.674512 0.161685 0.004103
Si Si4 0.327998 0.655946 0.202422
Si Si5 0.672205 0.644086 0.089769
O O1 0.750000 0.736171 0.750000
O O2 0.500000 0.623942 0.715854
O O3 0.691493 0.718486 0.647135
O O4 0.757280 0.499313 0.700580
O O5 0.500000 0.647054 0.574294
O O6 0.750896 0.769524 0.553248
O O7 0.737195 0.500262 0.582015
O O8 0.500000 0.169207 0.012092
O O9 0.724060 0.243609 0.952754
O O10 0.730464 0.000000 0.000000
O O11 0.250000 0.741883 0.250000
O O12 0.500000 0.647297 0.215132
O O13 0.299664 0.719454 0.145426
O O14 0.500000 0.603770 0.083855
#
# Coordination Sequence:
#
# PCOD8219740 Si02
#       5
#     8   8   8   8   8
#     4   9  16  26  42  67  97 124 152 187 230 279
#     4  10  20  32  49  75 102 126 156 197 242 286
#     4  10  21  36  52  69  92 127 168 204 240 285
#     4   9  15  24  41  66  95 122 149 186 232 278
#     4   9  18  32  50  72  97 125 159 198 236 280
#
# _framework density 18.098374
#
# number of rings (size 3 to 8) (size 9 to 14) (size 15 to 20)
#    0.000    2.600    0.000    3.600    0.000    6.800 
#    0.000    0.000    0.000    1.200    0.000    5.600 
#    0.000    0.000    0.000    0.000    0.000    0.000 
#
# Total GULP energy -495589.630399 kJ/mol
# GULP energy per Si atom -12389.740760 kJ/mol
# Density = 1.805718 g / cm^3
# Si number density = 18.098374 Si / 1000 Ang^3
#
#
#
# Elastic Constant Matrix: (Units=GPa)
#
#
# Indices 1 2 3 4 5 6 
#
# 1 79.1425 31.0114 60.2360 0.0000 0.0000 0.0000
# 2 31.0114 74.3623 59.3436 0.0000 0.0000 0.0000
# 3 60.2360 59.3436 171.2330 0.0000 0.0000 0.0000
# 4 0.0000 0.0000 0.0000 1.6661 0.0000 0.0000
# 5 0.0000 0.0000 0.0000 0.0000 34.8104 0.0000
# 6 0.0000 0.0000 0.0000 0.0000 0.0000 6.3602
#
#
#
# Elastic Compliance Matrix: (Units=1/GPa)
#
#
# Indices 1 2 3 4 5 6 
#
# 1 0.017843 -0.003362 -0.005112 0.000000 0.000000 0.000000
# 2 -0.003362 0.019222 -0.005479 0.000000 0.000000 0.000000
# 3 -0.005112 -0.005479 0.009537 0.000000 0.000000 0.000000
# 4 0.000000 0.000000 0.000000 0.600219 0.000000 0.000000
# 5 0.000000 0.000000 0.000000 0.000000 0.028727 0.000000
# 6 0.000000 0.000000 0.000000 0.000000 0.000000 0.157228
#
#
# Mechanical properties :
#
#
# Convention : Reuss Voigt Hill
#
# Bulk Modulus (GPa) = 53.48426 69.54666 61.51546
# Shear Modulus (GPa) = 5.76757 20.17711 12.97234
#
# Velocity S-wave (km/s) = 1.78710 3.34257 2.68016
# Velocity P-wave (km/s) = 5.82017 7.30804 6.60613
#
# Compressibility (1/GPa) = 0.01869709
#
# Stress axis : x y z
#
# Youngs Moduli (GPa) = 56.04313 52.02317 104.85367
#
# Poissons Ratio (x) = 0.17489 0.53599
# Poissons Ratio (y) = 0.18841 0.57451
# Poissons Ratio (z) = 0.28648 0.28504
#
# Static dielectric constant tensor:
#      x y z
#    x 3.427380 0.000000 0.000000 
#    y 0.000000 2.820720 0.000000 
#    z 0.000000 0.000000 4.719450 
# 
# 
# High freq. dielectric constant tensor:
#      x y z
#    x 1.710600 0.000000 0.000000 
#    y 0.000000 1.630600 0.000000 
#    z 0.000000 0.000000 1.736220 
# 
# From -- ./inp_files/36026.got.cif
#   From: 2010.03.12/outbox.cif.g09.slc.cpg/sg53_19_cif.got.tgz:36026.got - 2010.04.16 14:36:59.
