data_PCOD8219860
_publ_section_title
;
Structure prediction by ZEFSAII (Michael W. Deem and Ramdas Pophale) SiO2 
 PCOD8219860
Probable space group: P M N A
;
_chemical_formula_sum "Si O2"
_cell_formula_units_Z 48
_cell_length_a 8.716634
_cell_length_b 12.618194
_cell_length_c 25.077123
_cell_angle_alpha 90.000000
_cell_angle_beta 90.000000
_cell_angle_gamma 90.000000
_cell_volume 2758.187089
_symmetry_space_group_name_H-M "P M N A"
_symmetry_group_IT_number 53
_symmetry_cell_setting 'orthorhombic'
loop_
_space_group_symop_operation_xyz
x,y,z
1/2-x,-y,1/2+z
x,-y,-z
1/2-x,y,1/2-z
-x,-y,-z
1/2+x,y,1/2-z
-x,y,z
1/2+x,-y,1/2+z
loop_
_atom_site_type_symbol
_atom_site_label
_atom_site_fract_x
_atom_site_fract_y
_atom_site_fract_z
Si Si1 0.681057 0.119286 0.389919
Si Si2 0.831155 0.125158 0.993778
Si Si3 0.319562 0.724414 0.308756
Si Si4 0.678672 0.889946 0.112988
Si Si5 0.320888 0.281879 0.191462
Si Si6 0.822701 0.516061 0.307469
O O1 0.500000 0.095675 0.386791
O O2 0.723703 0.168215 0.448335
O O3 0.729571 0.202736 0.345919
O O4 0.771710 0.011044 0.379999
O O5 0.000000 0.170229 0.979106
O O6 0.715053 0.154978 0.946369
O O7 0.841520 0.000000 0.000000
O O8 0.250000 0.735991 0.250000
O O9 0.500000 0.722290 0.304113
O O10 0.269829 0.823499 0.343633
O O11 0.261340 0.614423 0.336938
O O12 0.500000 0.878408 0.123917
O O13 0.250000 0.273143 0.250000
O O14 0.500000 0.251741 0.194236
O O15 0.299810 0.400137 0.166098
O O16 0.750000 0.506453 0.250000
O O17 0.000000 0.545701 0.302608
#
# Coordination Sequence:
#
# PCOD8219860 Si02
#       6
#     8   8   8   8   8   8
#     4  10  20  34  52  74 102 133 166 203 245 293
#     4   8  16  32  51  71  96 128 165 203 242 288
#     4  11  21  34  52  74 101 131 165 203 246 294
#     4  11  21  33  51  75 102 131 165 203 246 294
#     4  10  20  33  51  75 103 133 166 203 245 293
#     4   9  17  31  50  72  97 127 165 204 241 286
#
# _framework density 17.402733999999999
#
# number of rings (size 3 to 8) (size 9 to 14) (size 15 to 20)
#    0.000    2.167    0.000    6.500    0.000    6.333 
#    0.000    3.333    0.000    1.000    0.000    7.000 
#    0.000    0.000    0.000    0.000    0.000    0.000 
#
# Total GULP energy -594886.083293 kJ/mol
# GULP energy per Si atom -12393.460069 kJ/mol
# Density = 1.736312 g / cm^3
# Si number density = 17.402734 Si / 1000 Ang^3
#
#
#
# Elastic Constant Matrix: (Units=GPa)
#
#
# Indices 1 2 3 4 5 6 
#
# 1 114.7279 34.8497 37.4552 0.0000 0.0000 0.0000
# 2 34.8497 75.1727 43.9369 0.0000 0.0000 0.0000
# 3 37.4552 43.9369 85.0714 0.0000 0.0000 0.0000
# 4 0.0000 0.0000 0.0000 -4.4392 0.0000 0.0000
# 5 0.0000 0.0000 0.0000 0.0000 25.4211 0.0000
# 6 0.0000 0.0000 0.0000 0.0000 0.0000 33.2945
#
#
#
# Elastic Compliance Matrix: (Units=1/GPa)
#
#
# Indices 1 2 3 4 5 6 
#
# 1 0.010677 -0.003155 -0.003072 0.000000 0.000000 0.000000
# 2 -0.003155 0.019987 -0.008934 0.000000 0.000000 0.000000
# 3 -0.003072 -0.008934 0.017721 0.000000 0.000000 0.000000
# 4 0.000000 0.000000 0.000000 -0.225266 0.000000 0.000000
# 5 0.000000 0.000000 0.000000 0.000000 0.039337 0.000000
# 6 0.000000 0.000000 0.000000 0.000000 0.000000 0.030035
#
#
# Mechanical properties :
#
#
# Convention : Reuss Voigt Hill
#
# Bulk Modulus (GPa) = 55.35481 56.38396 55.86938
# Shear Modulus (GPa) = -70.25795 21.43730 -24.41032
#
# Velocity S-wave (km/s) = -6.36077 3.51356 -3.74929
# Velocity P-wave (km/s) = 4.69774 6.99499 3.66478
#
# Compressibility (1/GPa) = 0.01806528
#
# Stress axis : x y z
#
# Youngs Moduli (GPa) = 93.65625 50.03331 56.42947
#
# Poissons Ratio (x) = 0.15783 0.17334
# Poissons Ratio (y) = 0.29545 0.50412
# Poissons Ratio (z) = 0.28769 0.44698
#
# Static dielectric constant tensor:
#      x y z
#    x 3.390280 0.000000 0.000000 
#    y 0.000000 3.525640 0.000000 
#    z 0.000000 0.000000 3.357980 
# 
# 
# High freq. dielectric constant tensor:
#      x y z
#    x 1.689850 0.000000 0.000000 
#    y 0.000000 1.660380 0.000000 
#    z 0.000000 0.000000 1.653520 
# 
# From -- ./inp_files/33888.got.cif
#   From: 2010.03.12/outbox.cif.g09.slc.cpg/sg53_17_cif.got.tgz:33888.got - 2010.04.16 14:36:59.
