data_PCOD8219038
_publ_section_title
;
Structure prediction by ZEFSAII (Michael W. Deem and Ramdas Pophale) SiO2 
 PCOD8219038
Probable space group: P M N A
;
_chemical_formula_sum "Si O2"
_cell_formula_units_Z 64
_cell_length_a 8.795467
_cell_length_b 18.144398
_cell_length_c 23.016059
_cell_angle_alpha 90.000000
_cell_angle_beta 90.000000
_cell_angle_gamma 90.000000
_cell_volume 3673.097269
_symmetry_space_group_name_H-M "P M N A"
_symmetry_group_IT_number 53
_symmetry_cell_setting 'orthorhombic'
loop_
_space_group_symop_operation_xyz
x,y,z
1/2-x,-y,1/2+z
x,-y,-z
1/2-x,y,1/2-z
-x,-y,-z
1/2+x,y,1/2-z
-x,y,z
1/2+x,-y,1/2+z
loop_
_atom_site_type_symbol
_atom_site_label
_atom_site_fract_x
_atom_site_fract_y
_atom_site_fract_z
Si Si1 0.176034 0.081193 0.311778
Si Si2 0.679326 0.630226 0.611873
Si Si3 0.320458 0.758540 0.813869
Si Si4 0.822891 0.507411 0.688617
Si Si5 0.677773 0.584690 0.001998
Si Si6 0.179540 0.924065 0.313776
Si Si7 0.178447 0.778742 0.186660
Si Si8 0.325343 0.356335 0.871326
O O1 0.250000 0.081130 0.250000
O O2 0.216477 0.159719 0.341552
O O3 0.000000 0.078576 0.298712
O O4 0.218829 0.003759 0.344925
O O5 0.500000 0.631278 0.618345
O O6 0.746737 0.701661 0.642480
O O7 0.744989 0.556002 0.639438
O O8 0.727674 0.631768 0.544606
O O9 0.250000 0.749018 0.750000
O O10 0.500000 0.744336 0.809248
O O11 0.750000 0.527297 0.750000
O O12 0.795166 0.422235 0.673857
O O13 0.000000 0.527199 0.690159
O O14 0.500000 0.591010 0.987259
O O15 0.717711 0.617549 0.064488
O O16 0.730266 0.500000 0.000000
O O17 0.250000 0.926624 0.250000
O O18 0.257298 0.853439 0.344466
O O19 0.000000 0.910285 0.311000
O O20 0.250000 0.765854 0.250000
O O21 0.217586 0.711020 0.145015
O O22 0.000000 0.785294 0.194028
O O23 0.500000 0.330849 0.867948
#
# Coordination Sequence:
#
# PCOD8219038 Si02
#       8
#     8   8   8   8   8   8   8   8
#     4   8  15  26  44  69  97 132 169 206 246 295
#     4  12  24  36  52  76 103 134 170 209 253 300
#     4  10  19  33  51  74 106 139 172 211 256 303
#     4  11  22  37  54  75 101 133 168 206 252 305
#     4  10  20  40  62  78  95 125 167 214 261 305
#     4   9  15  26  44  68  99 133 170 205 245 295
#     4  11  21  32  48  73 107 140 172 206 249 299
#     4  10  21  37  57  76  98 128 166 209 257 303
#
# _framework density 17.423988000000001
#
# number of rings (size 3 to 8) (size 9 to 14) (size 15 to 20)
#    0.000    1.875    1.250    4.875    0.000    3.750 
#    0.000    0.000    0.000    0.000    0.000    0.875 
#    0.000    7.000    0.000    0.000    0.000    0.000 
#
# Total GULP energy -793161.722247 kJ/mol
# GULP energy per Si atom -12393.151910 kJ/mol
# Density = 1.738433 g / cm^3
# Si number density = 17.423988 Si / 1000 Ang^3
#
#
#
# Elastic Constant Matrix: (Units=GPa)
#
#
# Indices 1 2 3 4 5 6 
#
# 1 105.7448 58.1778 32.4559 0.0000 0.0000 0.0000
# 2 58.1778 134.9293 35.1454 0.0000 0.0000 0.0000
# 3 32.4559 35.1454 64.4199 0.0000 0.0000 0.0000
# 4 0.0000 0.0000 0.0000 7.2178 0.0000 0.0000
# 5 0.0000 0.0000 0.0000 0.0000 23.2754 0.0000
# 6 0.0000 0.0000 0.0000 0.0000 0.0000 23.2656
#
#
#
# Elastic Compliance Matrix: (Units=1/GPa)
#
#
# Indices 1 2 3 4 5 6 
#
# 1 0.013290 -0.004647 -0.004161 0.000000 0.000000 0.000000
# 2 -0.004647 0.010263 -0.003258 0.000000 0.000000 0.000000
# 3 -0.004161 -0.003258 0.019397 0.000000 0.000000 0.000000
# 4 0.000000 0.000000 0.000000 0.138547 0.000000 0.000000
# 5 0.000000 0.000000 0.000000 0.000000 0.042964 0.000000
# 6 0.000000 0.000000 0.000000 0.000000 0.000000 0.042982
#
#
# Mechanical properties :
#
#
# Convention : Reuss Voigt Hill
#
# Bulk Modulus (GPa) = 53.13717 61.85025 57.49371
# Shear Modulus (GPa) = 16.78706 22.70608 19.74657
#
# Velocity S-wave (km/s) = 3.10731 3.61383 3.37010
# Velocity P-wave (km/s) = 6.59064 7.27924 6.94348
#
# Compressibility (1/GPa) = 0.01881922
#
# Stress axis : x y z
#
# Youngs Moduli (GPa) = 75.24327 97.43269 51.55405
#
# Poissons Ratio (x) = 0.45273 0.21451
# Poissons Ratio (y) = 0.34963 0.16798
# Poissons Ratio (z) = 0.31307 0.31747
#
# Static dielectric constant tensor:
#      x y z
#    x 3.210120 0.000000 0.000000 
#    y 0.000000 3.992580 0.000000 
#    z 0.000000 0.000000 2.894520 
# 
# 
# High freq. dielectric constant tensor:
#      x y z
#    x 1.684040 0.000000 0.000000 
#    y 0.000000 1.694170 0.000000 
#    z 0.000000 0.000000 1.625290 
# 
# From -- ./inp_files/31148.got.cif
#   From: 2010.03.12/outbox.cif.g09.slc.cpg/sg53_16_cif.got.tgz:31148.got - 2010.04.16 14:36:59.
