data_PCOD8219357
_publ_section_title
;
Structure prediction by ZEFSAII (Michael W. Deem and Ramdas Pophale) SiO2 
 PCOD8219357
Probable space group: P M N A
;
_chemical_formula_sum "Si O2"
_cell_formula_units_Z 64
_cell_length_a 8.781744
_cell_length_b 15.033922
_cell_length_c 23.787442
_cell_angle_alpha 90.000000
_cell_angle_beta 90.000000
_cell_angle_gamma 90.000000
_cell_volume 3140.514535
_symmetry_space_group_name_H-M "P M N A"
_symmetry_group_IT_number 53
_symmetry_cell_setting 'orthorhombic'
loop_
_space_group_symop_operation_xyz
x,y,z
1/2-x,-y,1/2+z
x,-y,-z
1/2-x,y,1/2-z
-x,-y,-z
1/2+x,y,1/2-z
-x,y,z
1/2+x,-y,1/2+z
loop_
_atom_site_type_symbol
_atom_site_label
_atom_site_fract_x
_atom_site_fract_y
_atom_site_fract_z
Si Si1 0.321746 0.846783 0.110082
Si Si2 0.820019 0.221285 0.493707
Si Si3 0.822834 0.467162 0.854649
Si Si4 0.822332 0.695525 0.304444
Si Si5 0.681050 0.183487 0.129225
Si Si6 0.181699 0.003970 0.311643
Si Si7 0.680302 0.361174 0.189161
Si Si8 0.328042 0.588394 0.035958
O O1 0.500000 0.864153 0.106015
O O2 0.286344 0.754277 0.141030
O O3 0.252720 0.928601 0.145823
O O4 0.254030 0.836250 0.046672
O O5 0.752470 0.185175 0.434647
O O6 0.778887 0.325845 0.499459
O O7 0.000000 0.209835 0.493277
O O8 0.759626 0.399838 0.807981
O O9 0.734012 0.560110 0.851504
O O10 0.791825 0.422052 0.914405
O O11 0.000000 0.484072 0.845118
O O12 0.750000 0.744282 0.250000
O O13 0.000000 0.681920 0.295483
O O14 0.500000 0.184660 0.126228
O O15 0.739212 0.097030 0.162406
O O16 0.741090 0.269054 0.163022
O O17 0.250000 0.989997 0.250000
O O18 0.000000 0.999465 0.306603
O O19 0.750000 0.375639 0.250000
O O20 0.500000 0.361911 0.193493
O O21 0.500000 0.602949 0.060114
O O22 0.322181 0.500000 0.000000
#
# Coordination Sequence:
#
# PCOD8219357 Si02
#       8
#     8   8   8   8   8   8   8   8
#     4   9  18  32  55  84 117 148 185 232 281 336
#     4   9  16  31  54  84 116 147 185 232 283 336
#     4  12  24  37  54  81 114 149 189 239 290 340
#     4  11  21  36  55  80 112 150 190 232 280 341
#     4   9  19  34  57  86 115 145 187 236 287 342
#     4  10  20  36  58  88 117 148 188 235 285 339
#     4  11  22  38  57  81 112 150 193 240 290 349
#     4  10  19  34  58  82 111 154 197 236 282 340
#
# _framework density 20.378826
#
# number of rings (size 3 to 8) (size 9 to 14) (size 15 to 20)
#    0.000    1.875    1.250    3.750    0.000    2.750 
#    0.000    3.750    0.000    0.750    0.000    0.875 
#    0.000    0.000    0.000    0.000    0.000    0.000 
#
# Total GULP energy -793502.448249 kJ/mol
# GULP energy per Si atom -12398.475754 kJ/mol
# Density = 2.033244 g / cm^3
# Si number density = 20.378826 Si / 1000 Ang^3
#
#
#
# Elastic Constant Matrix: (Units=GPa)
#
#
# Indices 1 2 3 4 5 6 
#
# 1 50.0586 21.6191 20.6715 0.0000 0.0000 0.0000
# 2 21.6191 127.7522 38.3863 0.0000 0.0000 0.0000
# 3 20.6715 38.3863 110.7188 0.0000 0.0000 0.0000
# 4 0.0000 0.0000 0.0000 34.1759 0.0000 0.0000
# 5 0.0000 0.0000 0.0000 0.0000 26.7000 0.0000
# 6 0.0000 0.0000 0.0000 0.0000 0.0000 11.4854
#
#
#
# Elastic Compliance Matrix: (Units=1/GPa)
#
#
# Indices 1 2 3 4 5 6 
#
# 1 0.022536 -0.002846 -0.003221 0.000000 0.000000 0.000000
# 2 -0.002846 0.009097 -0.002623 0.000000 0.000000 0.000000
# 3 -0.003221 -0.002623 0.010543 0.000000 0.000000 0.000000
# 4 0.000000 0.000000 0.000000 0.029260 0.000000 0.000000
# 5 0.000000 0.000000 0.000000 0.000000 0.037453 0.000000
# 6 0.000000 0.000000 0.000000 0.000000 0.000000 0.087067
#
#
# Mechanical properties :
#
#
# Convention : Reuss Voigt Hill
#
# Bulk Modulus (GPa) = 40.32792 49.98703 45.15747
# Shear Modulus (GPa) = 22.56312 28.32911 25.44612
#
# Velocity S-wave (km/s) = 3.33105 3.73248 3.53746
# Velocity P-wave (km/s) = 5.88444 6.56943 6.23634
#
# Compressibility (1/GPa) = 0.02479672
#
# Stress axis : x y z
#
# Youngs Moduli (GPa) = 44.37414 109.92261 94.85403
#
# Poissons Ratio (x) = 0.31283 0.30551
# Poissons Ratio (y) = 0.12628 0.24877
# Poissons Ratio (z) = 0.14292 0.28830
#
# Static dielectric constant tensor:
#      x y z
#    x 3.239380 0.000000 0.000000 
#    y 0.000000 3.880490 0.000000 
#    z 0.000000 0.000000 4.023250 
# 
# 
# High freq. dielectric constant tensor:
#      x y z
#    x 1.747120 0.000000 0.000000 
#    y 0.000000 1.803670 0.000000 
#    z 0.000000 0.000000 1.812630 
# 
# From -- ./inp_files/34214.got.cif
#   From: 2010.03.12/outbox.cif.g09.slc.cpg/sg53_18_cif.got.tgz:34214.got - 2010.04.16 14:36:59.
