data_PCOD8219392
_publ_section_title
;
Structure prediction by ZEFSAII (Michael W. Deem and Ramdas Pophale) SiO2 
 PCOD8219392
Probable space group: P M N A
;
_chemical_formula_sum "Si O2"
_cell_formula_units_Z 40
_cell_length_a 16.510968
_cell_length_b 11.270647
_cell_length_c 10.127700
_cell_angle_alpha 90.000000
_cell_angle_beta 90.000000
_cell_angle_gamma 90.000000
_cell_volume 1884.656522
_symmetry_space_group_name_H-M "P M N A"
_symmetry_group_IT_number 53
_symmetry_cell_setting 'orthorhombic'
loop_
_space_group_symop_operation_xyz
x,y,z
1/2-x,-y,1/2+z
x,-y,-z
1/2-x,y,1/2-z
-x,-y,-z
1/2+x,y,1/2-z
-x,y,z
1/2+x,-y,1/2+z
loop_
_atom_site_type_symbol
_atom_site_label
_atom_site_fract_x
_atom_site_fract_y
_atom_site_fract_z
Si Si1 0.910073 0.928864 0.366919
Si Si2 0.308468 0.697243 0.128561
Si Si3 0.161646 0.669780 0.955035
Si Si4 0.406429 0.543451 0.304690
Si Si5 0.093724 0.917088 0.875702
O O1 0.855814 0.816899 0.399411
O O2 0.000000 0.886679 0.321841
O O3 0.916124 0.000000 0.500000
O O4 0.873225 0.012316 0.252013
O O5 0.250000 0.722150 0.250000
O O6 0.371540 0.592709 0.166356
O O7 0.255650 0.661560 0.000397
O O8 0.145955 0.572057 0.842570
O O9 0.144873 0.798039 0.894392
O O10 0.102986 0.643091 0.080366
O O11 0.500000 0.509132 0.287554
O O12 0.000000 0.882053 0.857682
O O13 0.108467 0.000000 0.000000
#
# Coordination Sequence:
#
# PCOD8219392 Si02
#       5
#     8   8   8   8   8
#     4  10  22  40  60  86 124 164 202 249 311 382
#     4  10  21  36  57  87 121 158 201 256 321 374
#     4  10  20  35  57  88 119 152 206 269 314 363
#     4  10  19  36  62  87 119 163 211 259 314 379
#     4  10  19  34  60  89 116 152 203 256 306 372
#
# _framework density 21.224028000000001
#
# number of rings (size 3 to 8) (size 9 to 14) (size 15 to 20)
#    0.000    2.000    0.000    5.400    0.000    4.000 
#    0.000   12.000    0.000    0.000    0.000   46.200 
#    0.000    0.000    0.000    0.000    0.000    0.000 
#
# Total GULP energy -496044.243279 kJ/mol
# GULP energy per Si atom -12401.106082 kJ/mol
# Density = 2.117572 g / cm^3
# Si number density = 21.224028 Si / 1000 Ang^3
#
#
#
# Elastic Constant Matrix: (Units=GPa)
#
#
# Indices 1 2 3 4 5 6 
#
# 1 115.2517 73.0019 43.3898 0.0000 0.0000 0.0000
# 2 73.0019 137.8035 48.9560 0.0000 0.0000 0.0000
# 3 43.3898 48.9560 85.3572 0.0000 0.0000 0.0000
# 4 0.0000 0.0000 0.0000 24.0059 0.0000 0.0000
# 5 0.0000 0.0000 0.0000 0.0000 28.2509 0.0000
# 6 0.0000 0.0000 0.0000 0.0000 0.0000 41.6039
#
#
#
# Elastic Compliance Matrix: (Units=1/GPa)
#
#
# Indices 1 2 3 4 5 6 
#
# 1 0.013870 -0.006082 -0.003562 0.000000 0.000000 0.000000
# 2 -0.006082 0.011781 -0.003665 0.000000 0.000000 0.000000
# 3 -0.003562 -0.003665 0.015628 0.000000 0.000000 0.000000
# 4 0.000000 0.000000 0.000000 0.041656 0.000000 0.000000
# 5 0.000000 0.000000 0.000000 0.000000 0.035397 0.000000
# 6 0.000000 0.000000 0.000000 0.000000 0.000000 0.024036
#
#
# Mechanical properties :
#
#
# Convention : Reuss Voigt Hill
#
# Bulk Modulus (GPa) = 68.21113 74.34531 71.27822
# Shear Modulus (GPa) = 28.75621 30.30978 29.53299
#
# Velocity S-wave (km/s) = 3.68488 3.78310 3.73431
# Velocity P-wave (km/s) = 7.09315 7.36121 7.22842
#
# Compressibility (1/GPa) = 0.01466036
#
# Stress axis : x y z
#
# Youngs Moduli (GPa) = 72.09569 84.88323 63.98641
#
# Poissons Ratio (x) = 0.51629 0.22794
# Poissons Ratio (y) = 0.43851 0.23451
# Poissons Ratio (z) = 0.25683 0.31109
#
# Static dielectric constant tensor:
#      x y z
#    x 4.026070 0.000000 0.000000 
#    y 0.000000 3.705980 0.000000 
#    z 0.000000 0.000000 3.744170 
# 
# 
# High freq. dielectric constant tensor:
#      x y z
#    x 1.828510 0.000000 0.000000 
#    y 0.000000 1.834740 0.000000 
#    z 0.000000 0.000000 1.815990 
# 
# From -- ./inp_files/9660.got.cif
#   From: 2010.03.12/outbox.cif.g09.slc.cpg/sg53_5_cif.got.tgz:9660.got - 2010.04.16 14:36:59.
