data_PCOD8219918
_publ_section_title
;
Structure prediction by ZEFSAII (Michael W. Deem and Ramdas Pophale) SiO2 
 PCOD8219918
Probable space group: P M N A
;
_chemical_formula_sum "Si O2"
_cell_formula_units_Z 64
_cell_length_a 9.225666
_cell_length_b 23.630145
_cell_length_c 14.638308
_cell_angle_alpha 90.000000
_cell_angle_beta 90.000000
_cell_angle_gamma 90.000000
_cell_volume 3191.207140
_symmetry_space_group_name_H-M "P M N A"
_symmetry_group_IT_number 53
_symmetry_cell_setting 'orthorhombic'
loop_
_space_group_symop_operation_xyz
x,y,z
1/2-x,-y,1/2+z
x,-y,-z
1/2-x,y,1/2-z
-x,-y,-z
1/2+x,y,1/2-z
-x,y,z
1/2+x,-y,1/2+z
loop_
_atom_site_type_symbol
_atom_site_label
_atom_site_fract_x
_atom_site_fract_y
_atom_site_fract_z
Si Si1 0.167704 0.064848 0.998472
Si Si2 0.840759 0.103878 0.332463
Si Si3 0.168020 0.848212 0.155014
Si Si4 0.660172 0.764953 0.833585
Si Si5 0.158990 0.470145 0.597158
Si Si6 0.834022 0.623633 0.017650
Si Si7 0.328451 0.588141 0.838363
Si Si8 0.834212 0.248781 0.981352
O O1 0.197222 0.093548 0.900323
O O2 0.000000 0.070270 0.025849
O O3 0.259623 0.098380 0.072191
O O4 0.218665 0.000000 0.000000
O O5 0.750000 0.074847 0.250000
O O6 0.859223 0.169466 0.311567
O O7 0.000000 0.075118 0.336984
O O8 0.250000 0.851402 0.250000
O O9 0.223700 0.794525 0.095693
O O10 0.000000 0.840737 0.177644
O O11 0.750000 0.736719 0.750000
O O12 0.500000 0.736613 0.838184
O O13 0.740004 0.755855 0.928432
O O14 0.150566 0.500000 0.500000
O O15 0.273684 0.418675 0.596084
O O16 0.205710 0.520653 0.664623
O O17 0.000000 0.445747 0.622946
O O18 0.738692 0.618847 0.926364
O O19 0.000000 0.607229 0.995619
O O20 0.823076 0.687267 0.056682
O O21 0.250000 0.614712 0.750000
O O22 0.500000 0.599814 0.837268
O O23 0.000000 0.232931 0.006485
#
# Coordination Sequence:
#
# PCOD8219918 Si02
#       8
#     8   8   8   8   8   8   8   8
#     4  10  21  38  61  88 117 151 190 234 288 343
#     4  10  20  34  55  83 114 148 184 226 277 336
#     4  10  22  41  63  84 113 150 191 240 285 336
#     4  10  20  33  54  82 110 145 187 229 278 339
#     4   8  16  32  51  72 101 137 176 218 267 321
#     4  10  20  33  53  79 106 139 182 227 277 334
#     4  10  20  34  53  78 109 144 181 223 276 333
#     4  10  21  38  58  81 112 152 193 239 289 337
#
# _framework density 20.055108000000001
#
# number of rings (size 3 to 8) (size 9 to 14) (size 15 to 20)
#    0.000    2.250    1.250    2.250    0.000    7.000 
#    0.000    1.875    0.000    3.000    0.000    0.000 
#    0.000    0.000    0.000    0.000    0.000    0.000 
#
# Total GULP energy -793409.391815 kJ/mol
# GULP energy per Si atom -12397.021747 kJ/mol
# Density = 2.000946 g / cm^3
# Si number density = 20.055108 Si / 1000 Ang^3
#
#
#
# Elastic Constant Matrix: (Units=GPa)
#
#
# Indices 1 2 3 4 5 6 
#
# 1 108.7873 34.8575 52.0288 0.0000 0.0000 0.0000
# 2 34.8575 99.1362 29.3859 0.0000 0.0000 0.0000
# 3 52.0288 29.3859 99.5759 0.0000 0.0000 0.0000
# 4 0.0000 0.0000 0.0000 8.6809 0.0000 0.0000
# 5 0.0000 0.0000 0.0000 0.0000 33.2109 0.0000
# 6 0.0000 0.0000 0.0000 0.0000 0.0000 21.9435
#
#
#
# Elastic Compliance Matrix: (Units=1/GPa)
#
#
# Indices 1 2 3 4 5 6 
#
# 1 0.012920 -0.002786 -0.005929 0.000000 0.000000 0.000000
# 2 -0.002786 0.011655 -0.001984 0.000000 0.000000 0.000000
# 3 -0.005929 -0.001984 0.013726 0.000000 0.000000 0.000000
# 4 0.000000 0.000000 0.000000 0.115196 0.000000 0.000000
# 5 0.000000 0.000000 0.000000 0.000000 0.030111 0.000000
# 6 0.000000 0.000000 0.000000 0.000000 0.000000 0.045572
#
#
# Mechanical properties :
#
#
# Convention : Reuss Voigt Hill
#
# Bulk Modulus (GPa) = 59.15693 60.00485 59.58089
# Shear Modulus (GPa) = 19.51523 25.51554 22.51539
#
# Velocity S-wave (km/s) = 3.12281 3.57076 3.35427
# Velocity P-wave (km/s) = 6.52409 6.85459 6.69138
#
# Compressibility (1/GPa) = 0.01690419
#
# Stress axis : x y z
#
# Youngs Moduli (GPa) = 77.39727 85.80272 72.85468
#
# Poissons Ratio (x) = 0.23901 0.43195
# Poissons Ratio (y) = 0.21559 0.14454
# Poissons Ratio (z) = 0.45888 0.17023
#
# Static dielectric constant tensor:
#      x y z
#    x 3.848470 0.000000 0.000000 
#    y 0.000000 3.810000 0.000000 
#    z 0.000000 0.000000 3.476390 
# 
# 
# High freq. dielectric constant tensor:
#      x y z
#    x 1.789860 0.000000 0.000000 
#    y 0.000000 1.776770 0.000000 
#    z 0.000000 0.000000 1.762640 
# 
# From -- ./inp_files/21002.got.cif
#   From: 2010.03.12/outbox.cif.g09.slc.cpg/sg53_11_cif.got.tgz:21002.got - 2010.04.16 14:36:59.
