data_PCOD8219895
_publ_section_title
;
Structure prediction by ZEFSAII (Michael W. Deem and Ramdas Pophale) SiO2 
 PCOD8219895
Probable space group: P M N A
;
_chemical_formula_sum "Si O2"
_cell_formula_units_Z 48
_cell_length_a 8.725012
_cell_length_b 15.148667
_cell_length_c 18.800328
_cell_angle_alpha 90.000000
_cell_angle_beta 90.000000
_cell_angle_gamma 90.000000
_cell_volume 2484.882618
_symmetry_space_group_name_H-M "P M N A"
_symmetry_group_IT_number 53
_symmetry_cell_setting 'orthorhombic'
loop_
_space_group_symop_operation_xyz
x,y,z
1/2-x,-y,1/2+z
x,-y,-z
1/2-x,y,1/2-z
-x,-y,-z
1/2+x,y,1/2-z
-x,y,z
1/2+x,-y,1/2+z
loop_
_atom_site_type_symbol
_atom_site_label
_atom_site_fract_x
_atom_site_fract_y
_atom_site_fract_z
Si Si1 0.681781 0.487231 0.673704
Si Si2 0.318469 0.993603 0.325211
Si Si3 0.319978 0.344503 0.565094
Si Si4 0.319354 0.661554 0.594635
Si Si5 0.819208 0.151661 0.405786
Si Si6 0.681087 0.147098 0.557708
O O1 0.750000 0.467229 0.750000
O O2 0.500000 0.480640 0.676839
O O3 0.753462 0.414213 0.620037
O O4 0.731560 0.584457 0.648002
O O5 0.250000 0.964041 0.250000
O O6 0.500000 0.998253 0.319884
O O7 0.264652 0.921339 0.382835
O O8 0.253078 0.088344 0.346707
O O9 0.500000 0.352778 0.572922
O O10 0.271433 0.368651 0.484751
O O11 0.267033 0.244718 0.583017
O O12 0.500000 0.681568 0.597742
O O13 0.229780 0.749720 0.615756
O O14 0.760220 0.122887 0.483373
O O15 0.000000 0.143121 0.403378
O O16 0.500000 0.143380 0.544132
#
# Coordination Sequence:
#
# PCOD8219895 Si02
#       6
#     8   8   8   8   8   8
#     4  10  20  33  52  78 108 141 174 213 263 318
#     4  11  23  38  56  80 111 146 181 219 267 321
#     4   8  15  32  57  80 100 132 179 219 254 306
#     4   9  18  35  57  77 101 138 183 224 261 309
#     4  11  22  36  57  83 109 139 179 227 273 318
#     4   9  19  37  60  82 107 142 181 220 265 320
#
# _framework density 19.316807000000001
#
# number of rings (size 3 to 8) (size 9 to 14) (size 15 to 20)
#    0.000    2.333    0.000    4.000    0.000    7.333 
#    0.000    5.000    0.000    5.000    0.000    0.000 
#    0.000    0.000    0.000    0.000    0.000    0.000 
#
# Total GULP energy -595247.483255 kJ/mol
# GULP energy per Si atom -12400.989234 kJ/mol
# Density = 1.927284 g / cm^3
# Si number density = 19.316807 Si / 1000 Ang^3
#
#
#
# Elastic Constant Matrix: (Units=GPa)
#
#
# Indices 1 2 3 4 5 6 
#
# 1 51.5471 18.9607 17.3552 0.0000 0.0000 0.0000
# 2 18.9607 68.3563 33.7738 0.0000 0.0000 0.0000
# 3 17.3552 33.7738 58.1901 0.0000 0.0000 0.0000
# 4 0.0000 0.0000 0.0000 25.4977 0.0000 0.0000
# 5 0.0000 0.0000 0.0000 0.0000 32.3461 0.0000
# 6 0.0000 0.0000 0.0000 0.0000 0.0000 14.2316
#
#
#
# Elastic Compliance Matrix: (Units=1/GPa)
#
#
# Indices 1 2 3 4 5 6 
#
# 1 0.022346 -0.004074 -0.004300 0.000000 0.000000 0.000000
# 2 -0.004074 0.021254 -0.011121 0.000000 0.000000 0.000000
# 3 -0.004300 -0.011121 0.024922 0.000000 0.000000 0.000000
# 4 0.000000 0.000000 0.000000 0.039219 0.000000 0.000000
# 5 0.000000 0.000000 0.000000 0.000000 0.030916 0.000000
# 6 0.000000 0.000000 0.000000 0.000000 0.000000 0.070266
#
#
# Mechanical properties :
#
#
# Convention : Reuss Voigt Hill
#
# Bulk Modulus (GPa) = 33.86109 35.36364 34.61237
# Shear Modulus (GPa) = 19.39814 21.61534 20.50674
#
# Velocity S-wave (km/s) = 3.17237 3.34876 3.26176
# Velocity P-wave (km/s) = 5.56650 5.77055 5.66944
#
# Compressibility (1/GPa) = 0.02953242
#
# Stress axis : x y z
#
# Youngs Moduli (GPa) = 44.75075 47.05038 40.12484
#
# Poissons Ratio (x) = 0.19166 0.17255
# Poissons Ratio (y) = 0.18230 0.44622
# Poissons Ratio (z) = 0.19244 0.52324
#
# Static dielectric constant tensor:
#      x y z
#    x 3.242270 0.000000 0.000000 
#    y 0.000000 3.787620 0.000000 
#    z 0.000000 0.000000 3.656580 
# 
# 
# High freq. dielectric constant tensor:
#      x y z
#    x 1.726880 0.000000 0.000000 
#    y 0.000000 1.764840 0.000000 
#    z 0.000000 0.000000 1.750500 
# 
# From -- ./inp_files/26215.got.cif
#   From: 2010.03.12/outbox.cif.g09.slc.cpg/sg53_14_cif.got.tgz:26215.got - 2010.04.16 14:36:59.
