data_PCOD8219588
_publ_section_title
;
Structure prediction by ZEFSAII (Michael W. Deem and Ramdas Pophale) SiO2 
 PCOD8219588
Probable space group: P M N A
;
_chemical_formula_sum "Si O2"
_cell_formula_units_Z 44
_cell_length_a 31.110494
_cell_length_b 8.367000
_cell_length_c 8.995959
_cell_angle_alpha 90.000000
_cell_angle_beta 90.000000
_cell_angle_gamma 90.000000
_cell_volume 2341.661651
_symmetry_space_group_name_H-M "P M N A"
_symmetry_group_IT_number 53
_symmetry_cell_setting 'orthorhombic'
loop_
_space_group_symop_operation_xyz
x,y,z
1/2-x,-y,1/2+z
x,-y,-z
1/2-x,y,1/2-z
-x,-y,-z
1/2+x,y,1/2-z
-x,y,z
1/2+x,-y,1/2+z
loop_
_atom_site_type_symbol
_atom_site_label
_atom_site_fract_x
_atom_site_fract_y
_atom_site_fract_z
Si Si1 0.500000 0.015683 0.752914
Si Si2 0.705731 0.561468 0.834917
Si Si3 0.129729 0.655134 0.310089
Si Si4 0.000000 0.756440 0.530935
Si Si5 0.650679 0.851875 0.905803
Si Si6 0.069743 0.500000 0.500000
Si Si7 0.595973 0.957755 0.335789
O O1 0.500000 0.832700 0.805339
O O2 0.543932 0.047888 0.662704
O O3 0.500000 0.118436 0.899906
O O4 0.750000 0.560985 0.750000
O O5 0.674166 0.428838 0.760294
O O6 0.687174 0.743226 0.826846
O O7 0.714243 0.500000 0.000000
O O8 0.128484 0.738494 0.473259
O O9 0.096458 0.511996 0.344408
O O10 0.114373 0.779087 0.186792
O O11 0.042683 0.657771 0.516524
O O12 0.616047 0.920390 0.786302
O O13 0.671420 0.000000 0.000000
O O14 0.612146 0.000000 0.500000
#
# Coordination Sequence:
#
# PCOD8219588 Si02
#       7
#     4   8   8   4   8   4   8
#     4  11  21  34  51  82 116 151 194 233 281 344
#     4  10  21  38  62  88 114 146 188 243 293 346
#     4  10  19  36  63  83 110 151 193 239 286 343
#     4  10  22  28  59  90 107 150 200 241 269 345
#     4   9  19  37  60  83 108 147 192 230 282 340
#     4  11  16  34  56  90 112 136 200 246 278 321
#     4  11  23  37  55  82 119 156 187 237 295 348
#
# _framework density 18.790074000000001
#
# number of rings (size 3 to 8) (size 9 to 14) (size 15 to 20)
#    0.000    1.818    4.545    1.364    5.091    1.455 
#    0.000    9.091    0.000    1.091    0.000    0.000 
#    0.000    0.000    0.000    0.000    0.000    0.000 
#
# Total GULP energy -545176.176678 kJ/mol
# GULP energy per Si atom -12390.367652 kJ/mol
# Density = 1.874731 g / cm^3
# Si number density = 18.790074 Si / 1000 Ang^3
#
#
#
# Elastic Constant Matrix: (Units=GPa)
#
#
# Indices 1 2 3 4 5 6 
#
# 1 142.0172 55.6556 38.9646 0.0000 0.0000 0.0000
# 2 55.6556 85.8991 35.1743 0.0000 0.0000 0.0000
# 3 38.9646 35.1743 71.9516 0.0000 0.0000 0.0000
# 4 0.0000 0.0000 0.0000 26.3327 0.0000 0.0000
# 5 0.0000 0.0000 0.0000 0.0000 50.1704 0.0000
# 6 0.0000 0.0000 0.0000 0.0000 0.0000 47.4651
#
#
#
# Elastic Compliance Matrix: (Units=1/GPa)
#
#
# Indices 1 2 3 4 5 6 
#
# 1 0.009861 -0.005254 -0.002771 0.000000 0.000000 0.000000
# 2 -0.005254 0.017355 -0.005639 0.000000 0.000000 0.000000
# 3 -0.002771 -0.005639 0.018156 0.000000 0.000000 0.000000
# 4 0.000000 0.000000 0.000000 0.037976 0.000000 0.000000
# 5 0.000000 0.000000 0.000000 0.000000 0.019932 0.000000
# 6 0.000000 0.000000 0.000000 0.000000 0.000000 0.021068
#
#
# Mechanical properties :
#
#
# Convention : Reuss Voigt Hill
#
# Bulk Modulus (GPa) = 55.42457 62.16188 58.79322
# Shear Modulus (GPa) = 31.70777 36.13188 33.91983
#
# Velocity S-wave (km/s) = 4.11234 4.38987 4.25337
# Velocity P-wave (km/s) = 7.21867 7.67129 7.44842
#
# Compressibility (1/GPa) = 0.01804254
#
# Stress axis : x y z
#
# Youngs Moduli (GPa) = 101.41095 57.62090 55.07917
#
# Poissons Ratio (x) = 0.30275 0.15265
# Poissons Ratio (y) = 0.53283 0.31058
# Poissons Ratio (z) = 0.28106 0.32491
#
# Static dielectric constant tensor:
#      x y z
#    x 3.427120 0.000000 0.000000 
#    y 0.000000 3.844620 0.000000 
#    z 0.000000 0.000000 3.171430 
# 
# 
# High freq. dielectric constant tensor:
#      x y z
#    x 1.727940 0.000000 0.000000 
#    y 0.000000 1.748470 0.000000 
#    z 0.000000 0.000000 1.698580 
# 
# From -- ./inp_files/12947.got.cif
#   From: 2010.03.12/outbox.cif.g09.slc.cpg/sg53_7_cif.got.tgz:12947.got - 2010.04.16 14:36:59.
