data_PCOD8219961
_publ_section_title
;
Structure prediction by ZEFSAII (Michael W. Deem and Ramdas Pophale) SiO2 
 PCOD8219961
Probable space group: P M N A
;
_chemical_formula_sum "Si O2"
_cell_formula_units_Z 40
_cell_length_a 8.975739
_cell_length_b 12.753215
_cell_length_c 20.076394
_cell_angle_alpha 90.000000
_cell_angle_beta 90.000000
_cell_angle_gamma 90.000000
_cell_volume 2298.135370
_symmetry_space_group_name_H-M "P M N A"
_symmetry_group_IT_number 53
_symmetry_cell_setting 'orthorhombic'
loop_
_space_group_symop_operation_xyz
x,y,z
1/2-x,-y,1/2+z
x,-y,-z
1/2-x,y,1/2-z
-x,-y,-z
1/2+x,y,1/2-z
-x,y,z
1/2+x,-y,1/2+z
loop_
_atom_site_type_symbol
_atom_site_label
_atom_site_fract_x
_atom_site_fract_y
_atom_site_fract_z
Si Si1 0.178058 0.700417 0.602386
Si Si2 0.662837 0.523037 0.077507
Si Si3 0.324103 0.120811 0.318848
Si Si4 0.825128 0.953728 0.069740
Si Si5 0.322595 0.743612 0.047447
O O1 0.239939 0.579838 0.610345
O O2 0.258076 0.767713 0.658859
O O3 0.224793 0.745297 0.530148
O O4 0.000000 0.704266 0.611173
O O5 0.500000 0.533032 0.110409
O O6 0.742502 0.637279 0.083571
O O7 0.643022 0.500000 0.000000
O O8 0.250000 0.086309 0.250000
O O9 0.500000 0.131398 0.310478
O O10 0.279473 0.032559 0.371991
O O11 0.746322 0.843218 0.084560
O O12 0.000000 0.933872 0.066581
O O13 0.765869 0.000000 0.000000
O O14 0.500000 0.744854 0.053676
#
# Coordination Sequence:
#
# PCOD8219961 Si02
#       5
#     8   8   8   8   8
#     4   9  16  29  50  74 102 132 164 202 247 298
#     4   7  12  24  43  71 103 129 154 192 240 285
#     4  11  23  37  52  71 100 135 171 211 257 307
#     4  10  20  34  50  71 103 136 166 211 264 304
#     4   9  16  27  49  78 103 130 166 206 245 294
#
# _framework density 17.405415000000001
#
# number of rings (size 3 to 8) (size 9 to 14) (size 15 to 20)
#    0.000    2.800    2.000    3.000    0.000    2.000 
#    0.000    1.000    0.000    4.800    0.000    2.800 
#    0.000    0.000    0.000    0.000    0.000    0.000 
#
# Total GULP energy -495601.805042 kJ/mol
# GULP energy per Si atom -12390.045126 kJ/mol
# Density = 1.736580 g / cm^3
# Si number density = 17.405415 Si / 1000 Ang^3
#
#
#
# Elastic Constant Matrix: (Units=GPa)
#
#
# Indices 1 2 3 4 5 6 
#
# 1 36.6504 41.7420 31.4112 0.0000 0.0000 0.0000
# 2 41.7420 169.0045 57.5813 0.0000 0.0000 0.0000
# 3 31.4112 57.5813 85.7822 0.0000 0.0000 0.0000
# 4 0.0000 0.0000 0.0000 20.5502 0.0000 0.0000
# 5 0.0000 0.0000 0.0000 0.0000 17.0517 0.0000
# 6 0.0000 0.0000 0.0000 0.0000 0.0000 12.0493
#
#
#
# Elastic Compliance Matrix: (Units=1/GPa)
#
#
# Indices 1 2 3 4 5 6 
#
# 1 0.045715 -0.007244 -0.011877 0.000000 0.000000 0.000000
# 2 -0.007244 0.008820 -0.003267 0.000000 0.000000 0.000000
# 3 -0.011877 -0.003267 0.018200 0.000000 0.000000 0.000000
# 4 0.000000 0.000000 0.000000 0.048661 0.000000 0.000000
# 5 0.000000 0.000000 0.000000 0.000000 0.058645 0.000000
# 6 0.000000 0.000000 0.000000 0.000000 0.000000 0.082992
#
#
# Mechanical properties :
#
#
# Convention : Reuss Voigt Hill
#
# Bulk Modulus (GPa) = 35.76953 61.43400 48.60177
# Shear Modulus (GPa) = 15.76646 20.64373 18.20510
#
# Velocity S-wave (km/s) = 3.01298 3.44765 3.23761
# Velocity P-wave (km/s) = 5.71834 7.15688 6.47767
#
# Compressibility (1/GPa) = 0.02795675
#
# Stress axis : x y z
#
# Youngs Moduli (GPa) = 21.87479 113.38494 54.94625
#
# Poissons Ratio (x) = 0.82141 0.65258
# Poissons Ratio (y) = 0.15847 0.17953
# Poissons Ratio (z) = 0.25980 0.37047
#
# Static dielectric constant tensor:
#      x y z
#    x 2.914330 0.000000 0.000000 
#    y 0.000000 3.673900 0.000000 
#    z 0.000000 0.000000 2.903220 
# 
# 
# High freq. dielectric constant tensor:
#      x y z
#    x 1.645090 0.000000 0.000000 
#    y 0.000000 1.695910 0.000000 
#    z 0.000000 0.000000 1.626170 
# 
# From -- ./inp_files/25862.got.cif
#   From: 2010.03.12/outbox.cif.g09.slc.cpg/sg53_13_cif.got.tgz:25862.got - 2010.04.16 14:36:59.
