data_PCOD8219186
_publ_section_title
;
Structure prediction by ZEFSAII (Michael W. Deem and Ramdas Pophale) SiO2 
 PCOD8219186
Probable space group: P M N A
;
_chemical_formula_sum "Si O2"
_cell_formula_units_Z 64
_cell_length_a 8.666713
_cell_length_b 12.572781
_cell_length_c 28.955049
_cell_angle_alpha 90.000000
_cell_angle_beta 90.000000
_cell_angle_gamma 90.000000
_cell_volume 3155.077780
_symmetry_space_group_name_H-M "P M N A"
_symmetry_group_IT_number 53
_symmetry_cell_setting 'orthorhombic'
loop_
_space_group_symop_operation_xyz
x,y,z
1/2-x,-y,1/2+z
x,-y,-z
1/2-x,y,1/2-z
-x,-y,-z
1/2+x,y,1/2-z
-x,y,z
1/2+x,-y,1/2+z
loop_
_atom_site_type_symbol
_atom_site_label
_atom_site_fract_x
_atom_site_fract_y
_atom_site_fract_z
Si Si1 0.318164 0.757205 0.301323
Si Si2 0.674293 0.032125 0.451993
Si Si3 0.321347 0.186877 0.173956
Si Si4 0.326976 0.255825 0.416117
Si Si5 0.316398 0.972530 0.351512
Si Si6 0.821906 0.563182 0.356513
Si Si7 0.823396 0.461707 0.449524
Si Si8 0.319238 0.608050 0.704306
O O1 0.250000 0.750093 0.250000
O O2 0.500000 0.757533 0.295946
O O3 0.261218 0.863212 0.327913
O O4 0.271574 0.658527 0.333337
O O5 0.500000 0.988284 0.454071
O O6 0.678863 0.159642 0.452278
O O7 0.760935 0.000000 0.500000
O O8 0.746773 0.981878 0.404645
O O9 0.500000 0.188638 0.187901
O O10 0.299340 0.230763 0.122430
O O11 0.226407 0.267538 0.206385
O O12 0.255285 0.067745 0.179010
O O13 0.500000 0.263116 0.394084
O O14 0.289979 0.363995 0.441731
O O15 0.500000 0.986202 0.351279
O O16 0.797760 0.556767 0.412024
O O17 0.759173 0.449347 0.339163
O O18 0.000000 0.577333 0.343091
O O19 0.778941 0.500000 0.500000
O O20 0.000000 0.422456 0.446927
O O21 0.250000 0.552193 0.750000
O O22 0.500000 0.590798 0.702621
#
# Coordination Sequence:
#
# PCOD8219186 Si02
#       8
#     8   8   8   8   8   8   8   8
#     4  11  24  42  64  88 121 164 211 263 316 372
#     4   8  15  30  54  84 116 151 195 247 306 362
#     4  11  21  36  59  86 118 156 194 241 303 363
#     4  10  19  33  56  83 114 155 199 250 303 359
#     4   9  20  38  59  85 118 158 203 253 307 363
#     4  11  23  41  63  87 121 162 205 250 306 368
#     4  10  22  39  59  85 120 162 203 250 309 371
#     4  12  24  39  61  89 120 152 196 245 297 360
#
# _framework density 20.284761
#
# number of rings (size 3 to 8) (size 9 to 14) (size 15 to 20)
#    0.000    1.750    1.250    4.500    0.000    3.250 
#    0.000    2.500    0.000    9.375    0.000    0.000 
#    0.000    0.000    0.000    0.000    0.000    0.000 
#
# Total GULP energy -793381.972252 kJ/mol
# GULP energy per Si atom -12396.593316 kJ/mol
# Density = 2.023859 g / cm^3
# Si number density = 20.284761 Si / 1000 Ang^3
#
#
#
# Elastic Constant Matrix: (Units=GPa)
#
#
# Indices 1 2 3 4 5 6 
#
# 1 56.6790 24.1849 22.6246 0.0000 0.0000 0.0000
# 2 24.1849 121.1583 50.2538 0.0000 0.0000 0.0000
# 3 22.6246 50.2538 119.6649 0.0000 0.0000 0.0000
# 4 0.0000 0.0000 0.0000 26.4345 0.0000 0.0000
# 5 0.0000 0.0000 0.0000 0.0000 19.2854 0.0000
# 6 0.0000 0.0000 0.0000 0.0000 0.0000 28.7783
#
#
#
# Elastic Compliance Matrix: (Units=1/GPa)
#
#
# Indices 1 2 3 4 5 6 
#
# 1 0.019902 -0.002921 -0.002536 0.000000 0.000000 0.000000
# 2 -0.002921 0.010423 -0.003825 0.000000 0.000000 0.000000
# 3 -0.002536 -0.003825 0.010443 0.000000 0.000000 0.000000
# 4 0.000000 0.000000 0.000000 0.037829 0.000000 0.000000
# 5 0.000000 0.000000 0.000000 0.000000 0.051853 0.000000
# 6 0.000000 0.000000 0.000000 0.000000 0.000000 0.034748
#
#
# Mechanical properties :
#
#
# Convention : Reuss Voigt Hill
#
# Bulk Modulus (GPa) = 45.03765 54.62541 49.83153
# Shear Modulus (GPa) = 26.15564 28.26223 27.20894
#
# Velocity S-wave (km/s) = 3.59475 3.73671 3.66642
# Velocity P-wave (km/s) = 6.28335 6.75315 6.52248
#
# Compressibility (1/GPa) = 0.02220364
#
# Stress axis : x y z
#
# Youngs Moduli (GPa) = 50.24654 95.93941 95.76223
#
# Poissons Ratio (x) = 0.28021 0.24287
# Poissons Ratio (y) = 0.14676 0.36630
# Poissons Ratio (z) = 0.12743 0.36698
#
# Static dielectric constant tensor:
#      x y z
#    x 3.523760 0.000000 0.000000 
#    y 0.000000 3.728270 0.000000 
#    z 0.000000 0.000000 3.856470 
# 
# 
# High freq. dielectric constant tensor:
#      x y z
#    x 1.780830 0.000000 0.000000 
#    y 0.000000 1.790970 0.000000 
#    z 0.000000 0.000000 1.797560 
# 
# From -- ./inp_files/38144.got.cif
#   From: 2010.03.12/outbox.cif.g09.slc.cpg/sg53_20_cif.got.tgz:38144.got - 2010.04.16 14:36:59.
