data_PCOD8219623
_publ_section_title
;
Structure prediction by ZEFSAII (Michael W. Deem and Ramdas Pophale) SiO2 
 PCOD8219623
Probable space group: P M N A
;
_chemical_formula_sum "Si O2"
_cell_formula_units_Z 48
_cell_length_a 7.826303
_cell_length_b 9.573013
_cell_length_c 31.637075
_cell_angle_alpha 90.000000
_cell_angle_beta 90.000000
_cell_angle_gamma 90.000000
_cell_volume 2370.290799
_symmetry_space_group_name_H-M "P M N A"
_symmetry_group_IT_number 53
_symmetry_cell_setting 'orthorhombic'
loop_
_space_group_symop_operation_xyz
x,y,z
1/2-x,-y,1/2+z
x,-y,-z
1/2-x,y,1/2-z
-x,-y,-z
1/2+x,y,1/2-z
-x,y,z
1/2+x,-y,1/2+z
loop_
_atom_site_type_symbol
_atom_site_label
_atom_site_fract_x
_atom_site_fract_y
_atom_site_fract_z
Si Si1 0.693717 0.144237 0.570869
Si Si2 0.796491 0.900997 0.626652
Si Si3 0.197674 0.407351 0.107526
Si Si4 0.000000 0.159189 0.510848
Si Si5 0.809536 0.919053 0.297080
Si Si6 0.192330 0.324648 0.846529
Si Si7 0.000000 0.412280 0.456832
O O1 0.500000 0.150185 0.552986
O O2 0.720875 0.249728 0.609021
O O3 0.826671 0.196074 0.535792
O O4 0.736529 0.986255 0.585307
O O5 0.717048 0.747611 0.625516
O O6 0.000000 0.891439 0.626906
O O7 0.718160 0.981456 0.667971
O O8 0.243162 0.513445 0.146270
O O9 0.327387 0.441905 0.069417
O O10 0.000000 0.432940 0.092926
O O11 0.000000 0.248191 0.467920
O O12 0.000000 0.000000 0.500000
O O13 0.750000 0.945714 0.250000
O O14 0.798896 0.755102 0.310230
O O15 0.000000 0.970454 0.298353
O O16 0.000000 0.310971 0.830457
O O17 0.000000 0.500000 0.500000
#
# Coordination Sequence:
#
# PCOD8219623 Si02
#       7
#     8   8   8   4   8   8   4
#     4  10  20  37  59  80 109 151 197 242 297 352
#     4  10  19  37  61  86 116 157 202 246 292 362
#     4  11  23  40  62  87 116 158 206 242 296 360
#     4  12  24  36  54  82 116 146 196 252 298 354
#     4  10  21  35  60  91 123 154 189 240 297 349
#     4   9  20  37  60  85 110 148 198 239 278 351
#     4  12  26  40  60  86 124 158 196 262 306 348
#
# _framework density 20.250679000000002
#
# number of rings (size 3 to 8) (size 9 to 14) (size 15 to 20)
#    0.000    1.667    1.667    3.000    2.333    3.333 
#    0.000    0.833    0.000    2.000    0.000    0.000 
#    0.000    0.000    0.000    0.000    0.000    0.000 
#
# Total GULP energy -594983.143725 kJ/mol
# GULP energy per Si atom -12395.482161 kJ/mol
# Density = 2.020459 g / cm^3
# Si number density = 20.250679 Si / 1000 Ang^3
#
#
#
# Elastic Constant Matrix: (Units=GPa)
#
#
# Indices 1 2 3 4 5 6 
#
# 1 110.4234 12.5732 35.2094 0.0000 0.0000 0.0000
# 2 12.5732 100.9560 11.7548 0.0000 0.0000 0.0000
# 3 35.2094 11.7548 71.1131 0.0000 0.0000 0.0000
# 4 0.0000 0.0000 0.0000 30.7665 0.0000 0.0000
# 5 0.0000 0.0000 0.0000 0.0000 28.4071 0.0000
# 6 0.0000 0.0000 0.0000 0.0000 0.0000 26.5169
#
#
#
# Elastic Compliance Matrix: (Units=1/GPa)
#
#
# Indices 1 2 3 4 5 6 
#
# 1 0.010807 -0.000737 -0.005229 0.000000 0.000000 0.000000
# 2 -0.000737 0.010150 -0.001313 0.000000 0.000000 0.000000
# 3 -0.005229 -0.001313 0.016868 0.000000 0.000000 0.000000
# 4 0.000000 0.000000 0.000000 0.032503 0.000000 0.000000
# 5 0.000000 0.000000 0.000000 0.000000 0.035203 0.000000
# 6 0.000000 0.000000 0.000000 0.000000 0.000000 0.037712
#
#
# Mechanical properties :
#
#
# Convention : Reuss Voigt Hill
#
# Bulk Modulus (GPa) = 42.97851 44.61859 43.79855
# Shear Modulus (GPa) = 30.20121 32.00177 31.10149
#
# Velocity S-wave (km/s) = 3.86601 3.97959 3.92321
# Velocity P-wave (km/s) = 6.41852 6.57245 6.49594
#
# Compressibility (1/GPa) = 0.02326744
#
# Stress axis : x y z
#
# Youngs Moduli (GPa) = 92.53001 98.52256 59.28350
#
# Poissons Ratio (x) = 0.07262 0.31000
# Poissons Ratio (y) = 0.06821 0.07783
# Poissons Ratio (z) = 0.48384 0.12934
#
# Static dielectric constant tensor:
#      x y z
#    x 4.031220 0.000000 0.000000 
#    y 0.000000 3.958120 0.000000 
#    z 0.000000 0.000000 3.225500 
# 
# 
# High freq. dielectric constant tensor:
#      x y z
#    x 1.800530 0.000000 0.000000 
#    y 0.000000 1.798850 0.000000 
#    z 0.000000 0.000000 1.764970 
# 
# From -- ./inp_files/37860.got.cif
#   From: 2010.03.12/outbox.cif.g09.slc.cpg/sg53_19_cif.got.tgz:37860.got - 2010.04.16 14:36:59.
