data_PCOD8219663
_publ_section_title
;
Structure prediction by ZEFSAII (Michael W. Deem and Ramdas Pophale) SiO2 
 PCOD8219663
Probable space group: P M N A
;
_chemical_formula_sum "Si O2"
_cell_formula_units_Z 56
_cell_length_a 8.879057
_cell_length_b 20.961204
_cell_length_c 15.359340
_cell_angle_alpha 90.000000
_cell_angle_beta 90.000000
_cell_angle_gamma 90.000000
_cell_volume 2858.614701
_symmetry_space_group_name_H-M "P M N A"
_symmetry_group_IT_number 53
_symmetry_cell_setting 'orthorhombic'
loop_
_space_group_symop_operation_xyz
x,y,z
1/2-x,-y,1/2+z
x,-y,-z
1/2-x,y,1/2-z
-x,-y,-z
1/2+x,y,1/2-z
-x,y,z
1/2+x,-y,1/2+z
loop_
_atom_site_type_symbol
_atom_site_label
_atom_site_fract_x
_atom_site_fract_y
_atom_site_fract_z
Si Si1 0.678006 0.844480 0.989508
Si Si2 0.175141 0.501897 0.102203
Si Si3 0.678127 0.623668 0.838962
Si Si4 0.822882 0.939581 0.661797
Si Si5 0.822617 0.084043 0.661736
Si Si6 0.323434 0.641569 0.339273
Si Si7 0.178076 0.709505 0.986361
O O1 0.500000 0.831081 0.986049
O O2 0.728387 0.896080 0.918209
O O3 0.769024 0.780939 0.969110
O O4 0.729452 0.871288 0.082832
O O5 0.277113 0.450118 0.150316
O O6 0.228536 0.569971 0.138432
O O7 0.000000 0.487907 0.122079
O O8 0.206077 0.500000 0.000000
O O9 0.750000 0.650653 0.750000
O O10 0.500000 0.630984 0.834520
O O11 0.741608 0.663319 0.919030
O O12 0.750000 0.912480 0.750000
O O13 0.000000 0.937556 0.673569
O O14 0.767076 0.011765 0.643568
O O15 0.750000 0.111233 0.750000
O O16 0.000000 0.085556 0.672360
O O17 0.250000 0.665773 0.250000
O O18 0.500000 0.644192 0.327030
O O19 0.272438 0.688518 0.416755
O O20 0.000000 0.702867 0.973432
#
# Coordination Sequence:
#
# PCOD8219663 Si02
#       7
#     8   8   8   8   8   8   8
#     4  10  21  37  57  82 113 151 193 234 284 343
#     4  10  19  38  64  89 121 153 186 236 295 345
#     4  12  25  41  63  90 118 152 195 241 293 349
#     4   9  18  34  57  84 114 147 185 231 285 339
#     4   9  18  34  57  84 115 149 187 233 283 340
#     4  10  22  39  61  85 114 152 191 236 288 343
#     4  11  24  43  60  81 115 157 198 241 292 342
#
# _framework density 19.589908999999999
#
# number of rings (size 3 to 8) (size 9 to 14) (size 15 to 20)
#    0.000    1.857    1.429    2.571    0.000    7.143 
#    0.000    4.286    0.000    4.286    0.000    0.000 
#    0.000    0.000    0.000    0.000    0.000    0.000 
#
# Total GULP energy -694629.795878 kJ/mol
# GULP energy per Si atom -12404.103498 kJ/mol
# Density = 1.954532 g / cm^3
# Si number density = 19.589909 Si / 1000 Ang^3
#
#
#
# Elastic Constant Matrix: (Units=GPa)
#
#
# Indices 1 2 3 4 5 6 
#
# 1 62.9611 22.1270 34.5298 0.0000 0.0000 0.0000
# 2 22.1270 56.1066 6.8310 0.0000 0.0000 0.0000
# 3 34.5298 6.8310 93.0878 0.0000 0.0000 0.0000
# 4 0.0000 0.0000 0.0000 5.5856 0.0000 0.0000
# 5 0.0000 0.0000 0.0000 0.0000 35.9588 0.0000
# 6 0.0000 0.0000 0.0000 0.0000 0.0000 6.1141
#
#
#
# Elastic Compliance Matrix: (Units=1/GPa)
#
#
# Indices 1 2 3 4 5 6 
#
# 1 0.023122 -0.008147 -0.007979 0.000000 0.000000 0.000000
# 2 -0.008147 0.020855 0.001492 0.000000 0.000000 0.000000
# 3 -0.007979 0.001492 0.013593 0.000000 0.000000 0.000000
# 4 0.000000 0.000000 0.000000 0.179032 0.000000 0.000000
# 5 0.000000 0.000000 0.000000 0.000000 0.027810 0.000000
# 6 0.000000 0.000000 0.000000 0.000000 0.000000 0.163555
#
#
# Mechanical properties :
#
#
# Convention : Reuss Voigt Hill
#
# Bulk Modulus (GPa) = 35.33505 37.68123 36.50814
# Shear Modulus (GPa) = 10.71425 19.44289 15.07857
#
# Velocity S-wave (km/s) = 2.34118 3.15381 2.77738
# Velocity P-wave (km/s) = 5.03833 5.70428 5.38161
#
# Compressibility (1/GPa) = 0.02830051
#
# Stress axis : x y z
#
# Youngs Moduli (GPa) = 43.24881 47.95087 73.56845
#
# Poissons Ratio (x) = 0.39067 0.58700
# Poissons Ratio (y) = 0.35236 -0.10975
# Poissons Ratio (z) = 0.34508 -0.07153
#
# Static dielectric constant tensor:
#      x y z
#    x 3.435790 0.000000 0.000000 
#    y 0.000000 3.612260 0.000000 
#    z 0.000000 0.000000 3.821500 
# 
# 
# High freq. dielectric constant tensor:
#      x y z
#    x 1.753510 0.000000 0.000000 
#    y 0.000000 1.759410 0.000000 
#    z 0.000000 0.000000 1.779390 
# 
# From -- ./inp_files/20528.got.cif
#   From: 2010.03.12/outbox.cif.g09.slc.cpg/sg53_11_cif.got.tgz:20528.got - 2010.04.16 14:36:59.
