data_PCOD8219185
_publ_section_title
;
Structure prediction by ZEFSAII (Michael W. Deem and Ramdas Pophale) SiO2 
 PCOD8219185
Probable space group: P M N A
;
_chemical_formula_sum "Si O2"
_cell_formula_units_Z 64
_cell_length_a 9.026927
_cell_length_b 20.169168
_cell_length_c 19.204097
_cell_angle_alpha 90.000000
_cell_angle_beta 90.000000
_cell_angle_gamma 90.000000
_cell_volume 3496.405581
_symmetry_space_group_name_H-M "P M N A"
_symmetry_group_IT_number 53
_symmetry_cell_setting 'orthorhombic'
loop_
_space_group_symop_operation_xyz
x,y,z
1/2-x,-y,1/2+z
x,-y,-z
1/2-x,y,1/2-z
-x,-y,-z
1/2+x,y,1/2-z
-x,y,z
1/2+x,-y,1/2+z
loop_
_atom_site_type_symbol
_atom_site_label
_atom_site_fract_x
_atom_site_fract_y
_atom_site_fract_z
Si Si1 0.175397 0.642064 0.678716
Si Si2 0.828040 0.682380 0.957332
Si Si3 0.827777 0.490410 0.681391
Si Si4 0.825021 0.985234 0.820402
Si Si5 0.828469 0.820024 0.031239
Si Si6 0.671290 0.137111 0.681382
Si Si7 0.169054 0.430728 0.537957
Si Si8 0.173823 0.062924 0.453927
O O1 0.250000 0.667718 0.750000
O O2 0.237047 0.684983 0.614573
O O3 0.222314 0.565748 0.664857
O O4 0.000000 0.651597 0.683695
O O5 0.000000 0.674746 0.939048
O O6 0.794762 0.748263 0.000617
O O7 0.779914 0.621711 0.005627
O O8 0.750000 0.462121 0.750000
O O9 0.786474 0.441801 0.618292
O O10 0.000000 0.490561 0.696372
O O11 0.750000 0.958961 0.750000
O O12 0.762078 0.940242 0.881940
O O13 0.000000 0.975852 0.815685
O O14 0.778304 0.061566 0.833420
O O15 0.788988 0.819297 0.113557
O O16 0.000000 0.841117 0.020936
O O17 0.722067 0.871055 0.993067
O O18 0.750000 0.166530 0.750000
O O19 0.500000 0.139365 0.698953
O O20 0.187266 0.500000 0.500000
O O21 0.000000 0.405275 0.530122
O O22 0.000000 0.064985 0.438529
O O23 0.218746 0.000000 0.500000
#
# Coordination Sequence:
#
# PCOD8219185 Si02
#       8
#     8   8   8   8   8   8   8   8
#     4  10  19  35  57  82 112 145 185 230 279 337
#     4  11  23  37  56  84 115 149 190 234 278 332
#     4   9  18  32  53  80 109 143 181 228 279 332
#     4  10  19  33  56  83 114 148 184 229 283 333
#     4  10  22  40  57  79 114 153 190 228 280 337
#     4   9  18  33  55  80 107 143 184 227 274 330
#     4  10  19  36  57  79 110 147 185 228 281 334
#     4  11  22  35  56  86 114 141 184 233 276 330
#
# _framework density 18.304513
#
# number of rings (size 3 to 8) (size 9 to 14) (size 15 to 20)
#    0.000    2.000    2.500    1.500    0.000    3.750 
#    0.000    1.250    0.000    6.000    0.000    0.000 
#    0.000    0.000    0.000    0.000    0.000    0.000 
#
# Total GULP energy -793779.086380 kJ/mol
# GULP energy per Si atom -12402.798225 kJ/mol
# Density = 1.826285 g / cm^3
# Si number density = 18.304513 Si / 1000 Ang^3
#
#
#
# Elastic Constant Matrix: (Units=GPa)
#
#
# Indices 1 2 3 4 5 6 
#
# 1 69.2104 22.5839 64.1274 0.0000 0.0000 0.0000
# 2 22.5839 40.8306 51.2845 0.0000 0.0000 0.0000
# 3 64.1274 51.2845 157.4449 0.0000 0.0000 0.0000
# 4 0.0000 0.0000 0.0000 32.1240 0.0000 0.0000
# 5 0.0000 0.0000 0.0000 0.0000 39.0195 0.0000
# 6 0.0000 0.0000 0.0000 0.0000 0.0000 8.8570
#
#
#
# Elastic Compliance Matrix: (Units=1/GPa)
#
#
# Indices 1 2 3 4 5 6 
#
# 1 0.023271 -0.001636 -0.008946 0.000000 0.000000 0.000000
# 2 -0.001636 0.041565 -0.012873 0.000000 0.000000 0.000000
# 3 -0.008946 -0.012873 0.014188 0.000000 0.000000 0.000000
# 4 0.000000 0.000000 0.000000 0.031129 0.000000 0.000000
# 5 0.000000 0.000000 0.000000 0.000000 0.025628 0.000000
# 6 0.000000 0.000000 0.000000 0.000000 0.000000 0.112905
#
#
# Mechanical properties :
#
#
# Convention : Reuss Voigt Hill
#
# Bulk Modulus (GPa) = 31.13718 60.38639 45.76178
# Shear Modulus (GPa) = 16.32391 24.63277 20.47834
#
# Velocity S-wave (km/s) = 2.98954 3.67239 3.34841
# Velocity P-wave (km/s) = 5.38182 7.14447 6.32485
#
# Compressibility (1/GPa) = 0.03211595
#
# Stress axis : x y z
#
# Youngs Moduli (GPa) = 42.97213 24.05897 70.48230
#
# Poissons Ratio (x) = 0.03935 0.63050
# Poissons Ratio (y) = 0.07028 0.90730
# Poissons Ratio (z) = 0.38441 0.30970
#
# Static dielectric constant tensor:
#      x y z
#    x 3.361280 0.000000 0.000000 
#    y 0.000000 4.085880 0.000000 
#    z 0.000000 0.000000 3.506350 
# 
# 
# High freq. dielectric constant tensor:
#      x y z
#    x 1.714180 0.000000 0.000000 
#    y 0.000000 1.675250 0.000000 
#    z 0.000000 0.000000 1.727370 
# 
# From -- ./inp_files/26770.got.cif
#   From: 2010.03.12/outbox.cif.g09.slc.cpg/sg53_14_cif.got.tgz:26770.got - 2010.04.16 14:36:59.
