data_PCOD8219847
_publ_section_title
;
Structure prediction by ZEFSAII (Michael W. Deem and Ramdas Pophale) SiO2 
 PCOD8219847
Probable space group: P M N A
;
_chemical_formula_sum "Si O2"
_cell_formula_units_Z 64
_cell_length_a 8.817440
_cell_length_b 14.881472
_cell_length_c 29.456042
_cell_angle_alpha 90.000000
_cell_angle_beta 90.000000
_cell_angle_gamma 90.000000
_cell_volume 3865.118337
_symmetry_space_group_name_H-M "P M N A"
_symmetry_group_IT_number 53
_symmetry_cell_setting 'orthorhombic'
loop_
_space_group_symop_operation_xyz
x,y,z
1/2-x,-y,1/2+z
x,-y,-z
1/2-x,y,1/2-z
-x,-y,-z
1/2+x,y,1/2-z
-x,y,z
1/2+x,-y,1/2+z
loop_
_atom_site_type_symbol
_atom_site_label
_atom_site_fract_x
_atom_site_fract_y
_atom_site_fract_z
Si Si1 0.823094 0.865286 0.053946
Si Si2 0.320535 0.004983 0.796903
Si Si3 0.319925 0.828840 0.960008
Si Si4 0.179139 0.445164 0.566418
Si Si5 0.179119 0.960619 0.889268
Si Si6 0.178428 0.628638 0.529200
Si Si7 0.323663 0.703496 0.380866
Si Si8 0.177667 0.210580 0.704293
O O1 0.782995 0.772046 0.078599
O O2 0.000000 0.872527 0.041590
O O3 0.772705 0.946162 0.086840
O O4 0.727602 0.872713 0.007843
O O5 0.250000 0.966860 0.750000
O O6 0.500000 0.992994 0.795153
O O7 0.269169 0.108171 0.803238
O O8 0.254123 0.951423 0.839749
O O9 0.500000 0.835853 0.954746
O O10 0.239320 0.878612 0.918910
O O11 0.258172 0.726142 0.957077
O O12 0.220224 0.551679 0.566206
O O13 0.240184 0.401367 0.519752
O O14 0.271300 0.396854 0.606356
O O15 0.000000 0.430139 0.573073
O O16 0.000000 0.954118 0.883783
O O17 0.000000 0.634890 0.524517
O O18 0.500000 0.706255 0.369303
O O19 0.231627 0.728747 0.336633
O O20 0.250000 0.249883 0.750000
O O21 0.000000 0.216834 0.709015
#
# Coordination Sequence:
#
# PCOD8219847 Si02
#       8
#     8   8   8   8   8   8   8   8
#     4  10  21  34  46  65  99 139 172 202 243 291
#     4  10  20  34  53  75  98 126 164 207 249 293
#     4  11  21  33  50  72  97 130 173 216 251 291
#     4   9  16  31  51  70  93 127 165 201 246 295
#     4  11  22  36  50  68  99 138 171 204 248 296
#     4   8  16  30  49  70  95 125 162 207 250 291
#     4  11  20  31  48  73 102 132 166 204 245 293
#     4  10  20  33  51  73  99 130 164 203 247 294
#
# _framework density 16.558354999999999
#
# number of rings (size 3 to 8) (size 9 to 14) (size 15 to 20)
#    0.000    2.000    2.500    3.000    0.000    4.000 
#    0.000    2.500    0.000    0.000    0.000    0.875 
#    0.000    0.000    0.000    0.000    0.000    0.000 
#
# Total GULP energy -793642.255990 kJ/mol
# GULP energy per Si atom -12400.660250 kJ/mol
# Density = 1.652067 g / cm^3
# Si number density = 16.558355 Si / 1000 Ang^3
#
#
#
# Elastic Constant Matrix: (Units=GPa)
#
#
# Indices 1 2 3 4 5 6 
#
# 1 51.5442 24.1334 33.5489 0.0000 0.0000 0.0000
# 2 24.1334 74.7881 36.2858 0.0000 0.0000 0.0000
# 3 33.5489 36.2858 109.0620 0.0000 0.0000 0.0000
# 4 0.0000 0.0000 0.0000 99.3150 0.0000 0.0000
# 5 0.0000 0.0000 0.0000 0.0000 30.9476 0.0000
# 6 0.0000 0.0000 0.0000 0.0000 0.0000 13.0888
#
#
#
# Elastic Compliance Matrix: (Units=1/GPa)
#
#
# Indices 1 2 3 4 5 6 
#
# 1 0.025946 -0.005366 -0.006196 0.000000 0.000000 0.000000
# 2 -0.005366 0.017055 -0.004024 0.000000 0.000000 0.000000
# 3 -0.006196 -0.004024 0.012414 0.000000 0.000000 0.000000
# 4 0.000000 0.000000 0.000000 0.010069 0.000000 0.000000
# 5 0.000000 0.000000 0.000000 0.000000 0.032313 0.000000
# 6 0.000000 0.000000 0.000000 0.000000 0.000000 0.076401
#
#
# Mechanical properties :
#
#
# Convention : Reuss Voigt Hill
#
# Bulk Modulus (GPa) = 41.24893 47.03674 44.14283
# Shear Modulus (GPa) = 23.42460 38.09868 30.76164
#
# Velocity S-wave (km/s) = 3.76529 4.80195 4.31486
# Velocity P-wave (km/s) = 6.62333 7.69501 7.17920
#
# Compressibility (1/GPa) = 0.02424305
#
# Stress axis : x y z
#
# Youngs Moduli (GPa) = 38.54125 58.63402 80.55612
#
# Poissons Ratio (x) = 0.31466 0.49912
# Poissons Ratio (y) = 0.20683 0.32412
# Poissons Ratio (z) = 0.23880 0.23592
#
# Static dielectric constant tensor:
#      x y z
#    x 3.014220 0.000000 0.000000 
#    y 0.000000 3.220440 0.000000 
#    z 0.000000 0.000000 2.908170 
# 
# 
# High freq. dielectric constant tensor:
#      x y z
#    x 1.638480 0.000000 0.000000 
#    y 0.000000 1.619240 0.000000 
#    z 0.000000 0.000000 1.625910 
# 
# From -- ./inp_files/38475.got.cif
#   From: 2010.03.12/outbox.cif.g09.slc.cpg/sg53_20_cif.got.tgz:38475.got - 2010.04.16 14:36:59.
