data_PCOD8219529
_publ_section_title
;
Structure prediction by ZEFSAII (Michael W. Deem and Ramdas Pophale) SiO2 
 PCOD8219529
Probable space group: P M N A
;
_chemical_formula_sum "Si O2"
_cell_formula_units_Z 40
_cell_length_a 20.228916
_cell_length_b 19.815309
_cell_length_c 5.228398
_cell_angle_alpha 90.000000
_cell_angle_beta 90.000000
_cell_angle_gamma 90.000000
_cell_volume 2095.762668
_symmetry_space_group_name_H-M "P M N A"
_symmetry_group_IT_number 53
_symmetry_cell_setting 'orthorhombic'
loop_
_space_group_symop_operation_xyz
x,y,z
1/2-x,-y,1/2+z
x,-y,-z
1/2-x,y,1/2-z
-x,-y,-z
1/2+x,y,1/2-z
-x,y,z
1/2+x,-y,1/2+z
loop_
_atom_site_type_symbol
_atom_site_label
_atom_site_fract_x
_atom_site_fract_y
_atom_site_fract_z
Si Si1 0.250000 0.755783 0.250000
Si Si2 0.574773 0.758313 0.690034
Si Si3 0.205985 0.000000 0.000000
Si Si4 0.818192 0.142383 0.106353
Si Si5 0.877606 0.312143 0.672199
Si Si6 0.076112 0.542459 0.245187
O O1 0.300963 0.803285 0.394420
O O2 0.198638 0.707647 0.401040
O O3 0.500000 0.784694 0.669842
O O4 0.621111 0.823498 0.759929
O O5 0.594383 0.724616 0.422905
O O6 0.579266 0.705047 0.922016
O O7 0.160129 0.067541 0.012302
O O8 0.250000 0.990258 0.250000
O O9 0.750000 0.129922 0.250000
O O10 0.879246 0.391386 0.728174
O O11 0.085691 0.500000 0.500000
O O12 0.000000 0.564401 0.206387
O O13 0.100663 0.500000 0.000000
#
# Coordination Sequence:
#
# PCOD8219529 Si02
#       6
#     4   8   4   8   8   8
#     4  10  20  36  56  84 108 150 180 238 274 340
#     4  11  22  35  57  84 115 147 187 235 285 334
#     4  10  20  32  57  82 111 148 194 234 274 332
#     4  10  19  36  55  84 112 149 190 235 278 335
#     4  11  22  37  58  82 114 143 189 228 288 328
#     4  10  20  35  54  76 105 142 183 225 272 332
#
# _framework density 19.086130000000001
#
# number of rings (size 3 to 8) (size 9 to 14) (size 15 to 20)
#    0.000    1.600    3.000    3.000    0.000    1.600 
#    0.000    1.500    0.000    0.000    0.000    7.700 
#    0.000    0.000    0.000    0.000    0.000    0.000 
#
# Total GULP energy -495606.385292 kJ/mol
# GULP energy per Si atom -12390.159632 kJ/mol
# Density = 1.904269 g / cm^3
# Si number density = 19.086130 Si / 1000 Ang^3
#
#
#
# Elastic Constant Matrix: (Units=GPa)
#
#
# Indices 1 2 3 4 5 6 
#
# 1 90.0304 59.6851 19.8377 0.0000 0.0000 0.0000
# 2 59.6851 152.2306 28.2312 0.0000 0.0000 0.0000
# 3 19.8377 28.2312 108.3635 0.0000 0.0000 0.0000
# 4 0.0000 0.0000 0.0000 24.3049 0.0000 0.0000
# 5 0.0000 0.0000 0.0000 0.0000 6.1036 0.0000
# 6 0.0000 0.0000 0.0000 0.0000 0.0000 16.4486
#
#
#
# Elastic Compliance Matrix: (Units=1/GPa)
#
#
# Indices 1 2 3 4 5 6 
#
# 1 0.015178 -0.005712 -0.001291 0.000000 0.000000 0.000000
# 2 -0.005712 0.009052 -0.001313 0.000000 0.000000 0.000000
# 3 -0.001291 -0.001313 0.009806 0.000000 0.000000 0.000000
# 4 0.000000 0.000000 0.000000 0.041144 0.000000 0.000000
# 5 0.000000 0.000000 0.000000 0.000000 0.163837 0.000000
# 6 0.000000 0.000000 0.000000 0.000000 0.000000 0.060796
#
#
# Mechanical properties :
#
#
# Convention : Reuss Voigt Hill
#
# Bulk Modulus (GPa) = 57.44882 62.90360 60.17621
# Shear Modulus (GPa) = 15.51618 25.56280 20.53949
#
# Velocity S-wave (km/s) = 2.85433 3.66367 3.28403
# Velocity P-wave (km/s) = 6.40532 7.13624 6.78063
#
# Compressibility (1/GPa) = 0.01740680
#
# Stress axis : x y z
#
# Youngs Moduli (GPa) = 65.88404 110.47604 101.97389
#
# Poissons Ratio (x) = 0.63099 0.13161
# Poissons Ratio (y) = 0.37630 0.13385
# Poissons Ratio (z) = 0.08503 0.14501
#
# Static dielectric constant tensor:
#      x y z
#    x 3.697440 0.000000 0.000000 
#    y 0.000000 2.243440 0.000000 
#    z 0.000000 0.000000 1.940440 
# 
# 
# High freq. dielectric constant tensor:
#      x y z
#    x 1.718840 0.000000 0.000000 
#    y 0.000000 1.749700 0.000000 
#    z 0.000000 0.000000 1.745570 
# 
# From -- ./inp_files/2896.got.cif
#   From: 2010.03.12/outbox.cif.g09.slc.cpg/sg53_2_cif.got.tgz:2896.got - 2010.04.16 14:36:59.
