data_PCOD8219403
_publ_section_title
;
Structure prediction by ZEFSAII (Michael W. Deem and Ramdas Pophale) SiO2 
 PCOD8219403
Probable space group: P M N A
;
_chemical_formula_sum "Si O2"
_cell_formula_units_Z 64
_cell_length_a 9.029923
_cell_length_b 11.965007
_cell_length_c 31.334636
_cell_angle_alpha 90.000000
_cell_angle_beta 90.000000
_cell_angle_gamma 90.000000
_cell_volume 3385.490957
_symmetry_space_group_name_H-M "P M N A"
_symmetry_group_IT_number 53
_symmetry_cell_setting 'orthorhombic'
loop_
_space_group_symop_operation_xyz
x,y,z
1/2-x,-y,1/2+z
x,-y,-z
1/2-x,y,1/2-z
-x,-y,-z
1/2+x,y,1/2-z
-x,y,z
1/2+x,-y,1/2+z
loop_
_atom_site_type_symbol
_atom_site_label
_atom_site_fract_x
_atom_site_fract_y
_atom_site_fract_z
Si Si1 0.669046 0.621620 0.514133
Si Si2 0.669105 0.647455 0.613903
Si Si3 0.326170 0.987055 0.047718
Si Si4 0.672499 0.744096 0.292547
Si Si5 0.675814 0.128249 0.127842
Si Si6 0.674298 0.399280 0.628810
Si Si7 0.172439 0.263444 0.556082
Si Si8 0.674780 0.002373 0.294062
O O1 0.724649 0.500000 0.500000
O O2 0.500000 0.640174 0.499583
O O3 0.689048 0.634751 0.563901
O O4 0.772691 0.713776 0.491985
O O5 0.500000 0.678937 0.625653
O O6 0.778800 0.742352 0.630895
O O7 0.715076 0.529477 0.635189
O O8 0.500000 0.004942 0.042855
O O9 0.288807 0.864963 0.066746
O O10 0.266259 0.076286 0.082632
O O11 0.254739 0.000000 0.000000
O O12 0.750000 0.700783 0.250000
O O13 0.500000 0.724824 0.286497
O O14 0.735513 0.669259 0.330921
O O15 0.710755 0.872500 0.301905
O O16 0.500000 0.115154 0.132512
O O17 0.754419 0.066850 0.166707
O O18 0.500000 0.384865 0.622866
O O19 0.746305 0.349392 0.586725
O O20 0.000000 0.286268 0.559426
O O21 0.750000 0.042956 0.250000
O O22 0.500000 0.025765 0.291539
#
# Coordination Sequence:
#
# PCOD8219403 Si02
#       8
#     8   8   8   8   8   8   8   8
#     4  10  19  35  54  74 105 149 188 225 276 327
#     4  10  21  37  56  76 107 150 191 229 273 329
#     4   9  19  35  52  75 112 151 183 225 283 337
#     4   9  19  35  59  86 112 141 174 218 272 329
#     4  11  22  37  58  82 113 151 191 236 287 338
#     4  10  20  37  56  77 108 146 180 218 273 329
#     4  11  21  32  53  82 107 137 181 233 277 322
#     4  10  20  37  61  89 116 143 182 229 280 340
#
# _framework density 18.904201
#
# number of rings (size 3 to 8) (size 9 to 14) (size 15 to 20)
#    0.000    2.000    1.250    2.625    0.000    3.250 
#    0.000    2.500    0.000    6.000    0.000    0.000 
#    0.000    0.000    0.000    0.000    0.000    0.000 
#
# Total GULP energy -793664.762583 kJ/mol
# GULP energy per Si atom -12401.011915 kJ/mol
# Density = 1.886117 g / cm^3
# Si number density = 18.904201 Si / 1000 Ang^3
#
#
#
# Elastic Constant Matrix: (Units=GPa)
#
#
# Indices 1 2 3 4 5 6 
#
# 1 56.1377 46.0919 39.6589 0.0000 0.0000 0.0000
# 2 46.0919 99.2206 56.4653 0.0000 0.0000 0.0000
# 3 39.6589 56.4653 114.7678 0.0000 0.0000 0.0000
# 4 0.0000 0.0000 0.0000 34.6179 0.0000 0.0000
# 5 0.0000 0.0000 0.0000 0.0000 30.9061 0.0000
# 6 0.0000 0.0000 0.0000 0.0000 0.0000 25.8081
#
#
#
# Elastic Compliance Matrix: (Units=1/GPa)
#
#
# Indices 1 2 3 4 5 6 
#
# 1 0.030728 -0.011433 -0.004993 0.000000 0.000000 0.000000
# 2 -0.011433 0.018251 -0.005029 0.000000 0.000000 0.000000
# 3 -0.004993 -0.005029 0.012913 0.000000 0.000000 0.000000
# 4 0.000000 0.000000 0.000000 0.028887 0.000000 0.000000
# 5 0.000000 0.000000 0.000000 0.000000 0.032356 0.000000
# 6 0.000000 0.000000 0.000000 0.000000 0.000000 0.038748
#
#
# Mechanical properties :
#
#
# Convention : Reuss Voigt Hill
#
# Bulk Modulus (GPa) = 52.68109 61.61759 57.14934
# Shear Modulus (GPa) = 23.68323 26.79374 25.23848
#
# Velocity S-wave (km/s) = 3.54333 3.76885 3.65783
# Velocity P-wave (km/s) = 6.68343 7.18362 6.93803
#
# Compressibility (1/GPa) = 0.01898215
#
# Stress axis : x y z
#
# Youngs Moduli (GPa) = 32.54392 54.79043 77.44124
#
# Poissons Ratio (x) = 0.62639 0.38670
# Poissons Ratio (y) = 0.37206 0.38945
# Poissons Ratio (z) = 0.16251 0.27554
#
# Static dielectric constant tensor:
#      x y z
#    x 3.359920 0.000000 0.000000 
#    y 0.000000 4.873070 0.000000 
#    z 0.000000 0.000000 3.634710 
# 
# 
# High freq. dielectric constant tensor:
#      x y z
#    x 1.721490 0.000000 0.000000 
#    y 0.000000 1.738350 0.000000 
#    z 0.000000 0.000000 1.734090 
# 
# From -- ./inp_files/38208.got.cif
#   From: 2010.03.12/outbox.cif.g09.slc.cpg/sg53_20_cif.got.tgz:38208.got - 2010.04.16 14:36:59.
