data_PCOD8219943
_publ_section_title
;
Structure prediction by ZEFSAII (Michael W. Deem and Ramdas Pophale) SiO2 
 PCOD8219943
Probable space group: P M N A
;
_chemical_formula_sum "Si O2"
_cell_formula_units_Z 64
_cell_length_a 22.643012
_cell_length_b 9.529290
_cell_length_c 14.845982
_cell_angle_alpha 90.000000
_cell_angle_beta 90.000000
_cell_angle_gamma 90.000000
_cell_volume 3203.344672
_symmetry_space_group_name_H-M "P M N A"
_symmetry_group_IT_number 53
_symmetry_cell_setting 'orthorhombic'
loop_
_space_group_symop_operation_xyz
x,y,z
1/2-x,-y,1/2+z
x,-y,-z
1/2-x,y,1/2-z
-x,-y,-z
1/2+x,y,1/2-z
-x,y,z
1/2+x,-y,1/2+z
loop_
_atom_site_type_symbol
_atom_site_label
_atom_site_fract_x
_atom_site_fract_y
_atom_site_fract_z
Si Si1 0.431340 0.164934 0.993357
Si Si2 0.853170 0.393948 0.422459
Si Si3 0.568328 0.841212 0.713693
Si Si4 0.930061 0.683419 0.136830
Si Si5 0.717179 0.617730 0.573481
Si Si6 0.930084 0.871561 0.295752
Si Si7 0.375508 0.153985 0.471383
Si Si8 0.635777 0.560444 0.724879
O O1 0.500000 0.200651 0.010630
O O2 0.410780 0.196218 0.890747
O O3 0.394158 0.255638 0.065432
O O4 0.419928 0.000000 0.000000
O O5 0.872686 0.500000 0.500000
O O6 0.785787 0.344577 0.431409
O O7 0.859177 0.483851 0.329457
O O8 0.500000 0.806166 0.731000
O O9 0.577896 0.875129 0.608420
O O10 0.609313 0.713516 0.739171
O O11 0.590016 0.968349 0.778302
O O12 0.903041 0.776497 0.217259
O O13 0.907270 0.527636 0.159452
O O14 0.000000 0.677896 0.133440
O O15 0.907578 0.749142 0.044661
O O16 0.700362 0.500000 0.500000
O O17 0.682765 0.762484 0.557246
O O18 0.698830 0.563413 0.673425
O O19 0.000000 0.869292 0.287957
O O20 0.354242 0.000000 0.500000
#
# Coordination Sequence:
#
# PCOD8219943 Si02
#       8
#     8   8   8   8   8   8   8   8
#     4  10  21  38  61  87 119 153 191 245 307 360
#     4  11  24  41  64  88 115 157 208 252 301 360
#     4  10  20  33  55  85 121 160 199 239 295 365
#     4  11  21  33  56  88 124 158 194 244 302 362
#     4  10  22  42  61  85 116 157 199 250 303 351
#     4   9  18  33  52  81 118 154 191 239 295 352
#     4  11  21  36  58  87 123 162 202 245 297 364
#     4  11  22  38  59  85 119 158 200 251 300 356
#
# _framework density 19.979116999999999
#
# number of rings (size 3 to 8) (size 9 to 14) (size 15 to 20)
#    0.000    1.625    2.500    2.625    0.000    3.250 
#    0.000    1.875    0.000    0.000    0.000    0.000 
#    0.000    0.000    0.000    0.000    0.000    0.000 
#
# Total GULP energy -793208.283921 kJ/mol
# GULP energy per Si atom -12393.879436 kJ/mol
# Density = 1.993364 g / cm^3
# Si number density = 19.979117 Si / 1000 Ang^3
#
#
#
# Elastic Constant Matrix: (Units=GPa)
#
#
# Indices 1 2 3 4 5 6 
#
# 1 78.3391 29.0247 25.9735 0.0000 0.0000 0.0000
# 2 29.0247 74.3294 26.5164 0.0000 0.0000 0.0000
# 3 25.9735 26.5164 106.5471 0.0000 0.0000 0.0000
# 4 0.0000 0.0000 0.0000 35.6450 0.0000 0.0000
# 5 0.0000 0.0000 0.0000 0.0000 22.9784 0.0000
# 6 0.0000 0.0000 0.0000 0.0000 0.0000 23.3207
#
#
#
# Elastic Compliance Matrix: (Units=1/GPa)
#
#
# Indices 1 2 3 4 5 6 
#
# 1 0.015506 -0.005165 -0.002495 0.000000 0.000000 0.000000
# 2 -0.005165 0.016485 -0.002844 0.000000 0.000000 0.000000
# 3 -0.002495 -0.002844 0.010701 0.000000 0.000000 0.000000
# 4 0.000000 0.000000 0.000000 0.028054 0.000000 0.000000
# 5 0.000000 0.000000 0.000000 0.000000 0.043519 0.000000
# 6 0.000000 0.000000 0.000000 0.000000 0.000000 0.042880
#
#
# Mechanical properties :
#
#
# Convention : Reuss Voigt Hill
#
# Bulk Modulus (GPa) = 46.11270 46.91608 46.51439
# Shear Modulus (GPa) = 26.97161 28.23556 27.60359
#
# Velocity S-wave (km/s) = 3.67821 3.76341 3.72105
# Velocity P-wave (km/s) = 6.41635 6.51290 6.46480
#
# Compressibility (1/GPa) = 0.02168600
#
# Stress axis : x y z
#
# Youngs Moduli (GPa) = 64.49259 60.66185 93.44674
#
# Poissons Ratio (x) = 0.31331 0.23310
# Poissons Ratio (y) = 0.33310 0.26572
# Poissons Ratio (z) = 0.16088 0.17249
#
# Static dielectric constant tensor:
#      x y z
#    x 3.318230 0.000000 0.000000 
#    y 0.000000 3.627090 0.000000 
#    z 0.000000 0.000000 4.208570 
# 
# 
# High freq. dielectric constant tensor:
#      x y z
#    x 1.752410 0.000000 0.000000 
#    y 0.000000 1.781610 0.000000 
#    z 0.000000 0.000000 1.803140 
# 
# From -- ./inp_files/24705.got.cif
#   From: 2010.03.12/outbox.cif.g09.slc.cpg/sg53_13_cif.got.tgz:24705.got - 2010.04.16 14:36:59.
