data_PCOD8219603
_publ_section_title
;
Structure prediction by ZEFSAII (Michael W. Deem and Ramdas Pophale) SiO2 
 PCOD8219603
Probable space group: P M N A
;
_chemical_formula_sum "Si O2"
_cell_formula_units_Z 64
_cell_length_a 18.656739
_cell_length_b 11.875133
_cell_length_c 14.065776
_cell_angle_alpha 90.000000
_cell_angle_beta 90.000000
_cell_angle_gamma 90.000000
_cell_volume 3116.290353
_symmetry_space_group_name_H-M "P M N A"
_symmetry_group_IT_number 53
_symmetry_cell_setting 'orthorhombic'
loop_
_space_group_symop_operation_xyz
x,y,z
1/2-x,-y,1/2+z
x,-y,-z
1/2-x,y,1/2-z
-x,-y,-z
1/2+x,y,1/2-z
-x,y,z
1/2+x,-y,1/2+z
loop_
_atom_site_type_symbol
_atom_site_label
_atom_site_fract_x
_atom_site_fract_y
_atom_site_fract_z
Si Si1 0.582048 0.959890 0.602640
Si Si2 0.671300 0.990754 0.774282
Si Si3 0.808426 0.118539 0.546277
Si Si4 0.919076 0.177745 0.398295
Si Si5 0.421173 0.588390 0.796071
Si Si6 0.278750 0.667865 0.488102
Si Si7 0.581432 0.303598 0.406133
Si Si8 0.221836 0.485396 0.352899
O O1 0.500000 0.995293 0.619535
O O2 0.631068 0.026908 0.677847
O O3 0.592871 0.827088 0.617499
O O4 0.608228 0.000000 0.500000
O O5 0.750000 0.942794 0.750000
O O6 0.625782 0.893393 0.823110
O O7 0.677897 0.100748 0.841529
O O8 0.881726 0.166717 0.501160
O O9 0.742926 0.203532 0.529022
O O10 0.785373 0.000000 0.500000
O O11 0.920363 0.305266 0.365253
O O12 0.000000 0.129974 0.405207
O O13 0.500000 0.532118 0.798111
O O14 0.401959 0.625249 0.688495
O O15 0.364040 0.499217 0.838283
O O16 0.363733 0.658865 0.510605
O O17 0.259452 0.597023 0.393733
O O18 0.234816 0.619878 0.577553
O O19 0.500000 0.324685 0.442058
O O20 0.250000 0.452834 0.250000
#
# Coordination Sequence:
#
# PCOD8219603 Si02
#       8
#     8   8   8   8   8   8   8   8
#     4  10  22  38  59  87 127 175 220 261 313 380
#     4  11  24  34  54  89 129 170 209 256 315 374
#     4  10  24  39  60  96 129 171 207 260 323 383
#     4  10  20  37  61  91 123 161 208 266 318 376
#     4  10  19  36  65  96 124 158 219 278 325 383
#     4  11  24  41  66  95 131 167 217 269 323 407
#     4  10  21  38  66  96 125 167 216 279 329 377
#     4  11  23  43  66  94 123 172 217 271 335 375
#
# _framework density 20.537237999999999
#
# number of rings (size 3 to 8) (size 9 to 14) (size 15 to 20)
#    0.000    1.625    3.750    0.375    5.250    3.750 
#    0.000    3.750    0.000    0.000    0.000    0.000 
#    0.000    0.000    0.000    0.000    0.000    0.000 
#
# Total GULP energy -793559.438190 kJ/mol
# GULP energy per Si atom -12399.366222 kJ/mol
# Density = 2.049049 g / cm^3
# Si number density = 20.537238 Si / 1000 Ang^3
#
#
#
# Elastic Constant Matrix: (Units=GPa)
#
#
# Indices 1 2 3 4 5 6 
#
# 1 165.3127 31.8528 60.0906 0.0000 0.0000 0.0000
# 2 31.8528 63.4973 24.7675 0.0000 0.0000 0.0000
# 3 60.0906 24.7675 117.1163 0.0000 0.0000 0.0000
# 4 0.0000 0.0000 0.0000 25.8199 0.0000 0.0000
# 5 0.0000 0.0000 0.0000 0.0000 37.8543 0.0000
# 6 0.0000 0.0000 0.0000 0.0000 0.0000 20.8062
#
#
#
# Elastic Compliance Matrix: (Units=1/GPa)
#
#
# Indices 1 2 3 4 5 6 
#
# 1 0.007801 -0.002564 -0.003460 0.000000 0.000000 0.000000
# 2 -0.002564 0.018007 -0.002493 0.000000 0.000000 0.000000
# 3 -0.003460 -0.002493 0.010841 0.000000 0.000000 0.000000
# 4 0.000000 0.000000 0.000000 0.038730 0.000000 0.000000
# 5 0.000000 0.000000 0.000000 0.000000 0.026417 0.000000
# 6 0.000000 0.000000 0.000000 0.000000 0.000000 0.048063
#
#
# Mechanical properties :
#
#
# Convention : Reuss Voigt Hill
#
# Bulk Modulus (GPa) = 50.97962 64.37201 57.67582
# Shear Modulus (GPa) = 28.82998 32.17710 30.50354
#
# Velocity S-wave (km/s) = 3.75078 3.96254 3.85811
# Velocity P-wave (km/s) = 6.60566 7.23517 6.92757
#
# Compressibility (1/GPa) = 0.01961568
#
# Stress axis : x y z
#
# Youngs Moduli (GPa) = 128.18978 55.53401 92.24088
#
# Poissons Ratio (x) = 0.14236 0.31919
# Poissons Ratio (y) = 0.32861 0.22994
# Poissons Ratio (z) = 0.44359 0.13843
#
# Static dielectric constant tensor:
#      x y z
#    x 4.077700 0.000000 0.000000 
#    y 0.000000 3.333610 0.000000 
#    z 0.000000 0.000000 3.892150 
# 
# 
# High freq. dielectric constant tensor:
#      x y z
#    x 1.820070 0.000000 0.000000 
#    y 0.000000 1.765660 0.000000 
#    z 0.000000 0.000000 1.803980 
# 
# From -- ./inp_files/23872.got.cif
#   From: 2010.03.12/outbox.cif.g09.slc.cpg/sg53_12_cif.got.tgz:23872.got - 2010.04.16 14:36:59.
