data_PCOD8219326
_publ_section_title
;
Structure prediction by ZEFSAII (Michael W. Deem and Ramdas Pophale) SiO2 
 PCOD8219326
Probable space group: P M N A
;
_chemical_formula_sum "Si O2"
_cell_formula_units_Z 56
_cell_length_a 17.356037
_cell_length_b 15.334105
_cell_length_c 11.211072
_cell_angle_alpha 90.000000
_cell_angle_beta 90.000000
_cell_angle_gamma 90.000000
_cell_volume 2983.706784
_symmetry_space_group_name_H-M "P M N A"
_symmetry_group_IT_number 53
_symmetry_cell_setting 'orthorhombic'
loop_
_space_group_symop_operation_xyz
x,y,z
1/2-x,-y,1/2+z
x,-y,-z
1/2-x,y,1/2-z
-x,-y,-z
1/2+x,y,1/2-z
-x,y,z
1/2+x,-y,1/2+z
loop_
_atom_site_type_symbol
_atom_site_label
_atom_site_fract_x
_atom_site_fract_y
_atom_site_fract_z
Si Si1 0.660911 0.824743 0.258080
Si Si2 0.587230 0.337587 0.854644
Si Si3 0.691024 0.505138 0.861228
Si Si4 0.411645 0.900004 0.485260
Si Si5 0.911015 0.156437 0.245259
Si Si6 0.412825 0.016329 0.861776
Si Si7 0.911503 0.325969 0.373801
O O1 0.750000 0.801781 0.250000
O O2 0.613524 0.737219 0.235152
O O3 0.643427 0.855882 0.390599
O O4 0.638660 0.899703 0.164536
O O5 0.500000 0.364363 0.824223
O O6 0.638739 0.422006 0.837699
O O7 0.593607 0.299961 0.987970
O O8 0.750000 0.507796 0.750000
O O9 0.638606 0.589767 0.846281
O O10 0.724672 0.500000 0.000000
O O11 0.500000 0.896673 0.442047
O O12 0.399465 0.843930 0.604151
O O13 0.386077 0.000000 0.500000
O O14 0.875174 0.244868 0.299587
O O15 0.000000 0.155114 0.283915
O O16 0.874166 0.068020 0.298812
O O17 0.500000 0.032466 0.813139
O O18 0.413873 0.000000 0.000000
O O19 0.000000 0.345383 0.336489
#
# Coordination Sequence:
#
# PCOD8219326 Si02
#       7
#     8   8   8   8   8   8   8
#     4  12  24  36  52  81 120 153 187 237 295 356
#     4  10  20  38  64  86 110 150 202 246 280 334
#     4  10  21  40  63  90 123 157 187 233 299 360
#     4  10  19  36  59  78 108 157 200 233 280 342
#     4   9  17  32  56  84 109 141 191 241 280 328
#     4  10  19  34  57  80 107 146 196 248 285 323
#     4   9  18  36  62  90 113 144 196 246 285 335
#
# _framework density 18.768601
#
# number of rings (size 3 to 8) (size 9 to 14) (size 15 to 20)
#    0.000    2.000    1.429    3.000    0.000    4.571 
#    7.714    0.714    0.000    0.857    0.000    0.000 
#    0.000    0.000    0.000    0.000    0.000    0.000 
#
# Total GULP energy -694294.258347 kJ/mol
# GULP energy per Si atom -12398.111756 kJ/mol
# Density = 1.872588 g / cm^3
# Si number density = 18.768601 Si / 1000 Ang^3
#
#
#
# Elastic Constant Matrix: (Units=GPa)
#
#
# Indices 1 2 3 4 5 6 
#
# 1 68.2922 31.8218 42.7279 0.0000 0.0000 0.0000
# 2 31.8218 114.5075 39.2131 0.0000 0.0000 0.0000
# 3 42.7279 39.2131 97.3593 0.0000 0.0000 0.0000
# 4 0.0000 0.0000 0.0000 25.8673 0.0000 0.0000
# 5 0.0000 0.0000 0.0000 0.0000 26.1896 0.0000
# 6 0.0000 0.0000 0.0000 0.0000 0.0000 0.8774
#
#
#
# Elastic Compliance Matrix: (Units=1/GPa)
#
#
# Indices 1 2 3 4 5 6 
#
# 1 0.021107 -0.003124 -0.008005 0.000000 0.000000 0.000000
# 2 -0.003124 0.010593 -0.002895 0.000000 0.000000 0.000000
# 3 -0.008005 -0.002895 0.014950 0.000000 0.000000 0.000000
# 4 0.000000 0.000000 0.000000 0.038659 0.000000 0.000000
# 5 0.000000 0.000000 0.000000 0.000000 0.038183 0.000000
# 6 0.000000 0.000000 0.000000 0.000000 0.000000 1.139774
#
#
# Mechanical properties :
#
#
# Convention : Reuss Voigt Hill
#
# Bulk Modulus (GPa) = 53.75948 56.40940 55.08444
# Shear Modulus (GPa) = 3.85352 21.67993 12.76673
#
# Velocity S-wave (km/s) = 1.43444 3.40239 2.61093
# Velocity P-wave (km/s) = 5.60794 6.74948 6.20502
#
# Compressibility (1/GPa) = 0.01860137
#
# Stress axis : x y z
#
# Youngs Moduli (GPa) = 47.37728 94.40364 66.88781
#
# Poissons Ratio (x) = 0.29496 0.53543
# Poissons Ratio (y) = 0.14803 0.19365
# Poissons Ratio (z) = 0.37925 0.27332
#
# Static dielectric constant tensor:
#      x y z
#    x 3.262870 0.000000 0.000000 
#    y 0.000000 3.565360 0.000000 
#    z 0.000000 0.000000 3.498950 
# 
# 
# High freq. dielectric constant tensor:
#      x y z
#    x 1.701570 0.000000 0.000000 
#    y 0.000000 1.739560 0.000000 
#    z 0.000000 0.000000 1.733460 
# 
# From -- ./inp_files/16059.got.cif
#   From: 2010.03.12/outbox.cif.g09.slc.cpg/sg53_9_cif.got.tgz:16059.got - 2010.04.16 14:36:59.
