data_PCOD8219718
_publ_section_title
;
Structure prediction by ZEFSAII (Michael W. Deem and Ramdas Pophale) SiO2 
 PCOD8219718
Probable space group: P M N A
;
_chemical_formula_sum "Si O2"
_cell_formula_units_Z 40
_cell_length_a 7.619901
_cell_length_b 14.507089
_cell_length_c 20.116052
_cell_angle_alpha 90.000000
_cell_angle_beta 90.000000
_cell_angle_gamma 90.000000
_cell_volume 2223.680327
_symmetry_space_group_name_H-M "P M N A"
_symmetry_group_IT_number 53
_symmetry_cell_setting 'orthorhombic'
loop_
_space_group_symop_operation_xyz
x,y,z
1/2-x,-y,1/2+z
x,-y,-z
1/2-x,y,1/2-z
-x,-y,-z
1/2+x,y,1/2-z
-x,y,z
1/2+x,-y,1/2+z
loop_
_atom_site_type_symbol
_atom_site_label
_atom_site_fract_x
_atom_site_fract_y
_atom_site_fract_z
Si Si1 0.794985 0.901167 0.674318
Si Si2 0.800186 0.752081 0.449862
Si Si3 0.799317 0.718750 0.604899
Si Si4 0.000000 0.618387 0.066052
Si Si5 0.291384 0.042409 0.932180
Si Si6 0.000000 0.415799 0.089658
O O1 0.750000 0.921180 0.750000
O O2 0.724968 0.801494 0.650882
O O3 0.000000 0.899831 0.661913
O O4 0.714327 0.983511 0.629618
O O5 0.784517 0.752632 0.529348
O O6 0.675173 0.675806 0.416401
O O7 0.734122 0.851428 0.424120
O O8 0.000000 0.730743 0.427992
O O9 0.675738 0.630929 0.619195
O O10 0.000000 0.691298 0.622251
O O11 0.000000 0.523998 0.108668
O O12 0.000000 0.594886 0.988929
O O13 0.500000 0.037740 0.935039
O O14 0.212953 0.000000 0.000000
#
# Coordination Sequence:
#
# PCOD8219718 Si02
#       6
#     8   8   8   4   8   4
#     4  10  20  32  47  72 106 133 166 209 255 307
#     4   9  16  29  49  70  98 133 168 205 247 296
#     4   9  17  30  48  69  95 134 168 199 249 305
#     4   9  18  30  42  75 102 123 162 207 254 298
#     4   9  15  29  51  71  96 136 174 207 244 301
#     4   9  18  30  47  66 103 130 155 207 254 297
#
# _framework density 17.988197
#
# number of rings (size 3 to 8) (size 9 to 14) (size 15 to 20)
#    0.000    2.800    2.000    0.000    1.400    0.800 
#    1.800    4.500    0.000    0.000    0.000    1.400 
#    0.000    0.000    0.000    0.000    0.000    0.000 
#
# Total GULP energy -495844.954194 kJ/mol
# GULP energy per Si atom -12396.123855 kJ/mol
# Density = 1.794725 g / cm^3
# Si number density = 17.988197 Si / 1000 Ang^3
#
#
#
# Elastic Constant Matrix: (Units=GPa)
#
#
# Indices 1 2 3 4 5 6 
#
# 1 83.1274 67.2989 16.2132 0.0000 0.0000 0.0000
# 2 67.2989 179.8468 53.4827 0.0000 0.0000 0.0000
# 3 16.2132 53.4827 68.0380 0.0000 0.0000 0.0000
# 4 0.0000 0.0000 0.0000 17.8934 0.0000 0.0000
# 5 0.0000 0.0000 0.0000 0.0000 13.5891 0.0000
# 6 0.0000 0.0000 0.0000 0.0000 0.0000 18.0596
#
#
#
# Elastic Compliance Matrix: (Units=1/GPa)
#
#
# Indices 1 2 3 4 5 6 
#
# 1 0.017341 -0.006865 0.001264 0.000000 0.000000 0.000000
# 2 -0.006865 0.009974 -0.006205 0.000000 0.000000 0.000000
# 3 0.001264 -0.006205 0.019274 0.000000 0.000000 0.000000
# 4 0.000000 0.000000 0.000000 0.055887 0.000000 0.000000
# 5 0.000000 0.000000 0.000000 0.000000 0.073588 0.000000
# 6 0.000000 0.000000 0.000000 0.000000 0.000000 0.055372
#
#
# Mechanical properties :
#
#
# Convention : Reuss Voigt Hill
#
# Bulk Modulus (GPa) = 43.51999 67.22243 55.37121
# Shear Modulus (GPa) = 19.03267 22.84291 20.93779
#
# Velocity S-wave (km/s) = 3.25632 3.56741 3.41541
# Velocity P-wave (km/s) = 6.19551 7.37699 6.81191
#
# Compressibility (1/GPa) = 0.02297795
#
# Stress axis : x y z
#
# Youngs Moduli (GPa) = 57.66705 100.25812 51.88414
#
# Poissons Ratio (x) = 0.68826 -0.06558
# Poissons Ratio (y) = 0.39588 0.32192
# Poissons Ratio (z) = -0.07289 0.62206
#
# Static dielectric constant tensor:
#      x y z
#    x 3.332480 0.000000 0.000000 
#    y 0.000000 3.581740 0.000000 
#    z 0.000000 0.000000 2.651810 
# 
# 
# High freq. dielectric constant tensor:
#      x y z
#    x 1.695110 0.000000 0.000000 
#    y 0.000000 1.696810 0.000000 
#    z 0.000000 0.000000 1.642460 
# 
# From -- ./inp_files/30383.got.cif
#   From: 2010.03.12/outbox.cif.g09.slc.cpg/sg53_16_cif.got.tgz:30383.got - 2010.04.16 14:36:59.
