data_PCOD8219264
_publ_section_title
;
Structure prediction by ZEFSAII (Michael W. Deem and Ramdas Pophale) SiO2 
 PCOD8219264
Probable space group: P M N A
;
_chemical_formula_sum "Si O2"
_cell_formula_units_Z 64
_cell_length_a 9.345861
_cell_length_b 20.317721
_cell_length_c 19.031886
_cell_angle_alpha 90.000000
_cell_angle_beta 90.000000
_cell_angle_gamma 90.000000
_cell_volume 3613.900054
_symmetry_space_group_name_H-M "P M N A"
_symmetry_group_IT_number 53
_symmetry_cell_setting 'orthorhombic'
loop_
_space_group_symop_operation_xyz
x,y,z
1/2-x,-y,1/2+z
x,-y,-z
1/2-x,y,1/2-z
-x,-y,-z
1/2+x,y,1/2-z
-x,y,z
1/2+x,-y,1/2+z
loop_
_atom_site_type_symbol
_atom_site_label
_atom_site_fract_x
_atom_site_fract_y
_atom_site_fract_z
Si Si1 0.662504 0.265351 0.685252
Si Si2 0.163587 0.246668 0.316176
Si Si3 0.333656 0.885367 0.317635
Si Si4 0.834078 0.071475 0.969722
Si Si5 0.832753 0.811384 0.536312
Si Si6 0.166115 0.437239 0.046595
Si Si7 0.163991 0.304623 0.966532
Si Si8 0.669721 0.602183 0.820458
O O1 0.750000 0.295649 0.750000
O O2 0.500000 0.266034 0.709835
O O3 0.710198 0.190435 0.668372
O O4 0.687414 0.310487 0.617154
O O5 0.250000 0.219122 0.250000
O O6 0.196358 0.199502 0.381331
O O7 0.207446 0.321427 0.335069
O O8 0.000000 0.244864 0.293536
O O9 0.250000 0.913831 0.250000
O O10 0.500000 0.893193 0.301058
O O11 0.290326 0.925854 0.387498
O O12 0.000000 0.091378 0.977852
O O13 0.740591 0.120974 0.015278
O O14 0.801732 0.000000 0.000000
O O15 0.768782 0.750736 0.494245
O O16 0.000000 0.814890 0.519247
O O17 0.265534 0.439394 0.115278
O O18 0.000000 0.437157 0.069532
O O19 0.204348 0.500000 0.000000
O O20 0.204312 0.373862 0.000193
O O21 0.000000 0.284193 0.982911
O O22 0.750000 0.578570 0.750000
O O23 0.500000 0.589645 0.814072
#
# Coordination Sequence:
#
# PCOD8219264 Si02
#       8
#     8   8   8   8   8   8   8   8
#     4   9  17  30  49  75 103 132 171 217 263 312
#     4   9  19  33  51  79 109 138 176 224 270 322
#     4   9  17  31  51  76 102 132 174 215 256 310
#     4  10  21  38  57  78 107 144 183 217 261 325
#     4  11  21  34  54  82 111 135 174 226 272 316
#     4  10  21  36  55  81 112 147 185 226 274 328
#     4  10  19  34  55  77 106 142 179 219 266 321
#     4  10  19  34  55  80 109 142 184 228 274 329
#
# _framework density 17.709399999999999
#
# number of rings (size 3 to 8) (size 9 to 14) (size 15 to 20)
#    0.000    2.250    2.500    0.750    0.000    3.000 
#    0.000    1.250    0.000    4.500    0.000    0.000 
#    0.000    0.000    0.000    0.000    0.000    0.000 
#
# Total GULP energy -793703.869090 kJ/mol
# GULP energy per Si atom -12401.622955 kJ/mol
# Density = 1.766909 g / cm^3
# Si number density = 17.709400 Si / 1000 Ang^3
#
#
#
# Elastic Constant Matrix: (Units=GPa)
#
#
# Indices 1 2 3 4 5 6 
#
# 1 88.6729 48.6106 75.0330 0.0000 0.0000 0.0000
# 2 48.6106 77.2214 58.1864 0.0000 0.0000 0.0000
# 3 75.0330 58.1864 144.5055 0.0000 0.0000 0.0000
# 4 0.0000 0.0000 0.0000 23.2826 0.0000 0.0000
# 5 0.0000 0.0000 0.0000 0.0000 37.8198 0.0000
# 6 0.0000 0.0000 0.0000 0.0000 0.0000 4.0366
#
#
#
# Elastic Compliance Matrix: (Units=1/GPa)
#
#
# Indices 1 2 3 4 5 6 
#
# 1 0.023031 -0.007877 -0.008787 0.000000 0.000000 0.000000
# 2 -0.007877 0.021284 -0.004480 0.000000 0.000000 0.000000
# 3 -0.008787 -0.004480 0.013287 0.000000 0.000000 0.000000
# 4 0.000000 0.000000 0.000000 0.042950 0.000000 0.000000
# 5 0.000000 0.000000 0.000000 0.000000 0.026441 0.000000
# 6 0.000000 0.000000 0.000000 0.000000 0.000000 0.247735
#
#
# Mechanical properties :
#
#
# Convention : Reuss Voigt Hill
#
# Bulk Modulus (GPa) = 65.30135 74.89553 70.09844
# Shear Modulus (GPa) = 11.84497 21.59913 16.72205
#
# Velocity S-wave (km/s) = 2.58902 3.49613 3.07619
# Velocity P-wave (km/s) = 6.77431 7.66031 7.23090
#
# Compressibility (1/GPa) = 0.01531362
#
# Stress axis : x y z
#
# Youngs Moduli (GPa) = 43.42045 46.98339 75.26395
#
# Poissons Ratio (x) = 0.37008 0.66132
# Poissons Ratio (y) = 0.34202 0.33720
# Poissons Ratio (z) = 0.38152 0.21050
#
# Static dielectric constant tensor:
#      x y z
#    x 3.309610 0.000000 0.000000 
#    y 0.000000 3.159030 0.000000 
#    z 0.000000 0.000000 3.440940 
# 
# 
# High freq. dielectric constant tensor:
#      x y z
#    x 1.686860 0.000000 0.000000 
#    y 0.000000 1.653770 0.000000 
#    z 0.000000 0.000000 1.697070 
# 
# From -- ./inp_files/26850.got.cif
#   From: 2010.03.12/outbox.cif.g09.slc.cpg/sg53_14_cif.got.tgz:26850.got - 2010.04.16 14:36:59.
