data_PCOD8219563
_publ_section_title
;
Structure prediction by ZEFSAII (Michael W. Deem and Ramdas Pophale) SiO2 
 PCOD8219563
Probable space group: P M N A
;
_chemical_formula_sum "Si O2"
_cell_formula_units_Z 48
_cell_length_a 28.245798
_cell_length_b 8.855277
_cell_length_c 9.982509
_cell_angle_alpha 90.000000
_cell_angle_beta 90.000000
_cell_angle_gamma 90.000000
_cell_volume 2496.868728
_symmetry_space_group_name_H-M "P M N A"
_symmetry_group_IT_number 53
_symmetry_cell_setting 'orthorhombic'
loop_
_space_group_symop_operation_xyz
x,y,z
1/2-x,-y,1/2+z
x,-y,-z
1/2-x,y,1/2-z
-x,-y,-z
1/2+x,y,1/2-z
-x,y,z
1/2+x,-y,1/2+z
loop_
_atom_site_type_symbol
_atom_site_label
_atom_site_fract_x
_atom_site_fract_y
_atom_site_fract_z
Si Si1 0.336189 0.178563 0.482845
Si Si2 0.602509 0.189429 0.729390
Si Si3 0.000000 0.814605 0.159701
Si Si4 0.255506 0.648280 0.910670
Si Si5 0.347269 0.174486 0.001281
Si Si6 0.000000 0.173802 0.146338
Si Si7 0.597104 0.164071 0.253185
O O1 0.365825 0.250148 0.606149
O O2 0.283629 0.240984 0.471090
O O3 0.362851 0.233192 0.348945
O O4 0.331667 0.000000 0.500000
O O5 0.548191 0.253639 0.727849
O O6 0.632624 0.233596 0.860312
O O7 0.596106 0.011944 0.713000
O O8 0.000000 0.994648 0.165140
O O9 0.000000 0.768280 0.004916
O O10 0.250000 0.619217 0.750000
O O11 0.251567 0.500000 0.000000
O O12 0.305477 0.723912 0.942811
O O13 0.391794 0.193499 0.099201
O O14 0.330315 0.000000 0.000000
O O15 0.953455 0.240523 0.217622
#
# Coordination Sequence:
#
# PCOD8219563 Si02
#       7
#     8   8   4   8   8   4   8
#     4  10  19  36  60  83 110 149 189 228 277 333
#     4   9  18  28  53  83 117 145 183 222 279 335
#     4   9  14  25  43  81 120 149 174 225 273 329
#     4  12  27  43  58  81 112 147 191 239 289 340
#     4  10  21  38  57  83 116 149 187 234 282 334
#     4   9  14  23  47  77 118 151 183 218 273 327
#     4   9  16  30  50  82 113 151 182 226 275 326
#
# _framework density 19.224077999999999
#
# number of rings (size 3 to 8) (size 9 to 14) (size 15 to 20)
#    0.000    2.167    3.333    0.500    2.333    0.667 
#    0.000    3.333    0.000    0.000    0.000    7.000 
#    0.000    0.000    0.000    0.000    0.000    0.000 
#
# Total GULP energy -594822.719593 kJ/mol
# GULP energy per Si atom -12392.139992 kJ/mol
# Density = 1.918032 g / cm^3
# Si number density = 19.224078 Si / 1000 Ang^3
#
#
#
# Elastic Constant Matrix: (Units=GPa)
#
#
# Indices 1 2 3 4 5 6 
#
# 1 123.7300 28.3184 39.8220 0.0000 0.0000 0.0000
# 2 28.3184 32.4247 30.0583 0.0000 0.0000 0.0000
# 3 39.8220 30.0583 121.6196 0.0000 0.0000 0.0000
# 4 0.0000 0.0000 0.0000 17.6121 0.0000 0.0000
# 5 0.0000 0.0000 0.0000 0.0000 29.3522 0.0000
# 6 0.0000 0.0000 0.0000 0.0000 0.0000 -1.9491
#
#
#
# Elastic Compliance Matrix: (Units=1/GPa)
#
#
# Indices 1 2 3 4 5 6 
#
# 1 0.010306 -0.007618 -0.001492 0.000000 0.000000 0.000000
# 2 -0.007618 0.045638 -0.008785 0.000000 0.000000 0.000000
# 3 -0.001492 -0.008785 0.010882 0.000000 0.000000 0.000000
# 4 0.000000 0.000000 0.000000 0.056779 0.000000 0.000000
# 5 0.000000 0.000000 0.000000 0.000000 0.034069 0.000000
# 6 0.000000 0.000000 0.000000 0.000000 0.000000 -0.513047
#
#
# Mechanical properties :
#
#
# Convention : Reuss Voigt Hill
#
# Bulk Modulus (GPa) = 32.22024 52.68575 42.45299
# Shear Modulus (GPa) = -16.16873 20.97474 2.40300
#
# Velocity S-wave (km/s) = -2.90326 3.30671 1.11925
# Velocity P-wave (km/s) = 2.35758 6.48419 4.87867
#
# Compressibility (1/GPa) = 0.03103639
#
# Stress axis : x y z
#
# Youngs Moduli (GPa) = 97.03370 21.91171 91.89479
#
# Poissons Ratio (x) = 0.16692 0.13708
# Poissons Ratio (y) = 0.73918 0.80730
# Poissons Ratio (z) = 0.14474 0.19250
#
# Static dielectric constant tensor:
#      x y z
#    x 3.824110 0.000000 0.000000 
#    y 0.000000 2.971170 0.000000 
#    z 0.000000 0.000000 3.675370 
# 
# 
# High freq. dielectric constant tensor:
#      x y z
#    x 1.769140 0.000000 0.000000 
#    y 0.000000 1.681570 0.000000 
#    z 0.000000 0.000000 1.757820 
# 
# From -- ./inp_files/13107.got.cif
#   From: 2010.03.12/outbox.cif.g09.slc.cpg/sg53_7_cif.got.tgz:13107.got - 2010.04.16 14:36:59.
