data_PCOD8219972
_publ_section_title
;
Structure prediction by ZEFSAII (Michael W. Deem and Ramdas Pophale) SiO2 
 PCOD8219972
Probable space group: P M N A
;
_chemical_formula_sum "Si O2"
_cell_formula_units_Z 56
_cell_length_a 14.397755
_cell_length_b 23.531524
_cell_length_c 9.115136
_cell_angle_alpha 90.000000
_cell_angle_beta 90.000000
_cell_angle_gamma 90.000000
_cell_volume 3088.218261
_symmetry_space_group_name_H-M "P M N A"
_symmetry_group_IT_number 53
_symmetry_cell_setting 'orthorhombic'
loop_
_space_group_symop_operation_xyz
x,y,z
1/2-x,-y,1/2+z
x,-y,-z
1/2-x,y,1/2-z
-x,-y,-z
1/2+x,y,1/2-z
-x,y,z
1/2+x,-y,1/2+z
loop_
_atom_site_type_symbol
_atom_site_label
_atom_site_fract_x
_atom_site_fract_y
_atom_site_fract_z
Si Si1 0.750000 0.941018 0.418820
Si Si2 0.250000 0.350755 0.920866
Si Si3 0.607445 0.845970 0.078013
Si Si4 0.105043 0.555329 0.420559
Si Si5 0.250000 0.767487 0.575587
Si Si6 0.392555 0.845970 0.421987
Si Si7 0.105043 0.444671 0.920559
O O1 0.750000 0.956518 0.250000
O O2 0.842171 0.905346 0.460533
O O3 0.657829 0.905346 0.460533
O O4 0.750000 0.000000 0.500000
O O5 0.250000 0.331977 0.750000
O O6 0.339859 0.387906 0.960790
O O7 0.160141 0.387906 0.960790
O O8 0.250000 0.297445 0.027256
O O9 0.500000 0.850295 0.031459
O O10 0.618716 0.832053 0.250000
O O11 0.656654 0.796098 0.987554
O O12 0.147211 0.500000 0.500000
O O13 0.113189 0.542258 0.250000
O O14 0.000000 0.566056 0.472344
O O15 0.250000 0.772541 0.750000
O O16 0.343346 0.796098 0.512446
O O17 0.500000 0.850295 0.468541
O O18 0.000000 0.433944 0.972344
O O19 0.147211 0.500000 0.000000
#
# Coordination Sequence:
#
# PCOD8219972 Si02
#       7
#     8   8   8   8   8   8   8
#     4   9  18  32  52  82 114 141 173 213 257 306
#     4  10  20  34  51  71  98 134 173 207 248 310
#     4   9  19  38  60  77 101 143 186 218 255 309
#     4   9  18  32  50  72  97 126 162 205 253 305
#     4  11  23  36  52  79 110 135 170 224 275 314
#     4   9  19  38  60  77 101 143 186 218 255 309
#     4   9  18  32  50  72  97 126 162 205 253 305
#
# _framework density 18.133434999999999
#
# number of rings (size 3 to 8) (size 9 to 14) (size 15 to 20)
#    0.000    2.571    0.000    2.571    0.000    5.714 
#    0.000    2.857    0.000    0.000    0.000    0.000 
#    0.000    0.000    0.000    0.000    0.000    0.000 
#
# Total GULP energy -694401.094100 kJ/mol
# GULP energy per Si atom -12400.019537 kJ/mol
# Density = 1.809216 g / cm^3
# Si number density = 18.133435 Si / 1000 Ang^3
#
#
#
# Elastic Constant Matrix: (Units=GPa)
#
#
# Indices 1 2 3 4 5 6 
#
# 1 148.7171 72.3587 51.0309 0.0000 0.0000 0.0000
# 2 72.3587 152.8045 69.2318 0.0000 0.0000 0.0000
# 3 51.0309 69.2318 73.4144 0.0000 0.0000 0.0000
# 4 0.0000 0.0000 0.0000 38.9847 0.0000 0.0000
# 5 0.0000 0.0000 0.0000 0.0000 18.7766 0.0000
# 6 0.0000 0.0000 0.0000 0.0000 0.0000 15.5284
#
#
#
# Elastic Compliance Matrix: (Units=1/GPa)
#
#
# Indices 1 2 3 4 5 6 
#
# 1 0.009387 -0.002599 -0.004073 0.000000 0.000000 0.000000
# 2 -0.002599 0.012146 -0.009647 0.000000 0.000000 0.000000
# 3 -0.004073 -0.009647 0.025550 0.000000 0.000000 0.000000
# 4 0.000000 0.000000 0.000000 0.025651 0.000000 0.000000
# 5 0.000000 0.000000 0.000000 0.000000 0.053258 0.000000
# 6 0.000000 0.000000 0.000000 0.000000 0.000000 0.064398
#
#
# Mechanical properties :
#
#
# Convention : Reuss Voigt Hill
#
# Bulk Modulus (GPa) = 69.23768 84.46431 76.85099
# Shear Modulus (GPa) = 21.94476 26.81226 24.37851
#
# Velocity S-wave (km/s) = 3.48254 3.84944 3.67058
# Velocity P-wave (km/s) = 7.37808 8.15095 7.77413
#
# Compressibility (1/GPa) = 0.01444300
#
# Stress axis : x y z
#
# Youngs Moduli (GPa) = 106.53400 82.33055 39.13820
#
# Poissons Ratio (x) = 0.21401 0.15943
# Poissons Ratio (y) = 0.27692 0.37758
# Poissons Ratio (z) = 0.43396 0.79427
#
# Static dielectric constant tensor:
#      x y z
#    x 3.884670 0.000000 0.000000 
#    y 0.000000 3.263370 0.000000 
#    z 0.000000 0.000000 3.106140 
# 
# 
# High freq. dielectric constant tensor:
#      x y z
#    x 1.712050 0.000000 0.000000 
#    y 0.000000 1.700680 0.000000 
#    z 0.000000 0.000000 1.691820 
# 
# From -- ./inp_files/8862.got.cif
#   From: 2010.03.12/outbox.cif.g09.slc.cpg/sg53_5_cif.got.tgz:8862.got - 2010.04.16 14:36:59.
