data_PCOD8219967
_publ_section_title
;
Structure prediction by ZEFSAII (Michael W. Deem and Ramdas Pophale) SiO2 
 PCOD8219967
Probable space group: P M N A
;
_chemical_formula_sum "Si O2"
_cell_formula_units_Z 48
_cell_length_a 8.838314
_cell_length_b 11.881812
_cell_length_c 25.413295
_cell_angle_alpha 90.000000
_cell_angle_beta 90.000000
_cell_angle_gamma 90.000000
_cell_volume 2668.781885
_symmetry_space_group_name_H-M "P M N A"
_symmetry_group_IT_number 53
_symmetry_cell_setting 'orthorhombic'
loop_
_space_group_symop_operation_xyz
x,y,z
1/2-x,-y,1/2+z
x,-y,-z
1/2-x,y,1/2-z
-x,-y,-z
1/2+x,y,1/2-z
-x,y,z
1/2+x,-y,1/2+z
loop_
_atom_site_type_symbol
_atom_site_label
_atom_site_fract_x
_atom_site_fract_y
_atom_site_fract_z
Si Si1 0.331580 0.847655 0.470878
Si Si2 0.326334 0.335292 0.618109
Si Si3 0.824805 0.213293 0.427287
Si Si4 0.178833 0.531051 0.558605
Si Si5 0.673322 0.014416 0.380272
Si Si6 0.679026 0.165794 0.806862
O O1 0.500000 0.843167 0.496201
O O2 0.309003 0.744631 0.431669
O O3 0.204937 0.837907 0.515132
O O4 0.311037 0.963820 0.439158
O O5 0.500000 0.350527 0.634935
O O6 0.256012 0.454961 0.603009
O O7 0.237585 0.281231 0.667000
O O8 0.771983 0.342507 0.426841
O O9 0.000000 0.201625 0.414071
O O10 0.732856 0.142745 0.383265
O O11 0.237804 0.500000 0.500000
O O12 0.000000 0.513747 0.561240
O O13 0.500000 0.010729 0.360990
O O14 0.773145 0.943530 0.339962
O O15 0.750000 0.153685 0.750000
O O16 0.500000 0.170256 0.802923
#
# Coordination Sequence:
#
# PCOD8219967 Si02
#       6
#     8   8   8   8   8   8
#     4   9  18  31  47  70 104 143 179 222 267 316
#     4  10  20  34  54  81 110 143 186 228 272 321
#     4  11  21  31  48  74 107 148 189 223 265 319
#     4  10  20  34  50  74 111 153 192 229 268 318
#     4  10  21  36  52  76 108 140 179 224 272 324
#     4  11  22  39  63  86 109 136 173 223 279 330
#
# _framework density 17.985733
#
# number of rings (size 3 to 8) (size 9 to 14) (size 15 to 20)
#    0.000    1.833    1.667    4.500    0.000    7.000 
#    0.000    0.000    0.000    1.000    0.000    0.000 
#    0.000    0.000    0.000    0.000    0.000    0.000 
#
# Total GULP energy -595292.439045 kJ/mol
# GULP energy per Si atom -12401.925813 kJ/mol
# Density = 1.794480 g / cm^3
# Si number density = 17.985733 Si / 1000 Ang^3
#
#
#
# Elastic Constant Matrix: (Units=GPa)
#
#
# Indices 1 2 3 4 5 6 
#
# 1 98.6234 51.8954 34.1214 0.0000 0.0000 0.0000
# 2 51.8954 130.8668 38.2583 0.0000 0.0000 0.0000
# 3 34.1214 38.2583 49.4182 0.0000 0.0000 0.0000
# 4 0.0000 0.0000 0.0000 5.9631 0.0000 0.0000
# 5 0.0000 0.0000 0.0000 0.0000 29.0590 0.0000
# 6 0.0000 0.0000 0.0000 0.0000 0.0000 29.8309
#
#
#
# Elastic Compliance Matrix: (Units=1/GPa)
#
#
# Indices 1 2 3 4 5 6 
#
# 1 0.014566 -0.003666 -0.007220 0.000000 0.000000 0.000000
# 2 -0.003666 0.010799 -0.005829 0.000000 0.000000 0.000000
# 3 -0.007220 -0.005829 0.029733 0.000000 0.000000 0.000000
# 4 0.000000 0.000000 0.000000 0.167699 0.000000 0.000000
# 5 0.000000 0.000000 0.000000 0.000000 0.034413 0.000000
# 6 0.000000 0.000000 0.000000 0.000000 0.000000 0.033522
#
#
# Mechanical properties :
#
#
# Convention : Reuss Voigt Hill
#
# Bulk Modulus (GPa) = 46.14813 58.60652 52.37733
# Shear Modulus (GPa) = 15.08820 23.27950 19.18385
#
# Velocity S-wave (km/s) = 2.89952 3.60159 3.26945
# Velocity P-wave (km/s) = 6.07647 7.06760 6.59069
#
# Compressibility (1/GPa) = 0.02166935
#
# Stress axis : x y z
#
# Youngs Moduli (GPa) = 68.65192 92.59952 33.63231
#
# Poissons Ratio (x) = 0.33944 0.24281
# Poissons Ratio (y) = 0.25165 0.19606
# Poissons Ratio (z) = 0.49564 0.53981
#
# Static dielectric constant tensor:
#      x y z
#    x 3.374090 0.000000 0.000000 
#    y 0.000000 3.474390 0.000000 
#    z 0.000000 0.000000 3.080340 
# 
# 
# High freq. dielectric constant tensor:
#      x y z
#    x 1.705640 0.000000 0.000000 
#    y 0.000000 1.702250 0.000000 
#    z 0.000000 0.000000 1.661250 
# 
# From -- ./inp_files/33886.got.cif
#   From: 2010.03.12/outbox.cif.g09.slc.cpg/sg53_17_cif.got.tgz:33886.got - 2010.04.16 14:36:59.
