data_PCOD8219149
_publ_section_title
;
Structure prediction by ZEFSAII (Michael W. Deem and Ramdas Pophale) SiO2 
 PCOD8219149
Probable space group: P M N A
;
_chemical_formula_sum "Si O2"
_cell_formula_units_Z 40
_cell_length_a 9.018201
_cell_length_b 26.091029
_cell_length_c 9.156691
_cell_angle_alpha 90.000000
_cell_angle_beta 90.000000
_cell_angle_gamma 90.000000
_cell_volume 2154.515769
_symmetry_space_group_name_H-M "P M N A"
_symmetry_group_IT_number 53
_symmetry_cell_setting 'orthorhombic'
loop_
_space_group_symop_operation_xyz
x,y,z
1/2-x,-y,1/2+z
x,-y,-z
1/2-x,y,1/2-z
-x,-y,-z
1/2+x,y,1/2-z
-x,y,z
1/2+x,-y,1/2+z
loop_
_atom_site_type_symbol
_atom_site_label
_atom_site_fract_x
_atom_site_fract_y
_atom_site_fract_z
Si Si1 0.171599 0.450210 0.597990
Si Si2 0.330244 0.253448 0.400431
Si Si3 0.174932 0.364899 0.091573
Si Si4 0.674308 0.142811 0.406502
Si Si5 0.674552 0.951387 0.404477
O O1 0.190123 0.500000 0.500000
O O2 0.250000 0.462283 0.750000
O O3 0.252115 0.402975 0.522086
O O4 0.000000 0.436408 0.623744
O O5 0.250000 0.255201 0.250000
O O6 0.500000 0.251504 0.358247
O O7 0.296183 0.307815 0.479456
O O8 0.288626 0.199286 0.478903
O O9 0.250000 0.371031 0.250000
O O10 0.000000 0.376448 0.108066
O O11 0.750000 0.136283 0.250000
O O12 0.500000 0.135072 0.382185
O O13 0.735092 0.099909 0.516656
O O14 0.750000 0.956871 0.250000
O O15 0.500000 0.948868 0.380517
O O16 0.721700 0.000000 0.500000
#
# Coordination Sequence:
#
# PCOD8219149 Si02
#       5
#     8   8   8   8   8
#     4  11  24  40  58  80 106 137 173 213 259 310
#     4   8  15  28  48  74 103 135 169 207 249 295
#     4  10  19  33  55  81 109 140 175 214 256 303
#     4   9  17  31  51  75 103 133 169 210 251 298
#     4  10  21  35  51  73 100 131 168 210 255 304
#
# _framework density 18.565656000000001
#
# number of rings (size 3 to 8) (size 9 to 14) (size 15 to 20)
#    0.000    2.400    0.000    2.400    0.000    5.200 
#    0.000    1.000    0.000    2.400    0.000    0.000 
#    0.000    0.000    0.000    0.000    0.000    0.000 
#
# Total GULP energy -495590.302892 kJ/mol
# GULP energy per Si atom -12389.757572 kJ/mol
# Density = 1.852340 g / cm^3
# Si number density = 18.565656 Si / 1000 Ang^3
#
#
#
# Elastic Constant Matrix: (Units=GPa)
#
#
# Indices 1 2 3 4 5 6 
#
# 1 76.2434 62.1457 49.4330 0.0000 0.0000 0.0000
# 2 62.1457 163.3354 63.7964 0.0000 0.0000 0.0000
# 3 49.4330 63.7964 105.5832 0.0000 0.0000 0.0000
# 4 0.0000 0.0000 0.0000 25.5005 0.0000 0.0000
# 5 0.0000 0.0000 0.0000 0.0000 29.7924 0.0000
# 6 0.0000 0.0000 0.0000 0.0000 0.0000 3.1442
#
#
#
# Elastic Compliance Matrix: (Units=1/GPa)
#
#
# Indices 1 2 3 4 5 6 
#
# 1 0.022346 -0.005780 -0.006970 0.000000 0.000000 0.000000
# 2 -0.005780 0.009509 -0.003039 0.000000 0.000000 0.000000
# 3 -0.006970 -0.003039 0.014571 0.000000 0.000000 0.000000
# 4 0.000000 0.000000 0.000000 0.039215 0.000000 0.000000
# 5 0.000000 0.000000 0.000000 0.000000 0.033566 0.000000
# 6 0.000000 0.000000 0.000000 0.000000 0.000000 0.318046
#
#
# Mechanical properties :
#
#
# Convention : Reuss Voigt Hill
#
# Bulk Modulus (GPa) = 67.35153 77.32355 72.33754
# Shear Modulus (GPa) = 10.55344 23.00655 16.77999
#
# Velocity S-wave (km/s) = 2.38678 3.52405 3.00962
# Velocity P-wave (km/s) = 6.62962 7.63529 7.15016
#
# Compressibility (1/GPa) = 0.01484747
#
# Stress axis : x y z
#
# Youngs Moduli (GPa) = 44.75083 105.16804 68.63038
#
# Poissons Ratio (x) = 0.60786 0.47834
# Poissons Ratio (y) = 0.25865 0.20859
# Poissons Ratio (z) = 0.31190 0.31964
#
# Static dielectric constant tensor:
#      x y z
#    x 3.448510 0.000000 0.000000 
#    y 0.000000 4.377480 0.000000 
#    z 0.000000 0.000000 3.139980 
# 
# 
# High freq. dielectric constant tensor:
#      x y z
#    x 1.725200 0.000000 0.000000 
#    y 0.000000 1.752730 0.000000 
#    z 0.000000 0.000000 1.685840 
# 
# From -- ./inp_files/6285.got.cif
#   From: 2010.03.12/outbox.cif.g09.slc.cpg/sg53_4_cif.got.tgz:6285.got - 2010.04.16 14:36:59.
