data_PCOD8219487
_publ_section_title
;
Structure prediction by ZEFSAII (Michael W. Deem and Ramdas Pophale) SiO2 
 PCOD8219487
Probable space group: P M N A
;
_chemical_formula_sum "Si O2"
_cell_formula_units_Z 56
_cell_length_a 17.608922
_cell_length_b 12.649285
_cell_length_c 12.618492
_cell_angle_alpha 90.000000
_cell_angle_beta 90.000000
_cell_angle_gamma 90.000000
_cell_volume 2810.646352
_symmetry_space_group_name_H-M "P M N A"
_symmetry_group_IT_number 53
_symmetry_cell_setting 'orthorhombic'
loop_
_space_group_symop_operation_xyz
x,y,z
1/2-x,-y,1/2+z
x,-y,-z
1/2-x,y,1/2-z
-x,-y,-z
1/2+x,y,1/2-z
-x,y,z
1/2+x,-y,1/2+z
loop_
_atom_site_type_symbol
_atom_site_label
_atom_site_fract_x
_atom_site_fract_y
_atom_site_fract_z
Si Si1 0.409717 0.412538 0.422466
Si Si2 0.589627 0.177846 0.467636
Si Si3 0.160618 0.093933 0.243759
Si Si4 0.910965 0.255392 0.409559
Si Si5 0.089788 0.299346 0.639473
Si Si6 0.589298 0.881044 0.296380
Si Si7 0.910389 0.471262 0.305819
O O1 0.375149 0.500000 0.500000
O O2 0.500000 0.418314 0.419563
O O3 0.383897 0.299167 0.465672
O O4 0.375504 0.436344 0.306991
O O5 0.500000 0.166384 0.447226
O O6 0.632952 0.119252 0.374276
O O7 0.612630 0.127098 0.580163
O O8 0.250000 0.098006 0.250000
O O9 0.129928 0.173866 0.332102
O O10 0.131921 0.975154 0.265015
O O11 0.882853 0.242014 0.530859
O O12 0.890059 0.377272 0.385720
O O13 0.000000 0.234771 0.393977
O O14 0.113587 0.227560 0.738934
O O15 0.125082 0.416973 0.655359
O O16 0.000000 0.311652 0.630926
O O17 0.500000 0.900594 0.285197
O O18 0.000000 0.485441 0.294146
#
# Coordination Sequence:
#
# PCOD8219487 Si02
#       7
#     8   8   8   8   8   8   8
#     4   9  15  24  48  88 122 144 172 227 293 342
#     4  10  19  37  63  89 115 146 192 244 295 348
#     4  12  25  40  56  81 113 154 199 244 288 345
#     4  10  19  35  59  85 115 151 191 232 283 343
#     4   9  18  32  55  91 121 144 179 231 289 342
#     4  10  21  39  62  87 116 148 193 248 297 343
#     4   9  15  27  51  85 120 144 177 226 279 342
#
# _framework density 19.924243000000001
#
# number of rings (size 3 to 8) (size 9 to 14) (size 15 to 20)
#    0.000    2.143    1.429    3.000    0.000    6.857 
#    5.143    2.143    0.000    2.571    0.000    0.000 
#    0.000    0.000    0.000    0.000    0.000    0.000 
#
# Total GULP energy -694233.353987 kJ/mol
# GULP energy per Si atom -12397.024178 kJ/mol
# Density = 1.987889 g / cm^3
# Si number density = 19.924243 Si / 1000 Ang^3
#
#
#
# Elastic Constant Matrix: (Units=GPa)
#
#
# Indices 1 2 3 4 5 6 
#
# 1 46.8237 39.4717 36.1769 0.0000 0.0000 0.0000
# 2 39.4717 131.7330 44.7390 0.0000 0.0000 0.0000
# 3 36.1769 44.7390 121.9556 0.0000 0.0000 0.0000
# 4 0.0000 0.0000 0.0000 30.0892 0.0000 0.0000
# 5 0.0000 0.0000 0.0000 0.0000 17.2206 0.0000
# 6 0.0000 0.0000 0.0000 0.0000 0.0000 -41.6212
#
#
#
# Elastic Compliance Matrix: (Units=1/GPa)
#
#
# Indices 1 2 3 4 5 6 
#
# 1 0.033179 -0.007538 -0.007077 0.000000 0.000000 0.000000
# 2 -0.007538 0.010384 -0.001573 0.000000 0.000000 0.000000
# 3 -0.007077 -0.001573 0.010876 0.000000 0.000000 0.000000
# 4 0.000000 0.000000 0.000000 0.033235 0.000000 0.000000
# 5 0.000000 0.000000 0.000000 0.000000 0.058070 0.000000
# 6 0.000000 0.000000 0.000000 0.000000 0.000000 -0.024026
#
#
# Mechanical properties :
#
#
# Convention : Reuss Voigt Hill
#
# Bulk Modulus (GPa) = 45.32542 60.14307 52.73425
# Shear Modulus (GPa) = 30.96968 13.14602 22.05785
#
# Velocity S-wave (km/s) = 3.94683 2.57144 3.33090
# Velocity P-wave (km/s) = 6.60062 6.25043 6.42791
#
# Compressibility (1/GPa) = 0.02206267
#
# Stress axis : x y z
#
# Youngs Moduli (GPa) = 30.13960 96.30107 91.94436
#
# Poissons Ratio (x) = 0.72593 0.65068
# Poissons Ratio (y) = 0.22720 0.14465
# Poissons Ratio (z) = 0.21329 0.15151
#
# Static dielectric constant tensor:
#      x y z
#    x 3.012200 0.000000 0.000000 
#    y 0.000000 3.887340 0.000000 
#    z 0.000000 0.000000 3.834170 
# 
# 
# High freq. dielectric constant tensor:
#      x y z
#    x 1.706370 0.000000 0.000000 
#    y 0.000000 1.794750 0.000000 
#    z 0.000000 0.000000 1.791790 
# 
# From -- ./inp_files/17826.got.cif
#   From: 2010.03.12/outbox.cif.g09.slc.cpg/sg53_9_cif.got.tgz:17826.got - 2010.04.16 14:36:59.
