data_PCOD8219113
_publ_section_title
;
Structure prediction by ZEFSAII (Michael W. Deem and Ramdas Pophale) SiO2 
 PCOD8219113
Probable space group: P M N A
;
_chemical_formula_sum "Si O2"
_cell_formula_units_Z 64
_cell_length_a 9.046561
_cell_length_b 14.671146
_cell_length_c 24.852919
_cell_angle_alpha 90.000000
_cell_angle_beta 90.000000
_cell_angle_gamma 90.000000
_cell_volume 3298.564338
_symmetry_space_group_name_H-M "P M N A"
_symmetry_group_IT_number 53
_symmetry_cell_setting 'orthorhombic'
loop_
_space_group_symop_operation_xyz
x,y,z
1/2-x,-y,1/2+z
x,-y,-z
1/2-x,y,1/2-z
-x,-y,-z
1/2+x,y,1/2-z
-x,y,z
1/2+x,-y,1/2+z
loop_
_atom_site_type_symbol
_atom_site_label
_atom_site_fract_x
_atom_site_fract_y
_atom_site_fract_z
Si Si1 0.668060 0.982321 0.666895
Si Si2 0.165875 0.222780 0.487121
Si Si3 0.331964 0.940286 0.548629
Si Si4 0.826966 0.281115 0.910028
Si Si5 0.178349 0.781488 0.805575
Si Si6 0.330367 0.349139 0.108467
Si Si7 0.823535 0.178414 0.803385
Si Si8 0.673866 0.485968 0.561963
O O1 0.500000 0.978066 0.685790
O O2 0.681305 0.997098 0.603100
O O3 0.738584 0.885436 0.684727
O O4 0.739354 0.074157 0.691486
O O5 0.231316 0.148193 0.446529
O O6 0.256891 0.223755 0.541888
O O7 0.175562 0.315245 0.453220
O O8 0.000000 0.197624 0.502750
O O9 0.500000 0.909230 0.537979
O O10 0.270027 0.000000 0.500000
O O11 0.770500 0.240943 0.853237
O O12 0.781800 0.386095 0.916963
O O13 0.000000 0.267128 0.915399
O O14 0.250000 0.746998 0.750000
O O15 0.236626 0.715031 0.852052
O O16 0.000000 0.776898 0.804736
O O17 0.500000 0.354682 0.128950
O O18 0.257461 0.448563 0.104143
O O19 0.750000 0.220866 0.750000
O O20 0.000000 0.179644 0.799099
O O21 0.724730 0.500000 0.500000
O O22 0.500000 0.504749 0.566757
#
# Coordination Sequence:
#
# PCOD8219113 Si02
#       8
#     8   8   8   8   8   8   8   8
#     4   9  18  33  55  83 112 149 193 234 278 334
#     4  11  22  34  53  84 121 152 185 234 293 347
#     4  10  19  33  54  79 112 156 199 235 282 345
#     4  10  21  38  61  86 115 152 196 241 290 351
#     4  11  22  38  60  84 115 153 197 243 288 343
#     4  11  23  38  57  85 120 155 189 235 294 352
#     4  10  21  39  60  84 114 149 192 238 284 337
#     4  10  20  36  61  89 115 151 196 242 293 348
#
# _framework density 19.402379
#
# number of rings (size 3 to 8) (size 9 to 14) (size 15 to 20)
#    0.000    1.750    2.500    2.250    0.000    4.500 
#    0.000    1.875    0.000    1.500    0.000    0.000 
#    0.000    0.000    0.000    0.000    0.000    0.000 
#
# Total GULP energy -793449.888799 kJ/mol
# GULP energy per Si atom -12397.654512 kJ/mol
# Density = 1.935822 g / cm^3
# Si number density = 19.402379 Si / 1000 Ang^3
#
#
#
# Elastic Constant Matrix: (Units=GPa)
#
#
# Indices 1 2 3 4 5 6 
#
# 1 50.0115 36.7723 35.1997 0.0000 0.0000 0.0000
# 2 36.7723 97.7397 45.9060 0.0000 0.0000 0.0000
# 3 35.1997 45.9060 118.7221 0.0000 0.0000 0.0000
# 4 0.0000 0.0000 0.0000 20.9962 0.0000 0.0000
# 5 0.0000 0.0000 0.0000 0.0000 27.6549 0.0000
# 6 0.0000 0.0000 0.0000 0.0000 0.0000 16.1756
#
#
#
# Elastic Compliance Matrix: (Units=1/GPa)
#
#
# Indices 1 2 3 4 5 6 
#
# 1 0.030424 -0.008810 -0.005614 0.000000 0.000000 0.000000
# 2 -0.008810 0.015053 -0.003208 0.000000 0.000000 0.000000
# 3 -0.005614 -0.003208 0.011328 0.000000 0.000000 0.000000
# 4 0.000000 0.000000 0.000000 0.047628 0.000000 0.000000
# 5 0.000000 0.000000 0.000000 0.000000 0.036160 0.000000
# 6 0.000000 0.000000 0.000000 0.000000 0.000000 0.061822
#
#
# Mechanical properties :
#
#
# Convention : Reuss Voigt Hill
#
# Bulk Modulus (GPa) = 46.42349 55.80326 51.11337
# Shear Modulus (GPa) = 20.41994 22.87168 21.64581
#
# Velocity S-wave (km/s) = 3.24766 3.43710 3.34372
# Velocity P-wave (km/s) = 6.16780 6.67645 6.42716
#
# Compressibility (1/GPa) = 0.02154082
#
# Stress axis : x y z
#
# Youngs Moduli (GPa) = 32.86847 66.43368 88.27609
#
# Poissons Ratio (x) = 0.58526 0.49558
# Poissons Ratio (y) = 0.28956 0.28322
# Poissons Ratio (z) = 0.18452 0.21315
#
# Static dielectric constant tensor:
#      x y z
#    x 3.354590 0.000000 0.000000 
#    y 0.000000 3.592240 0.000000 
#    z 0.000000 0.000000 3.521050 
# 
# 
# High freq. dielectric constant tensor:
#      x y z
#    x 1.738610 0.000000 0.000000 
#    y 0.000000 1.752890 0.000000 
#    z 0.000000 0.000000 1.755370 
# 
# From -- ./inp_files/34153.got.cif
#   From: 2010.03.12/outbox.cif.g09.slc.cpg/sg53_18_cif.got.tgz:34153.got - 2010.04.16 14:36:59.
