data_PCOD8219901
_publ_section_title
;
Structure prediction by ZEFSAII (Michael W. Deem and Ramdas Pophale) SiO2 
 PCOD8219901
Probable space group: P M N A
;
_chemical_formula_sum "Si O2"
_cell_formula_units_Z 40
_cell_length_a 9.792768
_cell_length_b 8.634481
_cell_length_c 24.785310
_cell_angle_alpha 90.000000
_cell_angle_beta 90.000000
_cell_angle_gamma 90.000000
_cell_volume 2095.733517
_symmetry_space_group_name_H-M "P M N A"
_symmetry_group_IT_number 53
_symmetry_cell_setting 'orthorhombic'
loop_
_space_group_symop_operation_xyz
x,y,z
1/2-x,-y,1/2+z
x,-y,-z
1/2-x,y,1/2-z
-x,-y,-z
1/2+x,y,1/2-z
-x,y,z
1/2+x,-y,1/2+z
loop_
_atom_site_type_symbol
_atom_site_label
_atom_site_fract_x
_atom_site_fract_y
_atom_site_fract_z
Si Si1 0.249845 0.649346 0.971061
Si Si2 0.351815 0.908141 0.902122
Si Si3 0.338314 0.297704 0.198124
Si Si4 0.653388 0.490127 0.631472
Si Si5 0.347164 0.183749 0.573648
O O1 0.359136 0.764324 0.944078
O O2 0.150509 0.588993 0.923774
O O3 0.321613 0.500000 0.000000
O O4 0.162157 0.744979 0.014073
O O5 0.500000 0.987568 0.902769
O O6 0.318842 0.845290 0.842546
O O7 0.245038 0.034354 0.920325
O O8 0.250000 0.250507 0.250000
O O9 0.500000 0.328045 0.210051
O O10 0.268438 0.451688 0.173148
O O11 0.500000 0.502101 0.656241
O O12 0.691770 0.312333 0.618317
O O13 0.500000 0.125439 0.582845
#
# Coordination Sequence:
#
# PCOD8219901 Si02
#       5
#     8   8   8   8   8
#     4   9  18  32  52  78 108 143 183 221 255 301
#     4  10  22  36  51  77 110 142 177 218 265 314
#     4  10  21  38  59  80 101 131 173 219 267 316
#     4   9  18  34  55  79 106 137 175 217 260 308
#     4  10  20  33  52  79 110 144 178 212 255 309
#
# _framework density 19.086397000000002
#
# number of rings (size 3 to 8) (size 9 to 14) (size 15 to 20)
#    0.000    2.400    0.000    1.800    0.000   10.800 
#    0.000    5.000    0.000    2.400    0.000    0.000 
#    0.000    0.000    0.000    0.000    0.000    0.000 
#
# Total GULP energy -495726.133300 kJ/mol
# GULP energy per Si atom -12393.153333 kJ/mol
# Density = 1.904296 g / cm^3
# Si number density = 19.086397 Si / 1000 Ang^3
#
#
#
# Elastic Constant Matrix: (Units=GPa)
#
#
# Indices 1 2 3 4 5 6 
#
# 1 117.2644 60.9088 45.4897 0.0000 0.0000 0.0000
# 2 60.9088 112.2421 42.0295 0.0000 0.0000 0.0000
# 3 45.4897 42.0295 81.7356 0.0000 0.0000 0.0000
# 4 0.0000 0.0000 0.0000 13.6798 0.0000 0.0000
# 5 0.0000 0.0000 0.0000 0.0000 18.9595 0.0000
# 6 0.0000 0.0000 0.0000 0.0000 0.0000 21.8335
#
#
#
# Elastic Compliance Matrix: (Units=1/GPa)
#
#
# Indices 1 2 3 4 5 6 
#
# 1 0.013086 -0.005417 -0.004497 0.000000 0.000000 0.000000
# 2 -0.005417 0.013276 -0.003812 0.000000 0.000000 0.000000
# 3 -0.004497 -0.003812 0.016698 0.000000 0.000000 0.000000
# 4 0.000000 0.000000 0.000000 0.073100 0.000000 0.000000
# 5 0.000000 0.000000 0.000000 0.000000 0.052744 0.000000
# 6 0.000000 0.000000 0.000000 0.000000 0.000000 0.045801
#
#
# Mechanical properties :
#
#
# Convention : Reuss Voigt Hill
#
# Bulk Modulus (GPa) = 64.07350 67.56647 65.81999
# Shear Modulus (GPa) = 20.21332 21.74883 20.98108
#
# Velocity S-wave (km/s) = 3.25782 3.37930 3.31912
# Velocity P-wave (km/s) = 6.91335 7.12063 7.01775
#
# Compressibility (1/GPa) = 0.01560708
#
# Stress axis : x y z
#
# Youngs Moduli (GPa) = 76.41642 75.32168 59.88814
#
# Poissons Ratio (x) = 0.40803 0.26935
# Poissons Ratio (y) = 0.41396 0.22829
# Poissons Ratio (z) = 0.34368 0.28712
#
# Static dielectric constant tensor:
#      x y z
#    x 3.380920 0.000000 0.000000 
#    y 0.000000 3.490590 0.000000 
#    z 0.000000 0.000000 3.477320 
# 
# 
# High freq. dielectric constant tensor:
#      x y z
#    x 1.738290 0.000000 0.000000 
#    y 0.000000 1.736870 0.000000 
#    z 0.000000 0.000000 1.732280 
# 
# From -- ./inp_files/33639.got.cif
#   From: 2010.03.12/outbox.cif.g09.slc.cpg/sg53_17_cif.got.tgz:33639.got - 2010.04.16 14:36:59.
