data_PCOD8219123
_publ_section_title
;
Structure prediction by ZEFSAII (Michael W. Deem and Ramdas Pophale) SiO2 
 PCOD8219123
Probable space group: P M N A
;
_chemical_formula_sum "Si O2"
_cell_formula_units_Z 52
_cell_length_a 14.812900
_cell_length_b 8.980928
_cell_length_c 20.377098
_cell_angle_alpha 90.000000
_cell_angle_beta 90.000000
_cell_angle_gamma 90.000000
_cell_volume 2710.838468
_symmetry_space_group_name_H-M "P M N A"
_symmetry_group_IT_number 53
_symmetry_cell_setting 'orthorhombic'
loop_
_space_group_symop_operation_xyz
x,y,z
1/2-x,-y,1/2+z
x,-y,-z
1/2-x,y,1/2-z
-x,-y,-z
1/2+x,y,1/2-z
-x,y,z
1/2+x,-y,1/2+z
loop_
_atom_site_type_symbol
_atom_site_label
_atom_site_fract_x
_atom_site_fract_y
_atom_site_fract_z
Si Si1 0.218199 0.033861 0.353749
Si Si2 0.596046 0.681174 0.324991
Si Si3 0.847302 0.500000 0.500000
Si Si4 0.341786 0.489541 0.215806
Si Si5 0.271070 0.700612 0.106795
Si Si6 0.598659 0.720891 0.892191
Si Si7 0.606588 0.003572 0.276211
O O1 0.180363 0.161015 0.403582
O O2 0.144695 0.042433 0.295132
O O3 0.321590 0.070131 0.330345
O O4 0.211478 0.877518 0.392249
O O5 0.500000 0.691559 0.360643
O O6 0.593899 0.544827 0.273989
O O7 0.666415 0.662485 0.383060
O O8 0.616794 0.827163 0.282301
O O9 0.790592 0.627869 0.463344
O O10 0.904623 0.409102 0.446770
O O11 0.250000 0.433894 0.250000
O O12 0.326524 0.626103 0.165821
O O13 0.387739 0.352036 0.179479
O O14 0.500000 0.798582 0.893656
O O15 0.500000 0.053813 0.285838
#
# Coordination Sequence:
#
# PCOD8219123 Si02
#       7
#     8   8   4   8   8   8   8
#     4  10  19  33  54  81 114 140 176 225 270 323
#     4   9  15  28  54  84 107 137 176 216 268 334
#     4  10  23  42  57  68 102 150 195 230 270 316
#     4   9  17  31  52  77 110 145 174 213 270 329
#     4   9  18  35  54  75 104 146 185 223 270 318
#     4  11  23  37  53  79 109 144 185 228 272 319
#     4   9  17  30  53  85 117 142 167 208 273 337
#
# _framework density 19.182258000000001
#
# number of rings (size 3 to 8) (size 9 to 14) (size 15 to 20)
#    0.000    2.462    1.538    1.154    2.154    0.615 
#    0.000    3.462    0.000    0.923    0.000    4.308 
#    0.000    0.000    0.000    0.000    0.000    0.000 
#
# Total GULP energy -644180.007702 kJ/mol
# GULP energy per Si atom -12388.077071 kJ/mol
# Density = 1.913860 g / cm^3
# Si number density = 19.182258 Si / 1000 Ang^3
#
#
#
# Elastic Constant Matrix: (Units=GPa)
#
#
# Indices 1 2 3 4 5 6 
#
# 1 129.3538 36.6561 34.4554 0.0000 0.0000 0.0000
# 2 36.6561 84.8066 28.8548 0.0000 0.0000 0.0000
# 3 34.4554 28.8548 61.6067 0.0000 0.0000 0.0000
# 4 0.0000 0.0000 0.0000 25.1522 0.0000 0.0000
# 5 0.0000 0.0000 0.0000 0.0000 10.6950 0.0000
# 6 0.0000 0.0000 0.0000 0.0000 0.0000 20.6786
#
#
#
# Elastic Compliance Matrix: (Units=1/GPa)
#
#
# Indices 1 2 3 4 5 6 
#
# 1 0.009599 -0.002763 -0.004075 0.000000 0.000000 0.000000
# 2 -0.002763 0.014822 -0.005397 0.000000 0.000000 0.000000
# 3 -0.004075 -0.005397 0.021039 0.000000 0.000000 0.000000
# 4 0.000000 0.000000 0.000000 0.039758 0.000000 0.000000
# 5 0.000000 0.000000 0.000000 0.000000 0.093502 0.000000
# 6 0.000000 0.000000 0.000000 0.000000 0.000000 0.048359
#
#
# Mechanical properties :
#
#
# Convention : Reuss Voigt Hill
#
# Bulk Modulus (GPa) = 47.63948 52.85551 50.24749
# Shear Modulus (GPa) = 19.33907 23.02522 21.18214
#
# Velocity S-wave (km/s) = 3.17862 3.46835 3.32664
# Velocity P-wave (km/s) = 6.19359 6.60708 6.40367
#
# Compressibility (1/GPa) = 0.02099099
#
# Stress axis : x y z
#
# Youngs Moduli (GPa) = 104.17833 67.46752 47.53155
#
# Poissons Ratio (x) = 0.18639 0.19367
# Poissons Ratio (y) = 0.28780 0.25653
# Poissons Ratio (z) = 0.42448 0.36413
#
# Static dielectric constant tensor:
#      x y z
#    x 3.616610 0.000000 0.000000 
#    y 0.000000 3.502390 0.000000 
#    z 0.000000 0.000000 3.214860 
# 
# 
# High freq. dielectric constant tensor:
#      x y z
#    x 1.747950 0.000000 0.000000 
#    y 0.000000 1.743360 0.000000 
#    z 0.000000 0.000000 1.710660 
# 
# From -- ./inp_files/32364.got.cif
#   From: 2010.03.12/outbox.cif.g09.slc.cpg/sg53_17_cif.got.tgz:32364.got - 2010.04.16 14:36:59.
