data_PCOD8219273
_publ_section_title
;
Structure prediction by ZEFSAII (Michael W. Deem and Ramdas Pophale) SiO2 
 PCOD8219273
Probable space group: P M N A
;
_chemical_formula_sum "Si O2"
_cell_formula_units_Z 64
_cell_length_a 9.074400
_cell_length_b 21.558805
_cell_length_c 17.718884
_cell_angle_alpha 90.000000
_cell_angle_beta 90.000000
_cell_angle_gamma 90.000000
_cell_volume 3466.402333
_symmetry_space_group_name_H-M "P M N A"
_symmetry_group_IT_number 53
_symmetry_cell_setting 'orthorhombic'
loop_
_space_group_symop_operation_xyz
x,y,z
1/2-x,-y,1/2+z
x,-y,-z
1/2-x,y,1/2-z
-x,-y,-z
1/2+x,y,1/2-z
-x,y,z
1/2+x,-y,1/2+z
loop_
_atom_site_type_symbol
_atom_site_label
_atom_site_fract_x
_atom_site_fract_y
_atom_site_fract_z
Si Si1 0.326306 0.869480 0.088945
Si Si2 0.170844 0.116813 0.415147
Si Si3 0.329058 0.993329 0.171955
Si Si4 0.326915 0.432250 0.980179
Si Si5 0.827485 0.744412 0.111019
Si Si6 0.174402 0.628884 0.324145
Si Si7 0.326466 0.774775 0.671170
Si Si8 0.669236 0.679991 0.544196
O O1 0.500000 0.857590 0.096943
O O2 0.273383 0.929469 0.135147
O O3 0.237841 0.812363 0.124799
O O4 0.281954 0.878956 0.002036
O O5 0.268620 0.162537 0.365785
O O6 0.000000 0.134432 0.404034
O O7 0.204183 0.047423 0.387735
O O8 0.250000 0.007756 0.250000
O O9 0.500000 0.989073 0.190322
O O10 0.500000 0.430687 0.991594
O O11 0.282788 0.414825 0.894630
O O12 0.262873 0.500000 0.000000
O O13 0.261654 0.382986 0.038992
O O14 0.742389 0.697125 0.165320
O O15 0.000000 0.743382 0.130857
O O16 0.795537 0.725998 0.024713
O O17 0.250000 0.599064 0.250000
O O18 0.000000 0.633910 0.313570
O O19 0.250000 0.762169 0.750000
O O20 0.500000 0.781906 0.682337
O O21 0.286054 0.715712 0.619838
O O22 0.500000 0.660238 0.543684
#
# Coordination Sequence:
#
# PCOD8219273 Si02
#       8
#     8   8   8   8   8   8   8   8
#     4  10  20  35  56  79 105 139 182 225 274 333
#     4  10  20  36  58  79 102 138 182 228 277 328
#     4  10  22  38  53  74 104 139 179 226 276 332
#     4   9  19  36  59  85 112 146 187 226 266 318
#     4  10  19  34  55  80 109 140 177 224 273 321
#     4  10  20  35  56  83 114 148 185 225 272 323
#     4  11  22  36  54  81 112 142 180 226 276 327
#     4   9  19  35  54  78 110 142 177 221 265 317
#
# _framework density 18.462945999999999
#
# number of rings (size 3 to 8) (size 9 to 14) (size 15 to 20)
#    0.000    2.125    1.250    1.875    0.000    6.250 
#    0.000    1.875    0.000    5.250    0.000    0.000 
#    0.000    0.000    0.000    0.000    0.000    0.000 
#
# Total GULP energy -793824.519366 kJ/mol
# GULP energy per Si atom -12403.508115 kJ/mol
# Density = 1.842092 g / cm^3
# Si number density = 18.462946 Si / 1000 Ang^3
#
#
#
# Elastic Constant Matrix: (Units=GPa)
#
#
# Indices 1 2 3 4 5 6 
#
# 1 61.6556 46.1431 35.4685 0.0000 0.0000 0.0000
# 2 46.1431 130.0957 34.0114 0.0000 0.0000 0.0000
# 3 35.4685 34.0114 81.8041 0.0000 0.0000 0.0000
# 4 0.0000 0.0000 0.0000 21.4836 0.0000 0.0000
# 5 0.0000 0.0000 0.0000 0.0000 24.7624 0.0000
# 6 0.0000 0.0000 0.0000 0.0000 0.0000 28.4166
#
#
#
# Elastic Compliance Matrix: (Units=1/GPa)
#
#
# Indices 1 2 3 4 5 6 
#
# 1 0.026472 -0.007168 -0.008498 0.000000 0.000000 0.000000
# 2 -0.007168 0.010565 -0.001285 0.000000 0.000000 0.000000
# 3 -0.008498 -0.001285 0.016443 0.000000 0.000000 0.000000
# 4 0.000000 0.000000 0.000000 0.046547 0.000000 0.000000
# 5 0.000000 0.000000 0.000000 0.000000 0.040384 0.000000
# 6 0.000000 0.000000 0.000000 0.000000 0.000000 0.035191
#
#
# Mechanical properties :
#
#
# Convention : Reuss Voigt Hill
#
# Bulk Modulus (GPa) = 51.07369 56.08904 53.58136
# Shear Modulus (GPa) = 23.14524 25.46136 24.30330
#
# Velocity S-wave (km/s) = 3.54447 3.71759 3.63206
# Velocity P-wave (km/s) = 6.66887 6.99089 6.83178
#
# Compressibility (1/GPa) = 0.01957955
#
# Stress axis : x y z
#
# Youngs Moduli (GPa) = 37.77617 94.65424 60.81674
#
# Poissons Ratio (x) = 0.67844 0.51679
# Poissons Ratio (y) = 0.27076 0.07813
# Poissons Ratio (z) = 0.32100 0.12161
#
# Static dielectric constant tensor:
#      x y z
#    x 3.354920 0.000000 0.000000 
#    y 0.000000 3.440670 0.000000 
#    z 0.000000 0.000000 3.542620 
# 
# 
# High freq. dielectric constant tensor:
#      x y z
#    x 1.715890 0.000000 0.000000 
#    y 0.000000 1.713740 0.000000 
#    z 0.000000 0.000000 1.717980 
# 
# From -- ./inp_files/26921.got.cif
#   From: 2010.03.12/outbox.cif.g09.slc.cpg/sg53_14_cif.got.tgz:26921.got - 2010.04.16 14:36:59.
