data_PCOD8219575
_publ_section_title
;
Structure prediction by ZEFSAII (Michael W. Deem and Ramdas Pophale) SiO2 
 PCOD8219575
Probable space group: P M N A
;
_chemical_formula_sum "Si O2"
_cell_formula_units_Z 32
_cell_length_a 16.296077
_cell_length_b 10.581023
_cell_length_c 8.897822
_cell_angle_alpha 90.000000
_cell_angle_beta 90.000000
_cell_angle_gamma 90.000000
_cell_volume 1534.244023
_symmetry_space_group_name_H-M "P M N A"
_symmetry_group_IT_number 53
_symmetry_cell_setting 'orthorhombic'
loop_
_space_group_symop_operation_xyz
x,y,z
1/2-x,-y,1/2+z
x,-y,-z
1/2-x,y,1/2-z
-x,-y,-z
1/2+x,y,1/2-z
-x,y,z
1/2+x,-y,1/2+z
loop_
_atom_site_type_symbol
_atom_site_label
_atom_site_fract_x
_atom_site_fract_y
_atom_site_fract_z
Si Si1 0.662430 0.139962 0.329850
Si Si2 0.407046 0.640420 0.134666
Si Si3 0.160980 0.137771 0.820000
Si Si4 0.341725 0.617768 0.814474
O O1 0.750000 0.138905 0.250000
O O2 0.671124 0.165918 0.505386
O O3 0.613231 0.259742 0.260865
O O4 0.621577 0.002850 0.296949
O O5 0.500000 0.638192 0.073982
O O6 0.397603 0.760400 0.242760
O O7 0.389182 0.511390 0.227360
O O8 0.344175 0.642446 0.994338
O O9 0.250000 0.147421 0.750000
O O10 0.250000 0.605521 0.750000
#
# Coordination Sequence:
#
# PCOD8219575 Si02
#       4
#     8   8   8   8
#     4   9  19  34  58  90 116 144 198 257 291 330
#     4  11  24  41  58  87 125 157 190 241 298 352
#     4  10  19  36  61  87 116 154 199 244 290 349
#     4  10  20  37  61  86 112 151 199 242 287 345
#
# _framework density 20.857177
#
# number of rings (size 3 to 8) (size 9 to 14) (size 15 to 20)
#    0.000    2.000    0.000    5.250    0.000    8.000 
#    0.000   10.000    0.000    0.000    0.000    0.000 
#    0.000    0.000    0.000    0.000    0.000    0.000 
#
# Total GULP energy -396493.124396 kJ/mol
# GULP energy per Si atom -12390.410137 kJ/mol
# Density = 2.080971 g / cm^3
# Si number density = 20.857177 Si / 1000 Ang^3
#
#
#
# Elastic Constant Matrix: (Units=GPa)
#
#
# Indices 1 2 3 4 5 6 
#
# 1 70.9845 37.2115 37.6059 0.0000 0.0000 0.0000
# 2 37.2115 218.8181 88.9456 0.0000 0.0000 0.0000
# 3 37.6059 88.9456 122.9700 0.0000 0.0000 0.0000
# 4 0.0000 0.0000 0.0000 42.5664 0.0000 0.0000
# 5 0.0000 0.0000 0.0000 0.0000 17.0893 0.0000
# 6 0.0000 0.0000 0.0000 0.0000 0.0000 -6.6660
#
#
#
# Elastic Compliance Matrix: (Units=1/GPa)
#
#
# Indices 1 2 3 4 5 6 
#
# 1 0.016997 -0.001101 -0.004401 0.000000 0.000000 0.000000
# 2 -0.001101 0.006545 -0.004397 0.000000 0.000000 0.000000
# 3 -0.004401 -0.004397 0.012658 0.000000 0.000000 0.000000
# 4 0.000000 0.000000 0.000000 0.023493 0.000000 0.000000
# 5 0.000000 0.000000 0.000000 0.000000 0.058516 0.000000
# 6 0.000000 0.000000 0.000000 0.000000 0.000000 -0.150015
#
#
# Mechanical properties :
#
#
# Convention : Reuss Voigt Hill
#
# Bulk Modulus (GPa) = 60.97359 82.25543 71.61451
# Shear Modulus (GPa) = -764.48058 27.19858 -368.64100
#
# Velocity S-wave (km/s) = -19.16577 3.61507 -13.30899
# Velocity P-wave (km/s) = 21.45861 7.54639 14.20429
#
# Compressibility (1/GPa) = 0.01640054
#
# Stress axis : x y z
#
# Youngs Moduli (GPa) = 58.83542 152.79807 78.99927
#
# Poissons Ratio (x) = 0.16829 0.34769
# Poissons Ratio (y) = 0.06480 0.34736
# Poissons Ratio (z) = 0.25894 0.67184
#
# Static dielectric constant tensor:
#      x y z
#    x 3.227890 0.000000 0.000000 
#    y 0.000000 4.986640 0.000000 
#    z 0.000000 0.000000 3.733040 
# 
# 
# High freq. dielectric constant tensor:
#      x y z
#    x 1.765320 0.000000 0.000000 
#    y 0.000000 1.855690 0.000000 
#    z 0.000000 0.000000 1.815230 
# 
# From -- ./inp_files/7989.got.cif
#   From: 2010.03.12/outbox.cif.g09.slc.cpg/sg53_4_cif.got.tgz:7989.got - 2010.04.16 14:36:59.
