data_PCOD8219651
_publ_section_title
;
Structure prediction by ZEFSAII (Michael W. Deem and Ramdas Pophale) SiO2 
 PCOD8219651
Probable space group: P M N A
;
_chemical_formula_sum "Si O2"
_cell_formula_units_Z 56
_cell_length_a 16.522572
_cell_length_b 14.178562
_cell_length_c 11.970521
_cell_angle_alpha 90.000000
_cell_angle_beta 90.000000
_cell_angle_gamma 90.000000
_cell_volume 2804.289801
_symmetry_space_group_name_H-M "P M N A"
_symmetry_group_IT_number 53
_symmetry_cell_setting 'orthorhombic'
loop_
_space_group_symop_operation_xyz
x,y,z
1/2-x,-y,1/2+z
x,-y,-z
1/2-x,y,1/2-z
-x,-y,-z
1/2+x,y,1/2-z
-x,y,z
1/2+x,-y,1/2+z
loop_
_atom_site_type_symbol
_atom_site_label
_atom_site_fract_x
_atom_site_fract_y
_atom_site_fract_z
Si Si1 0.589953 0.063327 0.129138
Si Si2 0.906878 0.233984 0.221283
Si Si3 0.656696 0.718582 0.268551
Si Si4 0.341307 0.872130 0.085739
Si Si5 0.299943 0.751465 0.505484
Si Si6 0.342007 0.371193 0.087898
Si Si7 0.409681 0.564458 0.130005
O O1 0.500000 0.018388 0.130169
O O2 0.602442 0.127801 0.236032
O O3 0.657744 0.980600 0.129918
O O4 0.596916 0.130090 0.018833
O O5 0.858612 0.228168 0.107010
O O6 0.869169 0.305791 0.310291
O O7 0.000000 0.262245 0.200354
O O8 0.750000 0.693674 0.250000
O O9 0.632207 0.807292 0.190301
O O10 0.641575 0.732529 0.399921
O O11 0.603011 0.628442 0.237981
O O12 0.255159 0.840356 0.033453
O O13 0.245447 0.661747 0.542348
O O14 0.343721 0.479773 0.130183
O O15 0.400336 0.368353 0.979329
O O16 0.500000 0.521274 0.132351
#
# Coordination Sequence:
#
# PCOD8219651 Si02
#       7
#     8   8   8   8   8   8   8
#     4  10  21  38  63  96 123 152 200 257 314 357
#     4  11  23  42  62  89 128 162 204 254 305 367
#     4  10  21  41  57  85 126 163 202 247 299 365
#     4  10  19  38  60  91 118 155 203 248 305 362
#     4  11  23  42  61  91 125 169 209 244 309 368
#     4  11  21  40  62  92 122 155 207 257 305 363
#     4  11  22  38  65  96 121 155 202 258 317 358
#
# _framework density 19.969405999999999
#
# number of rings (size 3 to 8) (size 9 to 14) (size 15 to 20)
#    0.000    1.429    4.286    3.000    0.000    4.000 
#   15.429    0.000    0.000    3.429    0.000    0.000 
#    0.000    0.000    0.000    0.000    0.000    0.000 
#
# Total GULP energy -693840.060114 kJ/mol
# GULP energy per Si atom -12390.001073 kJ/mol
# Density = 1.992395 g / cm^3
# Si number density = 19.969406 Si / 1000 Ang^3
#
#
#
# Elastic Constant Matrix: (Units=GPa)
#
#
# Indices 1 2 3 4 5 6 
#
# 1 56.7332 48.9032 54.0473 0.0000 0.0000 0.0000
# 2 48.9032 100.7690 81.9706 0.0000 0.0000 0.0000
# 3 54.0473 81.9706 151.4061 0.0000 0.0000 0.0000
# 4 0.0000 0.0000 0.0000 17.1810 0.0000 0.0000
# 5 0.0000 0.0000 0.0000 0.0000 25.1337 0.0000
# 6 0.0000 0.0000 0.0000 0.0000 0.0000 23.1753
#
#
#
# Elastic Compliance Matrix: (Units=1/GPa)
#
#
# Indices 1 2 3 4 5 6 
#
# 1 0.032682 -0.011384 -0.005503 0.000000 0.000000 0.000000
# 2 -0.011384 0.021699 -0.007684 0.000000 0.000000 0.000000
# 3 -0.005503 -0.007684 0.012729 0.000000 0.000000 0.000000
# 4 0.000000 0.000000 0.000000 0.058204 0.000000 0.000000
# 5 0.000000 0.000000 0.000000 0.000000 0.039787 0.000000
# 6 0.000000 0.000000 0.000000 0.000000 0.000000 0.043149
#
#
# Mechanical properties :
#
#
# Convention : Reuss Voigt Hill
#
# Bulk Modulus (GPa) = 55.65512 75.41669 65.53590
# Shear Modulus (GPa) = 18.98388 21.36381 20.17385
#
# Velocity S-wave (km/s) = 3.08660 3.27437 3.18187
# Velocity P-wave (km/s) = 6.37444 7.22104 6.81091
#
# Compressibility (1/GPa) = 0.01796780
#
# Stress axis : x y z
#
# Youngs Moduli (GPa) = 30.59815 46.08553 78.55911
#
# Poissons Ratio (x) = 0.52463 0.43233
# Poissons Ratio (y) = 0.34833 0.60364
# Poissons Ratio (z) = 0.16839 0.35412
#
# Static dielectric constant tensor:
#      x y z
#    x 3.521300 0.000000 0.000000 
#    y 0.000000 3.671300 0.000000 
#    z 0.000000 0.000000 3.909980 
# 
# 
# High freq. dielectric constant tensor:
#      x y z
#    x 1.755120 0.000000 0.000000 
#    y 0.000000 1.777960 0.000000 
#    z 0.000000 0.000000 1.785450 
# 
# From -- ./inp_files/16088.got.cif
#   From: 2010.03.12/outbox.cif.g09.slc.cpg/sg53_9_cif.got.tgz:16088.got - 2010.04.16 14:36:59.
