data_PCOD8219870
_publ_section_title
;
Structure prediction by ZEFSAII (Michael W. Deem and Ramdas Pophale) SiO2 
 PCOD8219870
Probable space group: P M N A
;
_chemical_formula_sum "Si O2"
_cell_formula_units_Z 48
_cell_length_a 8.852698
_cell_length_b 30.819026
_cell_length_c 9.024084
_cell_angle_alpha 90.000000
_cell_angle_beta 90.000000
_cell_angle_gamma 90.000000
_cell_volume 2462.054643
_symmetry_space_group_name_H-M "P M N A"
_symmetry_group_IT_number 53
_symmetry_cell_setting 'orthorhombic'
loop_
_space_group_symop_operation_xyz
x,y,z
1/2-x,-y,1/2+z
x,-y,-z
1/2-x,y,1/2-z
-x,-y,-z
1/2+x,y,1/2-z
-x,y,z
1/2+x,-y,1/2+z
loop_
_atom_site_type_symbol
_atom_site_label
_atom_site_fract_x
_atom_site_fract_y
_atom_site_fract_z
Si Si1 0.174366 0.956938 0.406074
Si Si2 0.176284 0.796302 0.093997
Si Si3 0.325221 0.374277 0.091419
Si Si4 0.324294 0.278052 0.089190
Si Si5 0.323911 0.881376 0.590362
Si Si6 0.321371 0.542084 0.588572
O O1 0.250000 0.966041 0.250000
O O2 0.254286 0.917009 0.483987
O O3 0.000000 0.945080 0.383477
O O4 0.196725 0.000000 0.500000
O O5 0.250000 0.808792 0.250000
O O6 0.000000 0.788729 0.118979
O O7 0.248504 0.752729 0.030689
O O8 0.208886 0.834496 0.978353
O O9 0.250000 0.371069 0.250000
O O10 0.500000 0.386330 0.107060
O O11 0.303217 0.326594 0.020437
O O12 0.241665 0.414118 0.006249
O O13 0.250000 0.272298 0.250000
O O14 0.500000 0.266523 0.107497
O O15 0.250000 0.883897 0.750000
O O16 0.500000 0.890831 0.607332
O O17 0.266896 0.500000 0.500000
O O18 0.250000 0.538905 0.750000
O O19 0.500000 0.544711 0.599088
#
# Coordination Sequence:
#
# PCOD8219870 Si02
#       6
#     8   8   8   8   8   8
#     4  11  24  41  63  91 123 159 198 241 289 341
#     4  11  24  40  59  84 115 151 188 230 281 336
#     4   9  17  30  51  77 104 137 176 219 268 321
#     4  10  20  35  57  84 111 142 183 228 275 329
#     4  11  24  41  63  90 119 153 194 239 286 337
#     4  10  20  33  51  76 104 137 177 220 268 322
#
# _framework density 19.495912000000001
#
# number of rings (size 3 to 8) (size 9 to 14) (size 15 to 20)
#    0.000    1.667    0.000    5.500    0.000   11.333 
#    0.000    0.833    0.000    2.000    0.000    0.000 
#    0.000    0.000    0.000    0.000    0.000    0.000 
#
# Total GULP energy -595169.823515 kJ/mol
# GULP energy per Si atom -12399.371323 kJ/mol
# Density = 1.945154 g / cm^3
# Si number density = 19.495912 Si / 1000 Ang^3
#
#
#
# Elastic Constant Matrix: (Units=GPa)
#
#
# Indices 1 2 3 4 5 6 
#
# 1 129.1060 71.0958 49.7868 0.0000 0.0000 0.0000
# 2 71.0958 118.8234 31.9083 0.0000 0.0000 0.0000
# 3 49.7868 31.9083 90.2898 0.0000 0.0000 0.0000
# 4 0.0000 0.0000 0.0000 29.8160 0.0000 0.0000
# 5 0.0000 0.0000 0.0000 0.0000 31.5212 0.0000
# 6 0.0000 0.0000 0.0000 0.0000 0.0000 37.9180
#
#
#
# Elastic Compliance Matrix: (Units=1/GPa)
#
#
# Indices 1 2 3 4 5 6 
#
# 1 0.013327 -0.006630 -0.005006 0.000000 0.000000 0.000000
# 2 -0.006630 0.012596 -0.000796 0.000000 0.000000 0.000000
# 3 -0.005006 -0.000796 0.014117 0.000000 0.000000 0.000000
# 4 0.000000 0.000000 0.000000 0.033539 0.000000 0.000000
# 5 0.000000 0.000000 0.000000 0.000000 0.031725 0.000000
# 6 0.000000 0.000000 0.000000 0.000000 0.000000 0.026373
#
#
# Mechanical properties :
#
#
# Convention : Reuss Voigt Hill
#
# Bulk Modulus (GPa) = 65.88624 71.53345 68.70984
# Shear Modulus (GPa) = 30.94109 32.21291 31.57700
#
# Velocity S-wave (km/s) = 3.98811 4.06925 4.02888
# Velocity P-wave (km/s) = 7.42125 7.67135 7.54733
#
# Compressibility (1/GPa) = 0.01517768
#
# Stress axis : x y z
#
# Youngs Moduli (GPa) = 75.03793 79.38873 70.83747
#
# Poissons Ratio (x) = 0.52631 0.35458
# Poissons Ratio (y) = 0.49747 0.05638
# Poissons Ratio (z) = 0.37561 0.06318
#
# Static dielectric constant tensor:
#      x y z
#    x 3.797160 0.000000 0.000000 
#    y 0.000000 4.344910 0.000000 
#    z 0.000000 0.000000 3.329120 
# 
# 
# High freq. dielectric constant tensor:
#      x y z
#    x 1.780190 0.000000 0.000000 
#    y 0.000000 1.784610 0.000000 
#    z 0.000000 0.000000 1.736600 
# 
# From -- ./inp_files/6674.got.cif
#   From: 2010.03.12/outbox.cif.g09.slc.cpg/sg53_4_cif.got.tgz:6674.got - 2010.04.16 14:36:59.
