data_PCOD8219414
_publ_section_title
;
Structure prediction by ZEFSAII (Michael W. Deem and Ramdas Pophale) SiO2 
 PCOD8219414
Probable space group: P M N A
;
_chemical_formula_sum "Si O2"
_cell_formula_units_Z 64
_cell_length_a 8.903707
_cell_length_b 15.070513
_cell_length_c 25.063142
_cell_angle_alpha 90.000000
_cell_angle_beta 90.000000
_cell_angle_gamma 90.000000
_cell_volume 3363.058413
_symmetry_space_group_name_H-M "P M N A"
_symmetry_group_IT_number 53
_symmetry_cell_setting 'orthorhombic'
loop_
_space_group_symop_operation_xyz
x,y,z
1/2-x,-y,1/2+z
x,-y,-z
1/2-x,y,1/2-z
-x,-y,-z
1/2+x,y,1/2-z
-x,y,z
1/2+x,-y,1/2+z
loop_
_atom_site_type_symbol
_atom_site_label
_atom_site_fract_x
_atom_site_fract_y
_atom_site_fract_z
Si Si1 0.675135 0.768401 0.992804
Si Si2 0.160421 0.067611 0.045184
Si Si3 0.830288 0.871233 0.696228
Si Si4 0.179233 0.569762 0.805940
Si Si5 0.828113 0.037161 0.632702
Si Si6 0.677563 0.713233 0.879323
Si Si7 0.677579 0.235127 0.888646
Si Si8 0.819755 0.381897 0.694025
O O1 0.500000 0.760041 0.999967
O O2 0.747226 0.748653 0.051482
O O3 0.712099 0.867670 0.976041
O O4 0.725468 0.708027 0.942224
O O5 0.000000 0.115197 0.059802
O O6 0.217066 0.011491 0.094061
O O7 0.122040 0.000000 0.000000
O O8 0.750000 0.841789 0.750000
O O9 0.778541 0.810168 0.645548
O O10 0.000000 0.846461 0.707450
O O11 0.811568 0.977517 0.686351
O O12 0.250000 0.601810 0.750000
O O13 0.223325 0.639122 0.851131
O O14 0.251135 0.476112 0.822626
O O15 0.000000 0.561548 0.800620
O O16 0.776446 0.139851 0.637352
O O17 0.000000 0.033330 0.612024
O O18 0.500000 0.694272 0.872769
O O19 0.500000 0.240852 0.892103
O O20 0.737249 0.311892 0.850011
O O21 0.750000 0.350542 0.750000
O O22 0.000000 0.387847 0.698199
#
# Coordination Sequence:
#
# PCOD8219414 Si02
#       8
#     8   8   8   8   8   8   8   8
#     4  10  19  35  58  81 108 147 188 226 270 324
#     4  11  21  31  47  77 111 143 183 230 276 316
#     4  10  21  34  50  76 108 146 184 226 276 326
#     4  11  22  38  61  86 109 143 183 227 279 330
#     4  10  19  35  55  75 103 145 193 230 264 320
#     4  10  20  35  56  84 111 141 183 229 277 331
#     4   9  19  34  59  86 108 141 189 232 270 319
#     4  10  20  38  61  87 112 140 180 230 278 329
#
# _framework density 19.030297000000001
#
# number of rings (size 3 to 8) (size 9 to 14) (size 15 to 20)
#    0.000    1.875    2.500    3.000    0.000    3.500 
#    0.000    3.125    0.000    3.750    0.000    0.000 
#    0.000    0.000    0.000    0.000    0.000    0.000 
#
# Total GULP energy -792911.348646 kJ/mol
# GULP energy per Si atom -12389.239823 kJ/mol
# Density = 1.898698 g / cm^3
# Si number density = 19.030297 Si / 1000 Ang^3
#
#
#
# Elastic Constant Matrix: (Units=GPa)
#
#
# Indices 1 2 3 4 5 6 
#
# 1 44.6861 30.3245 40.5722 0.0000 0.0000 0.0000
# 2 30.3245 110.3876 71.0896 0.0000 0.0000 0.0000
# 3 40.5722 71.0896 114.0303 0.0000 0.0000 0.0000
# 4 0.0000 0.0000 0.0000 31.6995 0.0000 0.0000
# 5 0.0000 0.0000 0.0000 0.0000 25.1518 0.0000
# 6 0.0000 0.0000 0.0000 0.0000 0.0000 20.2186
#
#
#
# Elastic Compliance Matrix: (Units=1/GPa)
#
#
# Indices 1 2 3 4 5 6 
#
# 1 0.033481 -0.002549 -0.010323 0.000000 0.000000 0.000000
# 2 -0.002549 0.015330 -0.008650 0.000000 0.000000 0.000000
# 3 -0.010323 -0.008650 0.017835 0.000000 0.000000 0.000000
# 4 0.000000 0.000000 0.000000 0.031546 0.000000 0.000000
# 5 0.000000 0.000000 0.000000 0.000000 0.039759 0.000000
# 6 0.000000 0.000000 0.000000 0.000000 0.000000 0.049459
#
#
# Mechanical properties :
#
#
# Convention : Reuss Voigt Hill
#
# Bulk Modulus (GPa) = 42.37095 61.45295 51.91195
# Shear Modulus (GPa) = 20.97990 23.88852 22.43421
#
# Velocity S-wave (km/s) = 3.32391 3.54685 3.43719
# Velocity P-wave (km/s) = 6.08642 7.00969 6.56431
#
# Compressibility (1/GPa) = 0.02360108
#
# Stress axis : x y z
#
# Youngs Moduli (GPa) = 29.86734 65.23185 56.06846
#
# Poissons Ratio (x) = 0.16630 0.57882
# Poissons Ratio (y) = 0.07614 0.48499
# Poissons Ratio (z) = 0.30833 0.56426
#
# Static dielectric constant tensor:
#      x y z
#    x 3.414170 0.000000 0.000000 
#    y 0.000000 3.459960 0.000000 
#    z 0.000000 0.000000 3.786850 
# 
# 
# High freq. dielectric constant tensor:
#      x y z
#    x 1.729080 0.000000 0.000000 
#    y 0.000000 1.727280 0.000000 
#    z 0.000000 0.000000 1.742070 
# 
# From -- ./inp_files/34318.got.cif
#   From: 2010.03.12/outbox.cif.g09.slc.cpg/sg53_18_cif.got.tgz:34318.got - 2010.04.16 14:36:59.
