data_PCOD8219997
_publ_section_title
;
Structure prediction by ZEFSAII (Michael W. Deem and Ramdas Pophale) SiO2 
 PCOD8219997
Probable space group: P M N A
;
_chemical_formula_sum "Si O2"
_cell_formula_units_Z 64
_cell_length_a 14.774708
_cell_length_b 24.291085
_cell_length_c 9.352569
_cell_angle_alpha 90.000000
_cell_angle_beta 90.000000
_cell_angle_gamma 90.000000
_cell_volume 3356.577980
_symmetry_space_group_name_H-M "P M N A"
_symmetry_group_IT_number 53
_symmetry_cell_setting 'orthorhombic'
loop_
_space_group_symop_operation_xyz
x,y,z
1/2-x,-y,1/2+z
x,-y,-z
1/2-x,y,1/2-z
-x,-y,-z
1/2+x,y,1/2-z
-x,y,z
1/2+x,-y,1/2+z
loop_
_atom_site_type_symbol
_atom_site_label
_atom_site_fract_x
_atom_site_fract_y
_atom_site_fract_z
Si Si1 0.602614 0.553844 0.917403
Si Si2 0.604229 0.221949 0.743522
Si Si3 0.898482 0.900699 0.134644
Si Si4 0.749916 0.125013 0.414772
Si Si5 0.752326 0.756577 0.474884
Si Si6 0.894471 0.057434 0.567860
Si Si7 0.602839 0.445417 0.419194
Si Si8 0.751233 0.636299 0.584766
O O1 0.500000 0.567686 0.958353
O O2 0.614412 0.543625 0.748990
O O3 0.660391 0.605447 0.976589
O O4 0.636971 0.500000 0.000000
O O5 0.500000 0.242878 0.744450
O O6 0.609415 0.157350 0.714328
O O7 0.653026 0.234654 0.892826
O O8 0.663697 0.251964 0.623074
O O9 0.873571 0.943921 0.261113
O O10 0.000000 0.910644 0.076048
O O11 0.831553 0.905576 0.000112
O O12 0.750000 0.106505 0.250000
O O13 0.737876 0.190912 0.422436
O O14 0.843005 0.106826 0.488377
O O15 0.758487 0.701067 0.563076
O O16 0.000000 0.068716 0.541234
O O17 0.862557 0.000000 0.500000
O O18 0.636532 0.500000 0.500000
O O19 0.500000 0.431418 0.459876
O O20 0.660904 0.393131 0.476180
O O21 0.750000 0.624820 0.750000
#
# Coordination Sequence:
#
# PCOD8219997 Si02
#       8
#     8   8   8   8   8   8   8   8
#     4   9  18  34  53  74 101 135 176 221 270 325
#     4   9  18  35  57  77 105 147 187 228 277 327
#     4   9  18  37  62  82 110 153 194 234 284 337
#     4  11  22  35  57  87 120 154 190 236 286 341
#     4  10  20  35  53  82 112 144 189 230 272 338
#     4  10  21  38  61  86 112 150 199 242 285 338
#     4   9  18  34  54  75 101 139 182 222 272 329
#     4  10  20  34  52  75 107 144 175 218 275 332
#
# _framework density 19.067036999999999
#
# number of rings (size 3 to 8) (size 9 to 14) (size 15 to 20)
#    0.000    2.375    1.250    1.125    0.000    2.500 
#    4.500    0.000    0.000    7.125    0.000    0.000 
#    0.000    0.000    0.000    0.000    0.000    0.000 
#
# Total GULP energy -793348.240637 kJ/mol
# GULP energy per Si atom -12396.066260 kJ/mol
# Density = 1.902364 g / cm^3
# Si number density = 19.067037 Si / 1000 Ang^3
#
#
#
# Elastic Constant Matrix: (Units=GPa)
#
#
# Indices 1 2 3 4 5 6 
#
# 1 121.0058 38.3211 45.3906 0.0000 0.0000 0.0000
# 2 38.3211 87.9161 28.5887 0.0000 0.0000 0.0000
# 3 45.3906 28.5887 77.7914 0.0000 0.0000 0.0000
# 4 0.0000 0.0000 0.0000 30.0423 0.0000 0.0000
# 5 0.0000 0.0000 0.0000 0.0000 19.8428 0.0000
# 6 0.0000 0.0000 0.0000 0.0000 0.0000 20.7177
#
#
#
# Elastic Compliance Matrix: (Units=1/GPa)
#
#
# Indices 1 2 3 4 5 6 
#
# 1 0.011303 -0.003160 -0.005434 0.000000 0.000000 0.000000
# 2 -0.003160 0.013802 -0.003228 0.000000 0.000000 0.000000
# 3 -0.005434 -0.003228 0.017212 0.000000 0.000000 0.000000
# 4 0.000000 0.000000 0.000000 0.033286 0.000000 0.000000
# 5 0.000000 0.000000 0.000000 0.000000 0.050396 0.000000
# 6 0.000000 0.000000 0.000000 0.000000 0.000000 0.048268
#
#
# Mechanical properties :
#
#
# Convention : Reuss Voigt Hill
#
# Bulk Modulus (GPa) = 53.55538 56.81268 55.18403
# Shear Modulus (GPa) = 24.49351 25.74809 25.12080
#
# Velocity S-wave (km/s) = 3.58802 3.67876 3.63367
# Velocity P-wave (km/s) = 6.73157 6.92137 6.82713
#
# Compressibility (1/GPa) = 0.01867226
#
# Stress axis : x y z
#
# Youngs Moduli (GPa) = 88.47130 72.45540 58.09876
#
# Poissons Ratio (x) = 0.22894 0.31571
# Poissons Ratio (y) = 0.27955 0.18757
# Poissons Ratio (z) = 0.48076 0.23392
#
# Static dielectric constant tensor:
#      x y z
#    x 3.783500 0.000000 0.000000 
#    y 0.000000 3.379360 0.000000 
#    z 0.000000 0.000000 3.327070 
# 
# 
# High freq. dielectric constant tensor:
#      x y z
#    x 1.753320 0.000000 0.000000 
#    y 0.000000 1.728960 0.000000 
#    z 0.000000 0.000000 1.726330 
# 
# From -- ./inp_files/8970.got.cif
#   From: 2010.03.12/outbox.cif.g09.slc.cpg/sg53_5_cif.got.tgz:8970.got - 2010.04.16 14:36:59.
