data_PCOD8219855
_publ_section_title
;
Structure prediction by ZEFSAII (Michael W. Deem and Ramdas Pophale) SiO2 
 PCOD8219855
Probable space group: P M N A
;
_chemical_formula_sum "Si O2"
_cell_formula_units_Z 56
_cell_length_a 8.827539
_cell_length_b 25.584504
_cell_length_c 14.103922
_cell_angle_alpha 90.000000
_cell_angle_beta 90.000000
_cell_angle_gamma 90.000000
_cell_volume 3185.345493
_symmetry_space_group_name_H-M "P M N A"
_symmetry_group_IT_number 53
_symmetry_cell_setting 'orthorhombic'
loop_
_space_group_symop_operation_xyz
x,y,z
1/2-x,-y,1/2+z
x,-y,-z
1/2-x,y,1/2-z
-x,-y,-z
1/2+x,y,1/2-z
-x,y,z
1/2+x,-y,1/2+z
loop_
_atom_site_type_symbol
_atom_site_label
_atom_site_fract_x
_atom_site_fract_y
_atom_site_fract_z
Si Si1 0.323108 0.167129 0.651697
Si Si2 0.678172 0.021371 0.148958
Si Si3 0.173595 0.624904 0.462896
Si Si4 0.179980 0.466765 0.850416
Si Si5 0.321335 0.079986 0.963400
Si Si6 0.673461 0.424955 0.154473
Si Si7 0.178193 0.287306 0.849001
O O1 0.250000 0.148040 0.750000
O O2 0.500000 0.158506 0.661546
O O3 0.260769 0.133588 0.564122
O O4 0.281344 0.227144 0.630838
O O5 0.750000 0.034813 0.250000
O O6 0.500000 0.021252 0.162087
O O7 0.731963 0.965100 0.109763
O O8 0.725593 0.064861 0.070913
O O9 0.268057 0.576646 0.423655
O O10 0.183247 0.620807 0.576766
O O11 0.248138 0.679545 0.433283
O O12 0.000000 0.622266 0.427816
O O13 0.250000 0.451090 0.750000
O O14 0.241019 0.523268 0.882680
O O15 0.000000 0.467988 0.845255
O O16 0.500000 0.087823 0.956562
O O17 0.750000 0.403271 0.250000
O O18 0.500000 0.440541 0.175747
O O19 0.250000 0.306016 0.750000
O O20 0.000000 0.297382 0.844796
#
# Coordination Sequence:
#
# PCOD8219855 Si02
#       7
#     8   8   8   8   8   8   8
#     4  10  20  33  51  75 101 130 164 202 244 290
#     4   9  18  31  47  71 103 136 169 206 247 290
#     4  11  22  35  52  74 100 129 161 199 244 291
#     4  11  21  33  51  74 102 133 162 195 237 288
#     4   9  18  32  49  71 101 135 169 205 246 292
#     4  10  21  36  53  73  98 127 161 201 241 286
#     4  10  21  36  53  75 102 129 160 200 244 292
#
# _framework density 17.58051
#
# number of rings (size 3 to 8) (size 9 to 14) (size 15 to 20)
#    0.000    2.000    0.000    6.000    0.000    8.000 
#    0.000    1.429    0.000    0.857    0.000    0.000 
#    0.000    0.000    0.000    0.000    0.000    0.000 
#
# Total GULP energy -694477.893498 kJ/mol
# GULP energy per Si atom -12401.390955 kJ/mol
# Density = 1.754050 g / cm^3
# Si number density = 17.580510 Si / 1000 Ang^3
#
#
#
# Elastic Constant Matrix: (Units=GPa)
#
#
# Indices 1 2 3 4 5 6 
#
# 1 109.9064 46.7436 50.6795 0.0000 0.0000 0.0000
# 2 46.7436 86.4057 64.8630 0.0000 0.0000 0.0000
# 3 50.6795 64.8630 114.2965 0.0000 0.0000 0.0000
# 4 0.0000 0.0000 0.0000 28.1616 0.0000 0.0000
# 5 0.0000 0.0000 0.0000 0.0000 31.9108 0.0000
# 6 0.0000 0.0000 0.0000 0.0000 0.0000 25.5159
#
#
#
# Elastic Compliance Matrix: (Units=1/GPa)
#
#
# Indices 1 2 3 4 5 6 
#
# 1 0.012359 -0.004481 -0.002937 0.000000 0.000000 0.000000
# 2 -0.004481 0.021788 -0.010378 0.000000 0.000000 0.000000
# 3 -0.002937 -0.010378 0.015941 0.000000 0.000000 0.000000
# 4 0.000000 0.000000 0.000000 0.035509 0.000000 0.000000
# 5 0.000000 0.000000 0.000000 0.000000 0.031337 0.000000
# 6 0.000000 0.000000 0.000000 0.000000 0.000000 0.039191
#
#
# Mechanical properties :
#
#
# Convention : Reuss Voigt Hill
#
# Bulk Modulus (GPa) = 68.98467 70.57566 69.78017
# Shear Modulus (GPa) = 25.43906 27.00582 26.22244
#
# Velocity S-wave (km/s) = 3.80808 3.92359 3.86627
# Velocity P-wave (km/s) = 7.65896 7.79471 7.72714
#
# Compressibility (1/GPa) = 0.01449597
#
# Stress axis : x y z
#
# Youngs Moduli (GPa) = 80.91436 45.89744 62.73293
#
# Poissons Ratio (x) = 0.20567 0.18424
# Poissons Ratio (y) = 0.36259 0.65101
# Poissons Ratio (z) = 0.23763 0.47630
#
# Static dielectric constant tensor:
#      x y z
#    x 3.331270 0.000000 0.000000 
#    y 0.000000 3.172710 0.000000 
#    z 0.000000 0.000000 3.230240 
# 
# 
# High freq. dielectric constant tensor:
#      x y z
#    x 1.692920 0.000000 0.000000 
#    y 0.000000 1.660870 0.000000 
#    z 0.000000 0.000000 1.675350 
# 
# From -- ./inp_files/20651.got.cif
#   From: 2010.03.12/outbox.cif.g09.slc.cpg/sg53_11_cif.got.tgz:20651.got - 2010.04.16 14:36:59.
