data_PCOD8219841
_publ_section_title
;
Structure prediction by ZEFSAII (Michael W. Deem and Ramdas Pophale) SiO2 
 PCOD8219841
Probable space group: P M N A
;
_chemical_formula_sum "Si O2"
_cell_formula_units_Z 64
_cell_length_a 14.519721
_cell_length_b 9.420320
_cell_length_c 26.207274
_cell_angle_alpha 90.000000
_cell_angle_beta 90.000000
_cell_angle_gamma 90.000000
_cell_volume 3584.641896
_symmetry_space_group_name_H-M "P M N A"
_symmetry_group_IT_number 53
_symmetry_cell_setting 'orthorhombic'
loop_
_space_group_symop_operation_xyz
x,y,z
1/2-x,-y,1/2+z
x,-y,-z
1/2-x,y,1/2-z
-x,-y,-z
1/2+x,y,1/2-z
-x,y,z
1/2+x,-y,1/2+z
loop_
_atom_site_type_symbol
_atom_site_label
_atom_site_fract_x
_atom_site_fract_y
_atom_site_fract_z
Si Si1 0.601184 0.620852 0.959999
Si Si2 0.100250 0.805274 0.180267
Si Si3 0.103073 0.484075 0.180290
Si Si4 0.349322 0.001768 0.771129
Si Si5 0.602448 0.682060 0.780791
Si Si6 0.206222 0.187107 0.635514
Si Si7 0.604956 0.860648 0.032610
Si Si8 0.289246 0.516972 0.865111
O O1 0.500000 0.659657 0.935952
O O2 0.674287 0.578281 0.917713
O O3 0.584597 0.500000 0.000000
O O4 0.644334 0.747997 0.992418
O O5 0.112158 0.644922 0.201818
O O6 0.097092 0.910932 0.228083
O O7 0.183443 0.839376 0.141044
O O8 0.000000 0.819596 0.152508
O O9 0.127653 0.372395 0.224424
O O10 0.178092 0.465573 0.135204
O O11 0.000000 0.456056 0.158598
O O12 0.250000 0.963881 0.750000
O O13 0.347285 0.098746 0.821515
O O14 0.397171 0.852739 0.783494
O O15 0.500000 0.630503 0.795140
O O16 0.672594 0.611514 0.819492
O O17 0.172369 0.130275 0.580986
O O18 0.181060 0.353097 0.641490
O O19 0.500000 0.823600 0.050346
O O20 0.606646 0.000000 0.000000
#
# Coordination Sequence:
#
# PCOD8219841 Si02
#       8
#     8   8   8   8   8   8   8   8
#     4  10  20  36  55  77 103 133 169 208 258 312
#     4   9  18  35  56  77 104 139 175 212 254 305
#     4   9  19  35  54  76 105 139 175 213 256 304
#     4  10  20  33  50  76 108 141 175 210 253 305
#     4  11  22  33  49  78 111 141 172 211 257 307
#     4  10  21  35  55  79 103 137 177 214 256 307
#     4  10  22  38  55  76 104 135 168 212 262 310
#     4  11  20  34  56  78 104 137 175 215 257 307
#
# _framework density 17.853945
#
# number of rings (size 3 to 8) (size 9 to 14) (size 15 to 20)
#    0.000    2.000    1.250    2.625    1.750    3.500 
#    0.000    0.000    0.000    1.500    0.000    0.000 
#    0.000    0.000    0.000    0.000    0.000    0.000 
#
# Total GULP energy -793276.891694 kJ/mol
# GULP energy per Si atom -12394.951433 kJ/mol
# Density = 1.781331 g / cm^3
# Si number density = 17.853945 Si / 1000 Ang^3
#
#
#
# Elastic Constant Matrix: (Units=GPa)
#
#
# Indices 1 2 3 4 5 6 
#
# 1 106.5765 27.4557 62.7329 0.0000 0.0000 0.0000
# 2 27.4557 76.3834 34.5964 0.0000 0.0000 0.0000
# 3 62.7329 34.5964 93.2558 0.0000 0.0000 0.0000
# 4 0.0000 0.0000 0.0000 23.0894 0.0000 0.0000
# 5 0.0000 0.0000 0.0000 0.0000 51.7455 0.0000
# 6 0.0000 0.0000 0.0000 0.0000 0.0000 16.2066
#
#
#
# Elastic Compliance Matrix: (Units=1/GPa)
#
#
# Indices 1 2 3 4 5 6 
#
# 1 0.015600 -0.001027 -0.010113 0.000000 0.000000 0.000000
# 2 -0.001027 0.015804 -0.005172 0.000000 0.000000 0.000000
# 3 -0.010113 -0.005172 0.019445 0.000000 0.000000 0.000000
# 4 0.000000 0.000000 0.000000 0.043310 0.000000 0.000000
# 5 0.000000 0.000000 0.000000 0.000000 0.019325 0.000000
# 6 0.000000 0.000000 0.000000 0.000000 0.000000 0.061703
#
#
# Mechanical properties :
#
#
# Convention : Reuss Voigt Hill
#
# Bulk Modulus (GPa) = 54.87126 58.42061 56.64593
# Shear Modulus (GPa) = 23.37684 28.30371 25.84027
#
# Velocity S-wave (km/s) = 3.62240 3.98589 3.80849
# Velocity P-wave (km/s) = 6.94952 7.34681 7.15092
#
# Compressibility (1/GPa) = 0.01822448
#
# Stress axis : x y z
#
# Youngs Moduli (GPa) = 64.10101 63.27692 51.42653
#
# Poissons Ratio (x) = 0.06497 0.52010
# Poissons Ratio (y) = 0.06582 0.26598
# Poissons Ratio (z) = 0.64828 0.32728
#
# Static dielectric constant tensor:
#      x y z
#    x 3.497020 0.000000 0.000000 
#    y 0.000000 3.404500 0.000000 
#    z 0.000000 0.000000 2.967870 
# 
# 
# High freq. dielectric constant tensor:
#      x y z
#    x 1.695560 0.000000 0.000000 
#    y 0.000000 1.704360 0.000000 
#    z 0.000000 0.000000 1.659890 
# 
# From -- ./inp_files/35373.got.cif
#   From: 2010.03.12/outbox.cif.g09.slc.cpg/sg53_18_cif.got.tgz:35373.got - 2010.04.16 14:36:59.
