data_PCOD8219105
_publ_section_title
;
Structure prediction by ZEFSAII (Michael W. Deem and Ramdas Pophale) SiO2 
 PCOD8219105
Probable space group: P M N A
;
_chemical_formula_sum "Si O2"
_cell_formula_units_Z 40
_cell_length_a 8.958382
_cell_length_b 26.214569
_cell_length_c 9.145844
_cell_angle_alpha 90.000000
_cell_angle_beta 90.000000
_cell_angle_gamma 90.000000
_cell_volume 2147.811131
_symmetry_space_group_name_H-M "P M N A"
_symmetry_group_IT_number 53
_symmetry_cell_setting 'orthorhombic'
loop_
_space_group_symop_operation_xyz
x,y,z
1/2-x,-y,1/2+z
x,-y,-z
1/2-x,y,1/2-z
-x,-y,-z
1/2+x,y,1/2-z
-x,y,z
1/2+x,-y,1/2+z
loop_
_atom_site_type_symbol
_atom_site_label
_atom_site_fract_x
_atom_site_fract_y
_atom_site_fract_z
Si Si1 0.176113 0.646206 0.405334
Si Si2 0.323310 0.733301 0.590351
Si Si3 0.324654 0.046206 0.406162
Si Si4 0.671387 0.155592 0.402063
Si Si5 0.174633 0.547467 0.593658
O O1 0.250000 0.635166 0.250000
O O2 0.248019 0.696116 0.475273
O O3 0.214412 0.599001 0.509259
O O4 0.000000 0.654092 0.385848
O O5 0.250000 0.726433 0.750000
O O6 0.500000 0.722214 0.603467
O O7 0.290333 0.790158 0.521703
O O8 0.250000 0.044081 0.250000
O O9 0.500000 0.038079 0.385721
O O10 0.289788 0.101819 0.484274
O O11 0.255720 0.000000 0.500000
O O12 0.750000 0.154618 0.250000
O O13 0.500000 0.155511 0.361798
O O14 0.237245 0.500000 0.500000
O O15 0.250000 0.548754 0.750000
O O16 0.000000 0.541165 0.619454
#
# Coordination Sequence:
#
# PCOD8219105 Si02
#       5
#     8   8   8   8   8
#     4  11  23  38  56  79 108 141 177 215 259 309
#     4  10  19  33  54  78 104 134 172 216 260 308
#     4   9  17  30  48  70  97 128 164 206 251 301
#     4   8  15  28  47  70  96 128 165 206 251 299
#     4  10  22  39  59  84 111 140 175 214 257 305
#
# _framework density 18.623612000000001
#
# number of rings (size 3 to 8) (size 9 to 14) (size 15 to 20)
#    0.000    2.400    0.000    2.400    0.000    4.800 
#    0.000    1.000    0.000    2.400    0.000    0.000 
#    0.000    0.000    0.000    0.000    0.000    0.000 
#
# Total GULP energy -495550.251250 kJ/mol
# GULP energy per Si atom -12388.756281 kJ/mol
# Density = 1.858122 g / cm^3
# Si number density = 18.623612 Si / 1000 Ang^3
#
#
#
# Elastic Constant Matrix: (Units=GPa)
#
#
# Indices 1 2 3 4 5 6 
#
# 1 61.2395 62.2331 47.7408 0.0000 0.0000 0.0000
# 2 62.2331 184.2484 72.7707 0.0000 0.0000 0.0000
# 3 47.7408 72.7707 110.9303 0.0000 0.0000 0.0000
# 4 0.0000 0.0000 0.0000 27.3368 0.0000 0.0000
# 5 0.0000 0.0000 0.0000 0.0000 29.4943 0.0000
# 6 0.0000 0.0000 0.0000 0.0000 0.0000 26.6143
#
#
#
# Elastic Compliance Matrix: (Units=1/GPa)
#
#
# Indices 1 2 3 4 5 6 
#
# 1 0.029680 -0.006722 -0.008364 0.000000 0.000000 0.000000
# 2 -0.006722 0.008848 -0.002911 0.000000 0.000000 0.000000
# 3 -0.008364 -0.002911 0.014524 0.000000 0.000000 0.000000
# 4 0.000000 0.000000 0.000000 0.036581 0.000000 0.000000
# 5 0.000000 0.000000 0.000000 0.000000 0.033905 0.000000
# 6 0.000000 0.000000 0.000000 0.000000 0.000000 0.037574
#
#
# Mechanical properties :
#
#
# Convention : Reuss Voigt Hill
#
# Bulk Modulus (GPa) = 58.62292 80.21193 69.41743
# Shear Modulus (GPa) = 24.65581 28.26730 26.46155
#
# Velocity S-wave (km/s) = 3.64249 3.90015 3.77352
# Velocity P-wave (km/s) = 7.01687 7.96524 7.50605
#
# Compressibility (1/GPa) = 0.01705817
#
# Stress axis : x y z
#
# Youngs Moduli (GPa) = 33.69220 113.02431 68.85072
#
# Poissons Ratio (x) = 0.75970 0.57588
# Poissons Ratio (y) = 0.22647 0.20045
# Poissons Ratio (z) = 0.28181 0.32905
#
# Static dielectric constant tensor:
#      x y z
#    x 3.818860 0.000000 0.000000 
#    y 0.000000 4.390680 0.000000 
#    z 0.000000 0.000000 3.128260 
# 
# 
# High freq. dielectric constant tensor:
#      x y z
#    x 1.726630 0.000000 0.000000 
#    y 0.000000 1.756940 0.000000 
#    z 0.000000 0.000000 1.689070 
# 
# From -- ./inp_files/771.got.cif
#   From: 2010.03.12/outbox.cif.g09.slc.cpg/sg53_1_cif.got.tgz:771.got - 2010.04.16 14:36:59.
