data_PCOD8219707
_publ_section_title
;
Structure prediction by ZEFSAII (Michael W. Deem and Ramdas Pophale) SiO2 
 PCOD8219707
Probable space group: P M N A
;
_chemical_formula_sum "Si O2"
_cell_formula_units_Z 48
_cell_length_a 9.205278
_cell_length_b 16.089355
_cell_length_c 18.429112
_cell_angle_alpha 90.000000
_cell_angle_beta 90.000000
_cell_angle_gamma 90.000000
_cell_volume 2729.480226
_symmetry_space_group_name_H-M "P M N A"
_symmetry_group_IT_number 53
_symmetry_cell_setting 'orthorhombic'
loop_
_space_group_symop_operation_xyz
x,y,z
1/2-x,-y,1/2+z
x,-y,-z
1/2-x,y,1/2-z
-x,-y,-z
1/2+x,y,1/2-z
-x,y,z
1/2+x,-y,1/2+z
loop_
_atom_site_type_symbol
_atom_site_label
_atom_site_fract_x
_atom_site_fract_y
_atom_site_fract_z
Si Si1 0.170957 0.831850 0.324220
Si Si2 0.327348 0.086266 0.969794
Si Si3 0.669522 0.335056 0.323474
Si Si4 0.169154 0.474242 0.823242
Si Si5 0.666787 0.250090 0.049335
Si Si6 0.165290 0.338302 0.600075
O O1 0.250000 0.855858 0.250000
O O2 0.225875 0.894664 0.387651
O O3 0.210391 0.738236 0.348153
O O4 0.000000 0.840990 0.312260
O O5 0.500000 0.083471 0.968175
O O6 0.279042 0.159458 0.023957
O O7 0.261072 0.000000 0.000000
O O8 0.750000 0.310068 0.250000
O O9 0.500000 0.318777 0.312600
O O10 0.701858 0.430646 0.343988
O O11 0.728577 0.276778 0.386417
O O12 0.250000 0.448212 0.750000
O O13 0.229520 0.416248 0.887105
O O14 0.000000 0.457682 0.812111
O O15 0.500000 0.247905 0.076221
O O16 0.683082 0.314146 0.983469
O O17 0.000000 0.364699 0.616434
#
# Coordination Sequence:
#
# PCOD8219707 Si02
#       6
#     8   8   8   8   8   8
#     4   9  17  29  47  72  99 127 159 193 234 285
#     4   8  15  31  54  75  97 128 162 195 236 289
#     4  10  21  36  52  70  95 128 166 206 245 286
#     4  10  20  32  47  68  95 129 167 204 242 284
#     4   9  18  33  53  75  97 125 162 200 241 290
#     4   9  18  31  47  70  99 129 161 196 237 289
#
# _framework density 17.585764999999999
#
# number of rings (size 3 to 8) (size 9 to 14) (size 15 to 20)
#    0.000    2.833    0.000    3.500    0.000    5.333 
#    0.000    6.667    0.000    4.000    0.000    0.000 
#    0.000    0.000    0.000    0.000    0.000    0.000 
#
# Total GULP energy -595178.574778 kJ/mol
# GULP energy per Si atom -12399.553641 kJ/mol
# Density = 1.754574 g / cm^3
# Si number density = 17.585765 Si / 1000 Ang^3
#
#
#
# Elastic Constant Matrix: (Units=GPa)
#
#
# Indices 1 2 3 4 5 6 
#
# 1 67.5946 43.8749 53.7364 0.0000 0.0000 0.0000
# 2 43.8749 96.8605 71.8413 0.0000 0.0000 0.0000
# 3 53.7364 71.8413 122.6927 0.0000 0.0000 0.0000
# 4 0.0000 0.0000 0.0000 25.4649 0.0000 0.0000
# 5 0.0000 0.0000 0.0000 0.0000 34.3953 0.0000
# 6 0.0000 0.0000 0.0000 0.0000 0.0000 17.4332
#
#
#
# Elastic Compliance Matrix: (Units=1/GPa)
#
#
# Indices 1 2 3 4 5 6 
#
# 1 0.024243 -0.005491 -0.007403 0.000000 0.000000 0.000000
# 2 -0.005491 0.019494 -0.009009 0.000000 0.000000 0.000000
# 3 -0.007403 -0.009009 0.016668 0.000000 0.000000 0.000000
# 4 0.000000 0.000000 0.000000 0.039270 0.000000 0.000000
# 5 0.000000 0.000000 0.000000 0.000000 0.029074 0.000000
# 6 0.000000 0.000000 0.000000 0.000000 0.000000 0.057362
#
#
# Mechanical properties :
#
#
# Convention : Reuss Voigt Hill
#
# Bulk Modulus (GPa) = 60.24548 69.56146 64.90347
# Shear Modulus (GPa) = 21.23602 23.30504 22.27053
#
# Velocity S-wave (km/s) = 3.47878 3.64431 3.56251
# Velocity P-wave (km/s) = 7.10411 7.57294 7.34227
#
# Compressibility (1/GPa) = 0.01659876
#
# Stress axis : x y z
#
# Youngs Moduli (GPa) = 41.24863 51.29902 59.99478
#
# Poissons Ratio (x) = 0.28167 0.44414
# Poissons Ratio (y) = 0.22648 0.54052
# Poissons Ratio (z) = 0.30536 0.46217
#
# Static dielectric constant tensor:
#      x y z
#    x 3.064240 0.000000 0.000000 
#    y 0.000000 3.341490 0.000000 
#    z 0.000000 0.000000 3.224550 
# 
# 
# High freq. dielectric constant tensor:
#      x y z
#    x 1.664180 0.000000 0.000000 
#    y 0.000000 1.669280 0.000000 
#    z 0.000000 0.000000 1.679380 
# 
# From -- ./inp_files/20182.got.cif
#   From: 2010.03.12/outbox.cif.g09.slc.cpg/sg53_11_cif.got.tgz:20182.got - 2010.04.16 14:36:59.
