data_PCOD8219109
_publ_section_title
;
Structure prediction by ZEFSAII (Michael W. Deem and Ramdas Pophale) SiO2 
 PCOD8219109
Probable space group: P M N A
;
_chemical_formula_sum "Si O2"
_cell_formula_units_Z 56
_cell_length_a 8.879313
_cell_length_b 13.862256
_cell_length_c 23.917438
_cell_angle_alpha 90.000000
_cell_angle_beta 90.000000
_cell_angle_gamma 90.000000
_cell_volume 2943.933103
_symmetry_space_group_name_H-M "P M N A"
_symmetry_group_IT_number 53
_symmetry_cell_setting 'orthorhombic'
loop_
_space_group_symop_operation_xyz
x,y,z
1/2-x,-y,1/2+z
x,-y,-z
1/2-x,y,1/2-z
-x,-y,-z
1/2+x,y,1/2-z
-x,y,z
1/2+x,-y,1/2+z
loop_
_atom_site_type_symbol
_atom_site_label
_atom_site_fract_x
_atom_site_fract_y
_atom_site_fract_z
Si Si1 0.172767 0.326019 0.405264
Si Si2 0.828287 0.527024 0.088496
Si Si3 0.823732 0.210913 0.192627
Si Si4 0.827176 0.656412 0.194349
Si Si5 0.677419 0.990385 0.307982
Si Si6 0.676496 0.825856 0.130595
Si Si7 0.327278 0.696583 0.029329
O O1 0.219968 0.436020 0.413841
O O2 0.273832 0.275541 0.359071
O O3 0.195446 0.272396 0.464924
O O4 0.000000 0.321614 0.385944
O O5 0.813092 0.571664 0.149764
O O6 0.776893 0.604646 0.042387
O O7 0.000000 0.497176 0.075461
O O8 0.750000 0.248519 0.250000
O O9 0.000000 0.221765 0.200145
O O10 0.775886 0.100839 0.180534
O O11 0.750000 0.615390 0.250000
O O12 0.736820 0.750863 0.176047
O O13 0.000000 0.685419 0.204683
O O14 0.750000 0.954161 0.250000
O O15 0.500000 0.977121 0.303922
O O16 0.741947 0.928013 0.359464
O O17 0.500000 0.840182 0.138843
O O18 0.717002 0.787550 0.068368
O O19 0.500000 0.666505 0.041318
#
# Coordination Sequence:
#
# PCOD8219109 Si02
#       7
#     8   8   8   8   8   8   8
#     4  11  22  37  58  80 106 141 179 221 267 316
#     4  10  21  35  53  78 107 141 182 226 269 316
#     4  10  22  40  60  82 108 138 176 221 265 314
#     4  10  20  33  49  73 106 140 175 216 263 315
#     4  10  20  35  56  81 108 139 176 217 263 315
#     4  10  19  33  54  78 107 141 176 215 260 313
#     4   9  20  37  55  79 109 142 180 219 263 316
#
# _framework density 19.022171
#
# number of rings (size 3 to 8) (size 9 to 14) (size 15 to 20)
#    0.000    2.000    0.000    3.429    0.000    7.429 
#    0.000    2.143    0.000    4.286    0.000    0.000 
#    0.000    0.000    0.000    0.000    0.000    0.000 
#
# Total GULP energy -694608.630393 kJ/mol
# GULP energy per Si atom -12403.725543 kJ/mol
# Density = 1.897888 g / cm^3
# Si number density = 19.022171 Si / 1000 Ang^3
#
#
#
# Elastic Constant Matrix: (Units=GPa)
#
#
# Indices 1 2 3 4 5 6 
#
# 1 76.4120 23.6406 36.7833 0.0000 0.0000 0.0000
# 2 23.6406 61.1247 40.0861 0.0000 0.0000 0.0000
# 3 36.7833 40.0861 112.3716 0.0000 0.0000 0.0000
# 4 0.0000 0.0000 0.0000 18.1707 0.0000 0.0000
# 5 0.0000 0.0000 0.0000 0.0000 29.4058 0.0000
# 6 0.0000 0.0000 0.0000 0.0000 0.0000 32.8444
#
#
#
# Elastic Compliance Matrix: (Units=1/GPa)
#
#
# Indices 1 2 3 4 5 6 
#
# 1 0.016127 -0.003623 -0.003987 0.000000 0.000000 0.000000
# 2 -0.003623 0.022170 -0.006723 0.000000 0.000000 0.000000
# 3 -0.003987 -0.006723 0.012602 0.000000 0.000000 0.000000
# 4 0.000000 0.000000 0.000000 0.055034 0.000000 0.000000
# 5 0.000000 0.000000 0.000000 0.000000 0.034007 0.000000
# 6 0.000000 0.000000 0.000000 0.000000 0.000000 0.030447
#
#
# Mechanical properties :
#
#
# Convention : Reuss Voigt Hill
#
# Bulk Modulus (GPa) = 44.97460 50.10314 47.53887
# Shear Modulus (GPa) = 24.21754 26.04407 25.13080
#
# Velocity S-wave (km/s) = 3.57195 3.70421 3.63868
# Velocity P-wave (km/s) = 6.38016 6.68516 6.53444
#
# Compressibility (1/GPa) = 0.02223477
#
# Stress axis : x y z
#
# Youngs Moduli (GPa) = 62.00843 45.10599 79.35122
#
# Poissons Ratio (x) = 0.16341 0.31634
# Poissons Ratio (y) = 0.22464 0.53346
# Poissons Ratio (z) = 0.24720 0.30324
#
# Static dielectric constant tensor:
#      x y z
#    x 3.589200 0.000000 0.000000 
#    y 0.000000 3.348050 0.000000 
#    z 0.000000 0.000000 3.567390 
# 
# 
# High freq. dielectric constant tensor:
#      x y z
#    x 1.754580 0.000000 0.000000 
#    y 0.000000 1.723450 0.000000 
#    z 0.000000 0.000000 1.741450 
# 
# From -- ./inp_files/30847.got.cif
#   From: 2010.03.12/outbox.cif.g09.slc.cpg/sg53_16_cif.got.tgz:30847.got - 2010.04.16 14:36:59.
