data_PCOD8219358
_publ_section_title
;
Structure prediction by ZEFSAII (Michael W. Deem and Ramdas Pophale) SiO2 
 PCOD8219358
Probable space group: P M N A
;
_chemical_formula_sum "Si O2"
_cell_formula_units_Z 48
_cell_length_a 15.621078
_cell_length_b 16.303226
_cell_length_c 9.226586
_cell_angle_alpha 90.000000
_cell_angle_beta 90.000000
_cell_angle_gamma 90.000000
_cell_volume 2349.771240
_symmetry_space_group_name_H-M "P M N A"
_symmetry_group_IT_number 53
_symmetry_cell_setting 'orthorhombic'
loop_
_space_group_symop_operation_xyz
x,y,z
1/2-x,-y,1/2+z
x,-y,-z
1/2-x,y,1/2-z
-x,-y,-z
1/2+x,y,1/2-z
-x,y,z
1/2+x,-y,1/2+z
loop_
_atom_site_type_symbol
_atom_site_label
_atom_site_fract_x
_atom_site_fract_y
_atom_site_fract_z
Si Si1 0.903392 0.589779 0.937785
Si Si2 0.097318 0.089088 0.051680
Si Si3 0.839729 0.829260 0.678595
Si Si4 0.756370 0.652611 0.408278
Si Si5 0.749062 0.839861 0.406229
Si Si6 0.403558 0.649750 0.877819
O O1 0.890696 0.594039 0.764947
O O2 0.000000 0.618228 0.978473
O O3 0.884884 0.500000 0.000000
O O4 0.834332 0.648791 0.011034
O O5 0.109465 0.104251 0.224047
O O6 0.000000 0.101640 0.005479
O O7 0.152648 0.155958 0.966393
O O8 0.130158 0.000000 0.000000
O O9 0.750000 0.802253 0.750000
O O10 0.817191 0.874729 0.524951
O O11 0.893452 0.746023 0.660540
O O12 0.750000 0.608899 0.250000
O O13 0.778582 0.747047 0.383912
O O14 0.834705 0.616490 0.504366
O O15 0.750000 0.885835 0.250000
O O16 0.500000 0.637358 0.938809
#
# Coordination Sequence:
#
# PCOD8219358 Si02
#       6
#     8   8   8   8   8   8
#     4  10  21  36  55  80 108 141 182 224 267 317
#     4  10  20  33  50  75 105 137 177 222 268 318
#     4   9  17  32  55  79 104 140 181 219 265 320
#     4  10  21  36  55  81 110 141 180 224 270 322
#     4   9  19  35  53  77 105 135 177 221 265 318
#     4  10  19  34  58  83 109 142 181 224 270 324
#
# _framework density 20.427520999999999
#
# number of rings (size 3 to 8) (size 9 to 14) (size 15 to 20)
#    0.000    2.333    0.000    4.000    0.000    6.000 
#    0.000    7.500    0.000    5.500    0.000    0.000 
#    0.000    0.000    0.000    0.000    0.000    0.000 
#
# Total GULP energy -594835.374713 kJ/mol
# GULP energy per Si atom -12392.403640 kJ/mol
# Density = 2.038103 g / cm^3
# Si number density = 20.427521 Si / 1000 Ang^3
#
#
#
# Elastic Constant Matrix: (Units=GPa)
#
#
# Indices 1 2 3 4 5 6 
#
# 1 120.5405 15.0649 63.9700 0.0000 0.0000 0.0000
# 2 15.0649 43.0744 33.5758 0.0000 0.0000 0.0000
# 3 63.9700 33.5758 167.5847 0.0000 0.0000 0.0000
# 4 0.0000 0.0000 0.0000 21.1399 0.0000 0.0000
# 5 0.0000 0.0000 0.0000 0.0000 26.7878 0.0000
# 6 0.0000 0.0000 0.0000 0.0000 0.0000 16.9376
#
#
#
# Elastic Compliance Matrix: (Units=1/GPa)
#
#
# Indices 1 2 3 4 5 6 
#
# 1 0.010419 -0.000644 -0.003848 0.000000 0.000000 0.000000
# 2 -0.000644 0.027552 -0.005274 0.000000 0.000000 0.000000
# 3 -0.003848 -0.005274 0.008493 0.000000 0.000000 0.000000
# 4 0.000000 0.000000 0.000000 0.047304 0.000000 0.000000
# 5 0.000000 0.000000 0.000000 0.000000 0.037330 0.000000
# 6 0.000000 0.000000 0.000000 0.000000 0.000000 0.059040
#
#
# Mechanical properties :
#
#
# Convention : Reuss Voigt Hill
#
# Bulk Modulus (GPa) = 37.13273 61.82456 49.47864
# Shear Modulus (GPa) = 22.86788 27.54566 25.20677
#
# Velocity S-wave (km/s) = 3.34947 3.67612 3.51659
# Velocity P-wave (km/s) = 5.75985 6.95338 6.38457
#
# Compressibility (1/GPa) = 0.02693042
#
# Stress axis : x y z
#
# Youngs Moduli (GPa) = 95.98296 36.29489 117.74997
#
# Poissons Ratio (x) = 0.02339 0.45308
# Poissons Ratio (y) = 0.06186 0.62102
# Poissons Ratio (z) = 0.36932 0.19142
#
# Static dielectric constant tensor:
#      x y z
#    x 3.697740 0.000000 0.000000 
#    y 0.000000 3.330380 0.000000 
#    z 0.000000 0.000000 4.320960 
# 
# 
# High freq. dielectric constant tensor:
#      x y z
#    x 1.799290 0.000000 0.000000 
#    y 0.000000 1.762550 0.000000 
#    z 0.000000 0.000000 1.807740 
# 
# From -- ./inp_files/8664.got.cif
#   From: 2010.03.12/outbox.cif.g09.slc.cpg/sg53_5_cif.got.tgz:8664.got - 2010.04.16 14:36:59.
