data_PCOD8219294
_publ_section_title
;
Structure prediction by ZEFSAII (Michael W. Deem and Ramdas Pophale) SiO2 
 PCOD8219294
Probable space group: P M N A
;
_chemical_formula_sum "Si O2"
_cell_formula_units_Z 64
_cell_length_a 9.075947
_cell_length_b 12.444522
_cell_length_c 29.193091
_cell_angle_alpha 90.000000
_cell_angle_beta 90.000000
_cell_angle_gamma 90.000000
_cell_volume 3297.237663
_symmetry_space_group_name_H-M "P M N A"
_symmetry_group_IT_number 53
_symmetry_cell_setting 'orthorhombic'
loop_
_space_group_symop_operation_xyz
x,y,z
1/2-x,-y,1/2+z
x,-y,-z
1/2-x,y,1/2-z
-x,-y,-z
1/2+x,y,1/2-z
-x,y,z
1/2+x,-y,1/2+z
loop_
_atom_site_type_symbol
_atom_site_label
_atom_site_fract_x
_atom_site_fract_y
_atom_site_fract_z
Si Si1 0.333865 0.016654 0.449915
Si Si2 0.827666 0.474471 0.048837
Si Si3 0.827078 0.046201 0.640899
Si Si4 0.335194 0.247903 0.413892
Si Si5 0.670271 0.184636 0.171321
Si Si6 0.324715 0.747140 0.200129
Si Si7 0.166076 0.626375 0.791064
Si Si8 0.829762 0.563859 0.142809
O O1 0.500000 0.970154 0.449145
O O2 0.249032 0.955283 0.408980
O O3 0.335009 0.144292 0.445555
O O4 0.260329 0.000000 0.500000
O O5 0.794467 0.349677 0.055767
O O6 0.769812 0.550352 0.090640
O O7 0.000000 0.497786 0.046294
O O8 0.751309 0.500000 0.000000
O O9 0.782136 0.940807 0.670537
O O10 0.000000 0.046715 0.631320
O O11 0.777469 0.148162 0.670935
O O12 0.500000 0.261759 0.391071
O O13 0.205308 0.235734 0.377718
O O14 0.500000 0.198609 0.183191
O O15 0.766241 0.253535 0.206543
O O16 0.250000 0.750846 0.250000
O O17 0.500000 0.740641 0.206836
O O18 0.271035 0.644791 0.171270
O O19 0.250000 0.564281 0.750000
O O20 0.183169 0.556816 0.836974
O O21 0.000000 0.639632 0.775640
O O22 0.000000 0.602577 0.145205
#
# Coordination Sequence:
#
# PCOD8219294 Si02
#       8
#     8   8   8   8   8   8   8   8
#     4   9  18  31  53  86 117 150 196 246 290 339
#     4   9  17  31  54  83 112 148 190 233 282 336
#     4   9  21  39  57  81 114 152 193 237 289 350
#     4   9  16  31  51  74 109 148 183 229 284 334
#     4  10  19  34  56  80 107 143 183 226 279 335
#     4  11  24  42  62  84 114 154 198 247 300 354
#     4  11  22  36  55  83 113 143 181 226 277 334
#     4  10  21  38  59  84 114 149 192 236 284 342
#
# _framework density 19.410185999999999
#
# number of rings (size 3 to 8) (size 9 to 14) (size 15 to 20)
#    0.000    2.250    1.250    1.500    0.000    5.250 
#    0.000    3.750    0.000    1.500    0.000    0.000 
#    0.000    0.000    0.000    0.000    0.000    0.000 
#
# Total GULP energy -793182.926420 kJ/mol
# GULP energy per Si atom -12393.483225 kJ/mol
# Density = 1.936601 g / cm^3
# Si number density = 19.410186 Si / 1000 Ang^3
#
#
#
# Elastic Constant Matrix: (Units=GPa)
#
#
# Indices 1 2 3 4 5 6 
#
# 1 70.6247 40.3557 43.9497 0.0000 0.0000 0.0000
# 2 40.3557 101.2553 57.2936 0.0000 0.0000 0.0000
# 3 43.9497 57.2936 147.7421 0.0000 0.0000 0.0000
# 4 0.0000 0.0000 0.0000 27.6632 0.0000 0.0000
# 5 0.0000 0.0000 0.0000 0.0000 26.2605 0.0000
# 6 0.0000 0.0000 0.0000 0.0000 0.0000 23.5946
#
#
#
# Elastic Compliance Matrix: (Units=1/GPa)
#
#
# Indices 1 2 3 4 5 6 
#
# 1 0.019734 -0.005821 -0.003613 0.000000 0.000000 0.000000
# 2 -0.005821 0.014369 -0.003841 0.000000 0.000000 0.000000
# 3 -0.003613 -0.003841 0.009333 0.000000 0.000000 0.000000
# 4 0.000000 0.000000 0.000000 0.036149 0.000000 0.000000
# 5 0.000000 0.000000 0.000000 0.000000 0.038080 0.000000
# 6 0.000000 0.000000 0.000000 0.000000 0.000000 0.042383
#
#
# Mechanical properties :
#
#
# Convention : Reuss Voigt Hill
#
# Bulk Modulus (GPa) = 59.21818 66.98000 63.09909
# Shear Modulus (GPa) = 26.01120 27.37188 26.69154
#
# Velocity S-wave (km/s) = 3.66468 3.75931 3.71230
# Velocity P-wave (km/s) = 6.96287 7.30930 7.13819
#
# Compressibility (1/GPa) = 0.01688671
#
# Stress axis : x y z
#
# Youngs Moduli (GPa) = 50.67475 69.59402 107.14890
#
# Poissons Ratio (x) = 0.40507 0.38714
# Poissons Ratio (y) = 0.29495 0.41154
# Poissons Ratio (z) = 0.18309 0.26730
#
# Static dielectric constant tensor:
#      x y z
#    x 3.425710 0.000000 0.000000 
#    y 0.000000 3.626490 0.000000 
#    z 0.000000 0.000000 3.759130 
# 
# 
# High freq. dielectric constant tensor:
#      x y z
#    x 1.736170 0.000000 0.000000 
#    y 0.000000 1.756570 0.000000 
#    z 0.000000 0.000000 1.761770 
# 
# From -- ./inp_files/38303.got.cif
#   From: 2010.03.12/outbox.cif.g09.slc.cpg/sg53_20_cif.got.tgz:38303.got - 2010.04.16 14:36:59.
