data_PCOD8219018
_publ_section_title
;
Structure prediction by ZEFSAII (Michael W. Deem and Ramdas Pophale) SiO2 
 PCOD8219018
Probable space group: P M N A
;
_chemical_formula_sum "Si O2"
_cell_formula_units_Z 32
_cell_length_a 8.905256
_cell_length_b 9.948037
_cell_length_c 19.830926
_cell_angle_alpha 90.000000
_cell_angle_beta 90.000000
_cell_angle_gamma 90.000000
_cell_volume 1756.818089
_symmetry_space_group_name_H-M "P M N A"
_symmetry_group_IT_number 53
_symmetry_cell_setting 'orthorhombic'
loop_
_space_group_symop_operation_xyz
x,y,z
1/2-x,-y,1/2+z
x,-y,-z
1/2-x,y,1/2-z
-x,-y,-z
1/2+x,y,1/2-z
-x,y,z
1/2+x,-y,1/2+z
loop_
_atom_site_type_symbol
_atom_site_label
_atom_site_fract_x
_atom_site_fract_y
_atom_site_fract_z
Si Si1 0.824751 0.342073 0.178256
Si Si2 0.673229 0.463484 0.925139
Si Si3 0.823136 0.098817 0.086018
Si Si4 0.674379 0.838487 0.053581
O O1 0.750000 0.358669 0.250000
O O2 0.770767 0.459158 0.129126
O O3 0.784139 0.195976 0.148172
O O4 0.000000 0.359617 0.187803
O O5 0.500000 0.506522 0.917288
O O6 0.696503 0.305252 0.911309
O O7 0.730082 0.500000 0.000000
O O8 0.000000 0.083100 0.075271
O O9 0.750129 0.952825 0.100472
O O10 0.752734 0.163129 0.019111
O O11 0.500000 0.871842 0.043266
#
# Coordination Sequence:
#
# PCOD8219018 Si02
#       4
#     8   8   8   8
#     4  11  24  39  58  82 113 153 192 234 287 342
#     4  10  20  36  58  85 116 149 189 235 282 337
#     4  10  20  34  53  81 113 145 183 231 279 330
#     4  10  19  32  56  85 111 144 182 228 280 329
#
# _framework density 18.214749000000001
#
# number of rings (size 3 to 8) (size 9 to 14) (size 15 to 20)
#    0.000    1.750    2.500    3.750    0.000    5.500 
#    0.000    1.250    0.000    3.000    0.000    0.000 
#    0.000    0.000    0.000    0.000    0.000    0.000 
#
# Total GULP energy -396855.454168 kJ/mol
# GULP energy per Si atom -12401.732943 kJ/mol
# Density = 1.817329 g / cm^3
# Si number density = 18.214749 Si / 1000 Ang^3
#
#
#
# Elastic Constant Matrix: (Units=GPa)
#
#
# Indices 1 2 3 4 5 6 
#
# 1 82.3319 71.1075 42.4536 0.0000 0.0000 0.0000
# 2 71.1075 131.6943 69.3256 0.0000 0.0000 0.0000
# 3 42.4536 69.3256 110.9187 0.0000 0.0000 0.0000
# 4 0.0000 0.0000 0.0000 9.8233 0.0000 0.0000
# 5 0.0000 0.0000 0.0000 0.0000 13.4855 0.0000
# 6 0.0000 0.0000 0.0000 0.0000 0.0000 -66.4961
#
#
#
# Elastic Compliance Matrix: (Units=1/GPa)
#
#
# Indices 1 2 3 4 5 6 
#
# 1 0.022936 -0.011570 -0.001548 0.000000 0.000000 0.000000
# 2 -0.011570 0.017153 -0.006292 0.000000 0.000000 0.000000
# 3 -0.001548 -0.006292 0.013541 0.000000 0.000000 0.000000
# 4 0.000000 0.000000 0.000000 0.101799 0.000000 0.000000
# 5 0.000000 0.000000 0.000000 0.000000 0.074154 0.000000
# 6 0.000000 0.000000 0.000000 0.000000 0.000000 -0.015038
#
#
# Mechanical properties :
#
#
# Convention : Reuss Voigt Hill
#
# Bulk Modulus (GPa) = 67.51977 76.74647 72.13312
# Shear Modulus (GPa) = 19.35735 0.83311 10.09523
#
# Velocity S-wave (km/s) = 3.26349 0.67703 2.35677
# Velocity P-wave (km/s) = 7.16587 6.54499 6.86246
#
# Compressibility (1/GPa) = 0.01481048
#
# Stress axis : x y z
#
# Youngs Moduli (GPa) = 43.59910 58.29991 73.85094
#
# Poissons Ratio (x) = 0.67451 0.11429
# Poissons Ratio (y) = 0.50442 0.46470
# Poissons Ratio (z) = 0.06747 0.36685
#
# Static dielectric constant tensor:
#      x y z
#    x 3.469200 0.000000 0.000000 
#    y 0.000000 3.638130 0.000000 
#    z 0.000000 0.000000 3.200760 
# 
# 
# High freq. dielectric constant tensor:
#      x y z
#    x 1.719880 0.000000 0.000000 
#    y 0.000000 1.722880 0.000000 
#    z 0.000000 0.000000 1.674590 
# 
# From -- ./inp_files/19621.got.cif
#   From: 2010.03.12/outbox.cif.g09.slc.cpg/sg53_10_cif.got.tgz:19621.got - 2010.04.16 14:36:59.
