data_PCOD8219342
_publ_section_title
;
Structure prediction by ZEFSAII (Michael W. Deem and Ramdas Pophale) SiO2 
 PCOD8219342
Probable space group: P M N A
;
_chemical_formula_sum "Si O2"
_cell_formula_units_Z 64
_cell_length_a 8.806267
_cell_length_b 20.459838
_cell_length_c 19.276200
_cell_angle_alpha 90.000000
_cell_angle_beta 90.000000
_cell_angle_gamma 90.000000
_cell_volume 3473.085407
_symmetry_space_group_name_H-M "P M N A"
_symmetry_group_IT_number 53
_symmetry_cell_setting 'orthorhombic'
loop_
_space_group_symop_operation_xyz
x,y,z
1/2-x,-y,1/2+z
x,-y,-z
1/2-x,y,1/2-z
-x,-y,-z
1/2+x,y,1/2-z
-x,y,z
1/2+x,-y,1/2+z
loop_
_atom_site_type_symbol
_atom_site_label
_atom_site_fract_x
_atom_site_fract_y
_atom_site_fract_z
Si Si1 0.675347 0.931700 0.961920
Si Si2 0.819951 0.564820 0.040348
Si Si3 0.819828 0.184078 0.953587
Si Si4 0.821218 0.762595 0.322117
Si Si5 0.179717 0.103643 0.177602
Si Si6 0.177986 0.745505 0.820093
Si Si7 0.679078 0.612569 0.177029
Si Si8 0.180363 0.691813 0.961921
O O1 0.500000 0.911030 0.956228
O O2 0.746628 0.937125 0.885108
O O3 0.766708 0.879769 0.006886
O O4 0.695263 0.000000 0.000000
O O5 0.744615 0.566860 0.116172
O O6 0.000000 0.568087 0.050214
O O7 0.769070 0.500000 0.000000
O O8 0.757079 0.624823 0.994138
O O9 0.747016 0.187383 0.877716
O O10 0.000000 0.183204 0.947825
O O11 0.758455 0.247538 0.993883
O O12 0.750000 0.784756 0.250000
O O13 0.774542 0.687627 0.338851
O O14 0.000000 0.770831 0.318666
O O15 0.250000 0.078265 0.250000
O O16 0.224121 0.179423 0.166196
O O17 0.000000 0.092667 0.178331
O O18 0.250000 0.717765 0.750000
O O19 0.239290 0.700892 0.883162
O O20 0.000000 0.739721 0.812240
O O21 0.750000 0.589669 0.250000
O O22 0.500000 0.603672 0.181620
O O23 0.000000 0.692113 0.962340
#
# Coordination Sequence:
#
# PCOD8219342 Si02
#       8
#     8   8   8   8   8   8   8   8
#     4  11  24  40  57  82 117 152 188 232 278 333
#     4  10  20  35  56  81 112 152 190 229 280 335
#     4  11  20  35  59  83 110 145 184 233 282 332
#     4  10  20  34  54  84 115 146 185 233 286 339
#     4  10  19  34  57  84 111 144 185 228 279 334
#     4   9  17  31  50  77 107 138 175 223 273 321
#     4  10  20  34  55  81 110 145 186 233 280 336
#     4   9  17  32  53  78 109 141 181 226 272 327
#
# _framework density 18.427419
#
# number of rings (size 3 to 8) (size 9 to 14) (size 15 to 20)
#    0.000    2.000    2.500    1.875    0.000    2.750 
#    0.000    1.875    0.000    4.500    0.000    0.000 
#    0.000    0.000    0.000    0.000    0.000    0.000 
#
# Total GULP energy -793725.614864 kJ/mol
# GULP energy per Si atom -12401.962732 kJ/mol
# Density = 1.838548 g / cm^3
# Si number density = 18.427419 Si / 1000 Ang^3
#
#
#
# Elastic Constant Matrix: (Units=GPa)
#
#
# Indices 1 2 3 4 5 6 
#
# 1 68.9174 27.9625 52.7736 0.0000 0.0000 0.0000
# 2 27.9625 69.3175 52.2653 0.0000 0.0000 0.0000
# 3 52.7736 52.2653 174.8763 0.0000 0.0000 0.0000
# 4 0.0000 0.0000 0.0000 29.4929 0.0000 0.0000
# 5 0.0000 0.0000 0.0000 0.0000 37.3901 0.0000
# 6 0.0000 0.0000 0.0000 0.0000 0.0000 16.9056
#
#
#
# Elastic Compliance Matrix: (Units=1/GPa)
#
#
# Indices 1 2 3 4 5 6 
#
# 1 0.019911 -0.004520 -0.004658 0.000000 0.000000 0.000000
# 2 -0.004520 0.019649 -0.004509 0.000000 0.000000 0.000000
# 3 -0.004658 -0.004509 0.008471 0.000000 0.000000 0.000000
# 4 0.000000 0.000000 0.000000 0.033906 0.000000 0.000000
# 5 0.000000 0.000000 0.000000 0.000000 0.026745 0.000000
# 6 0.000000 0.000000 0.000000 0.000000 0.000000 0.059152
#
#
# Mechanical properties :
#
#
# Convention : Reuss Voigt Hill
#
# Bulk Modulus (GPa) = 48.40561 64.34601 56.37581
# Shear Modulus (GPa) = 24.74104 28.76503 26.75304
#
# Velocity S-wave (km/s) = 3.66815 3.95522 3.81439
# Velocity P-wave (km/s) = 6.65325 7.47347 7.07526
#
# Compressibility (1/GPa) = 0.02065876
#
# Stress axis : x y z
#
# Youngs Moduli (GPa) = 50.22429 50.89279 118.04480
#
# Poissons Ratio (x) = 0.23004 0.54981
# Poissons Ratio (y) = 0.22702 0.53221
# Poissons Ratio (z) = 0.23393 0.22945
#
# Static dielectric constant tensor:
#      x y z
#    x 3.289200 0.000000 0.000000 
#    y 0.000000 3.229770 0.000000 
#    z 0.000000 0.000000 3.611080 
# 
# 
# High freq. dielectric constant tensor:
#      x y z
#    x 1.711160 0.000000 0.000000 
#    y 0.000000 1.683390 0.000000 
#    z 0.000000 0.000000 1.733400 
# 
# From -- ./inp_files/26849.got.cif
#   From: 2010.03.12/outbox.cif.g09.slc.cpg/sg53_14_cif.got.tgz:26849.got - 2010.04.16 14:36:59.
