data_PCOD8219398
_publ_section_title
;
Structure prediction by ZEFSAII (Michael W. Deem and Ramdas Pophale) SiO2 
 PCOD8219398
Probable space group: P M N A
;
_chemical_formula_sum "Si O2"
_cell_formula_units_Z 56
_cell_length_a 14.248868
_cell_length_b 9.700896
_cell_length_c 20.752929
_cell_angle_alpha 90.000000
_cell_angle_beta 90.000000
_cell_angle_gamma 90.000000
_cell_volume 2868.610688
_symmetry_space_group_name_H-M "P M N A"
_symmetry_group_IT_number 53
_symmetry_cell_setting 'orthorhombic'
loop_
_space_group_symop_operation_xyz
x,y,z
1/2-x,-y,1/2+z
x,-y,-z
1/2-x,y,1/2-z
-x,-y,-z
1/2+x,y,1/2-z
-x,y,z
1/2+x,-y,1/2+z
loop_
_atom_site_type_symbol
_atom_site_label
_atom_site_fract_x
_atom_site_fract_y
_atom_site_fract_z
Si Si1 0.262417 0.883573 0.053110
Si Si2 0.106753 0.341981 0.498443
Si Si3 0.799831 0.968234 0.184591
Si Si4 0.605324 0.355851 0.144300
Si Si5 0.106543 0.250926 0.885312
Si Si6 0.891203 0.750388 0.780141
Si Si7 0.722259 0.483388 0.681358
O O1 0.158342 0.812213 0.051067
O O2 0.273540 0.952209 0.124475
O O3 0.337516 0.761887 0.044375
O O4 0.272794 0.000000 0.000000
O O5 0.144901 0.500000 0.500000
O O6 0.114529 0.283142 0.425233
O O7 0.000000 0.341216 0.523262
O O8 0.750000 0.923807 0.250000
O O9 0.839749 0.121465 0.187895
O O10 0.886517 0.862440 0.172196
O O11 0.500000 0.418686 0.152116
O O12 0.623216 0.246434 0.202256
O O13 0.680064 0.479713 0.146441
O O14 0.163376 0.384903 0.864033
O O15 0.000000 0.288620 0.901816
O O16 0.842301 0.616134 0.808097
O O17 0.000000 0.750468 0.799447
O O18 0.750000 0.415115 0.750000
#
# Coordination Sequence:
#
# PCOD8219398 Si02
#       7
#     8   8   8   8   8   8   8
#     4  10  25  41  63  89 123 166 204 256 314 368
#     4  10  21  41  65  92 127 166 207 252 315 387
#     4  10  22  40  61  88 122 163 205 253 305 373
#     4   9  19  33  60  94 123 158 204 253 306 369
#     4  10  22  40  60  87 121 161 207 255 310 370
#     4  10  20  35  60  93 123 162 210 259 310 365
#     4  10  19  34  61  90 128 159 200 261 309 368
#
# _framework density 19.521646
#
# number of rings (size 3 to 8) (size 9 to 14) (size 15 to 20)
#    0.857    1.286    0.000    3.429    4.000    1.143 
#    0.000    1.429    0.000    1.286    0.000    0.000 
#    0.000    0.000    0.000    0.000    0.000    0.000 
#
# Total GULP energy -693854.387797 kJ/mol
# GULP energy per Si atom -12390.256925 kJ/mol
# Density = 1.947721 g / cm^3
# Si number density = 19.521646 Si / 1000 Ang^3
#
#
#
# Elastic Constant Matrix: (Units=GPa)
#
#
# Indices 1 2 3 4 5 6 
#
# 1 102.6445 49.7784 34.4881 0.0000 0.0000 0.0000
# 2 49.7784 114.3072 45.6878 0.0000 0.0000 0.0000
# 3 34.4881 45.6878 92.8531 0.0000 0.0000 0.0000
# 4 0.0000 0.0000 0.0000 23.6872 0.0000 0.0000
# 5 0.0000 0.0000 0.0000 0.0000 30.0878 0.0000
# 6 0.0000 0.0000 0.0000 0.0000 0.0000 22.9261
#
#
#
# Elastic Compliance Matrix: (Units=1/GPa)
#
#
# Indices 1 2 3 4 5 6 
#
# 1 0.012802 -0.004574 -0.002504 0.000000 0.000000 0.000000
# 2 -0.004574 0.012524 -0.004464 0.000000 0.000000 0.000000
# 3 -0.002504 -0.004464 0.013896 0.000000 0.000000 0.000000
# 4 0.000000 0.000000 0.000000 0.042217 0.000000 0.000000
# 5 0.000000 0.000000 0.000000 0.000000 0.033236 0.000000
# 6 0.000000 0.000000 0.000000 0.000000 0.000000 0.043618
#
#
# Mechanical properties :
#
#
# Convention : Reuss Voigt Hill
#
# Bulk Modulus (GPa) = 61.96362 63.30148 62.63255
# Shear Modulus (GPa) = 26.77269 27.33025 27.05147
#
# Velocity S-wave (km/s) = 3.70731 3.74571 3.72656
# Velocity P-wave (km/s) = 7.08064 7.15569 7.11826
#
# Compressibility (1/GPa) = 0.01613850
#
# Stress axis : x y z
#
# Youngs Moduli (GPa) = 78.11247 79.84469 71.96218
#
# Poissons Ratio (x) = 0.36521 0.18022
# Poissons Ratio (y) = 0.35729 0.32121
# Poissons Ratio (z) = 0.19562 0.35639
#
# Static dielectric constant tensor:
#      x y z
#    x 3.616160 0.000000 0.000000 
#    y 0.000000 3.404260 0.000000 
#    z 0.000000 0.000000 3.544780 
# 
# 
# High freq. dielectric constant tensor:
#      x y z
#    x 1.759390 0.000000 0.000000 
#    y 0.000000 1.753200 0.000000 
#    z 0.000000 0.000000 1.751800 
# 
# From -- ./inp_files/32486.got.cif
#   From: 2010.03.12/outbox.cif.g09.slc.cpg/sg53_17_cif.got.tgz:32486.got - 2010.04.16 14:36:59.
