data_PCOD8219674
_publ_section_title
;
Structure prediction by ZEFSAII (Michael W. Deem and Ramdas Pophale) SiO2 
 PCOD8219674
Probable space group: P M N A
;
_chemical_formula_sum "Si O2"
_cell_formula_units_Z 48
_cell_length_a 15.059410
_cell_length_b 16.636616
_cell_length_c 9.572620
_cell_angle_alpha 90.000000
_cell_angle_beta 90.000000
_cell_angle_gamma 90.000000
_cell_volume 2398.301445
_symmetry_space_group_name_H-M "P M N A"
_symmetry_group_IT_number 53
_symmetry_cell_setting 'orthorhombic'
loop_
_space_group_symop_operation_xyz
x,y,z
1/2-x,-y,1/2+z
x,-y,-z
1/2-x,y,1/2-z
-x,-y,-z
1/2+x,y,1/2-z
-x,y,z
1/2+x,-y,1/2+z
loop_
_atom_site_type_symbol
_atom_site_label
_atom_site_fract_x
_atom_site_fract_y
_atom_site_fract_z
Si Si1 0.894170 0.591280 0.001090
Si Si2 0.730801 0.075275 0.913496
Si Si3 0.899258 0.284790 0.222320
Si Si4 0.149371 0.287013 0.777645
Si Si5 0.902759 0.156048 0.993907
Si Si6 0.898916 0.779150 0.491458
O O1 0.856027 0.641233 0.866596
O O2 0.000000 0.597882 0.002825
O O3 0.860399 0.500000 0.000000
O O4 0.856698 0.627533 0.145365
O O5 0.750000 0.057675 0.750000
O O6 0.825834 0.090983 0.984976
O O7 0.661216 0.147429 0.936113
O O8 0.691010 0.000000 0.000000
O O9 0.854626 0.264260 0.372399
O O10 0.000000 0.310085 0.252550
O O11 0.892131 0.202134 0.138991
O O12 0.250000 0.261001 0.750000
O O13 0.102091 0.219796 0.869554
O O14 0.099623 0.289031 0.628746
O O15 0.000000 0.114268 0.986460
O O16 0.000000 0.808603 0.522665
#
# Coordination Sequence:
#
# PCOD8219674 Si02
#       6
#     8   8   8   8   8   8
#     4   9  18  36  60  87 121 160 200 242 290 351
#     4  12  27  42  58  89 118 153 195 245 305 364
#     4   8  18  33  58  89 112 150 202 236 284 349
#     4  11  19  36  60  87 114 154 203 242 291 353
#     4  10  19  39  63  83 112 154 200 240 283 353
#     4  11  21  39  62  86 118 154 197 248 296 352
#
# _framework density 20.014165999999999
#
# number of rings (size 3 to 8) (size 9 to 14) (size 15 to 20)
#    0.000    1.833    3.333    2.500    2.333    0.667 
#    0.000    2.500    0.000    4.000    0.000    0.000 
#    0.000    0.000    0.000    0.000    0.000    0.000 
#
# Total GULP energy -594886.434760 kJ/mol
# GULP energy per Si atom -12393.467391 kJ/mol
# Density = 1.996861 g / cm^3
# Si number density = 20.014166 Si / 1000 Ang^3
#
#
#
# Elastic Constant Matrix: (Units=GPa)
#
#
# Indices 1 2 3 4 5 6 
#
# 1 70.7329 22.9205 19.9861 0.0000 0.0000 0.0000
# 2 22.9205 98.1689 62.6755 0.0000 0.0000 0.0000
# 3 19.9861 62.6755 177.8132 0.0000 0.0000 0.0000
# 4 0.0000 0.0000 0.0000 19.2017 0.0000 0.0000
# 5 0.0000 0.0000 0.0000 0.0000 21.1285 0.0000
# 6 0.0000 0.0000 0.0000 0.0000 0.0000 12.9802
#
#
#
# Elastic Compliance Matrix: (Units=1/GPa)
#
#
# Indices 1 2 3 4 5 6 
#
# 1 0.015344 -0.003202 -0.000596 0.000000 0.000000 0.000000
# 2 -0.003202 0.013813 -0.004509 0.000000 0.000000 0.000000
# 3 -0.000596 -0.004509 0.007280 0.000000 0.000000 0.000000
# 4 0.000000 0.000000 0.000000 0.052079 0.000000 0.000000
# 5 0.000000 0.000000 0.000000 0.000000 0.047330 0.000000
# 6 0.000000 0.000000 0.000000 0.000000 0.000000 0.077041
#
#
# Mechanical properties :
#
#
# Convention : Reuss Voigt Hill
#
# Bulk Modulus (GPa) = 50.44636 61.98660 56.21648
# Shear Modulus (GPa) = 21.17688 26.73759 23.95723
#
# Velocity S-wave (km/s) = 3.25637 3.65901 3.46354
# Velocity P-wave (km/s) = 6.27683 6.99212 6.64411
#
# Compressibility (1/GPa) = 0.01982304
#
# Stress axis : x y z
#
# Youngs Moduli (GPa) = 65.17351 72.39688 137.36002
#
# Poissons Ratio (x) = 0.23181 0.08187
# Poissons Ratio (y) = 0.20868 0.61933
# Poissons Ratio (z) = 0.03884 0.32642
#
# Static dielectric constant tensor:
#      x y z
#    x 3.647410 0.000000 0.000000 
#    y 0.000000 3.493910 0.000000 
#    z 0.000000 0.000000 4.025710 
# 
# 
# High freq. dielectric constant tensor:
#      x y z
#    x 1.772170 0.000000 0.000000 
#    y 0.000000 1.748790 0.000000 
#    z 0.000000 0.000000 1.797330 
# 
# From -- ./inp_files/8622.got.cif
#   From: 2010.03.12/outbox.cif.g09.slc.cpg/sg53_5_cif.got.tgz:8622.got - 2010.04.16 14:36:59.
