data_PCOD8219543
_publ_section_title
;
Structure prediction by ZEFSAII (Michael W. Deem and Ramdas Pophale) SiO2 
 PCOD8219543
Probable space group: P M N A
;
_chemical_formula_sum "Si O2"
_cell_formula_units_Z 48
_cell_length_a 8.517940
_cell_length_b 9.670412
_cell_length_c 30.775466
_cell_angle_alpha 90.000000
_cell_angle_beta 90.000000
_cell_angle_gamma 90.000000
_cell_volume 2535.036353
_symmetry_space_group_name_H-M "P M N A"
_symmetry_group_IT_number 53
_symmetry_cell_setting 'orthorhombic'
loop_
_space_group_symop_operation_xyz
x,y,z
1/2-x,-y,1/2+z
x,-y,-z
1/2-x,y,1/2-z
-x,-y,-z
1/2+x,y,1/2-z
-x,y,z
1/2+x,-y,1/2+z
loop_
_atom_site_type_symbol
_atom_site_label
_atom_site_fract_x
_atom_site_fract_y
_atom_site_fract_z
Si Si1 0.314700 0.202580 0.894150
Si Si2 0.186084 0.687832 0.702056
Si Si3 0.815736 0.846663 0.011802
Si Si4 0.184903 0.702716 0.567827
Si Si5 0.315416 0.487640 0.630087
Si Si6 0.184948 0.084473 0.361257
O O1 0.500000 0.196380 0.902870
O O2 0.224876 0.193881 0.939469
O O3 0.267943 0.339278 0.868482
O O4 0.256537 0.073428 0.864190
O O5 0.250000 0.672231 0.750000
O O6 0.257505 0.567866 0.672506
O O7 0.240980 0.837130 0.682633
O O8 0.000000 0.672555 0.701677
O O9 0.000000 0.837720 0.003938
O O10 0.732167 0.732684 0.981550
O O11 0.752267 0.000000 0.000000
O O12 0.268356 0.564598 0.585473
O O13 0.246518 0.831188 0.596837
O O14 0.000000 0.679259 0.571875
O O15 0.500000 0.466750 0.631947
O O16 0.000000 0.087858 0.362647
#
# Coordination Sequence:
#
# PCOD8219543 Si02
#       6
#     8   8   8   8   8   8
#     4  11  21  37  58  82 113 155 196 237 283 339
#     4  10  20  39  64  91 114 145 185 229 279 344
#     4  11  22  34  52  83 118 152 193 243 289 336
#     4  10  19  36  58  81 108 151 199 238 279 337
#     4  11  23  39  57  84 118 153 188 237 293 344
#     4   8  17  33  57  83 110 141 184 231 277 329
#
# _framework density 18.934638
#
# number of rings (size 3 to 8) (size 9 to 14) (size 15 to 20)
#    0.000    1.833    1.667    4.500    0.000    1.333 
#    0.000    6.667    0.000    2.000    0.000    0.000 
#    0.000    0.000    0.000    0.000    0.000    0.000 
#
# Total GULP energy -595204.331280 kJ/mol
# GULP energy per Si atom -12400.090235 kJ/mol
# Density = 1.889154 g / cm^3
# Si number density = 18.934638 Si / 1000 Ang^3
#
#
#
# Elastic Constant Matrix: (Units=GPa)
#
#
# Indices 1 2 3 4 5 6 
#
# 1 40.3336 12.1654 4.8927 0.0000 0.0000 0.0000
# 2 12.1654 133.7277 39.0828 0.0000 0.0000 0.0000
# 3 4.8927 39.0828 93.3918 0.0000 0.0000 0.0000
# 4 0.0000 0.0000 0.0000 21.7194 0.0000 0.0000
# 5 0.0000 0.0000 0.0000 0.0000 28.1049 0.0000
# 6 0.0000 0.0000 0.0000 0.0000 0.0000 24.7941
#
#
#
# Elastic Compliance Matrix: (Units=1/GPa)
#
#
# Indices 1 2 3 4 5 6 
#
# 1 0.025507 -0.002199 -0.000416 0.000000 0.000000 0.000000
# 2 -0.002199 0.008709 -0.003530 0.000000 0.000000 0.000000
# 3 -0.000416 -0.003530 0.012206 0.000000 0.000000 0.000000
# 4 0.000000 0.000000 0.000000 0.046042 0.000000 0.000000
# 5 0.000000 0.000000 0.000000 0.000000 0.035581 0.000000
# 6 0.000000 0.000000 0.000000 0.000000 0.000000 0.040332
#
#
# Mechanical properties :
#
#
# Convention : Reuss Voigt Hill
#
# Bulk Modulus (GPa) = 29.29646 42.19277 35.74461
# Shear Modulus (GPa) = 26.03563 29.01116 27.52340
#
# Velocity S-wave (km/s) = 3.71216 3.91855 3.81675
# Velocity P-wave (km/s) = 5.82061 6.54256 6.19212
#
# Compressibility (1/GPa) = 0.03413382
#
# Stress axis : x y z
#
# Youngs Moduli (GPa) = 39.20512 114.81788 81.92404
#
# Poissons Ratio (x) = 0.25246 0.03409
# Poissons Ratio (y) = 0.08620 0.28916
# Poissons Ratio (z) = 0.01631 0.40526
#
# Static dielectric constant tensor:
#      x y z
#    x 3.390720 0.000000 0.000000 
#    y 0.000000 3.772590 0.000000 
#    z 0.000000 0.000000 3.321670 
# 
# 
# High freq. dielectric constant tensor:
#      x y z
#    x 1.735880 0.000000 0.000000 
#    y 0.000000 1.739940 0.000000 
#    z 0.000000 0.000000 1.721540 
# 
# From -- ./inp_files/37766.got.cif
#   From: 2010.03.12/outbox.cif.g09.slc.cpg/sg53_19_cif.got.tgz:37766.got - 2010.04.16 14:36:59.
