data_PCOD8219560
_publ_section_title
;
Structure prediction by ZEFSAII (Michael W. Deem and Ramdas Pophale) SiO2 
 PCOD8219560
Probable space group: P M N A
;
_chemical_formula_sum "Si O2"
_cell_formula_units_Z 64
_cell_length_a 8.781719
_cell_length_b 20.214744
_cell_length_c 19.246101
_cell_angle_alpha 90.000000
_cell_angle_beta 90.000000
_cell_angle_gamma 90.000000
_cell_volume 3416.571727
_symmetry_space_group_name_H-M "P M N A"
_symmetry_group_IT_number 53
_symmetry_cell_setting 'orthorhombic'
loop_
_space_group_symop_operation_xyz
x,y,z
1/2-x,-y,1/2+z
x,-y,-z
1/2-x,y,1/2-z
-x,-y,-z
1/2+x,y,1/2-z
-x,y,z
1/2+x,-y,1/2+z
loop_
_atom_site_type_symbol
_atom_site_label
_atom_site_fract_x
_atom_site_fract_y
_atom_site_fract_z
Si Si1 0.181022 0.641819 0.677535
Si Si2 0.820980 0.686740 0.961299
Si Si3 0.821271 0.490961 0.679660
Si Si4 0.821301 0.987600 0.821501
Si Si5 0.680151 0.809298 0.040526
Si Si6 0.680214 0.139087 0.677281
Si Si7 0.172675 0.430647 0.538103
Si Si8 0.178918 0.062020 0.455261
O O1 0.250000 0.668256 0.750000
O O2 0.248800 0.685654 0.615456
O O3 0.234554 0.565988 0.665553
O O4 0.000000 0.649260 0.678256
O O5 0.000000 0.697836 0.955120
O O6 0.745577 0.744917 0.004553
O O7 0.788209 0.618912 0.001780
O O8 0.750000 0.462018 0.750000
O O9 0.772748 0.442612 0.617202
O O10 0.000000 0.492156 0.688461
O O11 0.750000 0.961976 0.750000
O O12 0.762052 0.939406 0.881467
O O13 0.000000 0.981763 0.815375
O O14 0.770197 0.063139 0.836503
O O15 0.500000 0.803824 0.048023
O O16 0.751699 0.815478 0.116830
O O17 0.728885 0.871797 0.994291
O O18 0.750000 0.163813 0.750000
O O19 0.500000 0.147261 0.679767
O O20 0.177394 0.500000 0.500000
O O21 0.000000 0.402175 0.534936
O O22 0.000000 0.058301 0.442211
O O23 0.236661 0.000000 0.500000
#
# Coordination Sequence:
#
# PCOD8219560 Si02
#       8
#     8   8   8   8   8   8   8   8
#     4  10  19  36  59  86 116 151 192 235 287 344
#     4  12  25  39  57  86 120 155 196 243 289 346
#     4   9  18  32  55  84 115 148 185 234 286 341
#     4  10  20  33  55  85 119 153 189 236 289 343
#     4  11  23  40  61  84 116 157 195 241 293 347
#     4  10  20  35  57  86 117 151 192 237 285 345
#     4  10  19  37  60  83 113 151 192 236 289 344
#     4  10  20  36  59  86 114 145 189 238 288 343
#
# _framework density 18.732229
#
# number of rings (size 3 to 8) (size 9 to 14) (size 15 to 20)
#    0.000    1.750    2.500    2.625    0.000    3.500 
#    0.000    1.250    0.000    4.500    0.000    0.000 
#    0.000    0.000    0.000    0.000    0.000    0.000 
#
# Total GULP energy -793842.757793 kJ/mol
# GULP energy per Si atom -12403.793091 kJ/mol
# Density = 1.868959 g / cm^3
# Si number density = 18.732229 Si / 1000 Ang^3
#
#
#
# Elastic Constant Matrix: (Units=GPa)
#
#
# Indices 1 2 3 4 5 6 
#
# 1 62.3205 24.5112 52.3387 0.0000 0.0000 0.0000
# 2 24.5112 63.6694 49.9045 0.0000 0.0000 0.0000
# 3 52.3387 49.9045 172.9267 0.0000 0.0000 0.0000
# 4 0.0000 0.0000 0.0000 580.1895 0.0000 0.0000
# 5 0.0000 0.0000 0.0000 0.0000 37.8318 0.0000
# 6 0.0000 0.0000 0.0000 0.0000 0.0000 1.1607
#
#
#
# Elastic Compliance Matrix: (Units=1/GPa)
#
#
# Indices 1 2 3 4 5 6 
#
# 1 0.022380 -0.004273 -0.005540 0.000000 0.000000 0.000000
# 2 -0.004273 0.021113 -0.004800 0.000000 0.000000 0.000000
# 3 -0.005540 -0.004800 0.008845 0.000000 0.000000 0.000000
# 4 0.000000 0.000000 0.000000 0.001724 0.000000 0.000000
# 5 0.000000 0.000000 0.000000 0.000000 0.026433 0.000000
# 6 0.000000 0.000000 0.000000 0.000000 0.000000 0.861586
#
#
# Mechanical properties :
#
#
# Convention : Reuss Voigt Hill
#
# Bulk Modulus (GPa) = 43.26870 61.38061 52.32465
# Shear Modulus (GPa) = 5.10720 135.31389 70.21054
#
# Velocity S-wave (km/s) = 1.65298 8.50839 6.12883
# Velocity P-wave (km/s) = 5.17608 11.37375 8.83612
#
# Compressibility (1/GPa) = 0.02311140
#
# Stress axis : x y z
#
# Youngs Moduli (GPa) = 44.68332 47.36373 113.06077
#
# Poissons Ratio (x) = 0.20239 0.62640
# Poissons Ratio (y) = 0.19094 0.54266
# Poissons Ratio (z) = 0.24756 0.22733
#
# Static dielectric constant tensor:
#      x y z
#    x 3.407010 0.000000 0.000000 
#    y 0.000000 6.613740 0.000000 
#    z 0.000000 0.000000 5.228990 
# 
# 
# High freq. dielectric constant tensor:
#      x y z
#    x 1.731180 0.000000 0.000000 
#    y 0.000000 1.696660 0.000000 
#    z 0.000000 0.000000 1.745990 
# 
# From -- ./inp_files/26769.got.cif
#   From: 2010.03.12/outbox.cif.g09.slc.cpg/sg53_14_cif.got.tgz:26769.got - 2010.04.16 14:36:59.
