data_PCOD8219587
_publ_section_title
;
Structure prediction by ZEFSAII (Michael W. Deem and Ramdas Pophale) SiO2 
 PCOD8219587
Probable space group: P M N A
;
_chemical_formula_sum "Si O2"
_cell_formula_units_Z 60
_cell_length_a 16.274692
_cell_length_b 13.221942
_cell_length_c 11.996720
_cell_angle_alpha 90.000000
_cell_angle_beta 90.000000
_cell_angle_gamma 90.000000
_cell_volume 2581.490604
_symmetry_space_group_name_H-M "P M N A"
_symmetry_group_IT_number 53
_symmetry_cell_setting 'orthorhombic'
loop_
_space_group_symop_operation_xyz
x,y,z
1/2-x,-y,1/2+z
x,-y,-z
1/2-x,y,1/2-z
-x,-y,-z
1/2+x,y,1/2-z
-x,y,z
1/2+x,-y,1/2+z
loop_
_atom_site_type_symbol
_atom_site_label
_atom_site_fract_x
_atom_site_fract_y
_atom_site_fract_z
Si Si1 0.593446 0.670287 0.608856
Si Si2 0.701549 0.375060 0.853230
Si Si3 0.406972 0.270055 0.012215
Si Si4 0.093173 0.984514 0.183384
Si Si5 0.192864 0.885898 0.652065
Si Si6 0.681023 0.500000 0.500000
Si Si7 0.844482 0.131924 0.015942
Si Si8 0.909096 0.435774 0.321142
O O1 0.500000 0.692694 0.573156
O O2 0.619966 0.555808 0.583413
O O3 0.651541 0.749118 0.543448
O O4 0.605523 0.664146 0.742405
O O5 0.750000 0.326358 0.750000
O O6 0.652710 0.472132 0.806177
O O7 0.646845 0.281326 0.899722
O O8 0.764495 0.412830 0.945706
O O9 0.500000 0.238235 0.982514
O O10 0.373628 0.190315 0.101885
O O11 0.402970 0.385828 0.056863
O O12 0.145785 0.016214 0.293946
O O13 0.000000 0.956247 0.219188
O O14 0.135793 0.891678 0.114214
O O15 0.088963 0.078920 0.097538
O O16 0.250000 0.836304 0.750000
O O17 0.254966 0.913805 0.550570
O O18 0.000000 0.479962 0.299255
#
# Coordination Sequence:
#
# PCOD8219587 Si02
#       8
#     8   8   8   8   8   4   8   8
#     4  11  22  37  58  91 131 178 229 279 331 400
#     4  12  23  37  56  83 124 182 233 285 335 384
#     4  11  22  38  62  95 133 176 226 285 343 409
#     4  10  19  36  63 100 138 174 209 272 351 418
#     4  10  21  36  63 103 136 168 215 278 343 414
#     4  12  23  38  59  84 126 182 234 280 337 384
#     4  10  20  35  61  97 136 171 220 280 342 407
#     4  10  20  34  55  83 121 170 225 276 331 391
#
# _framework density 23.242386
#
# number of rings (size 3 to 8) (size 9 to 14) (size 15 to 20)
#    0.000    1.333    2.667    5.000    0.000    2.667 
#    0.000    0.000    0.000   19.200    0.000   75.600 
#    0.000    0.000    0.000    0.000    0.000    0.000 
#
# Total GULP energy -743426.801093 kJ/mol
# GULP energy per Si atom -12390.446685 kJ/mol
# Density = 2.318949 g / cm^3
# Si number density = 23.242386 Si / 1000 Ang^3
#
#
#
# Elastic Constant Matrix: (Units=GPa)
#
#
# Indices 1 2 3 4 5 6 
#
# 1 130.2873 29.0774 65.4949 0.0000 0.0000 0.0000
# 2 29.0774 57.3605 27.6098 0.0000 0.0000 0.0000
# 3 65.4949 27.6098 90.4802 0.0000 0.0000 0.0000
# 4 0.0000 0.0000 0.0000 37.0653 0.0000 0.0000
# 5 0.0000 0.0000 0.0000 0.0000 30.5203 0.0000
# 6 0.0000 0.0000 0.0000 0.0000 0.0000 19.1714
#
#
#
# Elastic Compliance Matrix: (Units=1/GPa)
#
#
# Indices 1 2 3 4 5 6 
#
# 1 0.012317 -0.002288 -0.008217 0.000000 0.000000 0.000000
# 2 -0.002288 0.020860 -0.004709 0.000000 0.000000 0.000000
# 3 -0.008217 -0.004709 0.018437 0.000000 0.000000 0.000000
# 4 0.000000 0.000000 0.000000 0.026979 0.000000 0.000000
# 5 0.000000 0.000000 0.000000 0.000000 0.032765 0.000000
# 6 0.000000 0.000000 0.000000 0.000000 0.000000 0.052161
#
#
# Mechanical properties :
#
#
# Convention : Reuss Voigt Hill
#
# Bulk Modulus (GPa) = 47.20336 58.05467 52.62902
# Shear Modulus (GPa) = 24.87423 27.74779 26.31101
#
# Velocity S-wave (km/s) = 3.27495 3.45895 3.36821
# Velocity P-wave (km/s) = 5.88674 6.40192 6.14973
#
# Compressibility (1/GPa) = 0.02118493
#
# Stress axis : x y z
#
# Youngs Moduli (GPa) = 81.18904 47.93810 54.23775
#
# Poissons Ratio (x) = 0.10970 0.44570
# Poissons Ratio (y) = 0.18579 0.25540
# Poissons Ratio (z) = 0.66717 0.22574
#
# Static dielectric constant tensor:
#      x y z
#    x 4.252410 0.000000 0.000000 
#    y 0.000000 3.710340 0.000000 
#    z 0.000000 0.000000 4.115090 
# 
# 
# High freq. dielectric constant tensor:
#      x y z
#    x 1.928820 0.000000 0.000000 
#    y 0.000000 1.885090 0.000000 
#    z 0.000000 0.000000 1.908810 
# 
# From -- ./inp_files/17050.got.cif
#   From: 2010.03.12/outbox.cif.g09.slc.cpg/sg53_9_cif.got.tgz:17050.got - 2010.04.16 14:36:59.
