data_PCOD8219144
_publ_section_title
;
Structure prediction by ZEFSAII (Michael W. Deem and Ramdas Pophale) SiO2 
 PCOD8219144
Probable space group: P M N A
;
_chemical_formula_sum "Si O2"
_cell_formula_units_Z 64
_cell_length_a 9.121227
_cell_length_b 20.477381
_cell_length_c 17.781740
_cell_angle_alpha 90.000000
_cell_angle_beta 90.000000
_cell_angle_gamma 90.000000
_cell_volume 3321.252779
_symmetry_space_group_name_H-M "P M N A"
_symmetry_group_IT_number 53
_symmetry_cell_setting 'orthorhombic'
loop_
_space_group_symop_operation_xyz
x,y,z
1/2-x,-y,1/2+z
x,-y,-z
1/2-x,y,1/2-z
-x,-y,-z
1/2+x,y,1/2-z
-x,y,z
1/2+x,-y,1/2+z
loop_
_atom_site_type_symbol
_atom_site_label
_atom_site_fract_x
_atom_site_fract_y
_atom_site_fract_z
Si Si1 0.828438 0.849391 0.329690
Si Si2 0.831161 0.375359 0.172509
Si Si3 0.328997 0.612324 0.172165
Si Si4 0.830656 0.754586 0.914048
Si Si5 0.672434 0.867579 0.830699
Si Si6 0.171805 0.483356 0.415271
Si Si7 0.332816 0.009312 0.826421
Si Si8 0.827370 0.731876 0.433581
O O1 0.750000 0.839914 0.250000
O O2 0.773167 0.795913 0.388714
O O3 0.000000 0.839507 0.314698
O O4 0.793173 0.921539 0.366682
O O5 0.750000 0.389170 0.250000
O O6 0.813559 0.299927 0.150213
O O7 0.761100 0.419536 0.107734
O O8 0.000000 0.394868 0.182536
O O9 0.250000 0.625690 0.250000
O O10 0.500000 0.614373 0.188519
O O11 0.281264 0.542969 0.138253
O O12 0.284627 0.668414 0.113896
O O13 0.741509 0.818222 0.889750
O O14 0.000000 0.772929 0.926533
O O15 0.762919 0.726808 0.990196
O O16 0.750000 0.860678 0.750000
O O17 0.500000 0.852715 0.820367
O O18 0.698265 0.940206 0.868229
O O19 0.216071 0.500000 0.500000
O O20 0.000000 0.467908 0.409161
O O21 0.250000 0.006022 0.750000
O O22 0.500000 0.011981 0.802788
O O23 0.000000 0.734498 0.451832
#
# Coordination Sequence:
#
# PCOD8219144 Si02
#       8
#     8   8   8   8   8   8   8   8
#     4   9  17  31  53  80 108 140 179 221 266 317
#     4  11  24  40  59  83 109 140 180 225 270 318
#     4  10  21  36  56  83 111 142 181 222 265 314
#     4  11  24  39  55  78 107 140 180 225 273 323
#     4  10  19  33  55  80 107 140 177 220 268 319
#     4  10  21  38  60  85 115 149 181 217 263 314
#     4   8  15  28  48  76 106 136 174 218 263 313
#     4  10  21  37  56  78 107 144 182 220 267 321
#
# _framework density 19.269836999999999
#
# number of rings (size 3 to 8) (size 9 to 14) (size 15 to 20)
#    0.000    2.125    0.000    3.000    0.000    7.250 
#    0.000    0.625    0.000    3.750    0.000    0.000 
#    0.000    0.000    0.000    0.000    0.000    0.000 
#
# Total GULP energy -793388.009537 kJ/mol
# GULP energy per Si atom -12396.687649 kJ/mol
# Density = 1.922598 g / cm^3
# Si number density = 19.269837 Si / 1000 Ang^3
#
#
#
# Elastic Constant Matrix: (Units=GPa)
#
#
# Indices 1 2 3 4 5 6 
#
# 1 71.4597 33.4764 32.7383 0.0000 0.0000 0.0000
# 2 33.4764 89.9927 11.4460 0.0000 0.0000 0.0000
# 3 32.7383 11.4460 72.7262 0.0000 0.0000 0.0000
# 4 0.0000 0.0000 0.0000 20.3815 0.0000 0.0000
# 5 0.0000 0.0000 0.0000 0.0000 31.7531 0.0000
# 6 0.0000 0.0000 0.0000 0.0000 0.0000 24.1865
#
#
#
# Elastic Compliance Matrix: (Units=1/GPa)
#
#
# Indices 1 2 3 4 5 6 
#
# 1 0.020997 -0.006743 -0.008391 0.000000 0.000000 0.000000
# 2 -0.006743 0.013505 0.000910 0.000000 0.000000 0.000000
# 3 -0.008391 0.000910 0.017384 0.000000 0.000000 0.000000
# 4 0.000000 0.000000 0.000000 0.049064 0.000000 0.000000
# 5 0.000000 0.000000 0.000000 0.000000 0.031493 0.000000
# 6 0.000000 0.000000 0.000000 0.000000 0.000000 0.041345
#
#
# Mechanical properties :
#
#
# Convention : Reuss Voigt Hill
#
# Bulk Modulus (GPa) = 42.66585 43.27777 42.97181
# Shear Modulus (GPa) = 23.80397 25.69875 24.75136
#
# Velocity S-wave (km/s) = 3.51849 3.65585 3.58783
# Velocity P-wave (km/s) = 6.22059 6.35042 6.28584
#
# Compressibility (1/GPa) = 0.02343795
#
# Stress axis : x y z
#
# Youngs Moduli (GPa) = 47.62565 74.04797 57.52382
#
# Poissons Ratio (x) = 0.49934 0.48266
# Poissons Ratio (y) = 0.32116 -0.05236
# Poissons Ratio (z) = 0.39961 -0.06740
#
# Static dielectric constant tensor:
#      x y z
#    x 3.500210 0.000000 0.000000 
#    y 0.000000 4.095820 0.000000 
#    z 0.000000 0.000000 3.250810 
# 
# 
# High freq. dielectric constant tensor:
#      x y z
#    x 1.749680 0.000000 0.000000 
#    y 0.000000 1.774460 0.000000 
#    z 0.000000 0.000000 1.730280 
# 
# From -- ./inp_files/26787.got.cif
#   From: 2010.03.12/outbox.cif.g09.slc.cpg/sg53_14_cif.got.tgz:26787.got - 2010.04.16 14:36:59.
