data_PCOD8219672
_publ_section_title
;
Structure prediction by ZEFSAII (Michael W. Deem and Ramdas Pophale) SiO2 
 PCOD8219672
Probable space group: P M N A
;
_chemical_formula_sum "Si O2"
_cell_formula_units_Z 48
_cell_length_a 8.509671
_cell_length_b 15.042206
_cell_length_c 18.913216
_cell_angle_alpha 90.000000
_cell_angle_beta 90.000000
_cell_angle_gamma 90.000000
_cell_volume 2420.971541
_symmetry_space_group_name_H-M "P M N A"
_symmetry_group_IT_number 53
_symmetry_cell_setting 'orthorhombic'
loop_
_space_group_symop_operation_xyz
x,y,z
1/2-x,-y,1/2+z
x,-y,-z
1/2-x,y,1/2-z
-x,-y,-z
1/2+x,y,1/2-z
-x,y,z
1/2+x,-y,1/2+z
loop_
_atom_site_type_symbol
_atom_site_label
_atom_site_fract_x
_atom_site_fract_y
_atom_site_fract_z
Si Si1 0.314988 0.282492 0.419613
Si Si2 0.816832 0.869962 0.673282
Si Si3 0.184122 0.474097 0.421917
Si Si4 0.186549 0.219891 0.928360
Si Si5 0.315189 0.374039 0.671990
Si Si6 0.180562 0.978444 0.081905
O O1 0.500000 0.301261 0.422198
O O2 0.276855 0.213660 0.357811
O O3 0.224787 0.373251 0.403572
O O4 0.250271 0.243163 0.493509
O O5 0.750000 0.890944 0.750000
O O6 0.000000 0.847121 0.676305
O O7 0.791283 0.957208 0.626173
O O8 0.246413 0.500000 0.500000
O O9 0.269544 0.533813 0.364012
O O10 0.000000 0.490881 0.415902
O O11 0.254758 0.291676 0.873208
O O12 0.241958 0.121909 0.905076
O O13 0.000000 0.222035 0.931295
O O14 0.250000 0.368774 0.750000
O O15 0.500000 0.366446 0.675374
O O16 0.000000 0.990954 0.106412
O O17 0.196525 0.000000 0.000000
#
# Coordination Sequence:
#
# PCOD8219672 Si02
#       6
#     8   8   8   8   8   8
#     4  11  21  40  67  94 122 163 209 254 308 372
#     4  12  26  43  62  92 129 166 207 259 316 370
#     4  11  23  39  62  95 128 161 204 257 309 367
#     4   9  19  36  63  93 123 161 206 249 304 367
#     4  11  23  41  62  90 126 166 208 255 311 368
#     4  10  19  38  66  94 125 164 207 253 306 370
#
# _framework density 19.826751000000002
#
# number of rings (size 3 to 8) (size 9 to 14) (size 15 to 20)
#    0.000    1.333    3.333    3.000    0.000    2.333 
#    0.000    6.667    0.000    0.000    0.000    0.000 
#    0.000    0.000    0.000    0.000    0.000    0.000 
#
# Total GULP energy -595446.159711 kJ/mol
# GULP energy per Si atom -12405.128327 kJ/mol
# Density = 1.978162 g / cm^3
# Si number density = 19.826751 Si / 1000 Ang^3
#
#
#
# Elastic Constant Matrix: (Units=GPa)
#
#
# Indices 1 2 3 4 5 6 
#
# 1 51.0684 7.0882 23.4987 0.0000 0.0000 0.0000
# 2 7.0882 138.4494 38.6048 0.0000 0.0000 0.0000
# 3 23.4987 38.6048 97.0587 0.0000 0.0000 0.0000
# 4 0.0000 0.0000 0.0000 31.3067 0.0000 0.0000
# 5 0.0000 0.0000 0.0000 0.0000 14.7969 0.0000
# 6 0.0000 0.0000 0.0000 0.0000 0.0000 29.8786
#
#
#
# Elastic Compliance Matrix: (Units=1/GPa)
#
#
# Indices 1 2 3 4 5 6 
#
# 1 0.022057 0.000405 -0.005501 0.000000 0.000000 0.000000
# 2 0.000405 0.008131 -0.003332 0.000000 0.000000 0.000000
# 3 -0.005501 -0.003332 0.012960 0.000000 0.000000 0.000000
# 4 0.000000 0.000000 0.000000 0.031942 0.000000 0.000000
# 5 0.000000 0.000000 0.000000 0.000000 0.067582 0.000000
# 6 0.000000 0.000000 0.000000 0.000000 0.000000 0.033469
#
#
# Mechanical properties :
#
#
# Convention : Reuss Voigt Hill
#
# Bulk Modulus (GPa) = 38.03570 47.21777 42.62673
# Shear Modulus (GPa) = 24.78175 29.68877 27.23526
#
# Velocity S-wave (km/s) = 3.53925 3.87384 3.71032
# Velocity P-wave (km/s) = 5.99395 6.62387 6.31677
#
# Compressibility (1/GPa) = 0.02629109
#
# Stress axis : x y z
#
# Youngs Moduli (GPa) = 45.33777 122.98210 77.15904
#
# Poissons Ratio (x) = -0.04977 0.42445
# Poissons Ratio (y) = -0.01835 0.25711
# Poissons Ratio (z) = 0.24940 0.40980
#
# Static dielectric constant tensor:
#      x y z
#    x 3.446300 0.000000 0.000000 
#    y 0.000000 3.876180 0.000000 
#    z 0.000000 0.000000 3.715060 
# 
# 
# High freq. dielectric constant tensor:
#      x y z
#    x 1.761330 0.000000 0.000000 
#    y 0.000000 1.790030 0.000000 
#    z 0.000000 0.000000 1.772870 
# 
# From -- ./inp_files/26207.got.cif
#   From: 2010.03.12/outbox.cif.g09.slc.cpg/sg53_14_cif.got.tgz:26207.got - 2010.04.16 14:36:59.
