data_PCOD8219569
_publ_section_title
;
Structure prediction by ZEFSAII (Michael W. Deem and Ramdas Pophale) SiO2 
 PCOD8219569
Probable space group: P M N A
;
_chemical_formula_sum "Si O2"
_cell_formula_units_Z 64
_cell_length_a 8.504621
_cell_length_b 21.581175
_cell_length_c 17.795563
_cell_angle_alpha 90.000000
_cell_angle_beta 90.000000
_cell_angle_gamma 90.000000
_cell_volume 3266.192545
_symmetry_space_group_name_H-M "P M N A"
_symmetry_group_IT_number 53
_symmetry_cell_setting 'orthorhombic'
loop_
_space_group_symop_operation_xyz
x,y,z
1/2-x,-y,1/2+z
x,-y,-z
1/2-x,y,1/2-z
-x,-y,-z
1/2+x,y,1/2-z
-x,y,z
1/2+x,-y,1/2+z
loop_
_atom_site_type_symbol
_atom_site_label
_atom_site_fract_x
_atom_site_fract_y
_atom_site_fract_z
Si Si1 0.685814 0.689146 0.455191
Si Si2 0.815731 0.107917 0.575700
Si Si3 0.315501 0.220797 0.667362
Si Si4 0.814763 0.371163 0.327414
Si Si5 0.685501 0.249831 0.392437
Si Si6 0.816239 0.119418 0.402962
Si Si7 0.815544 0.000918 0.168186
Si Si8 0.686489 0.566404 0.528609
O O1 0.500000 0.692433 0.453752
O O2 0.754001 0.720126 0.379246
O O3 0.745609 0.729926 0.525122
O O4 0.738782 0.617716 0.466378
O O5 0.726149 0.157528 0.626132
O O6 0.761174 0.113524 0.489437
O O7 0.000000 0.119502 0.583474
O O8 0.770844 0.040198 0.605379
O O9 0.250000 0.222629 0.750000
O O10 0.500000 0.225724 0.672938
O O11 0.750000 0.400209 0.250000
O O12 0.731956 0.304380 0.335760
O O13 0.768610 0.418961 0.392750
O O14 0.000000 0.362393 0.325510
O O15 0.500000 0.238267 0.389259
O O16 0.776126 0.187228 0.370993
O O17 0.719672 0.071926 0.351700
O O18 0.000000 0.105376 0.394029
O O19 0.750000 0.983728 0.250000
O O20 0.000000 0.987649 0.166856
O O21 0.745431 0.500000 0.500000
O O22 0.500000 0.568002 0.541413
#
# Coordination Sequence:
#
# PCOD8219569 Si02
#       8
#     8   8   8   8   8   8   8   8
#     4   8  16  32  55  81 112 148 187 230 278 339
#     4  11  23  40  61  85 114 147 189 237 289 347
#     4  11  21  35  55  82 114 149 191 237 290 344
#     4  11  22  37  58  87 122 158 200 246 296 346
#     4  10  19  36  60  86 114 149 192 235 289 348
#     4  11  23  39  61  89 118 148 188 237 291 349
#     4  12  26  43  61  81 111 150 193 239 293 347
#     4   9  18  36  62  89 118 158 201 242 293 349
#
# _framework density 19.594681000000001
#
# number of rings (size 3 to 8) (size 9 to 14) (size 15 to 20)
#    0.000    1.625    1.250    5.250    0.000    3.750 
#    0.000    3.750    0.000    1.500    0.000    0.000 
#    0.000    0.000    0.000    0.000    0.000    0.000 
#
# Total GULP energy -793745.060501 kJ/mol
# GULP energy per Si atom -12402.266570 kJ/mol
# Density = 1.955008 g / cm^3
# Si number density = 19.594681 Si / 1000 Ang^3
#
#
#
# Elastic Constant Matrix: (Units=GPa)
#
#
# Indices 1 2 3 4 5 6 
#
# 1 60.3237 7.3983 23.6970 0.0000 0.0000 0.0000
# 2 7.3983 108.2857 23.5981 0.0000 0.0000 0.0000
# 3 23.6970 23.5981 82.5433 0.0000 0.0000 0.0000
# 4 0.0000 0.0000 0.0000 22.7822 0.0000 0.0000
# 5 0.0000 0.0000 0.0000 0.0000 22.9766 0.0000
# 6 0.0000 0.0000 0.0000 0.0000 0.0000 24.7430
#
#
#
# Elastic Compliance Matrix: (Units=1/GPa)
#
#
# Indices 1 2 3 4 5 6 
#
# 1 0.018686 -0.000115 -0.005332 0.000000 0.000000 0.000000
# 2 -0.000115 0.009849 -0.002783 0.000000 0.000000 0.000000
# 3 -0.005332 -0.002783 0.014441 0.000000 0.000000 0.000000
# 4 0.000000 0.000000 0.000000 0.043894 0.000000 0.000000
# 5 0.000000 0.000000 0.000000 0.000000 0.043523 0.000000
# 6 0.000000 0.000000 0.000000 0.000000 0.000000 0.040415
#
#
# Mechanical properties :
#
#
# Convention : Reuss Voigt Hill
#
# Bulk Modulus (GPa) = 37.71084 40.05995 38.88539
# Shear Modulus (GPa) = 25.49649 27.19763 26.34706
#
# Velocity S-wave (km/s) = 3.61112 3.72964 3.67086
# Velocity P-wave (km/s) = 6.05592 6.24785 6.15263
#
# Compressibility (1/GPa) = 0.02651758
#
# Stress axis : x y z
#
# Youngs Moduli (GPa) = 53.51676 101.53200 69.24710
#
# Poissons Ratio (x) = 0.01165 0.36920
# Poissons Ratio (y) = 0.00614 0.19270
# Poissons Ratio (z) = 0.28533 0.28254
#
# Static dielectric constant tensor:
#      x y z
#    x 3.474700 0.000000 0.000000 
#    y 0.000000 3.675320 0.000000 
#    z 0.000000 0.000000 3.723070 
# 
# 
# High freq. dielectric constant tensor:
#      x y z
#    x 1.760500 0.000000 0.000000 
#    y 0.000000 1.761840 0.000000 
#    z 0.000000 0.000000 1.763600 
# 
# From -- ./inp_files/26826.got.cif
#   From: 2010.03.12/outbox.cif.g09.slc.cpg/sg53_14_cif.got.tgz:26826.got - 2010.04.16 14:36:59.
