data_PCOD8219638
_publ_section_title
;
Structure prediction by ZEFSAII (Michael W. Deem and Ramdas Pophale) SiO2 
 PCOD8219638
Probable space group: P M N A
;
_chemical_formula_sum "Si O2"
_cell_formula_units_Z 64
_cell_length_a 8.989373
_cell_length_b 14.786996
_cell_length_c 24.851134
_cell_angle_alpha 90.000000
_cell_angle_beta 90.000000
_cell_angle_gamma 90.000000
_cell_volume 3303.357429
_symmetry_space_group_name_H-M "P M N A"
_symmetry_group_IT_number 53
_symmetry_cell_setting 'orthorhombic'
loop_
_space_group_symop_operation_xyz
x,y,z
1/2-x,-y,1/2+z
x,-y,-z
1/2-x,y,1/2-z
-x,-y,-z
1/2+x,y,1/2-z
-x,y,z
1/2+x,-y,1/2+z
loop_
_atom_site_type_symbol
_atom_site_label
_atom_site_fract_x
_atom_site_fract_y
_atom_site_fract_z
Si Si1 0.822099 0.204873 0.695053
Si Si2 0.167932 0.658340 0.393872
Si Si3 0.823921 0.819847 0.803966
Si Si4 0.322303 0.522511 0.939611
Si Si5 0.324523 0.290727 0.408545
Si Si6 0.332567 0.062495 0.548106
Si Si7 0.666977 0.777968 0.008095
Si Si8 0.169629 0.019157 0.832946
O O1 0.750000 0.241623 0.750000
O O2 0.755561 0.271796 0.648255
O O3 0.000000 0.205554 0.697929
O O4 0.771476 0.101477 0.686408
O O5 0.232623 0.556398 0.397772
O O6 0.174161 0.687878 0.456366
O O7 0.000000 0.653609 0.373335
O O8 0.750000 0.780096 0.750000
O O9 0.771788 0.757005 0.853462
O O10 0.770129 0.923920 0.810468
O O11 0.000000 0.816819 0.798974
O O12 0.500000 0.531371 0.939858
O O13 0.254795 0.613658 0.915788
O O14 0.265006 0.500000 0.000000
O O15 0.500000 0.304423 0.409935
O O16 0.276462 0.225680 0.457410
O O17 0.500000 0.098082 0.538143
O O18 0.219026 0.145397 0.549708
O O19 0.278129 0.000000 0.500000
O O20 0.321730 0.007359 0.602989
O O21 0.500000 0.796050 0.987527
O O22 0.000000 0.038469 0.814509
#
# Coordination Sequence:
#
# PCOD8219638 Si02
#       8
#     8   8   8   8   8   8   8   8
#     4  11  22  38  58  83 116 153 195 241 286 338
#     4   9  19  36  57  82 116 149 182 233 289 335
#     4  10  23  42  61  82 115 154 197 243 288 339
#     4  10  19  37  63  88 116 152 191 232 284 349
#     4  11  23  39  59  89 122 152 189 240 297 351
#     4  10  20  34  52  79 119 159 190 232 295 351
#     4  11  20  35  57  84 116 153 193 233 283 345
#     4  10  20  36  58  84 113 151 194 236 286 341
#
# _framework density 19.374227999999999
#
# number of rings (size 3 to 8) (size 9 to 14) (size 15 to 20)
#    0.000    1.750    2.500    2.250    0.000    5.000 
#    0.000    3.125    0.000    3.000    0.000    0.000 
#    0.000    0.000    0.000    0.000    0.000    0.000 
#
# Total GULP energy -793371.203603 kJ/mol
# GULP energy per Si atom -12396.425056 kJ/mol
# Density = 1.933013 g / cm^3
# Si number density = 19.374228 Si / 1000 Ang^3
#
#
#
# Elastic Constant Matrix: (Units=GPa)
#
#
# Indices 1 2 3 4 5 6 
#
# 1 51.1330 35.7731 32.7526 0.0000 0.0000 0.0000
# 2 35.7731 109.0685 51.5901 0.0000 0.0000 0.0000
# 3 32.7526 51.5901 123.9197 0.0000 0.0000 0.0000
# 4 0.0000 0.0000 0.0000 21.4654 0.0000 0.0000
# 5 0.0000 0.0000 0.0000 0.0000 28.5151 0.0000
# 6 0.0000 0.0000 0.0000 0.0000 0.0000 28.4592
#
#
#
# Elastic Compliance Matrix: (Units=1/GPa)
#
#
# Indices 1 2 3 4 5 6 
#
# 1 0.027114 -0.006853 -0.004313 0.000000 0.000000 0.000000
# 2 -0.006853 0.013149 -0.003663 0.000000 0.000000 0.000000
# 3 -0.004313 -0.003663 0.010735 0.000000 0.000000 0.000000
# 4 0.000000 0.000000 0.000000 0.046587 0.000000 0.000000
# 5 0.000000 0.000000 0.000000 0.000000 0.035069 0.000000
# 6 0.000000 0.000000 0.000000 0.000000 0.000000 0.035138
#
#
# Mechanical properties :
#
#
# Convention : Reuss Voigt Hill
#
# Bulk Modulus (GPa) = 46.86174 58.26142 52.56158
# Shear Modulus (GPa) = 24.44241 26.62163 25.53202
#
# Velocity S-wave (km/s) = 3.55575 3.71087 3.63414
# Velocity P-wave (km/s) = 6.41077 6.96403 6.69312
#
# Compressibility (1/GPa) = 0.02133937
#
# Stress axis : x y z
#
# Youngs Moduli (GPa) = 36.88126 76.05299 93.15569
#
# Poissons Ratio (x) = 0.52117 0.40182
# Poissons Ratio (y) = 0.25274 0.34121
# Poissons Ratio (z) = 0.15909 0.27857
#
# Static dielectric constant tensor:
#      x y z
#    x 3.330100 0.000000 0.000000 
#    y 0.000000 3.650310 0.000000 
#    z 0.000000 0.000000 3.712550 
# 
# 
# High freq. dielectric constant tensor:
#      x y z
#    x 1.736780 0.000000 0.000000 
#    y 0.000000 1.754670 0.000000 
#    z 0.000000 0.000000 1.756270 
# 
# From -- ./inp_files/34303.got.cif
#   From: 2010.03.12/outbox.cif.g09.slc.cpg/sg53_18_cif.got.tgz:34303.got - 2010.04.16 14:36:59.
