data_PCOD8219984
_publ_section_title
;
Structure prediction by ZEFSAII (Michael W. Deem and Ramdas Pophale) SiO2 
 PCOD8219984
Probable space group: P M N A
;
_chemical_formula_sum "Si O2"
_cell_formula_units_Z 32
_cell_length_a 8.742674
_cell_length_b 19.703631
_cell_length_c 10.202068
_cell_angle_alpha 90.000000
_cell_angle_beta 90.000000
_cell_angle_gamma 90.000000
_cell_volume 1757.432948
_symmetry_space_group_name_H-M "P M N A"
_symmetry_group_IT_number 53
_symmetry_cell_setting 'orthorhombic'
loop_
_space_group_symop_operation_xyz
x,y,z
1/2-x,-y,1/2+z
x,-y,-z
1/2-x,y,1/2-z
-x,-y,-z
1/2+x,y,1/2-z
-x,y,z
1/2+x,-y,1/2+z
loop_
_atom_site_type_symbol
_atom_site_label
_atom_site_fract_x
_atom_site_fract_y
_atom_site_fract_z
Si Si1 0.180309 0.797949 0.885665
Si Si2 0.319101 0.048265 0.385716
Si Si3 0.319401 0.552748 0.112828
Si Si4 0.181888 0.697564 0.111911
O O1 0.250000 0.770722 0.750000
O O2 0.235366 0.874795 0.914093
O O3 0.000000 0.794143 0.872708
O O4 0.238992 0.750748 0.003241
O O5 0.250000 0.021466 0.250000
O O6 0.500000 0.043547 0.376362
O O7 0.254922 0.000000 0.500000
O O8 0.250000 0.526319 0.250000
O O9 0.500000 0.561638 0.128974
O O10 0.245964 0.624203 0.072713
O O11 0.275810 0.500000 0.000000
O O12 0.250000 0.722080 0.250000
O O13 0.000000 0.694217 0.121904
#
# Coordination Sequence:
#
# PCOD8219984 Si02
#       4
#     8   8   8   8
#     4   9  19  34  51  73 100 131 166 204 246 291
#     4   9  18  33  51  72 100 131 165 205 246 291
#     4  10  21  36  54  76 101 130 165 203 244 292
#     4  10  20  34  52  74 101 131 164 203 246 292
#
# _framework density 18.208376000000001
#
# number of rings (size 3 to 8) (size 9 to 14) (size 15 to 20)
#    0.000    2.500    0.000    3.000    0.000    6.500 
#    0.000    5.000    0.000    0.000    0.000    0.000 
#    0.000    0.000    0.000    0.000    0.000    0.000 
#
# Total GULP energy -396847.336972 kJ/mol
# GULP energy per Si atom -12401.479280 kJ/mol
# Density = 1.816693 g / cm^3
# Si number density = 18.208376 Si / 1000 Ang^3
#
#
#
# Elastic Constant Matrix: (Units=GPa)
#
#
# Indices 1 2 3 4 5 6 
#
# 1 53.4142 36.5177 48.6822 0.0000 0.0000 0.0000
# 2 36.5177 109.4861 114.5235 0.0000 0.0000 0.0000
# 3 48.6822 114.5235 188.1430 0.0000 0.0000 0.0000
# 4 0.0000 0.0000 0.0000 45.3966 0.0000 0.0000
# 5 0.0000 0.0000 0.0000 0.0000 32.1126 0.0000
# 6 0.0000 0.0000 0.0000 0.0000 0.0000 3.9551
#
#
#
# Elastic Compliance Matrix: (Units=1/GPa)
#
#
# Indices 1 2 3 4 5 6 
#
# 1 0.025236 -0.004368 -0.003871 0.000000 0.000000 0.000000
# 2 -0.004368 0.025897 -0.014634 0.000000 0.000000 0.000000
# 3 -0.003871 -0.014634 0.015224 0.000000 0.000000 0.000000
# 4 0.000000 0.000000 0.000000 0.022028 0.000000 0.000000
# 5 0.000000 0.000000 0.000000 0.000000 0.031140 0.000000
# 6 0.000000 0.000000 0.000000 0.000000 0.000000 0.252835
#
#
# Mechanical properties :
#
#
# Convention : Reuss Voigt Hill
#
# Bulk Modulus (GPa) = 48.51464 83.38779 65.95122
# Shear Modulus (GPa) = 11.76533 26.38086 19.07310
#
# Velocity S-wave (km/s) = 2.54470 3.81048 3.24001
# Velocity P-wave (km/s) = 5.94441 8.07809 7.09195
#
# Compressibility (1/GPa) = 0.02061233
#
# Stress axis : x y z
#
# Youngs Moduli (GPa) = 39.62596 38.61390 65.68449
#
# Poissons Ratio (x) = 0.16867 0.25426
# Poissons Ratio (y) = 0.17309 0.96120
# Poissons Ratio (z) = 0.15339 0.56506
#
# Static dielectric constant tensor:
#      x y z
#    x 3.308080 0.000000 0.000000 
#    y 0.000000 3.492970 0.000000 
#    z 0.000000 0.000000 3.462980 
# 
# 
# High freq. dielectric constant tensor:
#      x y z
#    x 1.707450 0.000000 0.000000 
#    y 0.000000 1.703770 0.000000 
#    z 0.000000 0.000000 1.713650 
# 
# From -- ./inp_files/6014.got.cif
#   From: 2010.03.12/outbox.cif.g09.slc.cpg/sg53_4_cif.got.tgz:6014.got - 2010.04.16 14:36:59.
