data_PCOD8219831
_publ_section_title
;
Structure prediction by ZEFSAII (Michael W. Deem and Ramdas Pophale) SiO2 
 PCOD8219831
Probable space group: P M N A
;
_chemical_formula_sum "Si O2"
_cell_formula_units_Z 64
_cell_length_a 8.784658
_cell_length_b 27.381207
_cell_length_c 14.536391
_cell_angle_alpha 90.000000
_cell_angle_beta 90.000000
_cell_angle_gamma 90.000000
_cell_volume 3496.504110
_symmetry_space_group_name_H-M "P M N A"
_symmetry_group_IT_number 53
_symmetry_cell_setting 'orthorhombic'
loop_
_space_group_symop_operation_xyz
x,y,z
1/2-x,-y,1/2+z
x,-y,-z
1/2-x,y,1/2-z
-x,-y,-z
1/2+x,y,1/2-z
-x,y,z
1/2+x,-y,1/2+z
loop_
_atom_site_type_symbol
_atom_site_label
_atom_site_fract_x
_atom_site_fract_y
_atom_site_fract_z
Si Si1 0.175975 0.573157 0.657471
Si Si2 0.677647 0.193755 0.653684
Si Si3 0.675919 0.612904 0.035516
Si Si4 0.677823 0.693037 0.346376
Si Si5 0.819852 0.112789 0.538354
Si Si6 0.830281 0.981100 0.102725
Si Si7 0.821067 0.923869 0.659361
Si Si8 0.819359 0.530574 0.153979
O O1 0.250000 0.595690 0.750000
O O2 0.194744 0.611897 0.575057
O O3 0.259351 0.523131 0.629924
O O4 0.000000 0.560980 0.676581
O O5 0.750000 0.177103 0.750000
O O6 0.500000 0.182155 0.657124
O O7 0.711214 0.250374 0.634665
O O8 0.754784 0.164659 0.570202
O O9 0.500000 0.608844 0.064337
O O10 0.744991 0.663615 0.070881
O O11 0.767344 0.567248 0.075207
O O12 0.750000 0.676161 0.250000
O O13 0.500000 0.681175 0.342753
O O14 0.753250 0.071087 0.605382
O O15 0.767354 0.104299 0.432695
O O16 0.000000 0.111819 0.546663
O O17 0.000000 0.975697 0.144283
O O18 0.734681 0.020067 0.160642
O O19 0.838996 0.000000 0.000000
O O20 0.750000 0.897874 0.750000
O O21 0.000000 0.923096 0.667675
O O22 0.750000 0.549279 0.250000
O O23 0.000000 0.530002 0.159948
#
# Coordination Sequence:
#
# PCOD8219831 Si02
#       8
#     8   8   8   8   8   8   8   8
#     4  10  21  36  53  74 103 138 175 215 255 298
#     4  10  21  37  57  80 105 133 166 207 256 308
#     4  11  22  35  53  77 105 137 172 211 256 305
#     4  10  21  37  57  81 107 133 164 206 255 308
#     4  10  20  34  53  77 105 136 172 214 257 304
#     4   9  17  30  48  70  98 132 169 209 251 296
#     4  10  20  33  50  74 105 140 176 214 255 300
#     4  11  21  33  51  75 106 141 175 213 254 300
#
# _framework density 18.303996999999999
#
# number of rings (size 3 to 8) (size 9 to 14) (size 15 to 20)
#    0.000    1.875    0.000    5.250    0.000    8.500 
#    0.000    2.500    0.000    0.750    0.000    0.000 
#    0.000    0.000    0.000    0.000    0.000    0.000 
#
# Total GULP energy -793730.462849 kJ/mol
# GULP energy per Si atom -12402.038482 kJ/mol
# Density = 1.826234 g / cm^3
# Si number density = 18.303997 Si / 1000 Ang^3
#
#
#
# Elastic Constant Matrix: (Units=GPa)
#
#
# Indices 1 2 3 4 5 6 
#
# 1 128.3967 45.5303 56.3198 0.0000 0.0000 0.0000
# 2 45.5303 78.0306 56.3489 0.0000 0.0000 0.0000
# 3 56.3198 56.3489 114.5566 0.0000 0.0000 0.0000
# 4 0.0000 0.0000 0.0000 28.3970 0.0000 0.0000
# 5 0.0000 0.0000 0.0000 0.0000 31.9986 0.0000
# 6 0.0000 0.0000 0.0000 0.0000 0.0000 29.8775
#
#
#
# Elastic Compliance Matrix: (Units=1/GPa)
#
#
# Indices 1 2 3 4 5 6 
#
# 1 0.010594 -0.003754 -0.003362 0.000000 0.000000 0.000000
# 2 -0.003754 0.021206 -0.008585 0.000000 0.000000 0.000000
# 3 -0.003362 -0.008585 0.014605 0.000000 0.000000 0.000000
# 4 0.000000 0.000000 0.000000 0.035215 0.000000 0.000000
# 5 0.000000 0.000000 0.000000 0.000000 0.031251 0.000000
# 6 0.000000 0.000000 0.000000 0.000000 0.000000 0.033470
#
#
# Mechanical properties :
#
#
# Convention : Reuss Voigt Hill
#
# Bulk Modulus (GPa) = 66.65426 70.82019 68.73722
# Shear Modulus (GPa) = 27.36065 28.90695 28.13380
#
# Velocity S-wave (km/s) = 3.87045 3.97831 3.92475
# Velocity P-wave (km/s) = 7.51452 7.73807 7.62711
#
# Compressibility (1/GPa) = 0.01500279
#
# Stress axis : x y z
#
# Youngs Moduli (GPa) = 94.39133 47.15753 68.46898
#
# Poissons Ratio (x) = 0.17702 0.23019
# Poissons Ratio (y) = 0.35433 0.58782
# Poissons Ratio (z) = 0.31735 0.40486
#
# Static dielectric constant tensor:
#      x y z
#    x 3.552630 0.000000 0.000000 
#    y 0.000000 3.182950 0.000000 
#    z 0.000000 0.000000 3.604480 
# 
# 
# High freq. dielectric constant tensor:
#      x y z
#    x 1.730750 0.000000 0.000000 
#    y 0.000000 1.682670 0.000000 
#    z 0.000000 0.000000 1.708560 
# 
# From -- ./inp_files/20925.got.cif
#   From: 2010.03.12/outbox.cif.g09.slc.cpg/sg53_11_cif.got.tgz:20925.got - 2010.04.16 14:36:59.
