data_PCOD8219115
_publ_section_title
;
Structure prediction by ZEFSAII (Michael W. Deem and Ramdas Pophale) SiO2 
 PCOD8219115
Probable space group: P M N A
;
_chemical_formula_sum "Si O2"
_cell_formula_units_Z 64
_cell_length_a 8.938868
_cell_length_b 18.721685
_cell_length_c 19.669785
_cell_angle_alpha 90.000000
_cell_angle_beta 90.000000
_cell_angle_gamma 90.000000
_cell_volume 3291.751717
_symmetry_space_group_name_H-M "P M N A"
_symmetry_group_IT_number 53
_symmetry_cell_setting 'orthorhombic'
loop_
_space_group_symop_operation_xyz
x,y,z
1/2-x,-y,1/2+z
x,-y,-z
1/2-x,y,1/2-z
-x,-y,-z
1/2+x,y,1/2-z
-x,y,z
1/2+x,-y,1/2+z
loop_
_atom_site_type_symbol
_atom_site_label
_atom_site_fract_x
_atom_site_fract_y
_atom_site_fract_z
Si Si1 0.676007 0.759193 0.180672
Si Si2 0.821921 0.707965 0.463073
Si Si3 0.167436 0.975662 0.923475
Si Si4 0.828663 0.570055 0.544565
Si Si5 0.824237 0.923164 0.319098
Si Si6 0.822875 0.589427 0.818896
Si Si7 0.666037 0.262207 0.189197
Si Si8 0.334163 0.831907 0.941808
O O1 0.750000 0.729681 0.250000
O O2 0.500000 0.752970 0.190247
O O3 0.730847 0.712006 0.115913
O O4 0.723799 0.841294 0.167348
O O5 0.760786 0.637133 0.501322
O O6 0.765229 0.780531 0.499945
O O7 0.000000 0.706988 0.466410
O O8 0.224733 0.895250 0.923025
O O9 0.000000 0.977466 0.893235
O O10 0.271722 0.028291 0.881114
O O11 0.170160 0.000000 0.000000
O O12 0.817451 0.500000 0.500000
O O13 0.736692 0.551828 0.612693
O O14 0.000000 0.587404 0.564752
O O15 0.750000 0.951671 0.250000
O O16 0.000000 0.931049 0.311716
O O17 0.750000 0.555908 0.750000
O O18 0.772131 0.671040 0.826523
O O19 0.000000 0.580938 0.815082
O O20 0.750000 0.219333 0.250000
O O21 0.500000 0.288424 0.211784
O O22 0.648869 0.213613 0.125173
O O23 0.500000 0.860081 0.963409
#
# Coordination Sequence:
#
# PCOD8219115 Si02
#       8
#     8   8   8   8   8   8   8   8
#     4   9  18  33  56  81 106 138 179 227 276 331
#     4   9  17  34  57  81 109 143 184 227 275 335
#     4  11  24  38  52  76 111 146 184 232 282 336
#     4  10  20  37  61  87 118 155 193 234 285 342
#     4  10  20  36  58  80 106 143 186 229 281 339
#     4  11  21  35  58  84 116 152 191 232 275 330
#     4  10  19  33  54  80 110 141 180 225 274 327
#     4  10  20  35  56  77 104 143 188 235 277 334
#
# _framework density 19.442536
#
# number of rings (size 3 to 8) (size 9 to 14) (size 15 to 20)
#    0.000    2.000    1.250    3.750    0.000    4.250 
#    0.000    3.125    0.000    1.500    0.000    0.000 
#    0.000    0.000    0.000    0.000    0.000    0.000 
#
# Total GULP energy -793365.628223 kJ/mol
# GULP energy per Si atom -12396.337941 kJ/mol
# Density = 1.939828 g / cm^3
# Si number density = 19.442536 Si / 1000 Ang^3
#
#
#
# Elastic Constant Matrix: (Units=GPa)
#
#
# Indices 1 2 3 4 5 6 
#
# 1 94.9084 23.1737 49.4784 0.0000 0.0000 0.0000
# 2 23.1737 43.8395 35.3160 0.0000 0.0000 0.0000
# 3 49.4784 35.3160 136.5480 0.0000 0.0000 0.0000
# 4 0.0000 0.0000 0.0000 20.9939 0.0000 0.0000
# 5 0.0000 0.0000 0.0000 0.0000 34.4801 0.0000
# 6 0.0000 0.0000 0.0000 0.0000 0.0000 12.5103
#
#
#
# Elastic Compliance Matrix: (Units=1/GPa)
#
#
# Indices 1 2 3 4 5 6 
#
# 1 0.013536 -0.004047 -0.003858 0.000000 0.000000 0.000000
# 2 -0.004047 0.030024 -0.006299 0.000000 0.000000 0.000000
# 3 -0.003858 -0.006299 0.010350 0.000000 0.000000 0.000000
# 4 0.000000 0.000000 0.000000 0.047633 0.000000 0.000000
# 5 0.000000 0.000000 0.000000 0.000000 0.029002 0.000000
# 6 0.000000 0.000000 0.000000 0.000000 0.000000 0.079934
#
#
# Mechanical properties :
#
#
# Convention : Reuss Voigt Hill
#
# Bulk Modulus (GPa) = 39.21195 54.58136 46.89665
# Shear Modulus (GPa) = 20.21116 24.75206 22.48161
#
# Velocity S-wave (km/s) = 3.22768 3.57191 3.40415
# Velocity P-wave (km/s) = 5.83973 6.71904 6.29476
#
# Compressibility (1/GPa) = 0.02550243
#
# Stress axis : x y z
#
# Youngs Moduli (GPa) = 73.87716 33.30680 96.61412
#
# Poissons Ratio (x) = 0.13480 0.37274
# Poissons Ratio (y) = 0.29900 0.60854
# Poissons Ratio (z) = 0.28502 0.20979
#
# Static dielectric constant tensor:
#      x y z
#    x 3.794630 0.000000 0.000000 
#    y 0.000000 3.272230 0.000000 
#    z 0.000000 0.000000 4.002790 
# 
# 
# High freq. dielectric constant tensor:
#      x y z
#    x 1.745610 0.000000 0.000000 
#    y 0.000000 1.730880 0.000000 
#    z 0.000000 0.000000 1.776320 
# 
# From -- ./inp_files/26865.got.cif
#   From: 2010.03.12/outbox.cif.g09.slc.cpg/sg53_14_cif.got.tgz:26865.got - 2010.04.16 14:36:59.
