data_PCOD8219269
_publ_section_title
;
Structure prediction by ZEFSAII (Michael W. Deem and Ramdas Pophale) SiO2 
 PCOD8219269
Probable space group: P M N A
;
_chemical_formula_sum "Si O2"
_cell_formula_units_Z 64
_cell_length_a 17.855661
_cell_length_b 16.648405
_cell_length_c 11.961634
_cell_angle_alpha 90.000000
_cell_angle_beta 90.000000
_cell_angle_gamma 90.000000
_cell_volume 3555.814316
_symmetry_space_group_name_H-M "P M N A"
_symmetry_group_IT_number 53
_symmetry_cell_setting 'orthorhombic'
loop_
_space_group_symop_operation_xyz
x,y,z
1/2-x,-y,1/2+z
x,-y,-z
1/2-x,y,1/2-z
-x,-y,-z
1/2+x,y,1/2-z
-x,y,z
1/2+x,-y,1/2+z
loop_
_atom_site_type_symbol
_atom_site_label
_atom_site_fract_x
_atom_site_fract_y
_atom_site_fract_z
Si Si1 0.840349 0.668963 0.565680
Si Si2 0.413797 0.374378 0.841643
Si Si3 0.911156 0.106148 0.914563
Si Si4 0.412558 0.550739 0.768719
Si Si5 0.666193 0.344108 0.402699
Si Si6 0.086414 0.716970 0.114461
Si Si7 0.411767 0.060255 0.340812
Si Si8 0.335189 0.201376 0.235503
O O1 0.860501 0.664294 0.435643
O O2 0.896284 0.609157 0.628353
O O3 0.755081 0.643269 0.590316
O O4 0.851800 0.759274 0.613926
O O5 0.500000 0.375520 0.882686
O O6 0.386397 0.462908 0.808098
O O7 0.403065 0.318858 0.735481
O O8 0.881097 0.192486 0.875306
O O9 0.000000 0.104293 0.915484
O O10 0.884287 0.033193 0.832569
O O11 0.882148 0.092617 0.040265
O O12 0.500000 0.551462 0.738714
O O13 0.367352 0.577026 0.657677
O O14 0.632683 0.335481 0.526089
O O15 0.642448 0.266149 0.330548
O O16 0.000000 0.716716 0.075721
O O17 0.500000 0.065206 0.331522
O O18 0.380053 0.117919 0.244207
O O19 0.250000 0.176847 0.250000
#
# Coordination Sequence:
#
# PCOD8219269 Si02
#       8
#     8   8   8   8   8   8   8   8
#     4  10  21  37  52  76 107 142 182 214 257 316
#     4  10  22  38  55  75 103 144 182 215 260 315
#     4   8  15  27  49  80 106 126 160 214 267 311
#     4  10  20  37  58  78 102 131 176 228 267 309
#     4  10  20  35  53  80 106 135 172 222 276 314
#     4  10  19  34  55  78 107 140 173 217 268 317
#     4   9  15  26  50  81 104 127 167 215 263 308
#     4   9  18  31  51  73 107 138 171 216 262 305
#
# _framework density 17.99869
#
# number of rings (size 3 to 8) (size 9 to 14) (size 15 to 20)
#    0.000    2.500    1.250    3.000    0.000    4.500 
#    6.750    1.875    2.750    0.750    0.000    3.500 
#    0.000    0.000    0.000    0.000    0.000    0.000 
#
# Total GULP energy -793364.200402 kJ/mol
# GULP energy per Si atom -12396.315631 kJ/mol
# Density = 1.795772 g / cm^3
# Si number density = 17.998690 Si / 1000 Ang^3
#
#
#
# Elastic Constant Matrix: (Units=GPa)
#
#
# Indices 1 2 3 4 5 6 
#
# 1 49.0953 27.4995 37.2700 0.0000 0.0000 0.0000
# 2 27.4995 105.3403 55.8852 0.0000 0.0000 0.0000
# 3 37.2700 55.8852 88.1096 0.0000 0.0000 0.0000
# 4 0.0000 0.0000 0.0000 25.5824 0.0000 0.0000
# 5 0.0000 0.0000 0.0000 0.0000 24.5163 0.0000
# 6 0.0000 0.0000 0.0000 0.0000 0.0000 11.7983
#
#
#
# Elastic Compliance Matrix: (Units=1/GPa)
#
#
# Indices 1 2 3 4 5 6 
#
# 1 0.030196 -0.001668 -0.011715 0.000000 0.000000 0.000000
# 2 -0.001668 0.014399 -0.008428 0.000000 0.000000 0.000000
# 3 -0.011715 -0.008428 0.021650 0.000000 0.000000 0.000000
# 4 0.000000 0.000000 0.000000 0.039089 0.000000 0.000000
# 5 0.000000 0.000000 0.000000 0.000000 0.040789 0.000000
# 6 0.000000 0.000000 0.000000 0.000000 0.000000 0.084758
#
#
# Mechanical properties :
#
#
# Convention : Reuss Voigt Hill
#
# Bulk Modulus (GPa) = 44.19904 53.76163 48.98033
# Shear Modulus (GPa) = 17.72771 20.50545 19.11658
#
# Velocity S-wave (km/s) = 3.14179 3.37898 3.26254
# Velocity P-wave (km/s) = 6.14583 6.71996 6.43930
#
# Compressibility (1/GPa) = 0.02262493
#
# Stress axis : x y z
#
# Youngs Moduli (GPa) = 33.11706 69.44689 46.18878
#
# Poissons Ratio (x) = 0.11582 0.54110
# Poissons Ratio (y) = 0.05523 0.38926
# Poissons Ratio (z) = 0.38796 0.58528
#
# Static dielectric constant tensor:
#      x y z
#    x 3.142050 0.000000 0.000000 
#    y 0.000000 3.556550 0.000000 
#    z 0.000000 0.000000 3.173210 
# 
# 
# High freq. dielectric constant tensor:
#      x y z
#    x 1.679780 0.000000 0.000000 
#    y 0.000000 1.699910 0.000000 
#    z 0.000000 0.000000 1.678670 
# 
# From -- ./inp_files/16230.got.cif
#   From: 2010.03.12/outbox.cif.g09.slc.cpg/sg53_9_cif.got.tgz:16230.got - 2010.04.16 14:36:59.
