data_PCOD8219545
_publ_section_title
;
Structure prediction by ZEFSAII (Michael W. Deem and Ramdas Pophale) SiO2 
 PCOD8219545
Probable space group: P M N A
;
_chemical_formula_sum "Si O2"
_cell_formula_units_Z 48
_cell_length_a 8.940308
_cell_length_b 16.358597
_cell_length_c 17.800973
_cell_angle_alpha 90.000000
_cell_angle_beta 90.000000
_cell_angle_gamma 90.000000
_cell_volume 2603.408244
_symmetry_space_group_name_H-M "P M N A"
_symmetry_group_IT_number 53
_symmetry_cell_setting 'orthorhombic'
loop_
_space_group_symop_operation_xyz
x,y,z
1/2-x,-y,1/2+z
x,-y,-z
1/2-x,y,1/2-z
-x,-y,-z
1/2+x,y,1/2-z
-x,y,z
1/2+x,-y,1/2+z
loop_
_atom_site_type_symbol
_atom_site_label
_atom_site_fract_x
_atom_site_fract_y
_atom_site_fract_z
Si Si1 0.826929 0.499870 0.913657
Si Si2 0.826203 0.240269 0.946925
Si Si3 0.325091 0.092099 0.018895
Si Si4 0.677004 0.353471 0.830635
Si Si5 0.674101 0.169020 0.174760
Si Si6 0.669907 0.315502 0.394446
O O1 0.723657 0.438531 0.868248
O O2 0.801670 0.589367 0.878224
O O3 0.000000 0.472140 0.907165
O O4 0.776778 0.500000 0.000000
O O5 0.733149 0.276353 0.878221
O O6 0.000000 0.237148 0.925377
O O7 0.768477 0.149101 0.963073
O O8 0.796122 0.298375 0.018215
O O9 0.500000 0.108950 0.005854
O O10 0.280354 0.111074 0.105112
O O11 0.280123 0.000000 0.000000
O O12 0.750000 0.346714 0.750000
O O13 0.500000 0.350381 0.823273
O O14 0.750000 0.134280 0.250000
O O15 0.500000 0.168972 0.189062
O O16 0.724168 0.262140 0.158788
O O17 0.500000 0.290459 0.375987
#
# Coordination Sequence:
#
# PCOD8219545 Si02
#       6
#     8   8   8   8   8   8
#     4  10  19  36  58  81 111 148 188 233 283 329
#     4  10  19  36  59  83 110 143 183 227 278 334
#     4   9  19  37  60  86 114 146 185 229 277 334
#     4  12  25  39  56  80 112 150 193 238 284 332
#     4  10  20  34  54  80 112 146 181 225 276 330
#     4   9  18  33  56  80 107 144 182 223 271 328
#
# _framework density 18.437369
#
# number of rings (size 3 to 8) (size 9 to 14) (size 15 to 20)
#    0.000    2.000    1.667    2.500    0.000    3.333 
#    0.000    0.833    0.000    2.000    0.000    0.000 
#    0.000    0.000    0.000    0.000    0.000    0.000 
#
# Total GULP energy -595381.808085 kJ/mol
# GULP energy per Si atom -12403.787668 kJ/mol
# Density = 1.839540 g / cm^3
# Si number density = 18.437369 Si / 1000 Ang^3
#
#
#
# Elastic Constant Matrix: (Units=GPa)
#
#
# Indices 1 2 3 4 5 6 
#
# 1 110.2163 58.4832 65.0854 0.0000 0.0000 0.0000
# 2 58.4832 121.1797 61.8308 0.0000 0.0000 0.0000
# 3 65.0854 61.8308 122.1382 0.0000 0.0000 0.0000
# 4 0.0000 0.0000 0.0000 17.1247 0.0000 0.0000
# 5 0.0000 0.0000 0.0000 0.0000 32.6288 0.0000
# 6 0.0000 0.0000 0.0000 0.0000 0.0000 29.8487
#
#
#
# Elastic Compliance Matrix: (Units=1/GPa)
#
#
# Indices 1 2 3 4 5 6 
#
# 1 0.014646 -0.004161 -0.005698 0.000000 0.000000 0.000000
# 2 -0.004161 0.012308 -0.004014 0.000000 0.000000 0.000000
# 3 -0.005698 -0.004014 0.013256 0.000000 0.000000 0.000000
# 4 0.000000 0.000000 0.000000 0.058395 0.000000 0.000000
# 5 0.000000 0.000000 0.000000 0.000000 0.030648 0.000000
# 6 0.000000 0.000000 0.000000 0.000000 0.000000 0.033502
#
#
# Mechanical properties :
#
#
# Convention : Reuss Voigt Hill
#
# Bulk Modulus (GPa) = 80.22766 80.48145 80.35455
# Shear Modulus (GPa) = 25.68647 27.12943 26.40795
#
# Velocity S-wave (km/s) = 3.73657 3.84009 3.78869
# Velocity P-wave (km/s) = 7.88822 7.96290 7.92565
#
# Compressibility (1/GPa) = 0.01246453
#
# Stress axis : x y z
#
# Youngs Moduli (GPa) = 68.27891 81.24654 75.43917
#
# Poissons Ratio (x) = 0.33806 0.42986
# Poissons Ratio (y) = 0.28410 0.30278
# Poissons Ratio (z) = 0.38906 0.32609
#
# Static dielectric constant tensor:
#      x y z
#    x 3.395940 0.000000 0.000000 
#    y 0.000000 3.348720 0.000000 
#    z 0.000000 0.000000 3.420910 
# 
# 
# High freq. dielectric constant tensor:
#      x y z
#    x 1.718610 0.000000 0.000000 
#    y 0.000000 1.708240 0.000000 
#    z 0.000000 0.000000 1.710600 
# 
# From -- ./inp_files/20176.got.cif
#   From: 2010.03.12/outbox.cif.g09.slc.cpg/sg53_11_cif.got.tgz:20176.got - 2010.04.16 14:36:59.
