data_PCOD8219987
_publ_section_title
;
Structure prediction by ZEFSAII (Michael W. Deem and Ramdas Pophale) SiO2 
 PCOD8219987
Probable space group: P M N A
;
_chemical_formula_sum "Si O2"
_cell_formula_units_Z 48
_cell_length_a 8.693384
_cell_length_b 29.723831
_cell_length_c 10.157553
_cell_angle_alpha 90.000000
_cell_angle_beta 90.000000
_cell_angle_gamma 90.000000
_cell_volume 2624.718570
_symmetry_space_group_name_H-M "P M N A"
_symmetry_group_IT_number 53
_symmetry_cell_setting 'orthorhombic'
loop_
_space_group_symop_operation_xyz
x,y,z
1/2-x,-y,1/2+z
x,-y,-z
1/2-x,y,1/2-z
-x,-y,-z
1/2+x,y,1/2-z
-x,y,z
1/2+x,-y,1/2+z
loop_
_atom_site_type_symbol
_atom_site_label
_atom_site_fract_x
_atom_site_fract_y
_atom_site_fract_z
Si Si1 0.682042 0.532581 0.386915
Si Si2 0.318113 0.798106 0.888951
Si Si3 0.681672 0.868774 0.111459
Si Si4 0.682791 0.297963 0.389548
Si Si5 0.681505 0.634318 0.386928
Si Si6 0.318059 0.035075 0.611221
O O1 0.747169 0.500000 0.500000
O O2 0.750000 0.514996 0.250000
O O3 0.500000 0.529908 0.379058
O O4 0.737957 0.583476 0.416040
O O5 0.250000 0.814722 0.750000
O O6 0.500000 0.792966 0.875244
O O7 0.246723 0.750555 0.930828
O O8 0.270175 0.833711 0.999488
O O9 0.750000 0.851828 0.250000
O O10 0.500000 0.873366 0.125577
O O11 0.750865 0.916714 0.071058
O O12 0.750000 0.313531 0.250000
O O13 0.500000 0.295756 0.380579
O O14 0.741282 0.333861 0.496485
O O15 0.750000 0.652176 0.250000
O O16 0.500000 0.636456 0.375632
O O17 0.250000 0.018394 0.750000
O O18 0.500000 0.038873 0.624072
O O19 0.267157 0.000000 0.500000
#
# Coordination Sequence:
#
# PCOD8219987 Si02
#       6
#     8   8   8   8   8   8
#     4   9  18  33  51  72 100 131 165 206 249 296
#     4  10  21  36  54  77 103 133 170 209 251 299
#     4  10  21  36  55  78 104 135 170 209 252 299
#     4  10  20  34  52  74 101 132 166 206 251 298
#     4   9  19  34  51  73 100 131 167 206 249 297
#     4  10  21  36  55  79 106 137 172 210 252 298
#
# _framework density 18.287673999999999
#
# number of rings (size 3 to 8) (size 9 to 14) (size 15 to 20)
#    0.000    2.333    0.000    4.000    0.000    7.667 
#    0.000    6.667    0.000    0.000    0.000    0.000 
#    0.000    0.000    0.000    0.000    0.000    0.000 
#
# Total GULP energy -595295.083421 kJ/mol
# GULP energy per Si atom -12401.980905 kJ/mol
# Density = 1.824605 g / cm^3
# Si number density = 18.287674 Si / 1000 Ang^3
#
#
#
# Elastic Constant Matrix: (Units=GPa)
#
#
# Indices 1 2 3 4 5 6 
#
# 1 65.1531 42.7594 52.6428 0.0000 0.0000 0.0000
# 2 42.7594 122.4044 121.6016 0.0000 0.0000 0.0000
# 3 52.6428 121.6016 181.4284 0.0000 0.0000 0.0000
# 4 0.0000 0.0000 0.0000 46.1773 0.0000 0.0000
# 5 0.0000 0.0000 0.0000 0.0000 27.9141 0.0000
# 6 0.0000 0.0000 0.0000 0.0000 0.0000 -12.4282
#
#
#
# Elastic Compliance Matrix: (Units=1/GPa)
#
#
# Indices 1 2 3 4 5 6 
#
# 1 0.020613 -0.003768 -0.003456 0.000000 0.000000 0.000000
# 2 -0.003768 0.025138 -0.015755 0.000000 0.000000 0.000000
# 3 -0.003456 -0.015755 0.017074 0.000000 0.000000 0.000000
# 4 0.000000 0.000000 0.000000 0.021656 0.000000 0.000000
# 5 0.000000 0.000000 0.000000 0.000000 0.035824 0.000000
# 6 0.000000 0.000000 0.000000 0.000000 0.000000 -0.080462
#
#
# Mechanical properties :
#
#
# Convention : Reuss Voigt Hill
#
# Bulk Modulus (GPa) = 59.28364 89.22151 74.25258
# Shear Modulus (GPa) = 54.69043 22.46477 38.57760
#
# Velocity S-wave (km/s) = 5.47454 3.50867 4.59790
# Velocity P-wave (km/s) = 8.51166 8.08134 8.29929
#
# Compressibility (1/GPa) = 0.01686806
#
# Stress axis : x y z
#
# Youngs Moduli (GPa) = 48.51199 39.78093 58.56706
#
# Poissons Ratio (x) = 0.14988 0.20240
# Poissons Ratio (y) = 0.18278 0.92274
# Poissons Ratio (z) = 0.16765 0.62676
#
# Static dielectric constant tensor:
#      x y z
#    x 3.372060 0.000000 0.000000 
#    y 0.000000 3.501080 0.000000 
#    z 0.000000 0.000000 3.518510 
# 
# 
# High freq. dielectric constant tensor:
#      x y z
#    x 1.716290 0.000000 0.000000 
#    y 0.000000 1.708850 0.000000 
#    z 0.000000 0.000000 1.716110 
# 
# From -- ./inp_files/14059.got.cif
#   From: 2010.03.12/outbox.cif.g09.slc.cpg/sg53_8_cif.got.tgz:14059.got - 2010.04.16 14:36:59.
