data_PCOD8219308
_publ_section_title
;
Structure prediction by ZEFSAII (Michael W. Deem and Ramdas Pophale) SiO2 
 PCOD8219308
Probable space group: P M N A
;
_chemical_formula_sum "Si O2"
_cell_formula_units_Z 56
_cell_length_a 9.263027
_cell_length_b 21.199183
_cell_length_c 14.217067
_cell_angle_alpha 90.000000
_cell_angle_beta 90.000000
_cell_angle_gamma 90.000000
_cell_volume 2791.785607
_symmetry_space_group_name_H-M "P M N A"
_symmetry_group_IT_number 53
_symmetry_cell_setting 'orthorhombic'
loop_
_space_group_symop_operation_xyz
x,y,z
1/2-x,-y,1/2+z
x,-y,-z
1/2-x,y,1/2-z
-x,-y,-z
1/2+x,y,1/2-z
-x,y,z
1/2+x,-y,1/2+z
loop_
_atom_site_type_symbol
_atom_site_label
_atom_site_fract_x
_atom_site_fract_y
_atom_site_fract_z
Si Si1 0.843246 0.735932 0.832591
Si Si2 0.163467 0.071743 0.498511
Si Si3 0.166902 0.170427 0.654791
Si Si4 0.326857 0.720373 0.457627
Si Si5 0.168939 0.595846 0.462051
Si Si6 0.657420 0.882194 0.667622
Si Si7 0.167752 0.471175 0.347638
O O1 0.750000 0.703118 0.750000
O O2 0.860931 0.809170 0.808724
O O3 0.000000 0.702984 0.830950
O O4 0.773267 0.727786 0.934869
O O5 0.174742 0.104216 0.599777
O O6 0.264937 0.111805 0.431395
O O7 0.000000 0.074119 0.459815
O O8 0.219205 0.000000 0.500000
O O9 0.250000 0.157019 0.750000
O O10 0.249097 0.226160 0.601909
O O11 0.000000 0.190080 0.671667
O O12 0.500000 0.726077 0.446674
O O13 0.268791 0.652603 0.424467
O O14 0.203707 0.539745 0.389838
O O15 0.211057 0.578509 0.570155
O O16 0.000000 0.613780 0.457481
O O17 0.750000 0.915688 0.750000
O O18 0.500000 0.914647 0.663488
O O19 0.250000 0.458151 0.250000
O O20 0.000000 0.465414 0.324581
#
# Coordination Sequence:
#
# PCOD8219308 Si02
#       7
#     8   8   8   8   8   8   8
#     4   9  19  33  52  79 111 145 183 228 279 340
#     4  10  22  40  61  87 117 150 193 242 294 351
#     4  11  24  42  64  86 116 157 197 243 294 349
#     4  11  22  38  59  87 121 154 196 246 292 347
#     4   9  20  38  57  83 117 157 197 236 291 352
#     4  10  19  34  56  82 112 146 184 229 281 341
#     4   9  19  37  60  83 115 154 196 243 290 345
#
# _framework density 20.058848000000001
#
# number of rings (size 3 to 8) (size 9 to 14) (size 15 to 20)
#    0.000    2.143    1.429    2.143    0.000    5.429 
#    0.000    7.143    0.000    0.000    0.000    0.000 
#    0.000    0.000    0.000    0.000    0.000    0.000 
#
# Total GULP energy -694257.530337 kJ/mol
# GULP energy per Si atom -12397.455899 kJ/mol
# Density = 2.001319 g / cm^3
# Si number density = 20.058848 Si / 1000 Ang^3
#
#
#
# Elastic Constant Matrix: (Units=GPa)
#
#
# Indices 1 2 3 4 5 6 
#
# 1 104.1780 32.5645 46.6290 0.0000 0.0000 0.0000
# 2 32.5645 84.0318 15.6685 0.0000 0.0000 0.0000
# 3 46.6290 15.6685 97.3616 0.0000 0.0000 0.0000
# 4 0.0000 0.0000 0.0000 11.4343 0.0000 0.0000
# 5 0.0000 0.0000 0.0000 0.0000 35.3868 0.0000
# 6 0.0000 0.0000 0.0000 0.0000 0.0000 13.4057
#
#
#
# Elastic Compliance Matrix: (Units=1/GPa)
#
#
# Indices 1 2 3 4 5 6 
#
# 1 0.013488 -0.004147 -0.005792 0.000000 0.000000 0.000000
# 2 -0.004147 0.013543 -0.000194 0.000000 0.000000 0.000000
# 3 -0.005792 -0.000194 0.013076 0.000000 0.000000 0.000000
# 4 0.000000 0.000000 0.000000 0.087456 0.000000 0.000000
# 5 0.000000 0.000000 0.000000 0.000000 0.028259 0.000000
# 6 0.000000 0.000000 0.000000 0.000000 0.000000 0.074595
#
#
# Mechanical properties :
#
#
# Convention : Reuss Voigt Hill
#
# Bulk Modulus (GPa) = 50.39804 52.81061 51.60432
# Shear Modulus (GPa) = 19.43280 24.75932 22.09606
#
# Velocity S-wave (km/s) = 3.11591 3.51712 3.32258
# Velocity P-wave (km/s) = 6.17453 6.54817 6.36409
#
# Compressibility (1/GPa) = 0.01984204
#
# Stress axis : x y z
#
# Youngs Moduli (GPa) = 74.14129 73.83702 76.47474
#
# Poissons Ratio (x) = 0.30619 0.44296
# Poissons Ratio (y) = 0.30745 0.01480
# Poissons Ratio (z) = 0.42945 0.01429
#
# Static dielectric constant tensor:
#      x y z
#    x 3.851570 0.000000 0.000000 
#    y 0.000000 3.458380 0.000000 
#    z 0.000000 0.000000 3.621540 
# 
# 
# High freq. dielectric constant tensor:
#      x y z
#    x 1.788020 0.000000 0.000000 
#    y 0.000000 1.768800 0.000000 
#    z 0.000000 0.000000 1.783040 
# 
# From -- ./inp_files/20605.got.cif
#   From: 2010.03.12/outbox.cif.g09.slc.cpg/sg53_11_cif.got.tgz:20605.got - 2010.04.16 14:36:59.
