data_PCOD8219004
_publ_section_title
;
Structure prediction by ZEFSAII (Michael W. Deem and Ramdas Pophale) SiO2 
 PCOD8219004
Probable space group: P M N A
;
_chemical_formula_sum "Si O2"
_cell_formula_units_Z 28
_cell_length_a 19.436595
_cell_length_b 13.531333
_cell_length_c 5.054592
_cell_angle_alpha 90.000000
_cell_angle_beta 90.000000
_cell_angle_gamma 90.000000
_cell_volume 1329.373059
_symmetry_space_group_name_H-M "P M N A"
_symmetry_group_IT_number 53
_symmetry_cell_setting 'orthorhombic'
loop_
_space_group_symop_operation_xyz
x,y,z
1/2-x,-y,1/2+z
x,-y,-z
1/2-x,y,1/2-z
-x,-y,-z
1/2+x,y,1/2-z
-x,y,z
1/2+x,-y,1/2+z
loop_
_atom_site_type_symbol
_atom_site_label
_atom_site_fract_x
_atom_site_fract_y
_atom_site_fract_z
Si Si1 0.839818 0.266425 0.454147
Si Si2 0.750000 0.437157 0.250000
Si Si3 0.250000 0.884719 0.750000
Si Si4 0.079183 0.794339 0.057182
Si Si5 0.366647 0.000000 0.500000
O O1 0.813103 0.373788 0.368939
O O2 0.774215 0.191075 0.483298
O O3 0.878896 0.271719 0.732884
O O4 0.892680 0.226552 0.234041
O O5 0.721888 0.500000 0.500000
O O6 0.315634 0.953486 0.714126
O O7 0.086991 0.912053 0.122246
O O8 0.000000 0.764106 0.073557
#
# Coordination Sequence:
#
# PCOD8219004 Si02
#       5
#     8   4   4   8   4
#     4  10  22  38  59  85 115 151 186 238 306 347
#     4  11  22  40  69  96 114 136 185 252 312 371
#     4   9  18  32  53  80 114 146 187 242 292 333
#     4  11  22  37  56  81 120 163 200 231 270 338
#     4  10  19  32  54  84 115 158 206 244 276 322
#
# _framework density 21.062559
#
# number of rings (size 3 to 8) (size 9 to 14) (size 15 to 20)
#    0.000    1.714    0.000    4.714    0.000   11.429 
#    0.000    7.143    0.000   17.143    0.000    0.000 
#    0.000    0.000    0.000    0.000    0.000    0.000 
#
# Total GULP energy -346952.529126 kJ/mol
# GULP energy per Si atom -12391.161755 kJ/mol
# Density = 2.101462 g / cm^3
# Si number density = 21.062559 Si / 1000 Ang^3
#
#
#
# Elastic Constant Matrix: (Units=GPa)
#
#
# Indices 1 2 3 4 5 6 
#
# 1 89.0973 18.2527 12.9679 0.0000 0.0000 0.0000
# 2 18.2527 95.2873 14.5774 0.0000 0.0000 0.0000
# 3 12.9679 14.5774 80.7671 0.0000 0.0000 0.0000
# 4 0.0000 0.0000 0.0000 26.7940 0.0000 0.0000
# 5 0.0000 0.0000 0.0000 0.0000 30.3541 0.0000
# 6 0.0000 0.0000 0.0000 0.0000 0.0000 7.0366
#
#
#
# Elastic Compliance Matrix: (Units=1/GPa)
#
#
# Indices 1 2 3 4 5 6 
#
# 1 0.011865 -0.002038 -0.001537 0.000000 0.000000 0.000000
# 2 -0.002038 0.011142 -0.001684 0.000000 0.000000 0.000000
# 3 -0.001537 -0.001684 0.012932 0.000000 0.000000 0.000000
# 4 0.000000 0.000000 0.000000 0.037322 0.000000 0.000000
# 5 0.000000 0.000000 0.000000 0.000000 0.032944 0.000000
# 6 0.000000 0.000000 0.000000 0.000000 0.000000 0.142115
#
#
# Mechanical properties :
#
#
# Convention : Reuss Voigt Hill
#
# Bulk Modulus (GPa) = 39.33622 39.63861 39.48742
# Shear Modulus (GPa) = 18.70472 27.46052 23.08262
#
# Velocity S-wave (km/s) = 2.98326 3.61468 3.31404
# Velocity P-wave (km/s) = 5.53018 6.02341 5.78206
#
# Compressibility (1/GPa) = 0.02542186
#
# Stress axis : x y z
#
# Youngs Moduli (GPa) = 84.28252 89.74655 77.32744
#
# Poissons Ratio (x) = 0.18287 0.11887
# Poissons Ratio (y) = 0.17173 0.13021
# Poissons Ratio (z) = 0.12956 0.15113
#
# Static dielectric constant tensor:
#      x y z
#    x 3.802500 0.000000 0.000000 
#    y 0.000000 4.009730 0.000000 
#    z 0.000000 0.000000 3.591610 
# 
# 
# High freq. dielectric constant tensor:
#      x y z
#    x 1.813790 0.000000 0.000000 
#    y 0.000000 1.818950 0.000000 
#    z 0.000000 0.000000 1.818830 
# 
# From -- ./inp_files/2588.got.cif
#   From: 2010.03.12/outbox.cif.g09.slc.cpg/sg53_2_cif.got.tgz:2588.got - 2010.04.16 14:36:59.
