data_PCOD8219401
_publ_section_title
;
Structure prediction by ZEFSAII (Michael W. Deem and Ramdas Pophale) SiO2 
 PCOD8219401
Probable space group: P M N A
;
_chemical_formula_sum "Si O2"
_cell_formula_units_Z 36
_cell_length_a 25.212388
_cell_length_b 14.507416
_cell_length_c 4.843853
_cell_angle_alpha 90.000000
_cell_angle_beta 90.000000
_cell_angle_gamma 90.000000
_cell_volume 1771.719648
_symmetry_space_group_name_H-M "P M N A"
_symmetry_group_IT_number 53
_symmetry_cell_setting 'orthorhombic'
loop_
_space_group_symop_operation_xyz
x,y,z
1/2-x,-y,1/2+z
x,-y,-z
1/2-x,y,1/2-z
-x,-y,-z
1/2+x,y,1/2-z
-x,y,z
1/2+x,-y,1/2+z
loop_
_atom_site_type_symbol
_atom_site_label
_atom_site_fract_x
_atom_site_fract_y
_atom_site_fract_z
Si Si1 0.286110 0.500000 0.000000
Si Si2 0.059086 0.790820 0.378259
Si Si3 0.803108 0.203812 0.095241
Si Si4 0.594005 0.899369 0.611798
Si Si5 0.662477 0.312808 0.910775
O O1 0.250000 0.461453 0.250000
O O2 0.323023 0.580405 0.126150
O O3 0.077204 0.876588 0.574044
O O4 0.099576 0.704498 0.375089
O O5 0.000000 0.755900 0.451749
O O6 0.059720 0.829042 0.069119
O O7 0.750000 0.168796 0.250000
O O8 0.842737 0.116816 0.082506
O O9 0.826249 0.287084 0.274390
O O10 0.800367 0.248460 0.787947
O O11 0.579968 0.000000 0.500000
#
# Coordination Sequence:
#
# PCOD8219401 Si02
#       5
#     4   8   8   8   8
#     4  12  22  34  57  84 109 136 172 216 264 316
#     4  10  21  37  56  76 106 144 178 220 271 313
#     4  10  19  35  54  73 107 145 172 209 266 319
#     4  10  21  35  53  81 108 136 183 228 261 313
#     4  10  21  35  53  80 107 135 176 217 257 315
#
# _framework density 20.319241000000002
#
# number of rings (size 3 to 8) (size 9 to 14) (size 15 to 20)
#    0.000    1.778    0.000    5.333    0.000    2.667 
#    0.000    7.222    0.000    0.000    0.000   10.889 
#    0.000    0.000    0.000    0.000    0.000    0.000 
#
# Total GULP energy -446128.854902 kJ/mol
# GULP energy per Si atom -12392.468192 kJ/mol
# Density = 2.027299 g / cm^3
# Si number density = 20.319241 Si / 1000 Ang^3
#
#
#
# Elastic Constant Matrix: (Units=GPa)
#
#
# Indices 1 2 3 4 5 6 
#
# 1 148.3285 48.2026 16.8977 0.0000 0.0000 0.0000
# 2 48.2026 57.4146 9.2839 0.0000 0.0000 0.0000
# 3 16.8977 9.2839 77.1644 0.0000 0.0000 0.0000
# 4 0.0000 0.0000 0.0000 19.2409 0.0000 0.0000
# 5 0.0000 0.0000 0.0000 0.0000 24.5221 0.0000
# 6 0.0000 0.0000 0.0000 0.0000 0.0000 14.4852
#
#
#
# Elastic Compliance Matrix: (Units=1/GPa)
#
#
# Indices 1 2 3 4 5 6 
#
# 1 0.009366 -0.007681 -0.001127 0.000000 0.000000 0.000000
# 2 -0.007681 0.024062 -0.001213 0.000000 0.000000 0.000000
# 3 -0.001127 -0.001213 0.013352 0.000000 0.000000 0.000000
# 4 0.000000 0.000000 0.000000 0.051973 0.000000 0.000000
# 5 0.000000 0.000000 0.000000 0.000000 0.040780 0.000000
# 6 0.000000 0.000000 0.000000 0.000000 0.000000 0.069036
#
#
# Mechanical properties :
#
#
# Convention : Reuss Voigt Hill
#
# Bulk Modulus (GPa) = 37.39955 47.96400 42.68177
# Shear Modulus (GPa) = 21.05049 25.55118 23.30083
#
# Velocity S-wave (km/s) = 3.22217 3.54995 3.39002
# Velocity P-wave (km/s) = 5.68235 6.36077 6.03110
#
# Compressibility (1/GPa) = 0.02673829
#
# Stress axis : x y z
#
# Youngs Moduli (GPa) = 106.76456 41.55887 74.89488
#
# Poissons Ratio (x) = 0.31923 0.08440
# Poissons Ratio (y) = 0.82010 0.09084
# Poissons Ratio (z) = 0.12031 0.05041
#
# Static dielectric constant tensor:
#      x y z
#    x 3.791320 0.000000 0.000000 
#    y 0.000000 3.210980 0.000000 
#    z 0.000000 0.000000 3.919690 
# 
# 
# High freq. dielectric constant tensor:
#      x y z
#    x 1.791370 0.000000 0.000000 
#    y 0.000000 1.749090 0.000000 
#    z 0.000000 0.000000 1.819090 
# 
# From -- ./inp_files/3583.got.cif
#   From: 2010.03.12/outbox.cif.g09.slc.cpg/sg53_2_cif.got.tgz:3583.got - 2010.04.16 14:36:59.
