data_PCOD8219198
_publ_section_title
;
Structure prediction by ZEFSAII (Michael W. Deem and Ramdas Pophale) SiO2 
 PCOD8219198
Probable space group: P M N A
;
_chemical_formula_sum "Si O2"
_cell_formula_units_Z 64
_cell_length_a 8.888162
_cell_length_b 12.889753
_cell_length_c 28.362038
_cell_angle_alpha 90.000000
_cell_angle_beta 90.000000
_cell_angle_gamma 90.000000
_cell_volume 3249.331281
_symmetry_space_group_name_H-M "P M N A"
_symmetry_group_IT_number 53
_symmetry_cell_setting 'orthorhombic'
loop_
_space_group_symop_operation_xyz
x,y,z
1/2-x,-y,1/2+z
x,-y,-z
1/2-x,y,1/2-z
-x,-y,-z
1/2+x,y,1/2-z
-x,y,z
1/2+x,-y,1/2+z
loop_
_atom_site_type_symbol
_atom_site_label
_atom_site_fract_x
_atom_site_fract_y
_atom_site_fract_z
Si Si1 0.669567 0.651041 0.642369
Si Si2 0.176623 0.584746 0.136965
Si Si3 0.678806 0.239891 0.801218
Si Si4 0.823608 0.408071 0.968776
Si Si5 0.169369 0.750477 0.954414
Si Si6 0.321175 0.967824 0.147978
Si Si7 0.177139 0.039020 0.450945
Si Si8 0.677099 0.826493 0.800322
O O1 0.500000 0.678476 0.658669
O O2 0.707255 0.532166 0.654653
O O3 0.684107 0.663053 0.585892
O O4 0.784155 0.726842 0.668294
O O5 0.269378 0.659115 0.170877
O O6 0.242409 0.598540 0.083973
O O7 0.000000 0.612218 0.139465
O O8 0.750000 0.240829 0.750000
O O9 0.500000 0.239654 0.796748
O O10 0.738837 0.137310 0.828240
O O11 0.000000 0.431159 0.964284
O O12 0.749213 0.500000 0.000000
O O13 0.790173 0.300018 0.995264
O O14 0.284748 0.841297 0.942991
O O15 0.000000 0.795557 0.955403
O O16 0.500000 0.970820 0.148486
O O17 0.261864 0.973236 0.093816
O O18 0.258925 0.068141 0.176012
O O19 0.000000 0.027153 0.453689
O O20 0.251500 0.000000 0.500000
O O21 0.750000 0.811917 0.750000
O O22 0.500000 0.832851 0.794464
#
# Coordination Sequence:
#
# PCOD8219198 Si02
#       8
#     8   8   8   8   8   8   8   8
#     4  10  20  36  58  86 118 153 191 235 287 344
#     4  10  21  38  61  88 120 157 199 241 290 347
#     4  11  24  43  64  85 114 151 200 252 301 349
#     4   9  16  31  56  85 116 152 189 228 278 334
#     4  10  19  33  56  85 117 150 191 237 279 332
#     4   9  20  39  60  85 115 150 189 234 286 345
#     4  10  21  37  57  82 119 160 188 220 283 354
#     4  11  22  38  61  86 113 144 187 239 294 351
#
# _framework density 19.696361
#
# number of rings (size 3 to 8) (size 9 to 14) (size 15 to 20)
#    0.000    2.000    2.500    1.125    1.750    1.250 
#    0.000    3.125    0.000    0.750    0.000    0.000 
#    0.000    0.000    0.000    0.000    0.000    0.000 
#
# Total GULP energy -793605.841665 kJ/mol
# GULP energy per Si atom -12400.091276 kJ/mol
# Density = 1.965153 g / cm^3
# Si number density = 19.696361 Si / 1000 Ang^3
#
#
#
# Elastic Constant Matrix: (Units=GPa)
#
#
# Indices 1 2 3 4 5 6 
#
# 1 39.2050 29.3117 32.7472 0.0000 0.0000 0.0000
# 2 29.3117 129.1545 67.9789 0.0000 0.0000 0.0000
# 3 32.7472 67.9789 142.1972 0.0000 0.0000 0.0000
# 4 0.0000 0.0000 0.0000 29.9582 0.0000 0.0000
# 5 0.0000 0.0000 0.0000 0.0000 8.2137 0.0000
# 6 0.0000 0.0000 0.0000 0.0000 0.0000 28.6606
#
#
#
# Elastic Compliance Matrix: (Units=1/GPa)
#
#
# Indices 1 2 3 4 5 6 
#
# 1 0.033632 -0.004752 -0.005474 0.000000 0.000000 0.000000
# 2 -0.004752 0.011017 -0.004173 0.000000 0.000000 0.000000
# 3 -0.005474 -0.004173 0.010288 0.000000 0.000000 0.000000
# 4 0.000000 0.000000 0.000000 0.033380 0.000000 0.000000
# 5 0.000000 0.000000 0.000000 0.000000 0.121747 0.000000
# 6 0.000000 0.000000 0.000000 0.000000 0.000000 0.034891
#
#
# Mechanical properties :
#
#
# Convention : Reuss Voigt Hill
#
# Bulk Modulus (GPa) = 38.25442 63.40357 50.82900
# Shear Modulus (GPa) = 17.70135 25.40112 21.55124
#
# Velocity S-wave (km/s) = 3.00110 3.59505 3.31142
# Velocity P-wave (km/s) = 5.61009 7.03512 6.36262
#
# Compressibility (1/GPa) = 0.02614077
#
# Stress axis : x y z
#
# Youngs Moduli (GPa) = 29.73401 90.76643 97.20274
#
# Poissons Ratio (x) = 0.43130 0.53204
# Poissons Ratio (y) = 0.14129 0.40559
# Poissons Ratio (z) = 0.16275 0.37873
#
# Static dielectric constant tensor:
#      x y z
#    x 3.232260 0.000000 0.000000 
#    y 0.000000 3.572300 0.000000 
#    z 0.000000 0.000000 3.867870 
# 
# 
# High freq. dielectric constant tensor:
#      x y z
#    x 1.732750 0.000000 0.000000 
#    y 0.000000 1.771880 0.000000 
#    z 0.000000 0.000000 1.781600 
# 
# From -- ./inp_files/38271.got.cif
#   From: 2010.03.12/outbox.cif.g09.slc.cpg/sg53_20_cif.got.tgz:38271.got - 2010.04.16 14:36:59.
