data_PCOD8219263
_publ_section_title
;
Structure prediction by ZEFSAII (Michael W. Deem and Ramdas Pophale) SiO2 
 PCOD8219263
Probable space group: P M N A
;
_chemical_formula_sum "Si O2"
_cell_formula_units_Z 64
_cell_length_a 27.026808
_cell_length_b 6.773377
_cell_length_c 17.423008
_cell_angle_alpha 90.000000
_cell_angle_beta 90.000000
_cell_angle_gamma 90.000000
_cell_volume 3189.503927
_symmetry_space_group_name_H-M "P M N A"
_symmetry_group_IT_number 53
_symmetry_cell_setting 'orthorhombic'
loop_
_space_group_symop_operation_xyz
x,y,z
1/2-x,-y,1/2+z
x,-y,-z
1/2-x,y,1/2-z
-x,-y,-z
1/2+x,y,1/2-z
-x,y,z
1/2+x,-y,1/2+z
loop_
_atom_site_type_symbol
_atom_site_label
_atom_site_fract_x
_atom_site_fract_y
_atom_site_fract_z
Si Si1 0.131768 0.043977 0.587667
Si Si2 0.795927 0.392649 0.923789
Si Si3 0.875076 0.076345 0.920746
Si Si4 0.053792 0.967055 0.207267
Si Si5 0.110556 0.273046 0.297375
Si Si6 0.810492 0.232060 0.172975
Si Si7 0.057006 0.329542 0.653483
Si Si8 0.734571 0.901949 0.167712
O O1 0.089835 0.217066 0.588160
O O2 0.176468 0.096427 0.646951
O O3 0.148783 0.000000 0.500000
O O4 0.109344 0.843161 0.622041
O O5 0.803725 0.549027 0.857163
O O6 0.756072 0.229984 0.900350
O O7 0.846506 0.277715 0.939550
O O8 0.776452 0.500000 0.000000
O O9 0.842581 0.903810 0.883218
O O10 0.917703 0.134749 0.862341
O O11 0.898163 0.000000 0.000000
O O12 0.053536 0.815378 0.275962
O O13 0.000000 0.013138 0.175624
O O14 0.075172 0.175782 0.234179
O O15 0.165188 0.263783 0.257635
O O16 0.088660 0.484881 0.318173
O O17 0.757250 0.123143 0.174012
O O18 0.000000 0.379245 0.625569
O O19 0.750000 0.802447 0.250000
#
# Coordination Sequence:
#
# PCOD8219263 Si02
#       8
#     8   8   8   8   8   8   8   8
#     4  11  26  44  61  92 133 163 201 268 326 378
#     4  11  23  37  62  90 120 167 208 249 303 361
#     4  10  19  34  54  83 124 160 208 253 296 364
#     4   9  19  35  58  88 120 157 202 259 316 366
#     4  10  20  39  65  88 118 162 209 259 316 377
#     4  10  21  37  60  87 120 166 212 254 302 371
#     4  10  22  42  69  94 119 159 215 269 322 382
#     4  11  25  43  63  91 128 166 210 256 308 383
#
# _framework density 20.065816999999999
#
# number of rings (size 3 to 8) (size 9 to 14) (size 15 to 20)
#    0.000    1.750    2.500    1.125    5.250    3.000 
#    0.000    0.625    0.000    0.375    0.000    0.000 
#    0.000    0.000    0.000    0.000    0.000    0.000 
#
# Total GULP energy -793045.148484 kJ/mol
# GULP energy per Si atom -12391.330445 kJ/mol
# Density = 2.002015 g / cm^3
# Si number density = 20.065817 Si / 1000 Ang^3
#
#
#
# Elastic Constant Matrix: (Units=GPa)
#
#
# Indices 1 2 3 4 5 6 
#
# 1 106.9491 27.5590 28.3872 0.0000 0.0000 0.0000
# 2 27.5590 102.9476 19.9477 0.0000 0.0000 0.0000
# 3 28.3872 19.9477 96.6814 0.0000 0.0000 0.0000
# 4 0.0000 0.0000 0.0000 21.8151 0.0000 0.0000
# 5 0.0000 0.0000 0.0000 0.0000 18.9862 0.0000
# 6 0.0000 0.0000 0.0000 0.0000 0.0000 15.3287
#
#
#
# Elastic Compliance Matrix: (Units=1/GPa)
#
#
# Indices 1 2 3 4 5 6 
#
# 1 0.010655 -0.002340 -0.002646 0.000000 0.000000 0.000000
# 2 -0.002340 0.010632 -0.001507 0.000000 0.000000 0.000000
# 3 -0.002646 -0.001507 0.011431 0.000000 0.000000 0.000000
# 4 0.000000 0.000000 0.000000 0.045840 0.000000 0.000000
# 5 0.000000 0.000000 0.000000 0.000000 0.052670 0.000000
# 6 0.000000 0.000000 0.000000 0.000000 0.000000 0.065237
#
#
# Mechanical properties :
#
#
# Convention : Reuss Voigt Hill
#
# Bulk Modulus (GPa) = 50.67434 50.92953 50.80194
# Shear Modulus (GPa) = 23.14520 26.60495 24.87508
#
# Velocity S-wave (km/s) = 3.39995 3.64522 3.52472
# Velocity P-wave (km/s) = 6.38136 6.56911 6.47592
#
# Compressibility (1/GPa) = 0.01973385
#
# Stress axis : x y z
#
# Youngs Moduli (GPa) = 93.84871 94.05593 87.48157
#
# Poissons Ratio (x) = 0.22007 0.23146
# Poissons Ratio (y) = 0.21958 0.13180
# Poissons Ratio (z) = 0.24831 0.14171
#
# Static dielectric constant tensor:
#      x y z
#    x 3.914710 0.000000 0.000000 
#    y 0.000000 3.612030 0.000000 
#    z 0.000000 0.000000 3.629400 
# 
# 
# High freq. dielectric constant tensor:
#      x y z
#    x 1.778220 0.000000 0.000000 
#    y 0.000000 1.784140 0.000000 
#    z 0.000000 0.000000 1.780560 
# 
# From -- ./inp_files/29835.got.cif
#   From: 2010.03.12/outbox.cif.g09.slc.cpg/sg53_15_cif.got.tgz:29835.got - 2010.04.16 14:36:59.
