data_PCOD8219306
_publ_section_title
;
Structure prediction by ZEFSAII (Michael W. Deem and Ramdas Pophale) SiO2 
 PCOD8219306
Probable space group: P M N A
;
_chemical_formula_sum "Si O2"
_cell_formula_units_Z 48
_cell_length_a 8.729333
_cell_length_b 31.273661
_cell_length_c 9.103349
_cell_angle_alpha 90.000000
_cell_angle_beta 90.000000
_cell_angle_gamma 90.000000
_cell_volume 2485.197900
_symmetry_space_group_name_H-M "P M N A"
_symmetry_group_IT_number 53
_symmetry_cell_setting 'orthorhombic'
loop_
_space_group_symop_operation_xyz
x,y,z
1/2-x,-y,1/2+z
x,-y,-z
1/2-x,y,1/2-z
-x,-y,-z
1/2+x,y,1/2-z
-x,y,z
1/2+x,-y,1/2+z
loop_
_atom_site_type_symbol
_atom_site_label
_atom_site_fract_x
_atom_site_fract_y
_atom_site_fract_z
Si Si1 0.318720 0.459104 0.591032
Si Si2 0.318635 0.882222 0.090541
Si Si3 0.319150 0.621009 0.589182
Si Si4 0.822047 0.287018 0.093222
Si Si5 0.318289 0.193988 0.412904
Si Si6 0.323095 0.957469 0.593392
O O1 0.262086 0.500000 0.500000
O O2 0.250000 0.463050 0.750000
O O3 0.500000 0.457720 0.602650
O O4 0.253425 0.416043 0.515235
O O5 0.250000 0.891248 0.250000
O O6 0.500000 0.880712 0.103042
O O7 0.257659 0.837685 0.028072
O O8 0.269630 0.919595 0.981677
O O9 0.250000 0.615667 0.750000
O O10 0.500000 0.615966 0.605469
O O11 0.275714 0.667777 0.515732
O O12 0.750000 0.288180 0.250000
O O13 0.776625 0.241452 0.020334
O O14 0.000000 0.286663 0.120164
O O15 0.250000 0.187251 0.250000
O O16 0.500000 0.186072 0.404930
O O17 0.250000 0.966998 0.750000
O O18 0.500000 0.943880 0.609743
O O19 0.304920 0.000000 0.500000
#
# Coordination Sequence:
#
# PCOD8219306 Si02
#       6
#     8   8   8   8   8   8
#     4  10  21  35  51  73 101 133 170 213 260 313
#     4  12  25  41  60  83 114 150 189 232 279 329
#     4   9  17  31  51  76 104 134 172 215 261 313
#     4   8  15  28  49  75 104 137 173 217 263 312
#     4  10  19  34  56  82 111 144 184 227 273 322
#     4  11  24  42  65  92 121 153 189 229 274 324
#
# _framework density 19.314357000000001
#
# number of rings (size 3 to 8) (size 9 to 14) (size 15 to 20)
#    0.000    2.000    0.000    4.000    0.000    4.333 
#    0.000    0.833    0.000    2.000    0.000    0.000 
#    0.000    0.000    0.000    0.000    0.000    0.000 
#
# Total GULP energy -594837.434891 kJ/mol
# GULP energy per Si atom -12392.446560 kJ/mol
# Density = 1.927040 g / cm^3
# Si number density = 19.314357 Si / 1000 Ang^3
#
#
#
# Elastic Constant Matrix: (Units=GPa)
#
#
# Indices 1 2 3 4 5 6 
#
# 1 79.8192 47.7917 37.9787 0.0000 0.0000 0.0000
# 2 47.7917 152.6994 52.5691 0.0000 0.0000 0.0000
# 3 37.9787 52.5691 108.1837 0.0000 0.0000 0.0000
# 4 0.0000 0.0000 0.0000 43.9246 0.0000 0.0000
# 5 0.0000 0.0000 0.0000 0.0000 29.8413 0.0000
# 6 0.0000 0.0000 0.0000 0.0000 0.0000 -71.0122
#
#
#
# Elastic Compliance Matrix: (Units=1/GPa)
#
#
# Indices 1 2 3 4 5 6 
#
# 1 0.016745 -0.003863 -0.004001 0.000000 0.000000 0.000000
# 2 -0.003863 0.008756 -0.002898 0.000000 0.000000 0.000000
# 3 -0.004001 -0.002898 0.012057 0.000000 0.000000 0.000000
# 4 0.000000 0.000000 0.000000 0.022766 0.000000 0.000000
# 5 0.000000 0.000000 0.000000 0.000000 0.033511 0.000000
# 6 0.000000 0.000000 0.000000 0.000000 0.000000 -0.014082
#
#
# Mechanical properties :
#
#
# Convention : Reuss Voigt Hill
#
# Bulk Modulus (GPa) = 62.37664 68.59795 65.48730
# Shear Modulus (GPa) = 46.89439 14.04160 30.46800
#
# Velocity S-wave (km/s) = 4.93277 2.69922 3.97606
# Velocity P-wave (km/s) = 8.05038 6.73113 7.42013
#
# Compressibility (1/GPa) = 0.01603164
#
# Stress axis : x y z
#
# Youngs Moduli (GPa) = 59.71788 114.20997 82.94225
#
# Poissons Ratio (x) = 0.44125 0.33187
# Poissons Ratio (y) = 0.23072 0.24040
# Poissons Ratio (z) = 0.23895 0.33102
#
# Static dielectric constant tensor:
#      x y z
#    x 3.529260 0.000000 0.000000 
#    y 0.000000 4.476410 0.000000 
#    z 0.000000 0.000000 3.360650 
# 
# 
# High freq. dielectric constant tensor:
#      x y z
#    x 1.755310 0.000000 0.000000 
#    y 0.000000 1.784170 0.000000 
#    z 0.000000 0.000000 1.726790 
# 
# From -- ./inp_files/6723.got.cif
#   From: 2010.03.12/outbox.cif.g09.slc.cpg/sg53_4_cif.got.tgz:6723.got - 2010.04.16 14:36:59.
