data_PCOD8219910
_publ_section_title
;
Structure prediction by ZEFSAII (Michael W. Deem and Ramdas Pophale) SiO2 
 PCOD8219910
Probable space group: P M N A
;
_chemical_formula_sum "Si O2"
_cell_formula_units_Z 56
_cell_length_a 9.455965
_cell_length_b 14.041044
_cell_length_c 20.811311
_cell_angle_alpha 90.000000
_cell_angle_beta 90.000000
_cell_angle_gamma 90.000000
_cell_volume 2763.151489
_symmetry_space_group_name_H-M "P M N A"
_symmetry_group_IT_number 53
_symmetry_cell_setting 'orthorhombic'
loop_
_space_group_symop_operation_xyz
x,y,z
1/2-x,-y,1/2+z
x,-y,-z
1/2-x,y,1/2-z
-x,-y,-z
1/2+x,y,1/2-z
-x,y,z
1/2+x,-y,1/2+z
loop_
_atom_site_type_symbol
_atom_site_label
_atom_site_fract_x
_atom_site_fract_y
_atom_site_fract_z
Si Si1 0.658509 0.185207 0.875849
Si Si2 0.657688 0.335400 0.988451
Si Si3 0.157985 0.677748 0.195490
Si Si4 0.662837 0.140705 0.313987
Si Si5 0.156453 0.472764 0.916205
Si Si6 0.335784 0.685251 0.604041
Si Si7 0.838309 0.013203 0.923906
O O1 0.500000 0.163133 0.850318
O O2 0.649895 0.266392 0.928765
O O3 0.759766 0.223827 0.819656
O O4 0.725958 0.090960 0.903634
O O5 0.500000 0.363112 0.011367
O O6 0.741280 0.433709 0.972504
O O7 0.741300 0.279405 0.044322
O O8 0.250000 0.625452 0.250000
O O9 0.152985 0.606050 0.137658
O O10 0.000000 0.702746 0.219261
O O11 0.750000 0.111135 0.250000
O O12 0.500000 0.130760 0.294009
O O13 0.700526 0.250080 0.333789
O O14 0.694067 0.077774 0.378048
O O15 0.204260 0.573744 0.884989
O O16 0.000000 0.483805 0.945891
O O17 0.500000 0.700068 0.586154
O O18 0.000000 0.047099 0.912718
O O19 0.813527 0.000000 0.000000
#
# Coordination Sequence:
#
# PCOD8219910 Si02
#       7
#     8   8   8   8   8   8   8
#     4  10  21  36  55  81 111 141 175 220 276 334
#     4  10  20  33  52  83 117 144 178 228 283 334
#     4  10  20  35  54  77 107 142 181 224 271 325
#     4  10  23  41  60  84 115 151 192 239 290 348
#     4   9  19  34  53  78 109 147 188 230 276 329
#     4  10  20  36  57  79 107 148 192 227 269 330
#     4  10  21  39  63  88 113 147 192 239 289 346
#
# _framework density 20.266715000000001
#
# number of rings (size 3 to 8) (size 9 to 14) (size 15 to 20)
#    0.000    2.143    0.000    2.571    0.000    8.286 
#    0.000    1.429    0.000    0.000    0.000    0.000 
#    0.000    0.000    0.000    0.000    0.000    0.000 
#
# Total GULP energy -693994.089617 kJ/mol
# GULP energy per Si atom -12392.751600 kJ/mol
# Density = 2.022059 g / cm^3
# Si number density = 20.266715 Si / 1000 Ang^3
#
#
#
# Elastic Constant Matrix: (Units=GPa)
#
#
# Indices 1 2 3 4 5 6 
#
# 1 125.1147 39.8860 45.0937 0.0000 0.0000 0.0000
# 2 39.8860 87.6504 25.9325 0.0000 0.0000 0.0000
# 3 45.0937 25.9325 99.2273 0.0000 0.0000 0.0000
# 4 0.0000 0.0000 0.0000 22.6548 0.0000 0.0000
# 5 0.0000 0.0000 0.0000 0.0000 30.9622 0.0000
# 6 0.0000 0.0000 0.0000 0.0000 0.0000 25.7930
#
#
#
# Elastic Compliance Matrix: (Units=1/GPa)
#
#
# Indices 1 2 3 4 5 6 
#
# 1 0.010542 -0.003663 -0.003834 0.000000 0.000000 0.000000
# 2 -0.003663 0.013638 -0.001900 0.000000 0.000000 0.000000
# 3 -0.003834 -0.001900 0.012316 0.000000 0.000000 0.000000
# 4 0.000000 0.000000 0.000000 0.044141 0.000000 0.000000
# 5 0.000000 0.000000 0.000000 0.000000 0.032297 0.000000
# 6 0.000000 0.000000 0.000000 0.000000 0.000000 0.038770
#
#
# Mechanical properties :
#
#
# Convention : Reuss Voigt Hill
#
# Bulk Modulus (GPa) = 56.48376 59.31300 57.89838
# Shear Modulus (GPa) = 28.34492 29.28734 28.81613
#
# Velocity S-wave (km/s) = 3.74384 3.80557 3.77483
# Velocity P-wave (km/s) = 6.82782 6.97420 6.90140
#
# Compressibility (1/GPa) = 0.01770421
#
# Stress axis : x y z
#
# Youngs Moduli (GPa) = 94.85763 73.32527 81.19230
#
# Poissons Ratio (x) = 0.26860 0.31125
# Poissons Ratio (y) = 0.34747 0.15423
# Poissons Ratio (z) = 0.36364 0.13928
#
# Static dielectric constant tensor:
#      x y z
#    x 4.062230 0.000000 0.000000 
#    y 0.000000 3.872150 0.000000 
#    z 0.000000 0.000000 3.703340 
# 
# 
# High freq. dielectric constant tensor:
#      x y z
#    x 1.797710 0.000000 0.000000 
#    y 0.000000 1.787920 0.000000 
#    z 0.000000 0.000000 1.785310 
# 
# From -- ./inp_files/30786.got.cif
#   From: 2010.03.12/outbox.cif.g09.slc.cpg/sg53_16_cif.got.tgz:30786.got - 2010.04.16 14:36:59.
