data_PCOD8219700
_publ_section_title
;
Structure prediction by ZEFSAII (Michael W. Deem and Ramdas Pophale) SiO2 
 PCOD8219700
Probable space group: P M N A
;
_chemical_formula_sum "Si O2"
_cell_formula_units_Z 64
_cell_length_a 8.997426
_cell_length_b 22.916368
_cell_length_c 17.421860
_cell_angle_alpha 90.000000
_cell_angle_beta 90.000000
_cell_angle_gamma 90.000000
_cell_volume 3592.184136
_symmetry_space_group_name_H-M "P M N A"
_symmetry_group_IT_number 53
_symmetry_cell_setting 'orthorhombic'
loop_
_space_group_symop_operation_xyz
x,y,z
1/2-x,-y,1/2+z
x,-y,-z
1/2-x,y,1/2-z
-x,-y,-z
1/2+x,y,1/2-z
-x,y,z
1/2+x,-y,1/2+z
loop_
_atom_site_type_symbol
_atom_site_label
_atom_site_fract_x
_atom_site_fract_y
_atom_site_fract_z
Si Si1 0.327293 0.745956 0.520626
Si Si2 0.176387 0.944027 0.669106
Si Si3 0.675044 0.869029 0.979255
Si Si4 0.327493 0.360669 0.954504
Si Si5 0.670967 0.318317 0.322575
Si Si6 0.667451 0.961157 0.424838
Si Si7 0.825563 0.452141 0.668782
Si Si8 0.327666 0.423887 0.110103
O O1 0.500000 0.759123 0.505407
O O2 0.231645 0.803711 0.513839
O O3 0.270397 0.697891 0.459955
O O4 0.297078 0.722104 0.605200
O O5 0.250000 0.924980 0.750000
O O6 0.217947 0.896160 0.603965
O O7 0.000000 0.949694 0.679542
O O8 0.242846 0.006436 0.642960
O O9 0.500000 0.871724 0.990868
O O10 0.748695 0.902258 0.051196
O O11 0.500000 0.342511 0.954162
O O12 0.279291 0.394358 0.877803
O O13 0.293780 0.405728 0.023036
O O14 0.750000 0.287906 0.250000
O O15 0.500000 0.324714 0.304132
O O16 0.736168 0.382893 0.332912
O O17 0.500000 0.947492 0.396078
O O18 0.662623 0.000000 0.500000
O O19 0.750000 0.448869 0.750000
O O20 0.774330 0.509783 0.622540
O O21 0.000000 0.453971 0.680932
O O22 0.500000 0.416010 0.130059
#
# Coordination Sequence:
#
# PCOD8219700 Si02
#       8
#     8   8   8   8   8   8   8   8
#     4  10  21  35  51  72  97 128 169 212 251 292
#     4  10  20  33  51  78 111 142 171 205 247 294
#     4  10  20  34  53  76 102 135 174 211 248 295
#     4   9  18  34  53  71  95 129 167 205 248 299
#     4  10  20  32  46  67  97 131 165 202 246 297
#     4   9  17  31  52  76 103 135 169 205 245 288
#     4  10  20  32  49  74 100 126 158 200 251 305
#     4   9  17  31  51  72  95 125 162 202 245 298
#
# _framework density 17.816458000000001
#
# number of rings (size 3 to 8) (size 9 to 14) (size 15 to 20)
#    0.000    2.375    0.000    2.625    0.000    8.500 
#    0.000    2.500    0.000    4.500    0.000    3.500 
#    0.000    0.000    0.000    0.000    0.000    0.000 
#
# Total GULP energy -793601.824798 kJ/mol
# GULP energy per Si atom -12400.028512 kJ/mol
# Density = 1.777591 g / cm^3
# Si number density = 17.816458 Si / 1000 Ang^3
#
#
#
# Elastic Constant Matrix: (Units=GPa)
#
#
# Indices 1 2 3 4 5 6 
#
# 1 69.7462 48.0270 26.9851 0.0000 0.0000 0.0000
# 2 48.0270 108.4774 42.5368 0.0000 0.0000 0.0000
# 3 26.9851 42.5368 55.7635 0.0000 0.0000 0.0000
# 4 0.0000 0.0000 0.0000 9.3638 0.0000 0.0000
# 5 0.0000 0.0000 0.0000 0.0000 30.6641 0.0000
# 6 0.0000 0.0000 0.0000 0.0000 0.0000 27.1850
#
#
#
# Elastic Compliance Matrix: (Units=1/GPa)
#
#
# Indices 1 2 3 4 5 6 
#
# 1 0.021376 -0.007715 -0.004459 0.000000 0.000000 0.000000
# 2 -0.007715 0.015938 -0.008424 0.000000 0.000000 0.000000
# 3 -0.004459 -0.008424 0.026516 0.000000 0.000000 0.000000
# 4 0.000000 0.000000 0.000000 0.106795 0.000000 0.000000
# 5 0.000000 0.000000 0.000000 0.000000 0.032611 0.000000
# 6 0.000000 0.000000 0.000000 0.000000 0.000000 0.036785
#
#
# Mechanical properties :
#
#
# Convention : Reuss Voigt Hill
#
# Bulk Modulus (GPa) = 44.18178 52.12056 48.15117
# Shear Modulus (GPa) = 17.31539 21.20512 19.26025
#
# Velocity S-wave (km/s) = 3.12087 3.45367 3.29148
# Velocity P-wave (km/s) = 6.15131 6.72469 6.44438
#
# Compressibility (1/GPa) = 0.02263377
#
# Stress axis : x y z
#
# Youngs Moduli (GPa) = 46.78232 62.74504 37.71283
#
# Poissons Ratio (x) = 0.48410 0.16815
# Poissons Ratio (y) = 0.36094 0.31768
# Poissons Ratio (z) = 0.20859 0.52854
#
# Static dielectric constant tensor:
#      x y z
#    x 3.395540 0.000000 0.000000 
#    y 0.000000 3.258600 0.000000 
#    z 0.000000 0.000000 3.307660 
# 
# 
# High freq. dielectric constant tensor:
#      x y z
#    x 1.697350 0.000000 0.000000 
#    y 0.000000 1.679720 0.000000 
#    z 0.000000 0.000000 1.673950 
# 
# From -- ./inp_files/26860.got.cif
#   From: 2010.03.12/outbox.cif.g09.slc.cpg/sg53_14_cif.got.tgz:26860.got - 2010.04.16 14:36:59.
