data_PCOD8219969
_publ_section_title
;
Structure prediction by ZEFSAII (Michael W. Deem and Ramdas Pophale) SiO2 
 PCOD8219969
Probable space group: P M N A
;
_chemical_formula_sum "Si O2"
_cell_formula_units_Z 56
_cell_length_a 9.279850
_cell_length_b 17.025286
_cell_length_c 19.205405
_cell_angle_alpha 90.000000
_cell_angle_beta 90.000000
_cell_angle_gamma 90.000000
_cell_volume 3034.302273
_symmetry_space_group_name_H-M "P M N A"
_symmetry_group_IT_number 53
_symmetry_cell_setting 'orthorhombic'
loop_
_space_group_symop_operation_xyz
x,y,z
1/2-x,-y,1/2+z
x,-y,-z
1/2-x,y,1/2-z
-x,-y,-z
1/2+x,y,1/2-z
-x,y,z
1/2+x,-y,1/2+z
loop_
_atom_site_type_symbol
_atom_site_label
_atom_site_fract_x
_atom_site_fract_y
_atom_site_fract_z
Si Si1 0.658163 0.257004 0.688334
Si Si2 0.167503 0.521409 0.579586
Si Si3 0.828529 0.077328 0.038563
Si Si4 0.830941 0.679245 0.906013
Si Si5 0.159338 0.439954 0.812235
Si Si6 0.169940 0.162857 0.176792
Si Si7 0.171035 0.771430 0.038063
O O1 0.750000 0.217185 0.750000
O O2 0.500000 0.217380 0.689160
O O3 0.641574 0.348601 0.702414
O O4 0.737583 0.243197 0.614371
O O5 0.192947 0.500000 0.500000
O O6 0.236773 0.602248 0.608298
O O7 0.250562 0.451223 0.617638
O O8 0.000000 0.522702 0.599233
O O9 0.782099 0.096306 0.119109
O O10 0.000000 0.074916 0.037534
O O11 0.768606 0.146787 0.990432
O O12 0.764750 0.000000 0.000000
O O13 0.792480 0.750185 0.852885
O O14 0.000000 0.659147 0.900779
O O15 0.786078 0.703226 0.984418
O O16 0.250000 0.480339 0.750000
O O17 0.000000 0.478588 0.817092
O O18 0.250000 0.147775 0.250000
O O19 0.000000 0.156440 0.190319
O O20 0.000000 0.773184 0.043957
#
# Coordination Sequence:
#
# PCOD8219969 Si02
#       7
#     8   8   8   8   8   8   8
#     4   9  17  29  46  67  90 118 152 192 235 279
#     4  11  23  35  48  71 101 129 162 207 255 301
#     4   8  14  27  49  75 100 128 163 198 231 274
#     4   9  18  33  51  69  90 123 168 209 245 289
#     4  10  20  34  51  68  90 124 162 200 246 295
#     4   9  18  32  52  77 102 130 165 206 249 294
#     4   8  14  27  47  68  90 119 158 197 230 273
#
# _framework density 18.455643999999999
#
# number of rings (size 3 to 8) (size 9 to 14) (size 15 to 20)
#    0.000    2.857    0.000    3.429    0.000    4.000 
#    0.000    2.857    0.000    1.286    0.000    0.000 
#    0.000    0.000    0.000    0.000    0.000    0.000 
#
# Total GULP energy -693809.312417 kJ/mol
# GULP energy per Si atom -12389.452007 kJ/mol
# Density = 1.841364 g / cm^3
# Si number density = 18.455644 Si / 1000 Ang^3
#
#
#
# Elastic Constant Matrix: (Units=GPa)
#
#
# Indices 1 2 3 4 5 6 
#
# 1 74.6988 18.7486 49.9543 0.0000 0.0000 0.0000
# 2 18.7486 48.0811 18.7599 0.0000 0.0000 0.0000
# 3 49.9543 18.7599 141.2290 0.0000 0.0000 0.0000
# 4 0.0000 0.0000 0.0000 24.3759 0.0000 0.0000
# 5 0.0000 0.0000 0.0000 0.0000 32.5755 0.0000
# 6 0.0000 0.0000 0.0000 0.0000 0.0000 11.7817
#
#
#
# Elastic Compliance Matrix: (Units=1/GPa)
#
#
# Indices 1 2 3 4 5 6 
#
# 1 0.018584 -0.004938 -0.005917 0.000000 0.000000 0.000000
# 2 -0.004938 0.023247 -0.001341 0.000000 0.000000 0.000000
# 3 -0.005917 -0.001341 0.009352 0.000000 0.000000 0.000000
# 4 0.000000 0.000000 0.000000 0.041024 0.000000 0.000000
# 5 0.000000 0.000000 0.000000 0.000000 0.030698 0.000000
# 6 0.000000 0.000000 0.000000 0.000000 0.000000 0.084877
#
#
# Mechanical properties :
#
#
# Convention : Reuss Voigt Hill
#
# Bulk Modulus (GPa) = 37.32795 48.77049 43.04922
# Shear Modulus (GPa) = 20.73790 25.51635 23.12713
#
# Velocity S-wave (km/s) = 3.35574 3.72234 3.54378
# Velocity P-wave (km/s) = 5.94006 6.70504 6.33411
#
# Compressibility (1/GPa) = 0.02678958
#
# Stress axis : x y z
#
# Youngs Moduli (GPa) = 53.81103 43.01633 106.92991
#
# Poissons Ratio (x) = 0.21240 0.63274
# Poissons Ratio (y) = 0.26570 0.14344
# Poissons Ratio (z) = 0.31842 0.05771
#
# Static dielectric constant tensor:
#      x y z
#    x 3.288380 0.000000 0.000000 
#    y 0.000000 3.307090 0.000000 
#    z 0.000000 0.000000 3.650450 
# 
# 
# High freq. dielectric constant tensor:
#      x y z
#    x 1.685010 0.000000 0.000000 
#    y 0.000000 1.691160 0.000000 
#    z 0.000000 0.000000 1.728570 
# 
# From -- ./inp_files/31032.got.cif
#   From: 2010.03.12/outbox.cif.g09.slc.cpg/sg53_16_cif.got.tgz:31032.got - 2010.04.16 14:36:59.
