data_PCOD8219432
_publ_section_title
;
Structure prediction by ZEFSAII (Michael W. Deem and Ramdas Pophale) SiO2 
 PCOD8219432
Probable space group: P M N A
;
_chemical_formula_sum "Si O2"
_cell_formula_units_Z 64
_cell_length_a 9.202786
_cell_length_b 23.703010
_cell_length_c 15.184131
_cell_angle_alpha 90.000000
_cell_angle_beta 90.000000
_cell_angle_gamma 90.000000
_cell_volume 3312.171110
_symmetry_space_group_name_H-M "P M N A"
_symmetry_group_IT_number 53
_symmetry_cell_setting 'orthorhombic'
loop_
_space_group_symop_operation_xyz
x,y,z
1/2-x,-y,1/2+z
x,-y,-z
1/2-x,y,1/2-z
-x,-y,-z
1/2+x,y,1/2-z
-x,y,z
1/2+x,-y,1/2+z
loop_
_atom_site_type_symbol
_atom_site_label
_atom_site_fract_x
_atom_site_fract_y
_atom_site_fract_z
Si Si1 0.331979 0.114818 0.105783
Si Si2 0.669311 0.710412 0.504849
Si Si3 0.831596 0.764779 0.665956
Si Si4 0.667201 0.880980 0.085484
Si Si5 0.833958 0.996850 0.332766
Si Si6 0.668922 0.216910 0.666438
Si Si7 0.672975 0.501420 0.653296
Si Si8 0.828693 0.417740 0.997890
O O1 0.500000 0.100712 0.089484
O O2 0.308723 0.167440 0.170475
O O3 0.259604 0.056783 0.140313
O O4 0.268879 0.132663 0.011075
O O5 0.500000 0.713322 0.531187
O O6 0.764517 0.739861 0.578468
O O7 0.700593 0.741793 0.414128
O O8 0.725018 0.646465 0.495282
O O9 0.750000 0.738433 0.750000
O O10 0.000000 0.748456 0.670191
O O11 0.500000 0.861917 0.098757
O O12 0.682053 0.948686 0.093839
O O13 0.765934 0.845598 0.152015
O O14 0.750000 0.972097 0.250000
O O15 0.000000 0.006977 0.306180
O O16 0.750000 0.244246 0.750000
O O17 0.500000 0.210643 0.686670
O O18 0.750000 0.502280 0.750000
O O19 0.500000 0.501017 0.670708
O O20 0.721548 0.554502 0.591281
O O21 0.724938 0.448248 0.592572
O O22 0.000000 0.422739 0.995767
#
# Coordination Sequence:
#
# PCOD8219432 Si02
#       8
#     8   8   8   8   8   8   8   8
#     4   9  18  34  55  77 101 136 177 221 275 333
#     4  10  21  39  59  81 111 148 192 235 273 320
#     4  11  22  37  58  82 111 146 186 230 281 334
#     4  10  19  35  57  77 102 135 178 226 275 333
#     4  10  20  33  51  75 102 133 172 219 273 334
#     4  11  23  37  56  80 109 145 185 229 279 332
#     4   9  17  33  58  85 114 149 185 223 270 322
#     4   8  17  35  57  80 112 152 186 221 272 326
#
# _framework density 19.322673000000002
#
# number of rings (size 3 to 8) (size 9 to 14) (size 15 to 20)
#    0.000    2.250    1.250    2.625    0.000    4.500 
#    0.000    5.000    0.000    1.500    0.000    0.000 
#    0.000    0.000    0.000    0.000    0.000    0.000 
#
# Total GULP energy -793206.062238 kJ/mol
# GULP energy per Si atom -12393.844722 kJ/mol
# Density = 1.927869 g / cm^3
# Si number density = 19.322673 Si / 1000 Ang^3
#
#
#
# Elastic Constant Matrix: (Units=GPa)
#
#
# Indices 1 2 3 4 5 6 
#
# 1 79.8693 43.4217 63.8405 0.0000 0.0000 0.0000
# 2 43.4217 112.3681 37.5727 0.0000 0.0000 0.0000
# 3 63.8405 37.5727 136.4070 0.0000 0.0000 0.0000
# 4 0.0000 0.0000 0.0000 8.8848 0.0000 0.0000
# 5 0.0000 0.0000 0.0000 0.0000 34.4796 0.0000
# 6 0.0000 0.0000 0.0000 0.0000 0.0000 18.6074
#
#
#
# Elastic Compliance Matrix: (Units=1/GPa)
#
#
# Indices 1 2 3 4 5 6 
#
# 1 0.023016 -0.005829 -0.009166 0.000000 0.000000 0.000000
# 2 -0.005829 0.011278 -0.000378 0.000000 0.000000 0.000000
# 3 -0.009166 -0.000378 0.011725 0.000000 0.000000 0.000000
# 4 0.000000 0.000000 0.000000 0.112552 0.000000 0.000000
# 5 0.000000 0.000000 0.000000 0.000000 0.029003 0.000000
# 6 0.000000 0.000000 0.000000 0.000000 0.000000 0.053742
#
#
# Mechanical properties :
#
#
# Convention : Reuss Voigt Hill
#
# Bulk Modulus (GPa) = 65.47906 68.70156 67.09031
# Shear Modulus (GPa) = 18.04044 24.64833 21.34439
#
# Velocity S-wave (km/s) = 3.05887 3.57545 3.32720
# Velocity P-wave (km/s) = 6.81442 7.25791 7.03966
#
# Compressibility (1/GPa) = 0.01527206
#
# Stress axis : x y z
#
# Youngs Moduli (GPa) = 43.44757 88.66536 85.28608
#
# Poissons Ratio (x) = 0.51683 0.78176
# Poissons Ratio (y) = 0.25326 0.03228
# Poissons Ratio (z) = 0.39826 0.03356
#
# Static dielectric constant tensor:
#      x y z
#    x 3.268920 0.000000 0.000000 
#    y 0.000000 3.790680 0.000000 
#    z 0.000000 0.000000 3.636900 
# 
# 
# High freq. dielectric constant tensor:
#      x y z
#    x 1.722850 0.000000 0.000000 
#    y 0.000000 1.750770 0.000000 
#    z 0.000000 0.000000 1.762840 
# 
# From -- ./inp_files/20814.got.cif
#   From: 2010.03.12/outbox.cif.g09.slc.cpg/sg53_11_cif.got.tgz:20814.got - 2010.04.16 14:36:59.
