data_PCOD8219182
_publ_section_title
;
Structure prediction by ZEFSAII (Michael W. Deem and Ramdas Pophale) SiO2 
 PCOD8219182
Probable space group: P M N A
;
_chemical_formula_sum "Si O2"
_cell_formula_units_Z 48
_cell_length_a 8.894579
_cell_length_b 10.278826
_cell_length_c 28.059539
_cell_angle_alpha 90.000000
_cell_angle_beta 90.000000
_cell_angle_gamma 90.000000
_cell_volume 2565.366639
_symmetry_space_group_name_H-M "P M N A"
_symmetry_group_IT_number 53
_symmetry_cell_setting 'orthorhombic'
loop_
_space_group_symop_operation_xyz
x,y,z
1/2-x,-y,1/2+z
x,-y,-z
1/2-x,y,1/2-z
-x,-y,-z
1/2+x,y,1/2-z
-x,y,z
1/2+x,-y,1/2+z
loop_
_atom_site_type_symbol
_atom_site_label
_atom_site_fract_x
_atom_site_fract_y
_atom_site_fract_z
Si Si1 0.326983 0.498653 0.897013
Si Si2 0.324955 0.989459 0.601242
Si Si3 0.823890 0.259658 0.944713
Si Si4 0.677002 0.754845 0.953253
Si Si5 0.325770 0.610538 0.796797
Si Si6 0.176724 0.886765 0.797902
O O1 0.500000 0.468110 0.910198
O O2 0.220594 0.383330 0.913540
O O3 0.273269 0.631498 0.921931
O O4 0.305385 0.511810 0.840366
O O5 0.500000 0.963655 0.592508
O O6 0.237622 0.885872 0.569747
O O7 0.284320 0.978133 0.657163
O O8 0.275749 0.132050 0.584518
O O9 0.000000 0.262019 0.954976
O O10 0.738635 0.264279 0.994217
O O11 0.500000 0.766597 0.955694
O O12 0.250000 0.546337 0.750000
O O13 0.500000 0.640180 0.787015
O O14 0.244695 0.745659 0.808670
O O15 0.250000 0.947403 0.750000
O O16 0.000000 0.873478 0.790007
#
# Coordination Sequence:
#
# PCOD8219182 Si02
#       6
#     8   8   8   8   8   8
#     4  10  22  39  57  82 115 147 185 231 278 330
#     4  10  22  39  57  82 115 148 185 230 277 330
#     4  11  24  39  56  81 115 151 189 231 279 334
#     4  11  22  38  60  84 111 146 190 235 279 330
#     4  10  19  34  56  84 113 142 181 229 277 327
#     4  10  19  33  56  83 111 142 180 227 276 325
#
# _framework density 18.710774000000001
#
# number of rings (size 3 to 8) (size 9 to 14) (size 15 to 20)
#    0.000    1.667    1.667    4.000    0.000    8.667 
#    0.000    0.833    0.000    4.000    0.000    0.000 
#    0.000    0.000    0.000    0.000    0.000    0.000 
#
# Total GULP energy -595342.658518 kJ/mol
# GULP energy per Si atom -12402.972052 kJ/mol
# Density = 1.866819 g / cm^3
# Si number density = 18.710774 Si / 1000 Ang^3
#
#
#
# Elastic Constant Matrix: (Units=GPa)
#
#
# Indices 1 2 3 4 5 6 
#
# 1 54.2409 27.3418 31.6693 0.0000 0.0000 0.0000
# 2 27.3418 85.8580 38.7371 0.0000 0.0000 0.0000
# 3 31.6693 38.7371 126.1326 0.0000 0.0000 0.0000
# 4 0.0000 0.0000 0.0000 -25.0195 0.0000 0.0000
# 5 0.0000 0.0000 0.0000 0.0000 19.5652 0.0000
# 6 0.0000 0.0000 0.0000 0.0000 0.0000 18.0843
#
#
#
# Elastic Compliance Matrix: (Units=1/GPa)
#
#
# Indices 1 2 3 4 5 6 
#
# 1 0.023756 -0.005658 -0.004227 0.000000 0.000000 0.000000
# 2 -0.005658 0.014868 -0.003146 0.000000 0.000000 0.000000
# 3 -0.004227 -0.003146 0.009956 0.000000 0.000000 0.000000
# 4 0.000000 0.000000 0.000000 -0.039969 0.000000 0.000000
# 5 0.000000 0.000000 0.000000 0.000000 0.051111 0.000000
# 6 0.000000 0.000000 0.000000 0.000000 0.000000 0.055297
#
#
# Mechanical properties :
#
#
# Convention : Reuss Voigt Hill
#
# Bulk Modulus (GPa) = 44.40776 51.30310 47.85543
# Shear Modulus (GPa) = 33.65028 13.75820 23.70424
#
# Velocity S-wave (km/s) = 4.24541 2.71460 3.56318
# Velocity P-wave (km/s) = 6.91496 6.10770 6.52382
#
# Compressibility (1/GPa) = 0.02251859
#
# Stress axis : x y z
#
# Youngs Moduli (GPa) = 42.09381 67.25751 100.44649
#
# Poissons Ratio (x) = 0.38055 0.42459
# Poissons Ratio (y) = 0.23817 0.31596
# Poissons Ratio (z) = 0.17793 0.21156
#
# Static dielectric constant tensor:
#      x y z
#    x 3.533020 0.000000 0.000000 
#    y 0.000000 3.356130 0.000000 
#    z 0.000000 0.000000 3.821670 
# 
# 
# High freq. dielectric constant tensor:
#      x y z
#    x 1.736940 0.000000 0.000000 
#    y 0.000000 1.708180 0.000000 
#    z 0.000000 0.000000 1.746080 
# 
# From -- ./inp_files/36153.got.cif
#   From: 2010.03.12/outbox.cif.g09.slc.cpg/sg53_19_cif.got.tgz:36153.got - 2010.04.16 14:36:59.
