data_PCOD8219338
_publ_section_title
;
Structure prediction by ZEFSAII (Michael W. Deem and Ramdas Pophale) SiO2 
 PCOD8219338
Probable space group: P M N A
;
_chemical_formula_sum "Si O2"
_cell_formula_units_Z 64
_cell_length_a 9.046374
_cell_length_b 12.443186
_cell_length_c 30.236477
_cell_angle_alpha 90.000000
_cell_angle_beta 90.000000
_cell_angle_gamma 90.000000
_cell_volume 3403.590632
_symmetry_space_group_name_H-M "P M N A"
_symmetry_group_IT_number 53
_symmetry_cell_setting 'orthorhombic'
loop_
_space_group_symop_operation_xyz
x,y,z
1/2-x,-y,1/2+z
x,-y,-z
1/2-x,y,1/2-z
-x,-y,-z
1/2+x,y,1/2-z
-x,y,z
1/2+x,-y,1/2+z
loop_
_atom_site_type_symbol
_atom_site_label
_atom_site_fract_x
_atom_site_fract_y
_atom_site_fract_z
Si Si1 0.827320 0.836100 0.377584
Si Si2 0.171201 0.390887 0.591203
Si Si3 0.673821 0.613806 0.590368
Si Si4 0.324548 0.180579 0.120889
Si Si5 0.839980 0.374802 0.495219
Si Si6 0.662914 0.128219 0.290882
Si Si7 0.160487 0.883426 0.210031
Si Si8 0.325435 0.996946 0.949696
O O1 0.795091 0.708080 0.376579
O O2 0.745014 0.882300 0.335864
O O3 0.771500 0.898364 0.421855
O O4 0.000000 0.859918 0.372025
O O5 0.270947 0.493925 0.602432
O O6 0.209019 0.336129 0.543623
O O7 0.000000 0.427629 0.592719
O O8 0.500000 0.619290 0.597711
O O9 0.756539 0.699811 0.620611
O O10 0.712994 0.648149 0.540147
O O11 0.500000 0.187125 0.125112
O O12 0.259114 0.127697 0.164678
O O13 0.277449 0.110622 0.077514
O O14 0.866175 0.500000 0.500000
O O15 0.000000 0.322450 0.481099
O O16 0.750000 0.185853 0.250000
O O17 0.500000 0.182537 0.297613
O O18 0.636033 0.006212 0.276667
O O19 0.250000 0.825528 0.250000
O O20 0.000000 0.826685 0.205455
O O21 0.500000 0.998858 0.954178
O O22 0.257582 0.000000 0.000000
#
# Coordination Sequence:
#
# PCOD8219338 Si02
#       8
#     8   8   8   8   8   8   8   8
#     4  10  19  34  57  83 111 142 184 229 272 324
#     4   9  19  34  54  77 104 140 185 232 274 322
#     4  11  22  34  50  74 107 143 185 231 277 325
#     4  11  21  35  58  81 110 146 186 228 273 327
#     4   8  15  30  50  71  95 130 181 230 269 310
#     4  10  20  35  56  82 112 141 178 224 274 325
#     4  10  20  34  55  81 112 143 178 223 272 325
#     4   9  19  33  53  81 111 146 187 226 266 320
#
# _framework density 18.803671000000001
#
# number of rings (size 3 to 8) (size 9 to 14) (size 15 to 20)
#    0.000    2.250    1.250    3.000    1.750    3.750 
#    0.000    0.000    0.000    2.625    0.000    1.750 
#    0.000    0.000    0.000    0.000    0.000    0.000 
#
# Total GULP energy -792985.703036 kJ/mol
# GULP energy per Si atom -12390.401610 kJ/mol
# Density = 1.876087 g / cm^3
# Si number density = 18.803671 Si / 1000 Ang^3
#
#
#
# Elastic Constant Matrix: (Units=GPa)
#
#
# Indices 1 2 3 4 5 6 
#
# 1 109.8542 39.9866 48.4287 0.0000 0.0000 0.0000
# 2 39.9866 70.9018 25.1265 0.0000 0.0000 0.0000
# 3 48.4287 25.1265 120.6599 0.0000 0.0000 0.0000
# 4 0.0000 0.0000 0.0000 13.5912 0.0000 0.0000
# 5 0.0000 0.0000 0.0000 0.0000 21.8753 0.0000
# 6 0.0000 0.0000 0.0000 0.0000 0.0000 16.7004
#
#
#
# Elastic Compliance Matrix: (Units=1/GPa)
#
#
# Indices 1 2 3 4 5 6 
#
# 1 0.013021 -0.005929 -0.003991 0.000000 0.000000 0.000000
# 2 -0.005929 0.017927 -0.001354 0.000000 0.000000 0.000000
# 3 -0.003991 -0.001354 0.010172 0.000000 0.000000 0.000000
# 4 0.000000 0.000000 0.000000 0.073577 0.000000 0.000000
# 5 0.000000 0.000000 0.000000 0.000000 0.045714 0.000000
# 6 0.000000 0.000000 0.000000 0.000000 0.000000 0.059879
#
#
# Mechanical properties :
#
#
# Convention : Reuss Voigt Hill
#
# Bulk Modulus (GPa) = 53.84438 58.72215 56.28326
# Shear Modulus (GPa) = 20.07809 22.95831 21.51820
#
# Velocity S-wave (km/s) = 3.27123 3.49800 3.38651
# Velocity P-wave (km/s) = 6.55478 6.90011 6.72966
#
# Compressibility (1/GPa) = 0.01857204
#
# Stress axis : x y z
#
# Youngs Moduli (GPa) = 76.80120 55.78057 98.31237
#
# Poissons Ratio (x) = 0.33071 0.39241
# Poissons Ratio (y) = 0.45534 0.13308
# Poissons Ratio (z) = 0.30655 0.07551
#
# Static dielectric constant tensor:
#      x y z
#    x 3.442970 0.000000 0.000000 
#    y 0.000000 3.294270 0.000000 
#    z 0.000000 0.000000 5.073700 
# 
# 
# High freq. dielectric constant tensor:
#      x y z
#    x 1.718740 0.000000 0.000000 
#    y 0.000000 1.706190 0.000000 
#    z 0.000000 0.000000 1.722600 
# 
# From -- ./inp_files/38127.got.cif
#   From: 2010.03.12/outbox.cif.g09.slc.cpg/sg53_20_cif.got.tgz:38127.got - 2010.04.16 14:36:59.
