data_PCOD8219310
_publ_section_title
;
Structure prediction by ZEFSAII (Michael W. Deem and Ramdas Pophale) SiO2 
 PCOD8219310
Probable space group: P M N A
;
_chemical_formula_sum "Si O2"
_cell_formula_units_Z 64
_cell_length_a 8.804283
_cell_length_b 17.352363
_cell_length_c 22.454947
_cell_angle_alpha 90.000000
_cell_angle_beta 90.000000
_cell_angle_gamma 90.000000
_cell_volume 3430.557101
_symmetry_space_group_name_H-M "P M N A"
_symmetry_group_IT_number 53
_symmetry_cell_setting 'orthorhombic'
loop_
_space_group_symop_operation_xyz
x,y,z
1/2-x,-y,1/2+z
x,-y,-z
1/2-x,y,1/2-z
-x,-y,-z
1/2+x,y,1/2-z
-x,y,z
1/2+x,-y,1/2+z
loop_
_atom_site_type_symbol
_atom_site_label
_atom_site_fract_x
_atom_site_fract_y
_atom_site_fract_z
Si Si1 0.821110 0.402673 0.148738
Si Si2 0.825185 0.328309 0.921890
Si Si3 0.678347 0.854480 0.587775
Si Si4 0.829178 0.991352 0.429593
Si Si5 0.326813 0.842118 0.451986
Si Si6 0.178383 0.570746 0.188735
Si Si7 0.324150 0.583910 0.975699
Si Si8 0.820300 0.750828 0.689232
O O1 0.763460 0.485275 0.172442
O O2 0.782878 0.396693 0.079379
O O3 0.731331 0.337835 0.184795
O O4 0.000000 0.390500 0.157661
O O5 0.807277 0.236668 0.915484
O O6 0.769852 0.368776 0.861446
O O7 0.000000 0.350833 0.936550
O O8 0.713982 0.354519 0.973953
O O9 0.500000 0.845296 0.598202
O O10 0.728323 0.942447 0.601339
O O11 0.727827 0.831560 0.520541
O O12 0.763622 0.797512 0.632144
O O13 0.000000 0.998764 0.405295
O O14 0.820527 0.000000 0.500000
O O15 0.766284 0.906240 0.415170
O O16 0.500000 0.870366 0.453918
O O17 0.250000 0.599289 0.250000
O O18 0.000000 0.570451 0.195841
O O19 0.500000 0.590678 0.957059
O O20 0.283020 0.500000 0.000000
O O21 0.750000 0.785970 0.750000
O O22 0.000000 0.755834 0.692612
#
# Coordination Sequence:
#
# PCOD8219310 Si02
#       8
#     8   8   8   8   8   8   8   8
#     4  11  22  38  58  79 106 144 186 229 278 329
#     4  10  20  36  55  78 107 144 183 224 276 332
#     4  10  19  34  56  83 112 145 181 220 273 330
#     4   9  17  30  51  80 113 144 173 211 263 321
#     4   9  18  32  54  82 111 140 178 225 275 333
#     4  10  22  37  55  75  99 137 183 228 272 319
#     4  11  22  34  52  81 112 142 177 225 280 333
#     4  12  25  40  57  80 111 147 190 235 280 331
#
# _framework density 18.655861999999999
#
# number of rings (size 3 to 8) (size 9 to 14) (size 15 to 20)
#    0.000    1.750    1.250    3.750    0.000    6.500 
#    0.000    0.000    0.000    0.750    0.000    3.500 
#    0.000    0.000    0.000    0.000    0.000    0.000 
#
# Total GULP energy -793822.426481 kJ/mol
# GULP energy per Si atom -12403.475414 kJ/mol
# Density = 1.861340 g / cm^3
# Si number density = 18.655862 Si / 1000 Ang^3
#
#
#
# Elastic Constant Matrix: (Units=GPa)
#
#
# Indices 1 2 3 4 5 6 
#
# 1 82.6842 37.3969 27.2131 0.0000 0.0000 0.0000
# 2 37.3969 108.6146 33.5679 0.0000 0.0000 0.0000
# 3 27.2131 33.5679 81.7021 0.0000 0.0000 0.0000
# 4 0.0000 0.0000 0.0000 12.4408 0.0000 0.0000
# 5 0.0000 0.0000 0.0000 0.0000 29.4045 0.0000
# 6 0.0000 0.0000 0.0000 0.0000 0.0000 115.0738
#
#
#
# Elastic Compliance Matrix: (Units=1/GPa)
#
#
# Indices 1 2 3 4 5 6 
#
# 1 0.015067 -0.004166 -0.003307 0.000000 0.000000 0.000000
# 2 -0.004166 0.011698 -0.003419 0.000000 0.000000 0.000000
# 3 -0.003307 -0.003419 0.014746 0.000000 0.000000 0.000000
# 4 0.000000 0.000000 0.000000 0.080381 0.000000 0.000000
# 5 0.000000 0.000000 0.000000 0.000000 0.034008 0.000000
# 6 0.000000 0.000000 0.000000 0.000000 0.000000 0.008690
#
#
# Mechanical properties :
#
#
# Convention : Reuss Voigt Hill
#
# Bulk Modulus (GPa) = 50.69005 52.15074 51.42040
# Shear Modulus (GPa) = 25.91387 43.03868 34.47627
#
# Velocity S-wave (km/s) = 3.73104 4.80831 4.30352
# Velocity P-wave (km/s) = 6.76690 7.67081 7.23299
#
# Compressibility (1/GPa) = 0.01972774
#
# Stress axis : x y z
#
# Youngs Moduli (GPa) = 66.37203 85.48738 67.81687
#
# Poissons Ratio (x) = 0.35610 0.22426
# Poissons Ratio (y) = 0.27647 0.23184
# Poissons Ratio (z) = 0.21948 0.29225
#
# Static dielectric constant tensor:
#      x y z
#    x 3.426920 0.000000 0.000000 
#    y 0.000000 3.551840 0.000000 
#    z 0.000000 0.000000 3.299960 
# 
# 
# High freq. dielectric constant tensor:
#      x y z
#    x 1.729170 0.000000 0.000000 
#    y 0.000000 1.727150 0.000000 
#    z 0.000000 0.000000 1.699790 
# 
# From -- ./inp_files/31124.got.cif
#   From: 2010.03.12/outbox.cif.g09.slc.cpg/sg53_16_cif.got.tgz:31124.got - 2010.04.16 14:36:59.
