data_PCOD8219174
_publ_section_title
;
Structure prediction by ZEFSAII (Michael W. Deem and Ramdas Pophale) SiO2 
 PCOD8219174
Probable space group: P M N A
;
_chemical_formula_sum "Si O2"
_cell_formula_units_Z 64
_cell_length_a 18.949449
_cell_length_b 8.925326
_cell_length_c 18.906453
_cell_angle_alpha 90.000000
_cell_angle_beta 90.000000
_cell_angle_gamma 90.000000
_cell_volume 3197.648582
_symmetry_space_group_name_H-M "P M N A"
_symmetry_group_IT_number 53
_symmetry_cell_setting 'orthorhombic'
loop_
_space_group_symop_operation_xyz
x,y,z
1/2-x,-y,1/2+z
x,-y,-z
1/2-x,y,1/2-z
-x,-y,-z
1/2+x,y,1/2-z
-x,y,z
1/2+x,-y,1/2+z
loop_
_atom_site_type_symbol
_atom_site_label
_atom_site_fract_x
_atom_site_fract_y
_atom_site_fract_z
Si Si1 0.581138 0.670607 0.478846
Si Si2 0.420331 0.000237 0.709918
Si Si3 0.177600 0.432918 0.221926
Si Si4 0.422246 0.030447 0.082195
Si Si5 0.346965 0.805418 0.607375
Si Si6 0.231441 0.033123 0.583402
Si Si7 0.421382 0.264868 0.185266
Si Si8 0.335029 0.745422 0.345157
O O1 0.592603 0.500000 0.500000
O O2 0.500000 0.718611 0.489070
O O3 0.632742 0.771826 0.526714
O O4 0.602782 0.695787 0.397979
O O5 0.500000 0.058729 0.714099
O O6 0.366725 0.139549 0.712224
O O7 0.408591 0.913537 0.636016
O O8 0.401071 0.888621 0.773584
O O9 0.250000 0.364634 0.250000
O O10 0.152589 0.347200 0.151979
O O11 0.124922 0.404936 0.288484
O O12 0.188985 0.605509 0.201946
O O13 0.500000 0.977959 0.114706
O O14 0.350349 0.949968 0.109390
O O15 0.413361 0.209233 0.103139
O O16 0.427557 0.000000 0.000000
O O17 0.271441 0.888325 0.615997
O O18 0.270121 0.184871 0.609525
O O19 0.233682 0.000000 0.500000
O O20 0.500000 0.317522 0.202846
#
# Coordination Sequence:
#
# PCOD8219174 Si02
#       8
#     8   8   8   8   8   8   8   8
#     4  11  21  33  53  81 116 156 196 239 280 333
#     4   9  19  33  52  79 112 151 187 229 278 333
#     4  11  23  37  54  78 112 153 194 234 284 348
#     4   9  18  34  59  89 111 137 187 250 314 364
#     4  10  19  35  54  78 112 148 198 234 281 340
#     4  10  19  33  56  81 112 146 181 239 293 339
#     4   9  19  37  59  82 109 144 192 240 287 348
#     4  11  22  35  51  82 119 152 194 233 283 348
#
# _framework density 20.014706
#
# number of rings (size 3 to 8) (size 9 to 14) (size 15 to 20)
#    0.000    2.000    2.500    1.500    0.000    2.500 
#    0.000    3.125    0.000    0.750    0.000    0.000 
#    0.000   15.750    0.000    0.000    0.000    0.000 
#
# Total GULP energy -792837.877861 kJ/mol
# GULP energy per Si atom -12388.091842 kJ/mol
# Density = 1.996915 g / cm^3
# Si number density = 20.014706 Si / 1000 Ang^3
#
#
#
# Elastic Constant Matrix: (Units=GPa)
#
#
# Indices 1 2 3 4 5 6 
#
# 1 136.4004 43.0282 27.1844 0.0000 0.0000 0.0000
# 2 43.0282 84.2753 22.5038 0.0000 0.0000 0.0000
# 3 27.1844 22.5038 65.8477 0.0000 0.0000 0.0000
# 4 0.0000 0.0000 0.0000 31.2432 0.0000 0.0000
# 5 0.0000 0.0000 0.0000 0.0000 21.3139 0.0000
# 6 0.0000 0.0000 0.0000 0.0000 0.0000 13.1768
#
#
#
# Elastic Compliance Matrix: (Units=1/GPa)
#
#
# Indices 1 2 3 4 5 6 
#
# 1 0.009065 -0.003993 -0.002378 0.000000 0.000000 0.000000
# 2 -0.003993 0.014817 -0.003415 0.000000 0.000000 0.000000
# 3 -0.002378 -0.003415 0.017335 0.000000 0.000000 0.000000
# 4 0.000000 0.000000 0.000000 0.032007 0.000000 0.000000
# 5 0.000000 0.000000 0.000000 0.000000 0.046918 0.000000
# 6 0.000000 0.000000 0.000000 0.000000 0.000000 0.075891
#
#
# Mechanical properties :
#
#
# Convention : Reuss Voigt Hill
#
# Bulk Modulus (GPa) = 46.20048 52.43958 49.32003
# Shear Modulus (GPa) = 22.43970 26.06725 24.25348
#
# Velocity S-wave (km/s) = 3.35201 3.61280 3.48484
# Velocity P-wave (km/s) = 6.17371 6.60761 6.39434
#
# Compressibility (1/GPa) = 0.02164479
#
# Stress axis : x y z
#
# Youngs Moduli (GPa) = 110.31518 67.49157 57.68594
#
# Poissons Ratio (x) = 0.26952 0.13715
# Poissons Ratio (y) = 0.44053 0.19700
# Poissons Ratio (z) = 0.26229 0.23049
#
# Static dielectric constant tensor:
#      x y z
#    x 3.920550 0.000000 0.000000 
#    y 0.000000 3.468550 0.000000 
#    z 0.000000 0.000000 3.703500 
# 
# 
# High freq. dielectric constant tensor:
#      x y z
#    x 1.793470 0.000000 0.000000 
#    y 0.000000 1.752150 0.000000 
#    z 0.000000 0.000000 1.776700 
# 
# From -- ./inp_files/29383.got.cif
#   From: 2010.03.12/outbox.cif.g09.slc.cpg/sg53_15_cif.got.tgz:29383.got - 2010.04.16 14:36:59.
