data_PCOD8219630
_publ_section_title
;
Structure prediction by ZEFSAII (Michael W. Deem and Ramdas Pophale) SiO2 
 PCOD8219630
Probable space group: P M N A
;
_chemical_formula_sum "Si O2"
_cell_formula_units_Z 40
_cell_length_a 8.775256
_cell_length_b 12.468653
_cell_length_c 18.753327
_cell_angle_alpha 90.000000
_cell_angle_beta 90.000000
_cell_angle_gamma 90.000000
_cell_volume 2051.906939
_symmetry_space_group_name_H-M "P M N A"
_symmetry_group_IT_number 53
_symmetry_cell_setting 'orthorhombic'
loop_
_space_group_symop_operation_xyz
x,y,z
1/2-x,-y,1/2+z
x,-y,-z
1/2-x,y,1/2-z
-x,-y,-z
1/2+x,y,1/2-z
-x,y,z
1/2+x,-y,1/2+z
loop_
_atom_site_type_symbol
_atom_site_label
_atom_site_fract_x
_atom_site_fract_y
_atom_site_fract_z
Si Si1 0.320496 0.203874 0.061158
Si Si2 0.179049 0.814629 0.400544
Si Si3 0.320469 0.386002 0.673102
Si Si4 0.680573 0.445195 0.073886
Si Si5 0.319367 0.033129 0.173412
O O1 0.500000 0.206839 0.070021
O O2 0.257294 0.323559 0.073824
O O3 0.251632 0.122032 0.119238
O O4 0.278541 0.161393 0.982544
O O5 0.273566 0.712127 0.376844
O O6 0.000000 0.789038 0.392340
O O7 0.230142 0.916017 0.353769
O O8 0.250000 0.367372 0.750000
O O9 0.500000 0.391366 0.680364
O O10 0.259917 0.496374 0.639921
O O11 0.500000 0.452040 0.083968
O O12 0.730317 0.500000 0.000000
O O13 0.250000 0.056155 0.250000
O O14 0.500000 0.040704 0.177691
#
# Coordination Sequence:
#
# PCOD8219630 Si02
#       5
#     8   8   8   8   8
#     4   9  18  35  61  88 113 149 194 236 286 351
#     4  10  19  37  62  86 113 149 195 241 291 345
#     4  12  25  39  58  86 120 154 196 242 294 345
#     4  10  19  37  63  87 116 152 192 237 290 348
#     4  10  21  36  57  84 117 153 192 237 287 347
#
# _framework density 19.494063000000001
#
# number of rings (size 3 to 8) (size 9 to 14) (size 15 to 20)
#    0.000    1.800    2.000    3.000    0.000    6.000 
#    0.000    4.000    0.000    2.400    0.000    0.000 
#    0.000    0.000    0.000    0.000    0.000    0.000 
#
# Total GULP energy -496116.646974 kJ/mol
# GULP energy per Si atom -12402.916174 kJ/mol
# Density = 1.944969 g / cm^3
# Si number density = 19.494063 Si / 1000 Ang^3
#
#
#
# Elastic Constant Matrix: (Units=GPa)
#
#
# Indices 1 2 3 4 5 6 
#
# 1 42.9066 20.4270 16.9018 0.0000 0.0000 0.0000
# 2 20.4270 92.5200 35.7866 0.0000 0.0000 0.0000
# 3 16.9018 35.7866 114.8053 0.0000 0.0000 0.0000
# 4 0.0000 0.0000 0.0000 34.1118 0.0000 0.0000
# 5 0.0000 0.0000 0.0000 0.0000 31.1965 0.0000
# 6 0.0000 0.0000 0.0000 0.0000 0.0000 17.9064
#
#
#
# Elastic Compliance Matrix: (Units=1/GPa)
#
#
# Indices 1 2 3 4 5 6 
#
# 1 0.026600 -0.004956 -0.002371 0.000000 0.000000 0.000000
# 2 -0.004956 0.013214 -0.003389 0.000000 0.000000 0.000000
# 3 -0.002371 -0.003389 0.010116 0.000000 0.000000 0.000000
# 4 0.000000 0.000000 0.000000 0.029315 0.000000 0.000000
# 5 0.000000 0.000000 0.000000 0.000000 0.032055 0.000000
# 6 0.000000 0.000000 0.000000 0.000000 0.000000 0.055846
#
#
# Mechanical properties :
#
#
# Convention : Reuss Voigt Hill
#
# Bulk Modulus (GPa) = 35.09147 44.05138 39.57142
# Shear Modulus (GPa) = 25.24272 28.45072 26.84672
#
# Velocity S-wave (km/s) = 3.60237 3.82443 3.71506
# Velocity P-wave (km/s) = 5.94499 6.49215 6.22459
#
# Compressibility (1/GPa) = 0.02849695
#
# Stress axis : x y z
#
# Youngs Moduli (GPa) = 37.59424 75.67976 98.85321
#
# Poissons Ratio (x) = 0.37504 0.23441
# Poissons Ratio (y) = 0.18630 0.33504
# Poissons Ratio (z) = 0.08915 0.25650
#
# Static dielectric constant tensor:
#      x y z
#    x 3.248470 0.000000 0.000000 
#    y 0.000000 3.845990 0.000000 
#    z 0.000000 0.000000 3.767720 
# 
# 
# High freq. dielectric constant tensor:
#      x y z
#    x 1.725310 0.000000 0.000000 
#    y 0.000000 1.773030 0.000000 
#    z 0.000000 0.000000 1.771110 
# 
# From -- ./inp_files/25821.got.cif
#   From: 2010.03.12/outbox.cif.g09.slc.cpg/sg53_13_cif.got.tgz:25821.got - 2010.04.16 14:36:59.
