data_PCOD8219925
_publ_section_title
;
Structure prediction by ZEFSAII (Michael W. Deem and Ramdas Pophale) SiO2 
 PCOD8219925
Probable space group: P M N A
;
_chemical_formula_sum "Si O2"
_cell_formula_units_Z 64
_cell_length_a 8.701263
_cell_length_b 11.241747
_cell_length_c 33.338369
_cell_angle_alpha 90.000000
_cell_angle_beta 90.000000
_cell_angle_gamma 90.000000
_cell_volume 3261.072483
_symmetry_space_group_name_H-M "P M N A"
_symmetry_group_IT_number 53
_symmetry_cell_setting 'orthorhombic'
loop_
_space_group_symop_operation_xyz
x,y,z
1/2-x,-y,1/2+z
x,-y,-z
1/2-x,y,1/2-z
-x,-y,-z
1/2+x,y,1/2-z
-x,y,z
1/2+x,-y,1/2+z
loop_
_atom_site_type_symbol
_atom_site_label
_atom_site_fract_x
_atom_site_fract_y
_atom_site_fract_z
Si Si1 0.174277 0.959604 0.560279
Si Si2 0.321607 0.605839 0.898974
Si Si3 0.177329 0.790783 0.057123
Si Si4 0.680400 0.632113 0.368601
Si Si5 0.178997 0.003726 0.208414
Si Si6 0.824608 0.729684 0.970420
Si Si7 0.672715 0.849454 0.856226
Si Si8 0.318087 0.247759 0.793188
O O1 0.222086 0.092718 0.550081
O O2 0.000000 0.937486 0.545778
O O3 0.282671 0.867063 0.537447
O O4 0.187736 0.942574 0.607766
O O5 0.500000 0.570804 0.897512
O O6 0.218719 0.500387 0.882324
O O7 0.279538 0.638925 0.944883
O O8 0.283770 0.718220 0.870943
O O9 0.236224 0.720829 0.096260
O O10 0.000000 0.828217 0.062256
O O11 0.197909 0.706183 0.018006
O O12 0.500000 0.644036 0.361232
O O13 0.767046 0.659367 0.327147
O O14 0.250000 0.046953 0.250000
O O15 0.259532 0.882460 0.193832
O O16 0.000000 0.978198 0.213328
O O17 0.207445 0.110085 0.177390
O O18 0.000000 0.708503 0.957455
O O19 0.500000 0.851303 0.838660
O O20 0.250000 0.285474 0.750000
O O21 0.500000 0.247023 0.789706
#
# Coordination Sequence:
#
# PCOD8219925 Si02
#       8
#     8   8   8   8   8   8   8   8
#     4  10  20  33  53  81 111 143 181 230 284 335
#     4  10  22  40  59  80 108 145 189 235 281 328
#     4  10  22  36  53  80 113 149 187 229 278 334
#     4  11  23  40  60  83 112 147 190 234 277 328
#     4  11  21  34  56  86 117 146 178 218 270 330
#     4  10  20  36  56  78 109 149 189 230 279 333
#     4   9  19  36  55  77 108 143 180 224 275 330
#     4  11  22  39  62  88 118 149 182 222 273 328
#
# _framework density 19.625446
#
# number of rings (size 3 to 8) (size 9 to 14) (size 15 to 20)
#    0.000    1.750    0.000    6.375    0.000    9.000 
#    0.000    3.125    0.000    3.000    0.000    0.000 
#    0.000    0.000    0.000    0.000    0.000    0.000 
#
# Total GULP energy -793798.806432 kJ/mol
# GULP energy per Si atom -12403.106350 kJ/mol
# Density = 1.958078 g / cm^3
# Si number density = 19.625446 Si / 1000 Ang^3
#
#
#
# Elastic Constant Matrix: (Units=GPa)
#
#
# Indices 1 2 3 4 5 6 
#
# 1 99.9436 18.0912 40.1520 0.0000 0.0000 0.0000
# 2 18.0912 52.0979 37.7583 0.0000 0.0000 0.0000
# 3 40.1520 37.7583 109.1979 0.0000 0.0000 0.0000
# 4 0.0000 0.0000 0.0000 20.5554 0.0000 0.0000
# 5 0.0000 0.0000 0.0000 0.0000 32.2601 0.0000
# 6 0.0000 0.0000 0.0000 0.0000 0.0000 31.3250
#
#
#
# Elastic Compliance Matrix: (Units=1/GPa)
#
#
# Indices 1 2 3 4 5 6 
#
# 1 0.011803 -0.001272 -0.003900 0.000000 0.000000 0.000000
# 2 -0.001272 0.025751 -0.008436 0.000000 0.000000 0.000000
# 3 -0.003900 -0.008436 0.013509 0.000000 0.000000 0.000000
# 4 0.000000 0.000000 0.000000 0.048649 0.000000 0.000000
# 5 0.000000 0.000000 0.000000 0.000000 0.030998 0.000000
# 6 0.000000 0.000000 0.000000 0.000000 0.000000 0.031923
#
#
# Mechanical properties :
#
#
# Convention : Reuss Voigt Hill
#
# Bulk Modulus (GPa) = 41.93660 50.36028 46.14844
# Shear Modulus (GPa) = 25.27836 27.84396 26.56116
#
# Velocity S-wave (km/s) = 3.59282 3.77074 3.68286
# Velocity P-wave (km/s) = 6.21498 6.68389 6.45370
#
# Compressibility (1/GPa) = 0.02384552
#
# Stress axis : x y z
#
# Youngs Moduli (GPa) = 84.72625 38.83405 74.02567
#
# Poissons Ratio (x) = 0.04940 0.28870
# Poissons Ratio (y) = 0.10777 0.62450
# Poissons Ratio (z) = 0.33044 0.32762
#
# Static dielectric constant tensor:
#      x y z
#    x 3.602950 0.000000 0.000000 
#    y 0.000000 3.334990 0.000000 
#    z 0.000000 0.000000 3.661740 
# 
# 
# High freq. dielectric constant tensor:
#      x y z
#    x 1.774190 0.000000 0.000000 
#    y 0.000000 1.747120 0.000000 
#    z 0.000000 0.000000 1.771280 
# 
# From -- ./inp_files/38154.got.cif
#   From: 2010.03.12/outbox.cif.g09.slc.cpg/sg53_20_cif.got.tgz:38154.got - 2010.04.16 14:36:59.
