data_PCOD8219406
_publ_section_title
;
Structure prediction by ZEFSAII (Michael W. Deem and Ramdas Pophale) SiO2 
 PCOD8219406
Probable space group: P M N A
;
_chemical_formula_sum "Si O2"
_cell_formula_units_Z 48
_cell_length_a 26.066987
_cell_length_b 5.203265
_cell_length_c 16.638526
_cell_angle_alpha 90.000000
_cell_angle_beta 90.000000
_cell_angle_gamma 90.000000
_cell_volume 2256.740536
_symmetry_space_group_name_H-M "P M N A"
_symmetry_group_IT_number 53
_symmetry_cell_setting 'orthorhombic'
loop_
_space_group_symop_operation_xyz
x,y,z
1/2-x,-y,1/2+z
x,-y,-z
1/2-x,y,1/2-z
-x,-y,-z
1/2+x,y,1/2-z
-x,y,z
1/2+x,-y,1/2+z
loop_
_atom_site_type_symbol
_atom_site_label
_atom_site_fract_x
_atom_site_fract_y
_atom_site_fract_z
Si Si1 0.151484 0.663485 0.777051
Si Si2 0.820469 0.749646 0.959229
Si Si3 0.198899 0.152099 0.711665
Si Si4 0.793759 0.751207 0.471492
Si Si5 0.058648 0.982551 0.411530
Si Si6 0.941489 0.497694 0.313205
O O1 0.165269 0.756375 0.865903
O O2 0.184499 0.411779 0.758027
O O3 0.092330 0.574110 0.765072
O O4 0.159904 0.909957 0.717754
O O5 0.845921 0.500000 0.000000
O O6 0.759366 0.749387 0.976421
O O7 0.845695 0.000000 0.000000
O O8 0.250000 0.035779 0.750000
O O9 0.213336 0.239690 0.622662
O O10 0.825032 0.500000 0.500000
O O11 0.825733 0.000000 0.500000
O O12 0.062561 0.262952 0.374284
O O13 0.000000 0.891121 0.420715
O O14 0.084086 0.000000 0.500000
O O15 0.083393 0.753192 0.356334
O O16 0.000000 0.545104 0.284517
#
# Coordination Sequence:
#
# PCOD8219406 Si02
#       6
#     8   8   8   8   8   8
#     4  12  24  40  62  90 119 157 204 246 302 367
#     4  10  20  37  59  82 109 149 196 236 287 356
#     4  12  23  38  60  87 119 153 197 249 297 357
#     4  10  19  35  54  77 111 152 188 229 287 342
#     4   9  17  33  59  85 113 154 199 242 295 357
#     4  10  21  38  60  88 122 159 203 255 303 351
#
# _framework density 21.269615000000002
#
# number of rings (size 3 to 8) (size 9 to 14) (size 15 to 20)
#    0.000    1.500    0.000    8.000    0.000    2.000 
#    0.000    8.333    0.000    1.000    0.000    0.000 
#    0.000    0.000    0.000    0.000    0.000    0.000 
#
# Total GULP energy -594833.343694 kJ/mol
# GULP energy per Si atom -12392.361327 kJ/mol
# Density = 2.122120 g / cm^3
# Si number density = 21.269615 Si / 1000 Ang^3
#
#
#
# Elastic Constant Matrix: (Units=GPa)
#
#
# Indices 1 2 3 4 5 6 
#
# 1 59.1631 21.2650 35.1328 0.0000 0.0000 0.0000
# 2 21.2650 187.9727 37.6719 0.0000 0.0000 0.0000
# 3 35.1328 37.6719 106.0465 0.0000 0.0000 0.0000
# 4 0.0000 0.0000 0.0000 40.1334 0.0000 0.0000
# 5 0.0000 0.0000 0.0000 0.0000 8.0792 0.0000
# 6 0.0000 0.0000 0.0000 0.0000 0.0000 19.6173
#
#
#
# Elastic Compliance Matrix: (Units=1/GPa)
#
#
# Indices 1 2 3 4 5 6 
#
# 1 0.021240 -0.001069 -0.006657 0.000000 0.000000 0.000000
# 2 -0.001069 0.005781 -0.001700 0.000000 0.000000 0.000000
# 3 -0.006657 -0.001700 0.012239 0.000000 0.000000 0.000000
# 4 0.000000 0.000000 0.000000 0.024917 0.000000 0.000000
# 5 0.000000 0.000000 0.000000 0.000000 0.123775 0.000000
# 6 0.000000 0.000000 0.000000 0.000000 0.000000 0.050975
#
#
# Mechanical properties :
#
#
# Convention : Reuss Voigt Hill
#
# Bulk Modulus (GPa) = 48.99709 60.14686 54.57197
# Shear Modulus (GPa) = 18.89779 30.84015 24.86897
#
# Velocity S-wave (km/s) = 2.98398 3.81197 3.42310
# Velocity P-wave (km/s) = 5.91256 6.90757 6.42934
#
# Compressibility (1/GPa) = 0.02040938
#
# Stress axis : x y z
#
# Youngs Moduli (GPa) = 47.08179 172.96637 81.70545
#
# Poissons Ratio (x) = 0.18484 0.54391
# Poissons Ratio (y) = 0.05031 0.13888
# Poissons Ratio (z) = 0.31342 0.29400
#
# Static dielectric constant tensor:
#      x y z
#    x 3.677580 0.000000 0.000000 
#    y 0.000000 5.392220 0.000000 
#    z 0.000000 0.000000 3.634220 
# 
# 
# High freq. dielectric constant tensor:
#      x y z
#    x 1.800260 0.000000 0.000000 
#    y 0.000000 1.875290 0.000000 
#    z 0.000000 0.000000 1.819750 
# 
# From -- ./inp_files/24935.got.cif
#   From: 2010.03.12/outbox.cif.g09.slc.cpg/sg53_13_cif.got.tgz:24935.got - 2010.04.16 14:36:59.
