data_PCOD8219418
_publ_section_title
;
Structure prediction by ZEFSAII (Michael W. Deem and Ramdas Pophale) SiO2 
 PCOD8219418
Probable space group: P M N A
;
_chemical_formula_sum "Si O2"
_cell_formula_units_Z 48
_cell_length_a 11.319970
_cell_length_b 12.435578
_cell_length_c 19.678444
_cell_angle_alpha 90.000000
_cell_angle_beta 90.000000
_cell_angle_gamma 90.000000
_cell_volume 2770.141841
_symmetry_space_group_name_H-M "P M N A"
_symmetry_group_IT_number 53
_symmetry_cell_setting 'orthorhombic'
loop_
_space_group_symop_operation_xyz
x,y,z
1/2-x,-y,1/2+z
x,-y,-z
1/2-x,y,1/2-z
-x,-y,-z
1/2+x,y,1/2-z
-x,y,z
1/2+x,-y,1/2+z
loop_
_atom_site_type_symbol
_atom_site_label
_atom_site_fract_x
_atom_site_fract_y
_atom_site_fract_z
Si Si1 0.359496 0.797694 0.601149
Si Si2 0.500000 0.669989 0.036272
Si Si3 0.369811 0.968349 0.421878
Si Si4 0.750008 0.238034 0.545667
Si Si5 0.862516 0.451830 0.929318
Si Si6 0.254560 0.391859 0.171085
Si Si7 0.000000 0.449941 0.394550
O O1 0.500000 0.775905 0.603554
O O2 0.313150 0.763014 0.527275
O O3 0.289262 0.729848 0.657601
O O4 0.330636 0.923114 0.617560
O O5 0.609920 0.750754 0.040379
O O6 0.500000 0.579578 0.095713
O O7 0.500000 0.608218 0.966012
O O8 0.500000 0.930858 0.397373
O O9 0.278368 0.870446 0.411569
O O10 0.376736 0.000000 0.500000
O O11 0.701021 0.339782 0.587022
O O12 0.836949 0.531600 0.867813
O O13 0.000000 0.431040 0.936637
O O14 0.810428 0.500000 0.000000
O O15 0.250000 0.417933 0.250000
O O16 0.386757 0.411726 0.146668
#
# Coordination Sequence:
#
# PCOD8219418 Si02
#       7
#     8   4   8   8   8   8   4
#     4  10  19  35  55  79 109 142 183 233 279 320
#     4  11  20  34  56  79 116 159 174 221 284 347
#     4   8  16  30  52  79 107 135 173 229 276 311
#     4  11  18  32  53  84 109 143 182 222 281 330
#     4  11  20  33  56  83 109 139 185 238 278 322
#     4  12  25  37  55  81 113 151 188 229 277 340
#     4  11  22  40  51  76 120 154 185 214 282 348
#
# _framework density 17.327632000000001
#
# number of rings (size 3 to 8) (size 9 to 14) (size 15 to 20)
#    0.000    1.500    5.000    3.000    2.333    0.000 
#    0.000    4.583    0.000    1.000    0.000    0.000 
#    0.000    0.000    0.000    0.000    0.000    0.000 
#
# Total GULP energy -595154.663206 kJ/mol
# GULP energy per Si atom -12399.055483 kJ/mol
# Density = 1.728819 g / cm^3
# Si number density = 17.327632 Si / 1000 Ang^3
#
#
#
# Elastic Constant Matrix: (Units=GPa)
#
#
# Indices 1 2 3 4 5 6 
#
# 1 117.0194 52.0317 25.0572 0.0000 0.0000 0.0000
# 2 52.0317 121.9452 33.8521 0.0000 0.0000 0.0000
# 3 25.0572 33.8521 72.1517 0.0000 0.0000 0.0000
# 4 0.0000 0.0000 0.0000 16.0971 0.0000 0.0000
# 5 0.0000 0.0000 0.0000 0.0000 3447.5720 0.0000
# 6 0.0000 0.0000 0.0000 0.0000 0.0000 31.8701
#
#
#
# Elastic Compliance Matrix: (Units=1/GPa)
#
#
# Indices 1 2 3 4 5 6 
#
# 1 0.010750 -0.004082 -0.001818 0.000000 0.000000 0.000000
# 2 -0.004082 0.010979 -0.003733 0.000000 0.000000 0.000000
# 3 -0.001818 -0.003733 0.016243 0.000000 0.000000 0.000000
# 4 0.000000 0.000000 0.000000 0.062123 0.000000 0.000000
# 5 0.000000 0.000000 0.000000 0.000000 0.000290 0.000000
# 6 0.000000 0.000000 0.000000 0.000000 0.000000 0.031377
#
#
# Mechanical properties :
#
#
# Convention : Reuss Voigt Hill
#
# Bulk Modulus (GPa) = 53.46366 59.22203 56.34284
# Shear Modulus (GPa) = 31.79386 712.45286 372.12336
#
# Velocity S-wave (km/s) = 4.28818 20.29922 14.67049
# Velocity P-wave (km/s) = 7.44577 24.15912 17.87600
#
# Compressibility (1/GPa) = 0.01870430
#
# Stress axis : x y z
#
# Youngs Moduli (GPa) = 93.02354 91.08694 61.56633
#
# Poissons Ratio (x) = 0.37183 0.11193
# Poissons Ratio (y) = 0.37973 0.22984
# Poissons Ratio (z) = 0.16912 0.34005
#
# Static dielectric constant tensor:
#      x y z
#    x 3.216620 0.000000 0.000000 
#    y 0.000000 3.651820 0.000000 
#    z 0.000000 0.000000 2.834860 
# 
# 
# High freq. dielectric constant tensor:
#      x y z
#    x 1.679350 0.000000 0.000000 
#    y 0.000000 1.680430 0.000000 
#    z 0.000000 0.000000 1.614320 
# 
# From -- ./inp_files/31930.got.cif
#   From: 2010.03.12/outbox.cif.g09.slc.cpg/sg53_16_cif.got.tgz:31930.got - 2010.04.16 14:36:59.
