data_PCOD8219479
_publ_section_title
;
Structure prediction by ZEFSAII (Michael W. Deem and Ramdas Pophale) SiO2 
 PCOD8219479
Probable space group: P M N A
;
_chemical_formula_sum "Si O2"
_cell_formula_units_Z 64
_cell_length_a 17.992314
_cell_length_b 13.608291
_cell_length_c 14.472143
_cell_angle_alpha 90.000000
_cell_angle_beta 90.000000
_cell_angle_gamma 90.000000
_cell_volume 3543.426711
_symmetry_space_group_name_H-M "P M N A"
_symmetry_group_IT_number 53
_symmetry_cell_setting 'orthorhombic'
loop_
_space_group_symop_operation_xyz
x,y,z
1/2-x,-y,1/2+z
x,-y,-z
1/2-x,y,1/2-z
-x,-y,-z
1/2+x,y,1/2-z
-x,y,z
1/2+x,-y,1/2+z
loop_
_atom_site_type_symbol
_atom_site_label
_atom_site_fract_x
_atom_site_fract_y
_atom_site_fract_z
Si Si1 0.916102 0.258246 0.842253
Si Si2 0.583898 0.258246 0.342253
Si Si3 0.281712 0.389041 0.393436
Si Si4 0.187675 0.219714 0.315590
Si Si5 0.312325 0.780286 0.184410
Si Si6 0.781712 0.389041 0.893436
Si Si7 0.119921 0.884917 0.000000
Si Si8 0.794136 0.113535 0.500000
O O1 0.889312 0.227724 0.739776
O O2 0.863928 0.343943 0.881836
O O3 0.000000 0.298231 0.835908
O O4 0.914432 0.163151 0.908493
O O5 0.500000 0.298231 0.335908
O O6 0.636072 0.343943 0.381836
O O7 0.610688 0.227724 0.239776
O O8 0.585568 0.163151 0.408493
O O9 0.219660 0.327971 0.338330
O O10 0.259252 0.385597 0.500000
O O11 0.281845 0.500000 0.355559
O O12 0.250000 0.166591 0.250000
O O13 0.170449 0.159145 0.407862
O O14 0.250000 0.833409 0.250000
O O15 0.280340 0.672029 0.161670
O O16 0.329551 0.840855 0.092138
O O17 0.207286 0.862831 0.000000
O O18 0.101239 0.000000 0.000000
O O19 0.813080 0.000000 0.500000
#
# Coordination Sequence:
#
# PCOD8219479 Si02
#       8
#     8   8   8   8   8   8   8   8
#     4  11  22  36  54  81 114 145 179 216 265 328
#     4  11  22  36  54  81 114 145 179 216 265 328
#     4  10  19  35  59  82 106 140 179 223 273 320
#     4  10  19  36  55  81 109 140 180 222 266 319
#     4  10  19  36  55  81 109 140 180 222 266 319
#     4  10  19  35  59  82 106 140 179 223 273 320
#     4  11  21  36  57  81 112 143 175 224 279 321
#     4  11  20  35  59  84 106 136 183 235 267 303
#
# _framework density 18.061612
#
# number of rings (size 3 to 8) (size 9 to 14) (size 15 to 20)
#    0.000    1.500    7.500    0.375    0.000    7.500 
#    0.000    1.875    0.000    0.750    0.000    1.750 
#    0.000    0.000    0.000    0.000    0.000    0.000 
#
# Total GULP energy -793610.973678 kJ/mol
# GULP energy per Si atom -12400.171464 kJ/mol
# Density = 1.802050 g / cm^3
# Si number density = 18.061612 Si / 1000 Ang^3
#
#
#
# Elastic Constant Matrix: (Units=GPa)
#
#
# Indices 1 2 3 4 5 6 
#
# 1 82.7297 35.7586 34.1128 0.0000 0.0000 0.0000
# 2 35.7586 110.3119 54.2511 0.0000 0.0000 0.0000
# 3 34.1128 54.2511 132.9885 0.0000 0.0000 0.0000
# 4 0.0000 0.0000 0.0000 10.3617 0.0000 0.0000
# 5 0.0000 0.0000 0.0000 0.0000 14.4062 0.0000
# 6 0.0000 0.0000 0.0000 0.0000 0.0000 13.0864
#
#
#
# Elastic Compliance Matrix: (Units=1/GPa)
#
#
# Indices 1 2 3 4 5 6 
#
# 1 0.014584 -0.003612 -0.002267 0.000000 0.000000 0.000000
# 2 -0.003612 0.012235 -0.004065 0.000000 0.000000 0.000000
# 3 -0.002267 -0.004065 0.009759 0.000000 0.000000 0.000000
# 4 0.000000 0.000000 0.000000 0.096509 0.000000 0.000000
# 5 0.000000 0.000000 0.000000 0.000000 0.069415 0.000000
# 6 0.000000 0.000000 0.000000 0.000000 0.000000 0.076415
#
#
# Mechanical properties :
#
#
# Convention : Reuss Voigt Hill
#
# Bulk Modulus (GPa) = 59.91754 63.80834 61.86294
# Shear Modulus (GPa) = 16.42744 21.03137 18.72940
#
# Velocity S-wave (km/s) = 3.01910 3.41607 3.22370
# Velocity P-wave (km/s) = 6.73790 7.13892 6.94131
#
# Compressibility (1/GPa) = 0.01668960
#
# Stress axis : x y z
#
# Youngs Moduli (GPa) = 68.56895 81.73171 102.46848
#
# Poissons Ratio (x) = 0.29525 0.23232
# Poissons Ratio (y) = 0.24770 0.41649
# Poissons Ratio (z) = 0.15546 0.33220
#
# Static dielectric constant tensor:
#      x y z
#    x 3.037260 0.000000 0.000000 
#    y 0.000000 3.329560 0.000000 
#    z 0.000000 0.000000 3.645380 
# 
# 
# High freq. dielectric constant tensor:
#      x y z
#    x 1.663950 0.000000 0.000000 
#    y 0.000000 1.692560 0.000000 
#    z 0.000000 0.000000 1.719330 
# 
# From -- ./inp_files/23977.got.cif
#   From: 2010.03.12/outbox.cif.g09.slc.cpg/sg53_12_cif.got.tgz:23977.got - 2010.04.16 14:36:59.
