data_PCOD8219771
_publ_section_title
;
Structure prediction by ZEFSAII (Michael W. Deem and Ramdas Pophale) SiO2 
 PCOD8219771
Probable space group: P M N A
;
_chemical_formula_sum "Si O2"
_cell_formula_units_Z 64
_cell_length_a 8.849001
_cell_length_b 23.103786
_cell_length_c 17.056813
_cell_angle_alpha 90.000000
_cell_angle_beta 90.000000
_cell_angle_gamma 90.000000
_cell_volume 3487.187390
_symmetry_space_group_name_H-M "P M N A"
_symmetry_group_IT_number 53
_symmetry_cell_setting 'orthorhombic'
loop_
_space_group_symop_operation_xyz
x,y,z
1/2-x,-y,1/2+z
x,-y,-z
1/2-x,y,1/2-z
-x,-y,-z
1/2+x,y,1/2-z
-x,y,z
1/2+x,-y,1/2+z
loop_
_atom_site_type_symbol
_atom_site_label
_atom_site_fract_x
_atom_site_fract_y
_atom_site_fract_z
Si Si1 0.822714 0.175306 0.327690
Si Si2 0.821672 0.466920 0.926708
Si Si3 0.674920 0.131219 0.563468
Si Si4 0.176088 0.236180 0.487383
Si Si5 0.824070 0.068230 0.099016
Si Si6 0.676979 0.569487 0.669331
Si Si7 0.320989 0.040996 0.833915
Si Si8 0.322904 0.358331 0.485414
O O1 0.750000 0.203719 0.250000
O O2 0.783407 0.217954 0.398861
O O3 0.745403 0.113098 0.339228
O O4 0.000000 0.166379 0.317243
O O5 0.768289 0.502541 0.849195
O O6 0.000000 0.474455 0.931485
O O7 0.747813 0.500000 0.000000
O O8 0.781447 0.399174 0.938749
O O9 0.500000 0.134528 0.586347
O O10 0.734907 0.195874 0.548503
O O11 0.703229 0.091561 0.487923
O O12 0.766791 0.103580 0.635426
O O13 0.224899 0.301779 0.498971
O O14 0.000000 0.229041 0.504645
O O15 0.000000 0.059228 0.117494
O O16 0.738236 0.007538 0.105952
O O17 0.750000 0.591383 0.750000
O O18 0.500000 0.572063 0.682353
O O19 0.722498 0.611114 0.596758
O O20 0.250000 0.027976 0.750000
O O21 0.500000 0.039407 0.828332
O O22 0.500000 0.342887 0.485001
#
# Coordination Sequence:
#
# PCOD8219771 Si02
#       8
#     8   8   8   8   8   8   8   8
#     4  10  20  33  48  68  98 134 169 206 250 300
#     4   7  12  26  47  68  91 124 164 199 232 277
#     4  10  21  38  58  78 102 134 172 212 256 306
#     4  10  21  35  51  73 100 131 169 212 255 298
#     4  10  20  35  55  78 104 133 167 207 253 308
#     4   9  17  29  47  73 104 133 161 198 246 295
#     4  12  24  37  55  79 107 135 166 207 257 310
#     4   9  17  31  51  71  93 128 172 209 240 285
#
# _framework density 18.352900999999999
#
# number of rings (size 3 to 8) (size 9 to 14) (size 15 to 20)
#    0.000    2.375    0.000    4.875    0.000    5.500 
#    0.000    3.125    0.000    3.000    0.000    3.500 
#    0.000    0.000    0.000    0.000    0.000    0.000 
#
# Total GULP energy -793277.552836 kJ/mol
# GULP energy per Si atom -12394.961763 kJ/mol
# Density = 1.831113 g / cm^3
# Si number density = 18.352901 Si / 1000 Ang^3
#
#
#
# Elastic Constant Matrix: (Units=GPa)
#
#
# Indices 1 2 3 4 5 6 
#
# 1 83.8118 36.8944 19.6395 0.0000 0.0000 0.0000
# 2 36.8944 103.1465 23.1156 0.0000 0.0000 0.0000
# 3 19.6395 23.1156 30.5390 0.0000 0.0000 0.0000
# 4 0.0000 0.0000 0.0000 18.5166 0.0000 0.0000
# 5 0.0000 0.0000 0.0000 0.0000 21.7777 0.0000
# 6 0.0000 0.0000 0.0000 0.0000 0.0000 28.0526
#
#
#
# Elastic Compliance Matrix: (Units=1/GPa)
#
#
# Indices 1 2 3 4 5 6 
#
# 1 0.015263 -0.003926 -0.006844 0.000000 0.000000 0.000000
# 2 -0.003926 0.012685 -0.007077 0.000000 0.000000 0.000000
# 3 -0.006844 -0.007077 0.042503 0.000000 0.000000 0.000000
# 4 0.000000 0.000000 0.000000 0.054006 0.000000 0.000000
# 5 0.000000 0.000000 0.000000 0.000000 0.045919 0.000000
# 6 0.000000 0.000000 0.000000 0.000000 0.000000 0.035647
#
#
# Mechanical properties :
#
#
# Convention : Reuss Voigt Hill
#
# Bulk Modulus (GPa) = 28.77061 41.86625 35.31843
# Shear Modulus (GPa) = 19.73915 22.85923 21.29919
#
# Velocity S-wave (km/s) = 3.28309 3.53305 3.41036
# Velocity P-wave (km/s) = 5.48470 6.28526 5.89858
#
# Compressibility (1/GPa) = 0.03475769
#
# Stress axis : x y z
#
# Youngs Moduli (GPa) = 65.51599 78.83238 23.52751
#
# Poissons Ratio (x) = 0.30947 0.16103
# Poissons Ratio (y) = 0.25720 0.16651
# Poissons Ratio (z) = 0.44842 0.55790
#
# Static dielectric constant tensor:
#      x y z
#    x 3.258690 0.000000 0.000000 
#    y 0.000000 3.396560 0.000000 
#    z 0.000000 0.000000 3.370340 
# 
# 
# High freq. dielectric constant tensor:
#      x y z
#    x 1.707140 0.000000 0.000000 
#    y 0.000000 1.705950 0.000000 
#    z 0.000000 0.000000 1.692390 
# 
# From -- ./inp_files/26855.got.cif
#   From: 2010.03.12/outbox.cif.g09.slc.cpg/sg53_14_cif.got.tgz:26855.got - 2010.04.16 14:36:59.
