data_PCOD8219471
_publ_section_title
;
Structure prediction by ZEFSAII (Michael W. Deem and Ramdas Pophale) SiO2 
 PCOD8219471
Probable space group: P M N A
;
_chemical_formula_sum "Si O2"
_cell_formula_units_Z 56
_cell_length_a 14.576462
_cell_length_b 9.642717
_cell_length_c 17.959078
_cell_angle_alpha 90.000000
_cell_angle_beta 90.000000
_cell_angle_gamma 90.000000
_cell_volume 2524.268701
_symmetry_space_group_name_H-M "P M N A"
_symmetry_group_IT_number 53
_symmetry_cell_setting 'orthorhombic'
loop_
_space_group_symop_operation_xyz
x,y,z
1/2-x,-y,1/2+z
x,-y,-z
1/2-x,y,1/2-z
-x,-y,-z
1/2+x,y,1/2-z
-x,y,z
1/2+x,-y,1/2+z
loop_
_atom_site_type_symbol
_atom_site_label
_atom_site_fract_x
_atom_site_fract_y
_atom_site_fract_z
Si Si1 0.608698 0.074441 0.227022
Si Si2 0.899797 0.148450 0.841261
Si Si3 0.651411 0.662467 0.223120
Si Si4 0.784319 0.849580 0.019464
Si Si5 0.893391 0.625806 0.770150
Si Si6 0.894202 0.624483 0.942368
Si Si7 0.894092 0.866956 0.400851
O O1 0.500000 0.074599 0.231754
O O2 0.649983 0.228616 0.240331
O O3 0.643828 0.981107 0.295987
O O4 0.636104 0.001846 0.148542
O O5 0.917415 0.277410 0.785405
O O6 0.828602 0.197756 0.902990
O O7 0.000000 0.112568 0.875955
O O8 0.750000 0.716636 0.250000
O O9 0.649049 0.495462 0.219325
O O10 0.620815 0.724342 0.144175
O O11 0.673083 0.855953 0.027442
O O12 0.820021 0.744439 0.957313
O O13 0.823757 0.000000 0.000000
O O14 0.874707 0.586946 0.856512
O O15 0.000000 0.634346 0.754132
O O16 0.000000 0.675164 0.952044
O O17 0.874702 0.500000 0.000000
O O18 0.000000 0.878143 0.427628
#
# Coordination Sequence:
#
# PCOD8219471 Si02
#       7
#     8   8   8   8   8   8   8
#     4   8  17  34  56  83 115 147 187 246 306 355
#     4  10  19  35  58  84 119 153 189 242 300 357
#     4  11  20  36  59  93 118 152 197 250 301 357
#     4  12  24  38  59  89 119 159 208 246 286 351
#     4  10  19  35  58  88 120 152 189 239 311 368
#     4  10  22  39  60  88 128 165 193 236 297 367
#     4  10  22  42  63  85 117 158 207 254 296 349
#
# _framework density 22.184642
#
# number of rings (size 3 to 8) (size 9 to 14) (size 15 to 20)
#    0.000    1.857    1.429    4.286    0.000    3.714 
#    5.143    0.000    0.000    0.429    0.000    0.000 
#    0.000    0.000    0.000    0.000    0.000    0.000 
#
# Total GULP energy -694103.376026 kJ/mol
# GULP energy per Si atom -12394.703143 kJ/mol
# Density = 2.213415 g / cm^3
# Si number density = 22.184642 Si / 1000 Ang^3
#
#
#
# Elastic Constant Matrix: (Units=GPa)
#
#
# Indices 1 2 3 4 5 6 
#
# 1 90.3258 13.6858 11.1923 0.0000 0.0000 0.0000
# 2 13.6858 148.6232 22.3496 0.0000 0.0000 0.0000
# 3 11.1923 22.3496 38.7441 0.0000 0.0000 0.0000
# 4 0.0000 0.0000 0.0000 19.7266 0.0000 0.0000
# 5 0.0000 0.0000 0.0000 0.0000 20.7699 0.0000
# 6 0.0000 0.0000 0.0000 0.0000 0.0000 23.1545
#
#
#
# Elastic Compliance Matrix: (Units=1/GPa)
#
#
# Indices 1 2 3 4 5 6 
#
# 1 0.011533 -0.000614 -0.002977 0.000000 0.000000 0.000000
# 2 -0.000614 0.007400 -0.004091 0.000000 0.000000 0.000000
# 3 -0.002977 -0.004091 0.029031 0.000000 0.000000 0.000000
# 4 0.000000 0.000000 0.000000 0.050693 0.000000 0.000000
# 5 0.000000 0.000000 0.000000 0.000000 0.048147 0.000000
# 6 0.000000 0.000000 0.000000 0.000000 0.000000 0.043188
#
#
# Mechanical properties :
#
#
# Convention : Reuss Voigt Hill
#
# Bulk Modulus (GPa) = 30.67679 41.34984 36.01332
# Shear Modulus (GPa) = 23.12423 28.09456 25.60940
#
# Velocity S-wave (km/s) = 3.23205 3.56251 3.40130
# Velocity P-wave (km/s) = 5.27126 5.96669 5.62972
#
# Compressibility (1/GPa) = 0.03259793
#
# Stress axis : x y z
#
# Youngs Moduli (GPa) = 86.70753 135.13063 34.44643
#
# Poissons Ratio (x) = 0.08301 0.10256
# Poissons Ratio (y) = 0.05326 0.14093
# Poissons Ratio (z) = 0.25815 0.55287
#
# Static dielectric constant tensor:
#      x y z
#    x 3.945340 0.000000 0.000000 
#    y 0.000000 4.213800 0.000000 
#    z 0.000000 0.000000 3.668280 
# 
# 
# High freq. dielectric constant tensor:
#      x y z
#    x 1.873370 0.000000 0.000000 
#    y 0.000000 1.871390 0.000000 
#    z 0.000000 0.000000 1.843380 
# 
# From -- ./inp_files/32493.got.cif
#   From: 2010.03.12/outbox.cif.g09.slc.cpg/sg53_17_cif.got.tgz:32493.got - 2010.04.16 14:36:59.
