data_PCOD8219037
_publ_section_title
;
Structure prediction by ZEFSAII (Michael W. Deem and Ramdas Pophale) SiO2 
 PCOD8219037
Probable space group: P M N A
;
_chemical_formula_sum "Si O2"
_cell_formula_units_Z 64
_cell_length_a 8.756160
_cell_length_b 14.283835
_cell_length_c 30.228343
_cell_angle_alpha 90.000000
_cell_angle_beta 90.000000
_cell_angle_gamma 90.000000
_cell_volume 3780.705552
_symmetry_space_group_name_H-M "P M N A"
_symmetry_group_IT_number 53
_symmetry_cell_setting 'orthorhombic'
loop_
_space_group_symop_operation_xyz
x,y,z
1/2-x,-y,1/2+z
x,-y,-z
1/2-x,y,1/2-z
-x,-y,-z
1/2+x,y,1/2-z
-x,y,z
1/2+x,-y,1/2+z
loop_
_atom_site_type_symbol
_atom_site_label
_atom_site_fract_x
_atom_site_fract_y
_atom_site_fract_z
Si Si1 0.673793 0.758594 0.426405
Si Si2 0.178962 0.851940 0.295053
Si Si3 0.825155 0.757862 0.517700
Si Si4 0.175123 0.549642 0.544721
Si Si5 0.176466 0.930023 0.386151
Si Si6 0.675369 0.436729 0.619383
Si Si7 0.680398 0.359943 0.796003
Si Si8 0.321652 0.059089 0.456242
O O1 0.500000 0.793497 0.418530
O O2 0.705503 0.756649 0.478116
O O3 0.796155 0.826121 0.404119
O O4 0.702660 0.656641 0.408065
O O5 0.250000 0.892117 0.250000
O O6 0.221068 0.924649 0.334198
O O7 0.240404 0.746496 0.305196
O O8 0.000000 0.845621 0.288638
O O9 0.806893 0.661372 0.544028
O O10 0.776889 0.846164 0.547644
O O11 0.000000 0.769725 0.501468
O O12 0.241063 0.500000 0.500000
O O13 0.264282 0.520125 0.588736
O O14 0.000000 0.517990 0.549753
O O15 0.000000 0.957341 0.393108
O O16 0.284195 0.001873 0.411851
O O17 0.500000 0.455060 0.630583
O O18 0.764843 0.429736 0.665516
O O19 0.750000 0.396512 0.750000
O O20 0.500000 0.364065 0.793032
O O21 0.500000 0.082789 0.457293
O O22 0.274236 0.000000 0.500000
#
# Coordination Sequence:
#
# PCOD8219037 Si02
#       8
#     8   8   8   8   8   8   8   8
#     4  11  21  31  47  73 105 138 173 213 254 300
#     4   9  19  32  49  74 102 134 169 208 253 303
#     4  11  22  36  54  73  99 137 177 217 257 300
#     4  10  21  36  53  75 102 135 176 216 257 306
#     4  11  21  34  52  75 101 137 179 211 252 305
#     4  11  22  33  50  76 105 141 178 211 257 310
#     4  10  19  33  51  74 105 138 173 213 258 306
#     4  11  23  36  51  75 104 135 173 214 259 305
#
# _framework density 16.928058
#
# number of rings (size 3 to 8) (size 9 to 14) (size 15 to 20)
#    0.000    1.500    3.750    2.250    0.000    4.250 
#    0.000    0.000    0.000    0.000    0.000    0.875 
#    0.000    4.000    0.000    0.000    0.000    0.000 
#
# Total GULP energy -793670.718806 kJ/mol
# GULP energy per Si atom -12401.104981 kJ/mol
# Density = 1.688953 g / cm^3
# Si number density = 16.928058 Si / 1000 Ang^3
#
#
#
# Elastic Constant Matrix: (Units=GPa)
#
#
# Indices 1 2 3 4 5 6 
#
# 1 50.3510 32.7171 32.1361 0.0000 0.0000 0.0000
# 2 32.7171 76.8974 37.4163 0.0000 0.0000 0.0000
# 3 32.1361 37.4163 112.6819 0.0000 0.0000 0.0000
# 4 0.0000 0.0000 0.0000 21.5868 0.0000 0.0000
# 5 0.0000 0.0000 0.0000 0.0000 30.2888 0.0000
# 6 0.0000 0.0000 0.0000 0.0000 0.0000 24.0664
#
#
#
# Elastic Compliance Matrix: (Units=1/GPa)
#
#
# Indices 1 2 3 4 5 6 
#
# 1 0.029720 -0.010163 -0.005101 0.000000 0.000000 0.000000
# 2 -0.010163 0.018985 -0.003406 0.000000 0.000000 0.000000
# 3 -0.005101 -0.003406 0.011460 0.000000 0.000000 0.000000
# 4 0.000000 0.000000 0.000000 0.046325 0.000000 0.000000
# 5 0.000000 0.000000 0.000000 0.000000 0.033015 0.000000
# 6 0.000000 0.000000 0.000000 0.000000 0.000000 0.041552
#
#
# Mechanical properties :
#
#
# Convention : Reuss Voigt Hill
#
# Bulk Modulus (GPa) = 43.80968 49.38547 46.59758
# Shear Modulus (GPa) = 22.12334 24.36579 23.24457
#
# Velocity S-wave (km/s) = 3.61903 3.79802 3.70961
# Velocity P-wave (km/s) = 6.58782 6.96207 6.77753
#
# Compressibility (1/GPa) = 0.02282600
#
# Stress axis : x y z
#
# Youngs Moduli (GPa) = 33.64749 52.67222 87.25735
#
# Poissons Ratio (x) = 0.53528 0.44514
# Poissons Ratio (y) = 0.34194 0.29719
# Poissons Ratio (z) = 0.17165 0.17939
#
# Static dielectric constant tensor:
#      x y z
#    x 3.886550 0.000000 0.000000 
#    y 0.000000 2.978940 0.000000 
#    z 0.000000 0.000000 3.164680 
# 
# 
# High freq. dielectric constant tensor:
#      x y z
#    x 1.663790 0.000000 0.000000 
#    y 0.000000 1.622910 0.000000 
#    z 0.000000 0.000000 1.644600 
# 
# From -- ./inp_files/38465.got.cif
#   From: 2010.03.12/outbox.cif.g09.slc.cpg/sg53_20_cif.got.tgz:38465.got - 2010.04.16 14:36:59.
