data_PCOD8219807
_publ_section_title
;
Structure prediction by ZEFSAII (Michael W. Deem and Ramdas Pophale) SiO2 
 PCOD8219807
Probable space group: P M N A
;
_chemical_formula_sum "Si O2"
_cell_formula_units_Z 48
_cell_length_a 9.756236
_cell_length_b 13.739041
_cell_length_c 19.174265
_cell_angle_alpha 90.000000
_cell_angle_beta 90.000000
_cell_angle_gamma 90.000000
_cell_volume 2570.143914
_symmetry_space_group_name_H-M "P M N A"
_symmetry_group_IT_number 53
_symmetry_cell_setting 'orthorhombic'
loop_
_space_group_symop_operation_xyz
x,y,z
1/2-x,-y,1/2+z
x,-y,-z
1/2-x,y,1/2-z
-x,-y,-z
1/2+x,y,1/2-z
-x,y,z
1/2+x,-y,1/2+z
loop_
_atom_site_type_symbol
_atom_site_label
_atom_site_fract_x
_atom_site_fract_y
_atom_site_fract_z
Si Si1 0.837467 0.697310 0.550217
Si Si2 0.844671 0.775601 0.311520
Si Si3 0.157070 0.394047 0.586642
Si Si4 0.163299 0.570543 0.679095
Si Si5 0.154046 0.004263 0.689608
Si Si6 0.657715 0.912037 0.956058
O O1 0.781861 0.619223 0.492059
O O2 0.803686 0.662132 0.628626
O O3 0.774173 0.805006 0.534915
O O4 0.000000 0.704821 0.540928
O O5 0.750000 0.734878 0.250000
O O6 0.822263 0.711704 0.379739
O O7 0.000000 0.767833 0.284561
O O8 0.804544 0.885761 0.331864
O O9 0.221955 0.476816 0.636261
O O10 0.000000 0.425772 0.580049
O O11 0.250000 0.581889 0.750000
O O12 0.000000 0.562994 0.696359
O O13 0.250000 0.963005 0.750000
O O14 0.172025 0.934074 0.624993
O O15 0.000000 0.002280 0.718376
O O16 0.500000 0.907116 0.980531
O O17 0.729678 0.000000 0.000000
#
# Coordination Sequence:
#
# PCOD8219807 Si02
#       6
#     8   8   8   8   8   8
#     4   9  17  29  47  70  93 119 154 194 231 268
#     4   9  16  26  42  65  92 120 151 189 231 273
#     4   9  16  28  47  69  92 119 153 193 232 268
#     4  10  20  33  50  72  97 124 154 188 227 274
#     4   9  17  28  43  65  91 119 151 187 229 275
#     4   9  16  27  45  69  94 119 152 195 235 268
#
# _framework density 18.675995
#
# number of rings (size 3 to 8) (size 9 to 14) (size 15 to 20)
#    0.000    2.833    0.000    2.000    0.000    6.667 
#    0.000    0.000    0.000    3.500    0.000    0.000 
#    0.000    0.000    0.000    0.000    0.000    0.000 
#
# Total GULP energy -594723.368990 kJ/mol
# GULP energy per Si atom -12390.070187 kJ/mol
# Density = 1.863349 g / cm^3
# Si number density = 18.675995 Si / 1000 Ang^3
#
#
#
# Elastic Constant Matrix: (Units=GPa)
#
#
# Indices 1 2 3 4 5 6 
#
# 1 30.7386 16.2894 33.4209 0.0000 0.0000 0.0000
# 2 16.2894 107.1613 51.8990 0.0000 0.0000 0.0000
# 3 33.4209 51.8990 118.4616 0.0000 0.0000 0.0000
# 4 0.0000 0.0000 0.0000 17.2731 0.0000 0.0000
# 5 0.0000 0.0000 0.0000 0.0000 26.3625 0.0000
# 6 0.0000 0.0000 0.0000 0.0000 0.0000 12.3976
#
#
#
# Elastic Compliance Matrix: (Units=1/GPa)
#
#
# Indices 1 2 3 4 5 6 
#
# 1 0.046998 -0.000917 -0.012857 0.000000 0.000000 0.000000
# 2 -0.000917 0.011863 -0.004938 0.000000 0.000000 0.000000
# 3 -0.012857 -0.004938 0.014233 0.000000 0.000000 0.000000
# 4 0.000000 0.000000 0.000000 0.057893 0.000000 0.000000
# 5 0.000000 0.000000 0.000000 0.000000 0.037933 0.000000
# 6 0.000000 0.000000 0.000000 0.000000 0.000000 0.080661
#
#
# Mechanical properties :
#
#
# Convention : Reuss Voigt Hill
#
# Bulk Modulus (GPa) = 28.03698 51.06445 39.55071
# Shear Modulus (GPa) = 16.72826 21.52345 19.12586
#
# Velocity S-wave (km/s) = 2.99609 3.39848 3.20361
# Velocity P-wave (km/s) = 5.19746 6.54226 5.90825
#
# Compressibility (1/GPa) = 0.03566718
#
# Stress axis : x y z
#
# Youngs Moduli (GPa) = 21.27761 84.29661 70.26157
#
# Poissons Ratio (x) = 0.07731 0.90338
# Poissons Ratio (y) = 0.01951 0.34699
# Poissons Ratio (z) = 0.27358 0.41630
#
# Static dielectric constant tensor:
#      x y z
#    x 2.956330 0.000000 0.000000 
#    y 0.000000 3.627610 0.000000 
#    z 0.000000 0.000000 3.511860 
# 
# 
# High freq. dielectric constant tensor:
#      x y z
#    x 1.646770 0.000000 0.000000 
#    y 0.000000 1.738760 0.000000 
#    z 0.000000 0.000000 1.733350 
# 
# From -- ./inp_files/21782.got.cif
#   From: 2010.03.12/outbox.cif.g09.slc.cpg/sg53_11_cif.got.tgz:21782.got - 2010.04.16 14:36:59.
