data_PCOD8219852
_publ_section_title
;
Structure prediction by ZEFSAII (Michael W. Deem and Ramdas Pophale) SiO2 
 PCOD8219852
Probable space group: P M N A
;
_chemical_formula_sum "Si O2"
_cell_formula_units_Z 48
_cell_length_a 8.805522
_cell_length_b 31.126828
_cell_length_c 9.486187
_cell_angle_alpha 90.000000
_cell_angle_beta 90.000000
_cell_angle_gamma 90.000000
_cell_volume 2600.049726
_symmetry_space_group_name_H-M "P M N A"
_symmetry_group_IT_number 53
_symmetry_cell_setting 'orthorhombic'
loop_
_space_group_symop_operation_xyz
x,y,z
1/2-x,-y,1/2+z
x,-y,-z
1/2-x,y,1/2-z
-x,-y,-z
1/2+x,y,1/2-z
-x,y,z
1/2+x,-y,1/2+z
loop_
_atom_site_type_symbol
_atom_site_label
_atom_site_fract_x
_atom_site_fract_y
_atom_site_fract_z
Si Si1 0.321322 0.461047 0.096111
Si Si2 0.179771 0.382581 0.599948
Si Si3 0.178713 0.214970 0.096681
Si Si4 0.320259 0.707041 0.398840
Si Si5 0.677619 0.037149 0.098390
Si Si6 0.177558 0.868818 0.597136
O O1 0.250000 0.462598 0.250000
O O2 0.500000 0.465245 0.115331
O O3 0.259074 0.500000 0.000000
O O4 0.275560 0.417083 0.018267
O O5 0.250000 0.396416 0.750000
O O6 0.248881 0.337564 0.547493
O O7 0.000000 0.378445 0.618864
O O8 0.250000 0.220585 0.250000
O O9 0.243310 0.171699 0.018933
O O10 0.000000 0.210647 0.109954
O O11 0.227048 0.256190 0.007476
O O12 0.250000 0.720256 0.250000
O O13 0.500000 0.701796 0.384317
O O14 0.750000 0.032827 0.250000
O O15 0.500000 0.030079 0.118757
O O16 0.709491 0.084278 0.027906
O O17 0.747823 0.000000 0.000000
O O18 0.250000 0.870567 0.750000
O O19 0.000000 0.859463 0.608375
#
# Coordination Sequence:
#
# PCOD8219852 Si02
#       6
#     8   8   8   8   8   8
#     4  10  22  38  56  81 110 140 175 213 255 302
#     4  10  20  35  56  79 104 136 173 211 252 300
#     4  10  20  33  51  75 100 128 165 207 249 296
#     4  10  21  36  54  76 103 136 171 207 252 303
#     4   9  18  32  49  71  98 127 162 202 245 295
#     4   9  16  28  48  70  95 128 163 202 246 292
#
# _framework density 18.461186999999999
#
# number of rings (size 3 to 8) (size 9 to 14) (size 15 to 20)
#    0.000    2.333    0.000    4.500    0.000    6.000 
#    0.000    4.167    0.000    4.000    0.000    0.000 
#    0.000    0.000    0.000    0.000    0.000    0.000 
#
# Total GULP energy -594969.694659 kJ/mol
# GULP energy per Si atom -12395.201972 kJ/mol
# Density = 1.841917 g / cm^3
# Si number density = 18.461187 Si / 1000 Ang^3
#
#
#
# Elastic Constant Matrix: (Units=GPa)
#
#
# Indices 1 2 3 4 5 6 
#
# 1 77.4950 66.1578 40.8243 0.0000 0.0000 0.0000
# 2 66.1578 188.1621 95.0240 0.0000 0.0000 0.0000
# 3 40.8243 95.0240 100.9915 0.0000 0.0000 0.0000
# 4 0.0000 0.0000 0.0000 34.9643 0.0000 0.0000
# 5 0.0000 0.0000 0.0000 0.0000 22.1193 0.0000
# 6 0.0000 0.0000 0.0000 0.0000 0.0000 -74.2435
#
#
#
# Elastic Compliance Matrix: (Units=1/GPa)
#
#
# Indices 1 2 3 4 5 6 
#
# 1 0.018798 -0.005282 -0.002629 0.000000 0.000000 0.000000
# 2 -0.005282 0.011610 -0.008789 0.000000 0.000000 0.000000
# 3 -0.002629 -0.008789 0.019235 0.000000 0.000000 0.000000
# 4 0.000000 0.000000 0.000000 0.028601 0.000000 0.000000
# 5 0.000000 0.000000 0.000000 0.000000 0.045209 0.000000
# 6 0.000000 0.000000 0.000000 0.000000 0.000000 -0.013469
#
#
# Mechanical properties :
#
#
# Convention : Reuss Voigt Hill
#
# Bulk Modulus (GPa) = 61.56641 85.62897 73.59769
# Shear Modulus (GPa) = 33.60261 7.54419 20.57340
#
# Velocity S-wave (km/s) = 4.27098 2.02371 3.34191
# Velocity P-wave (km/s) = 7.59890 7.20725 7.40566
#
# Compressibility (1/GPa) = 0.01624262
#
# Stress axis : x y z
#
# Youngs Moduli (GPa) = 53.19691 86.13129 51.98984
#
# Poissons Ratio (x) = 0.45491 0.13670
# Poissons Ratio (y) = 0.28096 0.45695
# Poissons Ratio (z) = 0.13988 0.75702
#
# Static dielectric constant tensor:
#      x y z
#    x 3.451930 0.000000 0.000000 
#    y 0.000000 4.184050 0.000000 
#    z 0.000000 0.000000 3.163770 
# 
# 
# High freq. dielectric constant tensor:
#      x y z
#    x 1.724920 0.000000 0.000000 
#    y 0.000000 1.741420 0.000000 
#    z 0.000000 0.000000 1.685890 
# 
# From -- ./inp_files/6740.got.cif
#   From: 2010.03.12/outbox.cif.g09.slc.cpg/sg53_4_cif.got.tgz:6740.got - 2010.04.16 14:36:59.
