data_PCOD8219494
_publ_section_title
;
Structure prediction by ZEFSAII (Michael W. Deem and Ramdas Pophale) SiO2 
 PCOD8219494
Probable space group: P M N A
;
_chemical_formula_sum "Si O2"
_cell_formula_units_Z 64
_cell_length_a 9.087877
_cell_length_b 23.527653
_cell_length_c 14.775315
_cell_angle_alpha 90.000000
_cell_angle_beta 90.000000
_cell_angle_gamma 90.000000
_cell_volume 3159.204907
_symmetry_space_group_name_H-M "P M N A"
_symmetry_group_IT_number 53
_symmetry_cell_setting 'orthorhombic'
loop_
_space_group_symop_operation_xyz
x,y,z
1/2-x,-y,1/2+z
x,-y,-z
1/2-x,y,1/2-z
-x,-y,-z
1/2+x,y,1/2-z
-x,y,z
1/2+x,-y,1/2+z
loop_
_atom_site_type_symbol
_atom_site_label
_atom_site_fract_x
_atom_site_fract_y
_atom_site_fract_z
Si Si1 0.327503 0.539924 0.339787
Si Si2 0.323939 0.141855 0.847600
Si Si3 0.660698 0.766958 0.832987
Si Si4 0.672557 0.588739 0.660108
Si Si5 0.825688 0.750051 0.466719
Si Si6 0.663297 0.101170 0.165830
Si Si7 0.328638 0.933315 0.489083
Si Si8 0.672496 0.637819 0.472812
O O1 0.250000 0.562931 0.250000
O O2 0.500000 0.542539 0.323484
O O3 0.276313 0.475746 0.362152
O O4 0.279480 0.580708 0.421355
O O5 0.250000 0.145625 0.750000
O O6 0.500000 0.135559 0.839586
O O7 0.276823 0.198211 0.902741
O O8 0.257234 0.087426 0.899596
O O9 0.750000 0.738381 0.750000
O O10 0.500000 0.737991 0.833338
O O11 0.642534 0.833156 0.812441
O O12 0.736511 0.758984 0.931239
O O13 0.750000 0.612144 0.750000
O O14 0.500000 0.590137 0.675999
O O15 0.719039 0.629349 0.577432
O O16 0.756565 0.691574 0.429756
O O17 0.000000 0.745829 0.467417
O O18 0.750000 0.071854 0.250000
O O19 0.500000 0.073290 0.155382
O O20 0.757215 0.096375 0.075327
O O21 0.500000 0.916599 0.482192
O O22 0.306678 0.000000 0.500000
O O23 0.500000 0.648823 0.462770
#
# Coordination Sequence:
#
# PCOD8219494 Si02
#       8
#     8   8   8   8   8   8   8   8
#     4   9  18  34  55  78 107 143 187 237 288 343
#     4  11  24  45  68  90 119 159 204 248 296 350
#     4   9  18  34  55  81 109 142 182 225 277 336
#     4   9  18  34  55  79 110 148 187 233 287 345
#     4  10  22  40  58  81 117 154 192 240 291 342
#     4  10  19  35  59  87 118 152 190 233 284 341
#     4  11  24  41  63  93 125 157 196 242 293 350
#     4  10  21  35  54  81 111 147 192 236 286 345
#
# _framework density 20.258261999999998
#
# number of rings (size 3 to 8) (size 9 to 14) (size 15 to 20)
#    0.000    2.125    1.250    1.500    0.000    7.000 
#    0.000    5.000    0.000    3.750    0.000    0.000 
#    0.000    0.000    0.000    0.000    0.000    0.000 
#
# Total GULP energy -793555.887095 kJ/mol
# GULP energy per Si atom -12399.310736 kJ/mol
# Density = 2.021215 g / cm^3
# Si number density = 20.258262 Si / 1000 Ang^3
#
#
#
# Elastic Constant Matrix: (Units=GPa)
#
#
# Indices 1 2 3 4 5 6 
#
# 1 75.2805 37.1632 50.7807 0.0000 0.0000 0.0000
# 2 37.1632 76.4481 33.9710 0.0000 0.0000 0.0000
# 3 50.7807 33.9710 135.1266 0.0000 0.0000 0.0000
# 4 0.0000 0.0000 0.0000 10.1772 0.0000 0.0000
# 5 0.0000 0.0000 0.0000 0.0000 34.9866 0.0000
# 6 0.0000 0.0000 0.0000 0.0000 0.0000 20.9022
#
#
#
# Elastic Compliance Matrix: (Units=1/GPa)
#
#
# Indices 1 2 3 4 5 6 
#
# 1 0.021083 -0.007574 -0.006019 0.000000 0.000000 0.000000
# 2 -0.007574 0.017447 -0.001540 0.000000 0.000000 0.000000
# 3 -0.006019 -0.001540 0.010049 0.000000 0.000000 0.000000
# 4 0.000000 0.000000 0.000000 0.098259 0.000000 0.000000
# 5 0.000000 0.000000 0.000000 0.000000 0.028582 0.000000
# 6 0.000000 0.000000 0.000000 0.000000 0.000000 0.047842
#
#
# Mechanical properties :
#
#
# Convention : Reuss Voigt Hill
#
# Bulk Modulus (GPa) = 54.60427 58.96503 56.78465
# Shear Modulus (GPa) = 19.25802 24.20924 21.73363
#
# Velocity S-wave (km/s) = 3.08657 3.46067 3.27896
# Velocity P-wave (km/s) = 6.30199 6.71850 6.51357
#
# Compressibility (1/GPa) = 0.01831358
#
# Stress axis : x y z
#
# Youngs Moduli (GPa) = 47.43215 57.31634 99.50830
#
# Poissons Ratio (x) = 0.43413 0.59891
# Poissons Ratio (y) = 0.35926 0.15322
# Poissons Ratio (z) = 0.28548 0.08825
#
# Static dielectric constant tensor:
#      x y z
#    x 3.779530 0.000000 0.000000 
#    y 0.000000 3.585270 0.000000 
#    z 0.000000 0.000000 4.735350 
# 
# 
# High freq. dielectric constant tensor:
#      x y z
#    x 1.787710 0.000000 0.000000 
#    y 0.000000 1.782680 0.000000 
#    z 0.000000 0.000000 1.795020 
# 
# From -- ./inp_files/20852.got.cif
#   From: 2010.03.12/outbox.cif.g09.slc.cpg/sg53_11_cif.got.tgz:20852.got - 2010.04.16 14:36:59.
