data_PCOD8219742
_publ_section_title
;
Structure prediction by ZEFSAII (Michael W. Deem and Ramdas Pophale) SiO2 
 PCOD8219742
Probable space group: P M N A
;
_chemical_formula_sum "Si O2"
_cell_formula_units_Z 64
_cell_length_a 8.735446
_cell_length_b 23.174263
_cell_length_c 15.929541
_cell_angle_alpha 90.000000
_cell_angle_beta 90.000000
_cell_angle_gamma 90.000000
_cell_volume 3224.736823
_symmetry_space_group_name_H-M "P M N A"
_symmetry_group_IT_number 53
_symmetry_cell_setting 'orthorhombic'
loop_
_space_group_symop_operation_xyz
x,y,z
1/2-x,-y,1/2+z
x,-y,-z
1/2-x,y,1/2-z
-x,-y,-z
1/2+x,y,1/2-z
-x,y,z
1/2+x,-y,1/2+z
loop_
_atom_site_type_symbol
_atom_site_label
_atom_site_fract_x
_atom_site_fract_y
_atom_site_fract_z
Si Si1 0.819900 0.249517 0.005935
Si Si2 0.182109 0.053321 0.162533
Si Si3 0.322000 0.305042 0.666285
Si Si4 0.327611 0.643494 0.924445
Si Si5 0.819495 0.466787 0.336943
Si Si6 0.318538 0.072759 0.836607
Si Si7 0.320418 0.127504 0.013748
Si Si8 0.829436 0.413007 0.603803
O O1 0.778704 0.299850 0.072508
O O2 0.726431 0.193103 0.030538
O O3 0.000000 0.237111 0.009074
O O4 0.761737 0.269672 0.914240
O O5 0.250000 0.079057 0.250000
O O6 0.231451 0.089658 0.081730
O O7 0.000000 0.052710 0.169126
O O8 0.244795 0.989358 0.148806
O O9 0.250000 0.277447 0.750000
O O10 0.500000 0.297958 0.673051
O O11 0.279628 0.372512 0.659552
O O12 0.500000 0.662497 0.899309
O O13 0.252335 0.596047 0.862308
O O14 0.330669 0.608966 0.010288
O O15 0.750000 0.485958 0.250000
O O16 0.774047 0.520306 0.397489
O O17 0.000000 0.458864 0.333760
O O18 0.250000 0.100174 0.750000
O O19 0.500000 0.066583 0.826661
O O20 0.274654 0.110882 0.918042
O O21 0.500000 0.118806 0.028255
O O22 0.000000 0.409040 0.643154
#
# Coordination Sequence:
#
# PCOD8219742 Si02
#       8
#     8   8   8   8   8   8   8   8
#     4  10  22  38  55  77 104 137 182 230 272 319
#     4  11  22  38  62  90 121 155 192 236 284 334
#     4  10  20  33  50  74 105 139 175 217 267 324
#     4   9  18  35  55  72  96 133 173 212 259 315
#     4  10  20  32  49  75 103 130 163 207 259 316
#     4  10  21  37  59  89 125 160 193 231 277 333
#     4  11  23  39  60  86 117 154 195 238 284 333
#     4   9  17  31  52  75  99 129 167 210 258 315
#
# _framework density 19.846581
#
# number of rings (size 3 to 8) (size 9 to 14) (size 15 to 20)
#    0.000    2.000    0.000    4.500    0.000    9.000 
#    0.000    3.125    0.000    5.250    0.000    0.000 
#    0.000    0.000    0.000    0.000    0.000    0.000 
#
# Total GULP energy -793373.413224 kJ/mol
# GULP energy per Si atom -12396.459582 kJ/mol
# Density = 1.980141 g / cm^3
# Si number density = 19.846581 Si / 1000 Ang^3
#
#
#
# Elastic Constant Matrix: (Units=GPa)
#
#
# Indices 1 2 3 4 5 6 
#
# 1 73.6703 28.4399 27.7376 0.0000 0.0000 0.0000
# 2 28.4399 94.9900 27.9975 0.0000 0.0000 0.0000
# 3 27.7376 27.9975 62.1836 0.0000 0.0000 0.0000
# 4 0.0000 0.0000 0.0000 18.5242 0.0000 0.0000
# 5 0.0000 0.0000 0.0000 0.0000 29.3106 0.0000
# 6 0.0000 0.0000 0.0000 0.0000 0.0000 24.1816
#
#
#
# Elastic Compliance Matrix: (Units=1/GPa)
#
#
# Indices 1 2 3 4 5 6 
#
# 1 0.017179 -0.003326 -0.006165 0.000000 0.000000 0.000000
# 2 -0.003326 0.012782 -0.004271 0.000000 0.000000 0.000000
# 3 -0.006165 -0.004271 0.020755 0.000000 0.000000 0.000000
# 4 0.000000 0.000000 0.000000 0.053983 0.000000 0.000000
# 5 0.000000 0.000000 0.000000 0.000000 0.034117 0.000000
# 6 0.000000 0.000000 0.000000 0.000000 0.000000 0.041354
#
#
# Mechanical properties :
#
#
# Convention : Reuss Voigt Hill
#
# Bulk Modulus (GPa) = 43.12159 44.35488 43.73824
# Shear Modulus (GPa) = 23.20972 24.18123 23.69547
#
# Velocity S-wave (km/s) = 3.42344 3.49436 3.45908
# Velocity P-wave (km/s) = 6.11566 6.21917 6.16763
#
# Compressibility (1/GPa) = 0.02319024
#
# Stress axis : x y z
#
# Youngs Moduli (GPa) = 58.20913 78.23345 48.18184
#
# Poissons Ratio (x) = 0.26023 0.29706
# Poissons Ratio (y) = 0.19362 0.20580
# Poissons Ratio (z) = 0.35889 0.33416
#
# Static dielectric constant tensor:
#      x y z
#    x 3.604700 0.000000 0.000000 
#    y 0.000000 3.628790 0.000000 
#    z 0.000000 0.000000 3.527170 
# 
# 
# High freq. dielectric constant tensor:
#      x y z
#    x 1.772340 0.000000 0.000000 
#    y 0.000000 1.770480 0.000000 
#    z 0.000000 0.000000 1.768840 
# 
# From -- ./inp_files/20822.got.cif
#   From: 2010.03.12/outbox.cif.g09.slc.cpg/sg53_11_cif.got.tgz:20822.got - 2010.04.16 14:36:59.
