data_PCOD8219119
_publ_section_title
;
Structure prediction by ZEFSAII (Michael W. Deem and Ramdas Pophale) SiO2 
 PCOD8219119
Probable space group: P M N A
;
_chemical_formula_sum "Si O2"
_cell_formula_units_Z 64
_cell_length_a 13.933136
_cell_length_b 13.616380
_cell_length_c 18.837348
_cell_angle_alpha 90.000000
_cell_angle_beta 90.000000
_cell_angle_gamma 90.000000
_cell_volume 3573.800459
_symmetry_space_group_name_H-M "P M N A"
_symmetry_group_IT_number 53
_symmetry_cell_setting 'orthorhombic'
loop_
_space_group_symop_operation_xyz
x,y,z
1/2-x,-y,1/2+z
x,-y,-z
1/2-x,y,1/2-z
-x,-y,-z
1/2+x,y,1/2-z
-x,y,z
1/2+x,-y,1/2+z
loop_
_atom_site_type_symbol
_atom_site_label
_atom_site_fract_x
_atom_site_fract_y
_atom_site_fract_z
Si Si1 0.238017 0.985640 0.419467
Si Si2 0.181271 0.115079 0.193713
Si Si3 0.197426 0.341605 0.852028
Si Si4 0.607718 0.740251 0.591956
Si Si5 0.609660 0.476748 0.417588
Si Si6 0.392461 0.058848 0.793883
Si Si7 0.889138 0.717897 0.289943
Si Si8 0.887665 0.175661 0.947059
O O1 0.156524 0.936998 0.371043
O O2 0.333903 0.920569 0.419380
O O3 0.199670 0.000000 0.500000
O O4 0.263030 0.086273 0.378460
O O5 0.250000 0.170066 0.250000
O O6 0.107559 0.197694 0.166005
O O7 0.145015 0.016970 0.234235
O O8 0.185968 0.451443 0.880649
O O9 0.145426 0.345522 0.776161
O O10 0.310398 0.308494 0.851022
O O11 0.135833 0.269845 0.900717
O O12 0.500000 0.717845 0.568554
O O13 0.653573 0.631945 0.599005
O O14 0.650916 0.803164 0.526761
O O15 0.610422 0.500000 0.500000
O O16 0.500000 0.489158 0.388374
O O17 0.500000 0.027471 0.809264
O O18 0.381699 0.168773 0.763974
O O19 0.000000 0.694041 0.313260
O O20 0.000000 0.150636 0.942983
#
# Coordination Sequence:
#
# PCOD8219119 Si02
#       8
#     8   8   8   8   8   8   8   8
#     4  11  21  34  53  80 110 141 181 229 273 329
#     4  10  21  35  52  74 109 148 184 223 272 327
#     4  11  20  34  56  80 109 142 173 222 280 329
#     4  10  20  34  53  78 107 140 179 221 273 328
#     4  10  19  33  54  81 108 138 178 225 280 335
#     4  10  21  37  56  76 108 149 186 223 269 329
#     4  10  21  35  55  82 109 141 179 221 273 333
#     4  11  20  31  52  83 111 136 170 216 279 338
#
# _framework density 17.908107999999999
#
# number of rings (size 3 to 8) (size 9 to 14) (size 15 to 20)
#    0.000    1.625    3.750    2.250    3.500    2.500 
#    2.250    0.000    0.000    0.375    0.000    0.000 
#    0.000    0.000    0.000    0.000    0.000    0.000 
#
# Total GULP energy -792942.280520 kJ/mol
# GULP energy per Si atom -12389.723133 kJ/mol
# Density = 1.786735 g / cm^3
# Si number density = 17.908108 Si / 1000 Ang^3
#
#
#
# Elastic Constant Matrix: (Units=GPa)
#
#
# Indices 1 2 3 4 5 6 
#
# 1 82.5587 13.6317 26.0690 0.0000 0.0000 0.0000
# 2 13.6317 62.3883 32.2572 0.0000 0.0000 0.0000
# 3 26.0690 32.2572 92.9468 0.0000 0.0000 0.0000
# 4 0.0000 0.0000 0.0000 29.4261 0.0000 0.0000
# 5 0.0000 0.0000 0.0000 0.0000 23.8756 0.0000
# 6 0.0000 0.0000 0.0000 0.0000 0.0000 18.1139
#
#
#
# Elastic Compliance Matrix: (Units=1/GPa)
#
#
# Indices 1 2 3 4 5 6 
#
# 1 0.013362 -0.001197 -0.003333 0.000000 0.000000 0.000000
# 2 -0.001197 0.019641 -0.006481 0.000000 0.000000 0.000000
# 3 -0.003333 -0.006481 0.013943 0.000000 0.000000 0.000000
# 4 0.000000 0.000000 0.000000 0.033983 0.000000 0.000000
# 5 0.000000 0.000000 0.000000 0.000000 0.041884 0.000000
# 6 0.000000 0.000000 0.000000 0.000000 0.000000 0.055206
#
#
# Mechanical properties :
#
#
# Convention : Reuss Voigt Hill
#
# Bulk Modulus (GPa) = 40.11836 42.42330 41.27083
# Shear Modulus (GPa) = 23.99829 25.34550 24.67190
#
# Velocity S-wave (km/s) = 3.66468 3.76614 3.71576
# Velocity P-wave (km/s) = 6.35275 6.53090 6.44244
#
# Compressibility (1/GPa) = 0.02492624
#
# Stress axis : x y z
#
# Youngs Moduli (GPa) = 74.83653 50.91413 71.72226
#
# Poissons Ratio (x) = 0.06092 0.23902
# Poissons Ratio (y) = 0.08955 0.46482
# Poissons Ratio (z) = 0.24939 0.32996
#
# Static dielectric constant tensor:
#      x y z
#    x 3.322100 0.000000 0.000000 
#    y 0.000000 3.313610 0.000000 
#    z 0.000000 0.000000 3.387390 
# 
# 
# High freq. dielectric constant tensor:
#      x y z
#    x 1.674570 0.000000 0.000000 
#    y 0.000000 1.686680 0.000000 
#    z 0.000000 0.000000 1.691750 
# 
# From -- ./inp_files/28637.got.cif
#   From: 2010.03.12/outbox.cif.g09.slc.cpg/sg53_15_cif.got.tgz:28637.got - 2010.04.16 14:36:59.
