data_PCOD8219049
_publ_section_title
;
Structure prediction by ZEFSAII (Michael W. Deem and Ramdas Pophale) SiO2 
 PCOD8219049
Probable space group: P M N A
;
_chemical_formula_sum "Si O2"
_cell_formula_units_Z 40
_cell_length_a 8.610115
_cell_length_b 11.602726
_cell_length_c 21.614674
_cell_angle_alpha 90.000000
_cell_angle_beta 90.000000
_cell_angle_gamma 90.000000
_cell_volume 2159.323336
_symmetry_space_group_name_H-M "P M N A"
_symmetry_group_IT_number 53
_symmetry_cell_setting 'orthorhombic'
loop_
_space_group_symop_operation_xyz
x,y,z
1/2-x,-y,1/2+z
x,-y,-z
1/2-x,y,1/2-z
-x,-y,-z
1/2+x,y,1/2-z
-x,y,z
1/2+x,-y,1/2+z
loop_
_atom_site_type_symbol
_atom_site_label
_atom_site_fract_x
_atom_site_fract_y
_atom_site_fract_z
Si Si1 0.318300 0.454522 0.084166
Si Si2 0.682450 0.075137 0.558874
Si Si3 0.680614 0.337894 0.532742
Si Si4 0.316259 0.023637 0.184404
Si Si5 0.816535 0.716333 0.686821
O O1 0.500000 0.479974 0.092307
O O2 0.223045 0.575272 0.089187
O O3 0.250585 0.369989 0.135956
O O4 0.289827 0.385141 0.021210
O O5 0.500000 0.055962 0.566031
O O6 0.726803 0.207570 0.547380
O O7 0.760122 0.044572 0.624085
O O8 0.744276 0.000000 0.500000
O O9 0.500000 0.347967 0.515021
O O10 0.250000 0.974617 0.250000
O O11 0.500000 0.015225 0.188188
O O12 0.255216 0.154163 0.175004
O O13 0.750000 0.666959 0.750000
O O14 0.000000 0.716910 0.687668
#
# Coordination Sequence:
#
# PCOD8219049 Si02
#       5
#     8   8   8   8   8
#     4  10  19  33  52  74 102 132 165 206 252 300
#     4  10  21  36  54  78 107 138 175 218 261 308
#     4  10  20  33  51  75 101 132 168 205 252 303
#     4  10  20  35  55  78 106 138 173 213 259 311
#     4   9  19  33  51  76 101 129 165 205 249 296
#
# _framework density 18.524322000000002
#
# number of rings (size 3 to 8) (size 9 to 14) (size 15 to 20)
#    0.000    2.200    0.000    4.200    0.000    4.400 
#    0.000    1.000    0.000    2.400    0.000    0.000 
#    0.000    0.000    0.000    0.000    0.000    0.000 
#
# Total GULP energy -495835.365807 kJ/mol
# GULP energy per Si atom -12395.884145 kJ/mol
# Density = 1.848216 g / cm^3
# Si number density = 18.524322 Si / 1000 Ang^3
#
#
#
# Elastic Constant Matrix: (Units=GPa)
#
#
# Indices 1 2 3 4 5 6 
#
# 1 39.0611 31.2187 26.1302 0.0000 0.0000 0.0000
# 2 31.2187 138.0980 69.1045 0.0000 0.0000 0.0000
# 3 26.1302 69.1045 116.4877 0.0000 0.0000 0.0000
# 4 0.0000 0.0000 0.0000 36.4672 0.0000 0.0000
# 5 0.0000 0.0000 0.0000 0.0000 31.5073 0.0000
# 6 0.0000 0.0000 0.0000 0.0000 0.0000 29.1777
#
#
#
# Elastic Compliance Matrix: (Units=1/GPa)
#
#
# Indices 1 2 3 4 5 6 
#
# 1 0.032621 -0.005280 -0.004185 0.000000 0.000000 0.000000
# 2 -0.005280 0.011153 -0.005432 0.000000 0.000000 0.000000
# 3 -0.004185 -0.005432 0.012746 0.000000 0.000000 0.000000
# 4 0.000000 0.000000 0.000000 0.027422 0.000000 0.000000
# 5 0.000000 0.000000 0.000000 0.000000 0.031739 0.000000
# 6 0.000000 0.000000 0.000000 0.000000 0.000000 0.034273
#
#
# Mechanical properties :
#
#
# Convention : Reuss Voigt Hill
#
# Bulk Modulus (GPa) = 37.41781 60.72817 49.07299
# Shear Modulus (GPa) = 26.50340 30.57667 28.54004
#
# Velocity S-wave (km/s) = 3.78661 4.06719 3.92941
# Velocity P-wave (km/s) = 6.27384 7.41014 6.86554
#
# Compressibility (1/GPa) = 0.02672524
#
# Stress axis : x y z
#
# Youngs Moduli (GPa) = 30.65556 89.66200 78.45734
#
# Poissons Ratio (x) = 0.47342 0.32835
# Poissons Ratio (y) = 0.16186 0.42617
# Poissons Ratio (z) = 0.12830 0.48704
#
# Static dielectric constant tensor:
#      x y z
#    x 3.292860 0.000000 0.000000 
#    y 0.000000 3.721660 0.000000 
#    z 0.000000 0.000000 3.550120 
# 
# 
# High freq. dielectric constant tensor:
#      x y z
#    x 1.718630 0.000000 0.000000 
#    y 0.000000 1.719700 0.000000 
#    z 0.000000 0.000000 1.714400 
# 
# From -- ./inp_files/25854.got.cif
#   From: 2010.03.12/outbox.cif.g09.slc.cpg/sg53_13_cif.got.tgz:25854.got - 2010.04.16 14:36:59.
