data_PCOD8219738
_publ_section_title
;
Structure prediction by ZEFSAII (Michael W. Deem and Ramdas Pophale) SiO2 
 PCOD8219738
Probable space group: P M N A
;
_chemical_formula_sum "Si O2"
_cell_formula_units_Z 64
_cell_length_a 9.293563
_cell_length_b 16.719352
_cell_length_c 20.999742
_cell_angle_alpha 90.000000
_cell_angle_beta 90.000000
_cell_angle_gamma 90.000000
_cell_volume 3262.989285
_symmetry_space_group_name_H-M "P M N A"
_symmetry_group_IT_number 53
_symmetry_cell_setting 'orthorhombic'
loop_
_space_group_symop_operation_xyz
x,y,z
1/2-x,-y,1/2+z
x,-y,-z
1/2-x,y,1/2-z
-x,-y,-z
1/2+x,y,1/2-z
-x,y,z
1/2+x,-y,1/2+z
loop_
_atom_site_type_symbol
_atom_site_label
_atom_site_fract_x
_atom_site_fract_y
_atom_site_fract_z
Si Si1 0.656449 0.714626 0.691727
Si Si2 0.341693 0.162593 0.416230
Si Si3 0.833504 0.445983 0.811119
Si Si4 0.169250 0.008781 0.426886
Si Si5 0.331814 0.727665 0.355443
Si Si6 0.329381 0.580410 0.599913
Si Si7 0.172599 0.114311 0.685090
Si Si8 0.171499 0.303619 0.996668
O O1 0.750000 0.741179 0.750000
O O2 0.500000 0.687599 0.716281
O O3 0.641521 0.792840 0.649699
O O4 0.727917 0.641447 0.653455
O O5 0.500000 0.132236 0.438805
O O6 0.236824 0.089864 0.401745
O O7 0.273286 0.223503 0.467950
O O8 0.750000 0.480214 0.750000
O O9 0.807677 0.351516 0.814179
O O10 0.781444 0.491574 0.876655
O O11 0.000000 0.466097 0.800936
O O12 0.000000 0.017757 0.426455
O O13 0.225098 0.000000 0.500000
O O14 0.214487 0.938240 0.377461
O O15 0.500000 0.753937 0.355975
O O16 0.232685 0.796789 0.326857
O O17 0.273933 0.702691 0.424966
O O18 0.500000 0.585273 0.594746
O O19 0.270387 0.614224 0.531512
O O20 0.250000 0.081591 0.750000
O O21 0.000000 0.116872 0.695349
O O22 0.000000 0.304651 0.999613
#
# Coordination Sequence:
#
# PCOD8219738 Si02
#       8
#     8   8   8   8   8   8   8   8
#     4   9  17  29  46  69  98 132 167 201 242 296
#     4   9  18  32  51  75 101 131 166 204 250 305
#     4  10  20  32  49  74 102 135 175 217 261 309
#     4  10  22  39  58  81 107 135 171 217 268 319
#     4  10  20  34  55  81 105 134 176 222 268 317
#     4   8  15  29  48  72 103 135 169 212 257 302
#     4  11  24  41  60  81 109 145 182 223 271 323
#     4   8  15  30  52  78 107 136 170 214 260 310
#
# _framework density 19.613916
#
# number of rings (size 3 to 8) (size 9 to 14) (size 15 to 20)
#    0.000    2.625    0.000    3.375    0.000    4.250 
#    0.000    5.000    0.000    2.250    0.000    1.750 
#    0.000    0.000    0.000    0.000    0.000    0.000 
#
# Total GULP energy -792880.390294 kJ/mol
# GULP energy per Si atom -12388.756098 kJ/mol
# Density = 1.956927 g / cm^3
# Si number density = 19.613916 Si / 1000 Ang^3
#
#
#
# Elastic Constant Matrix: (Units=GPa)
#
#
# Indices 1 2 3 4 5 6 
#
# 1 35.3563 22.7372 34.7011 0.0000 0.0000 0.0000
# 2 22.7372 81.9212 24.6189 0.0000 0.0000 0.0000
# 3 34.7011 24.6189 111.8660 0.0000 0.0000 0.0000
# 4 0.0000 0.0000 0.0000 23.3161 0.0000 0.0000
# 5 0.0000 0.0000 0.0000 0.0000 25.2238 0.0000
# 6 0.0000 0.0000 0.0000 0.0000 0.0000 20.2589
#
#
#
# Elastic Compliance Matrix: (Units=1/GPa)
#
#
# Indices 1 2 3 4 5 6 
#
# 1 0.046272 -0.009133 -0.012344 0.000000 0.000000 0.000000
# 2 -0.009133 0.014874 -0.000440 0.000000 0.000000 0.000000
# 3 -0.012344 -0.000440 0.012865 0.000000 0.000000 0.000000
# 4 0.000000 0.000000 0.000000 0.042889 0.000000 0.000000
# 5 0.000000 0.000000 0.000000 0.000000 0.039645 0.000000
# 6 0.000000 0.000000 0.000000 0.000000 0.000000 0.049361
#
#
# Mechanical properties :
#
#
# Convention : Reuss Voigt Hill
#
# Bulk Modulus (GPa) = 33.13799 43.69533 38.41666
# Shear Modulus (GPa) = 19.24561 23.56551 21.40556
#
# Velocity S-wave (km/s) = 3.13584 3.46998 3.30714
# Velocity P-wave (km/s) = 5.48117 6.19520 5.84909
#
# Compressibility (1/GPa) = 0.03017685
#
# Stress axis : x y z
#
# Youngs Moduli (GPa) = 21.61136 67.23098 77.72915
#
# Poissons Ratio (x) = 0.61404 0.95946
# Poissons Ratio (y) = 0.19738 0.03422
# Poissons Ratio (z) = 0.26676 0.02960
#
# Static dielectric constant tensor:
#      x y z
#    x 3.301300 0.000000 0.000000 
#    y 0.000000 3.594780 0.000000 
#    z 0.000000 0.000000 3.948330 
# 
# 
# High freq. dielectric constant tensor:
#      x y z
#    x 1.723520 0.000000 0.000000 
#    y 0.000000 1.765040 0.000000 
#    z 0.000000 0.000000 1.772930 
# 
# From -- ./inp_files/31272.got.cif
#   From: 2010.03.12/outbox.cif.g09.slc.cpg/sg53_16_cif.got.tgz:31272.got - 2010.04.16 14:36:59.
