data_PCOD8219951
_publ_section_title
;
Structure prediction by ZEFSAII (Michael W. Deem and Ramdas Pophale) SiO2 
 PCOD8219951
Probable space group: P M N A
;
_chemical_formula_sum "Si O2"
_cell_formula_units_Z 64
_cell_length_a 25.384186
_cell_length_b 14.578363
_cell_length_c 8.515649
_cell_angle_alpha 90.000000
_cell_angle_beta 90.000000
_cell_angle_gamma 90.000000
_cell_volume 3151.300030
_symmetry_space_group_name_H-M "P M N A"
_symmetry_group_IT_number 53
_symmetry_cell_setting 'orthorhombic'
loop_
_space_group_symop_operation_xyz
x,y,z
1/2-x,-y,1/2+z
x,-y,-z
1/2-x,y,1/2-z
-x,-y,-z
1/2+x,y,1/2-z
-x,y,z
1/2+x,-y,1/2+z
loop_
_atom_site_type_symbol
_atom_site_label
_atom_site_fract_x
_atom_site_fract_y
_atom_site_fract_z
Si Si1 0.625935 0.656861 0.846835
Si Si2 0.208839 0.563677 0.141156
Si Si3 0.850102 0.178168 0.761984
Si Si4 0.440251 0.300546 0.857013
Si Si5 0.402794 0.529054 0.319685
Si Si6 0.222431 0.719107 0.481202
Si Si7 0.319363 0.795176 0.619913
Si Si8 0.192783 0.992625 0.815481
O O1 0.602900 0.562853 0.780737
O O2 0.640901 0.723727 0.702603
O O3 0.581005 0.691967 0.964783
O O4 0.680818 0.647833 0.942211
O O5 0.250000 0.507237 0.250000
O O6 0.151813 0.584969 0.211782
O O7 0.234091 0.660469 0.107921
O O8 0.193332 0.500000 0.000000
O O9 0.907445 0.220266 0.728724
O O10 0.806343 0.213951 0.639506
O O11 0.848875 0.066812 0.745588
O O12 0.836154 0.201477 0.939822
O O13 0.500000 0.265990 0.866910
O O14 0.442162 0.397828 0.759732
O O15 0.417539 0.500000 0.500000
O O16 0.255921 0.772192 0.615505
O O17 0.326712 0.888982 0.719770
O O18 0.250000 0.015403 0.750000
O O19 0.197427 0.000000 0.000000
#
# Coordination Sequence:
#
# PCOD8219951 Si02
#       8
#     8   8   8   8   8   8   8   8
#     4  11  23  37  56  84 119 154 193 237 286 344
#     4  11  20  30  47  75 113 152 185 215 264 335
#     4  10  21  38  59  85 115 153 199 245 287 337
#     4  11  25  45  64  80 105 147 199 255 309 353
#     4  11  23  38  58  86 114 145 191 242 295 356
#     4  11  20  33  54  81 122 165 193 224 272 338
#     4  11  20  35  57  90 128 158 190 228 279 347
#     4  10  20  33  57  91 127 162 193 226 274 340
#
# _framework density 20.309080000000002
#
# number of rings (size 3 to 8) (size 9 to 14) (size 15 to 20)
#    0.000    1.250    0.000    9.375    0.000    2.250 
#    0.000    1.875    0.000    4.875    0.000    0.000 
#    0.000    0.000    0.000    0.000    0.000    0.000 
#
# Total GULP energy -792835.607375 kJ/mol
# GULP energy per Si atom -12388.056365 kJ/mol
# Density = 2.026286 g / cm^3
# Si number density = 20.309080 Si / 1000 Ang^3
#
#
#
# Elastic Constant Matrix: (Units=GPa)
#
#
# Indices 1 2 3 4 5 6 
#
# 1 114.3536 50.9832 29.6350 0.0000 0.0000 0.0000
# 2 50.9832 120.6809 34.6234 0.0000 0.0000 0.0000
# 3 29.6350 34.6234 89.3389 0.0000 0.0000 0.0000
# 4 0.0000 0.0000 0.0000 32.2412 0.0000 0.0000
# 5 0.0000 0.0000 0.0000 0.0000 17.4488 0.0000
# 6 0.0000 0.0000 0.0000 0.0000 0.0000 19.6624
#
#
#
# Elastic Compliance Matrix: (Units=1/GPa)
#
#
# Indices 1 2 3 4 5 6 
#
# 1 0.011114 -0.004093 -0.002101 0.000000 0.000000 0.000000
# 2 -0.004093 0.010830 -0.002840 0.000000 0.000000 0.000000
# 3 -0.002101 -0.002840 0.012991 0.000000 0.000000 0.000000
# 4 0.000000 0.000000 0.000000 0.031016 0.000000 0.000000
# 5 0.000000 0.000000 0.000000 0.000000 0.057311 0.000000
# 6 0.000000 0.000000 0.000000 0.000000 0.000000 0.050858
#
#
# Mechanical properties :
#
#
# Convention : Reuss Voigt Hill
#
# Bulk Modulus (GPa) = 59.28036 61.65072 60.46554
# Shear Modulus (GPa) = 25.27706 27.81260 26.54483
#
# Velocity S-wave (km/s) = 3.53174 3.70464 3.61923
# Velocity P-wave (km/s) = 6.77373 6.98007 6.87767
#
# Compressibility (1/GPa) = 0.01686899
#
# Stress axis : x y z
#
# Youngs Moduli (GPa) = 89.97852 92.33665 76.97870
#
# Poissons Ratio (x) = 0.37789 0.16170
# Poissons Ratio (y) = 0.36824 0.21859
# Poissons Ratio (z) = 0.18900 0.26220
#
# Static dielectric constant tensor:
#      x y z
#    x 4.697710 0.000000 0.000000 
#    y 0.000000 4.078650 0.000000 
#    z 0.000000 0.000000 4.403280 
# 
# 
# High freq. dielectric constant tensor:
#      x y z
#    x 1.753640 0.000000 0.000000 
#    y 0.000000 1.794550 0.000000 
#    z 0.000000 0.000000 1.816910 
# 
# From -- ./inp_files/11922.got.cif
#   From: 2010.03.12/outbox.cif.g09.slc.cpg/sg53_6_cif.got.tgz:11922.got - 2010.04.16 14:36:59.
