data_PCOD8219905
_publ_section_title
;
Structure prediction by ZEFSAII (Michael W. Deem and Ramdas Pophale) SiO2 
 PCOD8219905
Probable space group: P M N A
;
_chemical_formula_sum "Si O2"
_cell_formula_units_Z 64
_cell_length_a 9.029099
_cell_length_b 11.216231
_cell_length_c 33.381879
_cell_angle_alpha 90.000000
_cell_angle_beta 90.000000
_cell_angle_gamma 90.000000
_cell_volume 3380.665009
_symmetry_space_group_name_H-M "P M N A"
_symmetry_group_IT_number 53
_symmetry_cell_setting 'orthorhombic'
loop_
_space_group_symop_operation_xyz
x,y,z
1/2-x,-y,1/2+z
x,-y,-z
1/2-x,y,1/2-z
-x,-y,-z
1/2+x,y,1/2-z
-x,y,z
1/2+x,-y,1/2+z
loop_
_atom_site_type_symbol
_atom_site_label
_atom_site_fract_x
_atom_site_fract_y
_atom_site_fract_z
Si Si1 0.166911 0.952655 0.558293
Si Si2 0.327416 0.614059 0.902726
Si Si3 0.327012 0.774808 0.052872
Si Si4 0.826543 0.641526 0.367960
Si Si5 0.172365 0.017923 0.209996
Si Si6 0.825276 0.728601 0.974900
Si Si7 0.666020 0.849471 0.857394
Si Si8 0.175103 0.254592 0.791402
O O1 0.278958 0.862217 0.537458
O O2 0.173461 0.941552 0.606002
O O3 0.000000 0.923381 0.543136
O O4 0.212245 0.086397 0.547172
O O5 0.500000 0.621423 0.913935
O O6 0.284200 0.490471 0.882394
O O7 0.238062 0.631384 0.943926
O O8 0.285692 0.718112 0.871546
O O9 0.500000 0.748508 0.047238
O O10 0.277564 0.732163 0.096953
O O11 0.238263 0.701141 0.019156
O O12 0.735388 0.666959 0.327892
O O13 0.000000 0.653332 0.358194
O O14 0.250000 0.063253 0.250000
O O15 0.219594 0.882477 0.199916
O O16 0.000000 0.027402 0.217067
O O17 0.217991 0.106958 0.175064
O O18 0.000000 0.717813 0.975650
O O19 0.500000 0.848014 0.839309
O O20 0.250000 0.297816 0.750000
O O21 0.000000 0.272080 0.787616
#
# Coordination Sequence:
#
# PCOD8219905 Si02
#       8
#     8   8   8   8   8   8   8   8
#     4   9  18  33  53  76 104 138 174 215 267 325
#     4   9  20  39  58  75 101 140 182 221 262 312
#     4  10  20  34  54  79 107 140 177 219 268 323
#     4  10  21  38  60  82 104 137 183 226 264 312
#     4  10  20  33  52  80 111 140 169 206 256 314
#     4  11  22  34  51  76 107 142 179 222 268 313
#     4   9  17  32  54  77 102 133 171 216 263 310
#     4  10  21  37  58  84 114 143 171 210 260 313
#
# _framework density 18.931186
#
# number of rings (size 3 to 8) (size 9 to 14) (size 15 to 20)
#    0.000    2.250    0.000    3.750    0.000    8.000 
#    0.000    3.125    0.000    0.000    0.000    0.000 
#    0.000    0.000    0.000    0.000    0.000    0.000 
#
# Total GULP energy -793748.315944 kJ/mol
# GULP energy per Si atom -12402.317437 kJ/mol
# Density = 1.888810 g / cm^3
# Si number density = 18.931186 Si / 1000 Ang^3
#
#
#
# Elastic Constant Matrix: (Units=GPa)
#
#
# Indices 1 2 3 4 5 6 
#
# 1 83.5664 30.8745 58.1922 0.0000 0.0000 0.0000
# 2 30.8745 51.1994 35.9546 0.0000 0.0000 0.0000
# 3 58.1922 35.9546 128.0436 0.0000 0.0000 0.0000
# 4 0.0000 0.0000 0.0000 20.6271 0.0000 0.0000
# 5 0.0000 0.0000 0.0000 0.0000 36.3112 0.0000
# 6 0.0000 0.0000 0.0000 0.0000 0.0000 15.8686
#
#
#
# Elastic Compliance Matrix: (Units=1/GPa)
#
#
# Indices 1 2 3 4 5 6 
#
# 1 0.019238 -0.006803 -0.006833 0.000000 0.000000 0.000000
# 2 -0.006803 0.026734 -0.004415 0.000000 0.000000 0.000000
# 3 -0.006833 -0.004415 0.012155 0.000000 0.000000 0.000000
# 4 0.000000 0.000000 0.000000 0.048480 0.000000 0.000000
# 5 0.000000 0.000000 0.000000 0.000000 0.027540 0.000000
# 6 0.000000 0.000000 0.000000 0.000000 0.000000 0.063018
#
#
# Mechanical properties :
#
#
# Convention : Reuss Voigt Hill
#
# Bulk Modulus (GPa) = 45.40194 56.98354 51.19274
# Shear Modulus (GPa) = 20.78067 23.74726 22.26396
#
# Velocity S-wave (km/s) = 3.31674 3.54559 3.43307
# Velocity P-wave (km/s) = 6.22112 6.85035 6.54331
#
# Compressibility (1/GPa) = 0.02202549
#
# Stress axis : x y z
#
# Youngs Moduli (GPa) = 51.98042 37.40518 82.27013
#
# Poissons Ratio (x) = 0.25445 0.56215
# Poissons Ratio (y) = 0.35360 0.36326
# Poissons Ratio (z) = 0.35518 0.16516
#
# Static dielectric constant tensor:
#      x y z
#    x 3.319650 0.000000 0.000000 
#    y 0.000000 3.436940 0.000000 
#    z 0.000000 0.000000 3.491890 
# 
# 
# High freq. dielectric constant tensor:
#      x y z
#    x 1.726400 0.000000 0.000000 
#    y 0.000000 1.724490 0.000000 
#    z 0.000000 0.000000 1.741670 
# 
# From -- ./inp_files/38156.got.cif
#   From: 2010.03.12/outbox.cif.g09.slc.cpg/sg53_20_cif.got.tgz:38156.got - 2010.04.16 14:36:59.
