data_PCOD8219902
_publ_section_title
;
Structure prediction by ZEFSAII (Michael W. Deem and Ramdas Pophale) SiO2 
 PCOD8219902
Probable space group: P M N A
;
_chemical_formula_sum "Si O2"
_cell_formula_units_Z 56
_cell_length_a 8.854395
_cell_length_b 18.797644
_cell_length_c 17.132667
_cell_angle_alpha 90.000000
_cell_angle_beta 90.000000
_cell_angle_gamma 90.000000
_cell_volume 2851.591335
_symmetry_space_group_name_H-M "P M N A"
_symmetry_group_IT_number 53
_symmetry_cell_setting 'orthorhombic'
loop_
_space_group_symop_operation_xyz
x,y,z
1/2-x,-y,1/2+z
x,-y,-z
1/2-x,y,1/2-z
-x,-y,-z
1/2+x,y,1/2-z
-x,y,z
1/2+x,-y,1/2+z
loop_
_atom_site_type_symbol
_atom_site_label
_atom_site_fract_x
_atom_site_fract_y
_atom_site_fract_z
Si Si1 0.674848 0.162238 0.665722
Si Si2 0.327164 0.644148 0.830077
Si Si3 0.175160 0.576631 0.978167
Si Si4 0.671427 0.788123 0.909784
Si Si5 0.328433 0.719792 0.449583
Si Si6 0.179276 0.034204 0.582765
Si Si7 0.322447 0.089186 0.329445
O O1 0.750000 0.154061 0.750000
O O2 0.500000 0.141450 0.674066
O O3 0.694147 0.244089 0.635511
O O4 0.750121 0.111755 0.599522
O O5 0.250000 0.621765 0.750000
O O6 0.500000 0.621684 0.825630
O O7 0.253348 0.601226 0.899719
O O8 0.308320 0.728557 0.843321
O O9 0.000000 0.568235 0.959041
O O10 0.244937 0.500000 0.000000
O O11 0.201733 0.634355 0.048413
O O12 0.500000 0.817345 0.911655
O O13 0.784631 0.853176 0.895539
O O14 0.709083 0.755645 0.993184
O O15 0.500000 0.734093 0.479036
O O16 0.000000 0.039904 0.587241
O O17 0.231152 0.000000 0.500000
O O18 0.242919 0.985142 0.651561
O O19 0.250000 0.118463 0.250000
O O20 0.500000 0.078333 0.321601
#
# Coordination Sequence:
#
# PCOD8219902 Si02
#       7
#     8   8   8   8   8   8   8
#     4  11  23  39  59  82 111 147 190 238 286 336
#     4  10  20  33  52  79 111 146 183 224 271 326
#     4   9  18  35  59  84 113 148 184 225 276 334
#     4  10  20  34  54  81 111 143 180 222 270 325
#     4   9  19  36  58  83 110 144 184 224 271 329
#     4  11  24  41  60  81 107 140 181 229 281 336
#     4  12  24  37  54  77 108 142 177 219 268 320
#
# _framework density 19.638155999999999
#
# number of rings (size 3 to 8) (size 9 to 14) (size 15 to 20)
#    0.000    1.714    0.000    4.714    0.000    7.714 
#    0.000    0.714    0.000    1.714    0.000    0.000 
#    0.000    0.000    0.000    0.000    0.000    0.000 
#
# Total GULP energy -694373.264572 kJ/mol
# GULP energy per Si atom -12399.522582 kJ/mol
# Density = 1.959346 g / cm^3
# Si number density = 19.638156 Si / 1000 Ang^3
#
#
#
# Elastic Constant Matrix: (Units=GPa)
#
#
# Indices 1 2 3 4 5 6 
#
# 1 97.9879 44.7788 43.5191 0.0000 0.0000 0.0000
# 2 44.7788 121.7701 42.7319 0.0000 0.0000 0.0000
# 3 43.5191 42.7319 88.3006 0.0000 0.0000 0.0000
# 4 0.0000 0.0000 0.0000 30.3798 0.0000 0.0000
# 5 0.0000 0.0000 0.0000 0.0000 27.5466 0.0000
# 6 0.0000 0.0000 0.0000 0.0000 0.0000 22.3067
#
#
#
# Elastic Compliance Matrix: (Units=1/GPa)
#
#
# Indices 1 2 3 4 5 6 
#
# 1 0.014090 -0.003306 -0.005344 0.000000 0.000000 0.000000
# 2 -0.003306 0.010668 -0.003533 0.000000 0.000000 0.000000
# 3 -0.005344 -0.003533 0.015669 0.000000 0.000000 0.000000
# 4 0.000000 0.000000 0.000000 0.032917 0.000000 0.000000
# 5 0.000000 0.000000 0.000000 0.000000 0.036302 0.000000
# 6 0.000000 0.000000 0.000000 0.000000 0.000000 0.044830
#
#
# Mechanical properties :
#
#
# Convention : Reuss Voigt Hill
#
# Bulk Modulus (GPa) = 62.26860 63.34645 62.80753
# Shear Modulus (GPa) = 27.14528 27.84855 27.49691
#
# Velocity S-wave (km/s) = 3.72193 3.76983 3.74595
# Velocity P-wave (km/s) = 7.08852 7.16070 7.12470
#
# Compressibility (1/GPa) = 0.01605946
#
# Stress axis : x y z
#
# Youngs Moduli (GPa) = 70.97450 93.74066 63.82126
#
# Poissons Ratio (x) = 0.30988 0.34108
# Poissons Ratio (y) = 0.23462 0.22550
# Poissons Ratio (z) = 0.37931 0.33121
#
# Static dielectric constant tensor:
#      x y z
#    x 3.595980 0.000000 0.000000 
#    y 0.000000 3.782000 0.000000 
#    z 0.000000 0.000000 3.451640 
# 
# 
# High freq. dielectric constant tensor:
#      x y z
#    x 1.773470 0.000000 0.000000 
#    y 0.000000 1.761360 0.000000 
#    z 0.000000 0.000000 1.753930 
# 
# From -- ./inp_files/20451.got.cif
#   From: 2010.03.12/outbox.cif.g09.slc.cpg/sg53_11_cif.got.tgz:20451.got - 2010.04.16 14:36:59.
