data_PCOD8219243
_publ_section_title
;
Structure prediction by ZEFSAII (Michael W. Deem and Ramdas Pophale) SiO2 
 PCOD8219243
Probable space group: P M N A
;
_chemical_formula_sum "Si O2"
_cell_formula_units_Z 56
_cell_length_a 9.316489
_cell_length_b 15.182903
_cell_length_c 20.568743
_cell_angle_alpha 90.000000
_cell_angle_beta 90.000000
_cell_angle_gamma 90.000000
_cell_volume 2909.476440
_symmetry_space_group_name_H-M "P M N A"
_symmetry_group_IT_number 53
_symmetry_cell_setting 'orthorhombic'
loop_
_space_group_symop_operation_xyz
x,y,z
1/2-x,-y,1/2+z
x,-y,-z
1/2-x,y,1/2-z
-x,-y,-z
1/2+x,y,1/2-z
-x,y,z
1/2+x,-y,1/2+z
loop_
_atom_site_type_symbol
_atom_site_label
_atom_site_fract_x
_atom_site_fract_y
_atom_site_fract_z
Si Si1 0.336608 0.533005 0.687543
Si Si2 0.168212 0.920178 0.450399
Si Si3 0.840829 0.302097 0.110205
Si Si4 0.672797 0.945150 0.316354
Si Si5 0.166032 0.721982 0.488839
Si Si6 0.157321 0.857051 0.805466
Si Si7 0.331412 0.434673 0.558415
O O1 0.250000 0.502536 0.750000
O O2 0.500000 0.511849 0.703611
O O3 0.311882 0.636476 0.672479
O O4 0.283492 0.479706 0.625122
O O5 0.258876 0.910025 0.383542
O O6 0.197952 0.826132 0.484331
O O7 0.000000 0.932558 0.433358
O O8 0.216482 0.000000 0.500000
O O9 0.716863 0.314766 0.058321
O O10 0.839678 0.200338 0.129970
O O11 0.000000 0.326643 0.081269
O O12 0.750000 0.907113 0.250000
O O13 0.500000 0.927400 0.314168
O O14 0.716137 0.047042 0.322134
O O15 0.253460 0.660556 0.439043
O O16 0.000000 0.701954 0.479442
O O17 0.250000 0.810309 0.750000
O O18 0.000000 0.865824 0.775643
O O19 0.283057 0.500000 0.500000
O O20 0.500000 0.417449 0.554907
#
# Coordination Sequence:
#
# PCOD8219243 Si02
#       7
#     8   8   8   8   8   8   8
#     4  10  21  36  57  84 114 151 189 232 285 339
#     4  10  22  40  59  84 121 158 195 247 304 355
#     4  10  19  34  53  77 113 152 187 226 282 352
#     4  10  20  35  56  82 111 151 199 245 298 355
#     4  11  23  36  57  88 113 144 193 244 293 341
#     4   9  18  30  48  75 108 145 186 232 283 343
#     4  10  20  40  63  82 112 155 195 230 281 345
#
# _framework density 19.247449
#
# number of rings (size 3 to 8) (size 9 to 14) (size 15 to 20)
#    0.000    2.000    1.429    2.143    0.000    4.000 
#    0.000    0.714    0.000    1.714    0.000    0.000 
#    0.000    0.000    0.000    0.000    0.000    0.000 
#
# Total GULP energy -693912.897886 kJ/mol
# GULP energy per Si atom -12391.301748 kJ/mol
# Density = 1.920364 g / cm^3
# Si number density = 19.247449 Si / 1000 Ang^3
#
#
#
# Elastic Constant Matrix: (Units=GPa)
#
#
# Indices 1 2 3 4 5 6 
#
# 1 76.1276 36.8817 54.0016 0.0000 0.0000 0.0000
# 2 36.8817 86.8496 28.3945 0.0000 0.0000 0.0000
# 3 54.0016 28.3945 127.1459 0.0000 0.0000 0.0000
# 4 0.0000 0.0000 0.0000 22.5075 0.0000 0.0000
# 5 0.0000 0.0000 0.0000 0.0000 37.6537 0.0000
# 6 0.0000 0.0000 0.0000 0.0000 0.0000 29.8653
#
#
#
# Elastic Compliance Matrix: (Units=1/GPa)
#
#
# Indices 1 2 3 4 5 6 
#
# 1 0.021959 -0.006770 -0.007815 0.000000 0.000000 0.000000
# 2 -0.006770 0.014508 -0.000365 0.000000 0.000000 0.000000
# 3 -0.007815 -0.000365 0.011265 0.000000 0.000000 0.000000
# 4 0.000000 0.000000 0.000000 0.044430 0.000000 0.000000
# 5 0.000000 0.000000 0.000000 0.000000 0.026558 0.000000
# 6 0.000000 0.000000 0.000000 0.000000 0.000000 0.033484
#
#
# Mechanical properties :
#
#
# Convention : Reuss Voigt Hill
#
# Bulk Modulus (GPa) = 56.07227 58.74206 57.40717
# Shear Modulus (GPa) = 26.58897 29.39497 27.99197
#
# Velocity S-wave (km/s) = 3.72079 3.91220 3.81769
# Velocity P-wave (km/s) = 6.90323 7.14092 7.02308
#
# Compressibility (1/GPa) = 0.01783413
#
# Stress axis : x y z
#
# Youngs Moduli (GPa) = 45.53901 68.92540 88.76731
#
# Poissons Ratio (x) = 0.46665 0.69368
# Poissons Ratio (y) = 0.30831 0.03236
# Poissons Ratio (z) = 0.35587 0.02513
#
# Static dielectric constant tensor:
#      x y z
#    x 5.052180 0.000000 0.000000 
#    y 0.000000 3.575240 0.000000 
#    z 0.000000 0.000000 3.507680 
# 
# 
# High freq. dielectric constant tensor:
#      x y z
#    x 1.746390 0.000000 0.000000 
#    y 0.000000 1.742710 0.000000 
#    z 0.000000 0.000000 1.741930 
# 
# From -- ./inp_files/30728.got.cif
#   From: 2010.03.12/outbox.cif.g09.slc.cpg/sg53_16_cif.got.tgz:30728.got - 2010.04.16 14:36:59.
