data_PCOD8219532
_publ_section_title
;
Structure prediction by ZEFSAII (Michael W. Deem and Ramdas Pophale) SiO2 
 PCOD8219532
Probable space group: P M N A
;
_chemical_formula_sum "Si O2"
_cell_formula_units_Z 64
_cell_length_a 28.895792
_cell_length_b 11.429049
_cell_length_c 9.421545
_cell_angle_alpha 90.000000
_cell_angle_beta 90.000000
_cell_angle_gamma 90.000000
_cell_volume 3111.478640
_symmetry_space_group_name_H-M "P M N A"
_symmetry_group_IT_number 53
_symmetry_cell_setting 'orthorhombic'
loop_
_space_group_symop_operation_xyz
x,y,z
1/2-x,-y,1/2+z
x,-y,-z
1/2-x,y,1/2-z
-x,-y,-z
1/2+x,y,1/2-z
-x,y,z
1/2+x,-y,1/2+z
loop_
_atom_site_type_symbol
_atom_site_label
_atom_site_fract_x
_atom_site_fract_y
_atom_site_fract_z
Si Si1 0.948179 0.496860 0.655058
Si Si2 0.295426 0.475501 0.668118
Si Si3 0.220200 0.870191 0.021346
Si Si4 0.673272 0.866213 0.998932
Si Si5 0.849737 0.752847 0.224196
Si Si6 0.949862 0.723265 0.157845
Si Si7 0.675804 0.271957 0.289326
Si Si8 0.405566 0.388775 0.415659
O O1 0.924539 0.500000 0.500000
O O2 0.948591 0.364748 0.710462
O O3 0.919791 0.581167 0.756816
O O4 0.000000 0.547345 0.644291
O O5 0.286022 0.500000 0.500000
O O6 0.250000 0.425732 0.750000
O O7 0.337871 0.384406 0.695856
O O8 0.308012 0.596568 0.748424
O O9 0.214923 0.794093 0.878896
O O10 0.274212 0.868350 0.053663
O O11 0.191562 0.824440 0.154036
O O12 0.201404 0.000000 0.000000
O O13 0.646317 0.785532 0.110710
O O14 0.664663 0.805953 0.847399
O O15 0.654222 0.000000 0.000000
O O16 0.900780 0.791185 0.163285
O O17 0.000000 0.792313 0.163244
O O18 0.949533 0.653419 0.007867
O O19 0.632134 0.285302 0.397406
O O20 0.382849 0.500000 0.500000
#
# Coordination Sequence:
#
# PCOD8219532 Si02
#       8
#     8   8   8   8   8   8   8   8
#     4   9  18  31  53  85 120 159 203 249 301 367
#     4  12  24  38  59  93 137 171 203 246 312 391
#     4  11  22  42  67  89 119 167 217 264 302 351
#     4  11  26  44  64  93 124 165 217 261 306 364
#     4  12  24  41  64  94 129 166 208 258 314 372
#     4  10  20  37  60  86 119 161 207 256 310 366
#     4  12  23  38  62  91 130 164 204 256 306 377
#     4  10  19  36  56  87 125 163 202 247 305 371
#
# _framework density 20.568999999999999
#
# number of rings (size 3 to 8) (size 9 to 14) (size 15 to 20)
#    0.000    1.125    2.500    5.250    3.500    3.500 
#    0.000    0.000    0.000    0.750    0.000    0.000 
#    0.000    0.000    0.000    0.000    0.000    0.000 
#
# Total GULP energy -793093.423181 kJ/mol
# GULP energy per Si atom -12392.084737 kJ/mol
# Density = 2.052218 g / cm^3
# Si number density = 20.569000 Si / 1000 Ang^3
#
#
#
# Elastic Constant Matrix: (Units=GPa)
#
#
# Indices 1 2 3 4 5 6 
#
# 1 88.4574 14.7364 21.9811 0.0000 0.0000 0.0000
# 2 14.7364 97.7792 27.4459 0.0000 0.0000 0.0000
# 3 21.9811 27.4459 132.6345 0.0000 0.0000 0.0000
# 4 0.0000 0.0000 0.0000 29.2296 0.0000 0.0000
# 5 0.0000 0.0000 0.0000 0.0000 22.2591 0.0000
# 6 0.0000 0.0000 0.0000 0.0000 0.0000 12.9676
#
#
#
# Elastic Compliance Matrix: (Units=1/GPa)
#
#
# Indices 1 2 3 4 5 6 
#
# 1 0.011949 -0.001322 -0.001707 0.000000 0.000000 0.000000
# 2 -0.001322 0.011004 -0.002058 0.000000 0.000000 0.000000
# 3 -0.001707 -0.002058 0.008248 0.000000 0.000000 0.000000
# 4 0.000000 0.000000 0.000000 0.034212 0.000000 0.000000
# 5 0.000000 0.000000 0.000000 0.000000 0.044926 0.000000
# 6 0.000000 0.000000 0.000000 0.000000 0.000000 0.077115
#
#
# Mechanical properties :
#
#
# Convention : Reuss Voigt Hill
#
# Bulk Modulus (GPa) = 47.55497 49.68866 48.62181
# Shear Modulus (GPa) = 24.43353 29.87177 27.15265
#
# Velocity S-wave (km/s) = 3.45030 3.81500 3.63723
# Velocity P-wave (km/s) = 6.24842 6.60418 6.42876
#
# Compressibility (1/GPa) = 0.02102830
#
# Stress axis : x y z
#
# Youngs Moduli (GPa) = 83.68756 90.87613 121.23813
#
# Poissons Ratio (x) = 0.12012 0.20693
# Poissons Ratio (y) = 0.11062 0.24951
# Poissons Ratio (z) = 0.14284 0.18702
#
# Static dielectric constant tensor:
#      x y z
#    x 3.909460 0.000000 0.000000 
#    y 0.000000 3.623490 0.000000 
#    z 0.000000 0.000000 3.842410 
# 
# 
# High freq. dielectric constant tensor:
#      x y z
#    x 1.800840 0.000000 0.000000 
#    y 0.000000 1.767340 0.000000 
#    z 0.000000 0.000000 1.821220 
# 
# From -- ./inp_files/13225.got.cif
#   From: 2010.03.12/outbox.cif.g09.slc.cpg/sg53_7_cif.got.tgz:13225.got - 2010.04.16 14:36:59.
