data_PCOD8219528
_publ_section_title
;
Structure prediction by ZEFSAII (Michael W. Deem and Ramdas Pophale) SiO2 
 PCOD8219528
Probable space group: P M N A
;
_chemical_formula_sum "Si O2"
_cell_formula_units_Z 48
_cell_length_a 23.855434
_cell_length_b 11.099008
_cell_length_c 8.948331
_cell_angle_alpha 90.000000
_cell_angle_beta 90.000000
_cell_angle_gamma 90.000000
_cell_volume 2369.264389
_symmetry_space_group_name_H-M "P M N A"
_symmetry_group_IT_number 53
_symmetry_cell_setting 'orthorhombic'
loop_
_space_group_symop_operation_xyz
x,y,z
1/2-x,-y,1/2+z
x,-y,-z
1/2-x,y,1/2-z
-x,-y,-z
1/2+x,y,1/2-z
-x,y,z
1/2+x,-y,1/2+z
loop_
_atom_site_type_symbol
_atom_site_label
_atom_site_fract_x
_atom_site_fract_y
_atom_site_fract_z
Si Si1 0.936570 0.338559 0.897950
Si Si2 0.659029 0.271607 0.067935
Si Si3 0.776953 0.636715 0.980725
Si Si4 0.390317 0.590002 0.686995
Si Si5 0.159866 0.218626 0.770547
Si Si6 0.697592 0.964879 0.836971
O O1 0.900647 0.447040 0.820227
O O2 0.901145 0.221304 0.851648
O O3 0.000000 0.333117 0.837609
O O4 0.937842 0.352438 0.078616
O O5 0.724219 0.301784 0.099501
O O6 0.612117 0.360037 0.143321
O O7 0.649916 0.138059 0.139913
O O8 0.650761 0.279080 0.890881
O O9 0.830679 0.633632 0.875081
O O10 0.757008 0.500000 0.000000
O O11 0.792872 0.708789 0.134299
O O12 0.175184 0.078701 0.756425
O O13 0.750000 0.908969 0.750000
O O14 0.719842 0.000000 0.000000
#
# Coordination Sequence:
#
# PCOD8219528 Si02
#       6
#     8   8   8   8   8   8
#     4  10  21  41  60  76 105 148 195 243 299 344
#     4  11  23  32  55  89 123 152 184 227 274 339
#     4  11  20  34  53  84 126 158 185 217 280 352
#     4  10  19  36  55  84 112 145 186 230 288 337
#     4  10  21  38  57  83 113 158 192 230 280 333
#     4  10  20  37  55  82 121 160 193 221 267 337
#
# _framework density 20.259450999999999
#
# number of rings (size 3 to 8) (size 9 to 14) (size 15 to 20)
#    0.000    1.667    3.333    5.000    2.333    2.667 
#    0.000    2.500    0.000    7.500    0.000    0.000 
#    0.000    0.000    0.000    0.000    0.000    0.000 
#
# Total GULP energy -594713.234346 kJ/mol
# GULP energy per Si atom -12389.859049 kJ/mol
# Density = 2.021334 g / cm^3
# Si number density = 20.259451 Si / 1000 Ang^3
#
#
#
# Elastic Constant Matrix: (Units=GPa)
#
#
# Indices 1 2 3 4 5 6 
#
# 1 77.8252 23.1616 20.7026 0.0000 0.0000 0.0000
# 2 23.1616 85.2083 40.1826 0.0000 0.0000 0.0000
# 3 20.7026 40.1826 73.2073 0.0000 0.0000 0.0000
# 4 0.0000 0.0000 0.0000 37.6303 0.0000 0.0000
# 5 0.0000 0.0000 0.0000 0.0000 18.0213 0.0000
# 6 0.0000 0.0000 0.0000 0.0000 0.0000 6.7496
#
#
#
# Elastic Compliance Matrix: (Units=1/GPa)
#
#
# Indices 1 2 3 4 5 6 
#
# 1 0.014334 -0.002678 -0.002584 0.000000 0.000000 0.000000
# 2 -0.002678 0.016335 -0.008209 0.000000 0.000000 0.000000
# 3 -0.002584 -0.008209 0.018896 0.000000 0.000000 0.000000
# 4 0.000000 0.000000 0.000000 0.026574 0.000000 0.000000
# 5 0.000000 0.000000 0.000000 0.000000 0.055490 0.000000
# 6 0.000000 0.000000 0.000000 0.000000 0.000000 0.148157
#
#
# Mechanical properties :
#
#
# Convention : Reuss Voigt Hill
#
# Bulk Modulus (GPa) = 44.20042 44.92606 44.56324
# Shear Modulus (GPa) = 15.90999 22.62649 19.26824
#
# Velocity S-wave (km/s) = 2.80538 3.34554 3.08729
# Velocity P-wave (km/s) = 5.68842 6.09483 5.89513
#
# Compressibility (1/GPa) = 0.02262422
#
# Stress axis : x y z
#
# Youngs Moduli (GPa) = 69.76644 61.21848 52.92078
#
# Poissons Ratio (x) = 0.16393 0.13673
# Poissons Ratio (y) = 0.18682 0.43442
# Poissons Ratio (z) = 0.18025 0.50253
#
# Static dielectric constant tensor:
#      x y z
#    x 3.313830 0.000000 0.000000 
#    y 0.000000 3.800060 0.000000 
#    z 0.000000 0.000000 3.828420 
# 
# 
# High freq. dielectric constant tensor:
#      x y z
#    x 1.746940 0.000000 0.000000 
#    y 0.000000 1.787520 0.000000 
#    z 0.000000 0.000000 1.798830 
# 
# From -- ./inp_files/11741.got.cif
#   From: 2010.03.12/outbox.cif.g09.slc.cpg/sg53_6_cif.got.tgz:11741.got - 2010.04.16 14:36:59.
