data_PCOD8219637
_publ_section_title
;
Structure prediction by ZEFSAII (Michael W. Deem and Ramdas Pophale) SiO2 
 PCOD8219637
Probable space group: P M N A
;
_chemical_formula_sum "Si O2"
_cell_formula_units_Z 64
_cell_length_a 9.000619
_cell_length_b 14.628609
_cell_length_c 25.006994
_cell_angle_alpha 90.000000
_cell_angle_beta 90.000000
_cell_angle_gamma 90.000000
_cell_volume 3292.584278
_symmetry_space_group_name_H-M "P M N A"
_symmetry_group_IT_number 53
_symmetry_cell_setting 'orthorhombic'
loop_
_space_group_symop_operation_xyz
x,y,z
1/2-x,-y,1/2+z
x,-y,-z
1/2-x,y,1/2-z
-x,-y,-z
1/2+x,y,1/2-z
-x,y,z
1/2+x,-y,1/2+z
loop_
_atom_site_type_symbol
_atom_site_label
_atom_site_fract_x
_atom_site_fract_y
_atom_site_fract_z
Si Si1 0.823264 0.174056 0.696706
Si Si2 0.173041 0.717863 0.405692
Si Si3 0.824632 0.786670 0.804645
Si Si4 0.323415 0.481363 0.938712
Si Si5 0.324980 0.348366 0.399048
Si Si6 0.335820 0.059356 0.447926
Si Si7 0.670903 0.771512 0.979493
Si Si8 0.170310 0.992617 0.832966
O O1 0.750000 0.216867 0.750000
O O2 0.758151 0.232609 0.646604
O O3 0.000000 0.178455 0.700308
O O4 0.775119 0.067842 0.693634
O O5 0.236484 0.616977 0.418139
O O6 0.205037 0.781035 0.457439
O O7 0.000000 0.708837 0.394890
O O8 0.750000 0.753330 0.750000
O O9 0.769751 0.717990 0.851231
O O10 0.775641 0.890768 0.817193
O O11 0.000000 0.780692 0.798720
O O12 0.500000 0.487700 0.935198
O O13 0.251887 0.552559 0.896615
O O14 0.271892 0.500000 0.000000
O O15 0.500000 0.360788 0.397700
O O16 0.273477 0.307355 0.455623
O O17 0.500000 0.106469 0.443218
O O18 0.207890 0.134478 0.449941
O O19 0.310707 0.995860 0.396699
O O20 0.325663 0.000000 0.500000
O O21 0.500000 0.744650 0.969497
O O22 0.000000 0.009396 0.815125
#
# Coordination Sequence:
#
# PCOD8219637 Si02
#       8
#     8   8   8   8   8   8   8   8
#     4  11  23  40  60  83 113 151 195 243 287 332
#     4   9  20  38  59  85 117 149 186 235 288 340
#     4  10  22  39  58  80 114 152 192 239 284 337
#     4  10  19  37  63  88 116 151 190 232 283 348
#     4  11  22  38  57  85 121 151 185 237 291 341
#     4  10  20  34  52  79 119 159 189 230 291 346
#     4  11  20  34  57  84 115 152 191 231 281 344
#     4  10  20  37  57  82 115 152 193 237 284 336
#
# _framework density 19.437618000000001
#
# number of rings (size 3 to 8) (size 9 to 14) (size 15 to 20)
#    0.000    1.750    2.500    2.250    0.000    3.500 
#    0.000    3.750    0.000    3.000    0.000    0.000 
#    0.000    0.000    0.000    0.000    0.000    0.000 
#
# Total GULP energy -793488.067425 kJ/mol
# GULP energy per Si atom -12398.251054 kJ/mol
# Density = 1.939338 g / cm^3
# Si number density = 19.437618 Si / 1000 Ang^3
#
#
#
# Elastic Constant Matrix: (Units=GPa)
#
#
# Indices 1 2 3 4 5 6 
#
# 1 45.4224 31.4545 31.3749 0.0000 0.0000 0.0000
# 2 31.4545 97.2496 41.7017 0.0000 0.0000 0.0000
# 3 31.3749 41.7017 103.9087 0.0000 0.0000 0.0000
# 4 0.0000 0.0000 0.0000 23.3505 0.0000 0.0000
# 5 0.0000 0.0000 0.0000 0.0000 28.2271 0.0000
# 6 0.0000 0.0000 0.0000 0.0000 0.0000 28.0600
#
#
#
# Elastic Compliance Matrix: (Units=1/GPa)
#
#
# Indices 1 2 3 4 5 6 
#
# 1 0.031716 -0.007431 -0.006595 0.000000 0.000000 0.000000
# 2 -0.007431 0.014161 -0.003440 0.000000 0.000000 0.000000
# 3 -0.006595 -0.003440 0.012995 0.000000 0.000000 0.000000
# 4 0.000000 0.000000 0.000000 0.042826 0.000000 0.000000
# 5 0.000000 0.000000 0.000000 0.000000 0.035427 0.000000
# 6 0.000000 0.000000 0.000000 0.000000 0.000000 0.035638
#
#
# Mechanical properties :
#
#
# Convention : Reuss Voigt Hill
#
# Bulk Modulus (GPa) = 41.76517 50.62700 46.19608
# Shear Modulus (GPa) = 23.18315 25.39749 24.29032
#
# Velocity S-wave (km/s) = 3.45729 3.61864 3.53888
# Velocity P-wave (km/s) = 6.12132 6.60014 6.36523
#
# Compressibility (1/GPa) = 0.02394340
#
# Stress axis : x y z
#
# Youngs Moduli (GPa) = 31.52958 70.61588 76.94985
#
# Poissons Ratio (x) = 0.52471 0.50745
# Poissons Ratio (y) = 0.23428 0.26468
# Poissons Ratio (z) = 0.20792 0.24289
#
# Static dielectric constant tensor:
#      x y z
#    x 3.394330 0.000000 0.000000 
#    y 0.000000 3.754160 0.000000 
#    z 0.000000 0.000000 3.768720 
# 
# 
# High freq. dielectric constant tensor:
#      x y z
#    x 1.739720 0.000000 0.000000 
#    y 0.000000 1.750250 0.000000 
#    z 0.000000 0.000000 1.761650 
# 
# From -- ./inp_files/34305.got.cif
#   From: 2010.03.12/outbox.cif.g09.slc.cpg/sg53_18_cif.got.tgz:34305.got - 2010.04.16 14:36:59.
