data_PCOD8219502
_publ_section_title
;
Structure prediction by ZEFSAII (Michael W. Deem and Ramdas Pophale) SiO2 
 PCOD8219502
Probable space group: P M N A
;
_chemical_formula_sum "Si O2"
_cell_formula_units_Z 64
_cell_length_a 9.008803
_cell_length_b 12.662533
_cell_length_c 28.756327
_cell_angle_alpha 90.000000
_cell_angle_beta 90.000000
_cell_angle_gamma 90.000000
_cell_volume 3280.356875
_symmetry_space_group_name_H-M "P M N A"
_symmetry_group_IT_number 53
_symmetry_cell_setting 'orthorhombic'
loop_
_space_group_symop_operation_xyz
x,y,z
1/2-x,-y,1/2+z
x,-y,-z
1/2-x,y,1/2-z
-x,-y,-z
1/2+x,y,1/2-z
-x,y,z
1/2+x,-y,1/2+z
loop_
_atom_site_type_symbol
_atom_site_label
_atom_site_fract_x
_atom_site_fract_y
_atom_site_fract_z
Si Si1 0.325892 0.998344 0.798315
Si Si2 0.175476 0.424698 0.299395
Si Si3 0.325783 0.607203 0.134795
Si Si4 0.674837 0.113828 0.980294
Si Si5 0.673194 0.210376 0.149740
Si Si6 0.330076 0.461655 0.051652
Si Si7 0.676806 0.159269 0.876213
Si Si8 0.674883 0.754033 0.557786
O O1 0.250000 0.027440 0.750000
O O2 0.500000 0.014007 0.791910
O O3 0.286030 0.878759 0.812553
O O4 0.263873 0.076907 0.838047
O O5 0.250000 0.415210 0.250000
O O6 0.236991 0.530093 0.324891
O O7 0.220980 0.323537 0.330049
O O8 0.000000 0.427670 0.292723
O O9 0.500000 0.615104 0.141959
O O10 0.287905 0.559279 0.084527
O O11 0.257446 0.724954 0.136935
O O12 0.500000 0.134407 0.984008
O O13 0.731793 0.123732 0.927278
O O14 0.755796 0.202289 0.010448
O O15 0.719555 0.000000 0.000000
O O16 0.500000 0.205881 0.137165
O O17 0.762147 0.184294 0.102649
O O18 0.500000 0.424534 0.060764
O O19 0.219630 0.367524 0.063253
O O20 0.305737 0.500000 0.000000
O O21 0.500000 0.161568 0.876577
O O22 0.500000 0.766835 0.555959
#
# Coordination Sequence:
#
# PCOD8219502 Si02
#       8
#     8   8   8   8   8   8   8   8
#     4  10  21  37  60  87 114 146 186 240 294 346
#     4  10  20  34  54  78 107 143 185 237 286 338
#     4   9  17  32  53  79 109 142 185 236 278 327
#     4  10  20  37  61  85 111 152 205 248 283 338
#     4  10  20  38  59  80 111 151 198 240 278 341
#     4  10  19  35  60  83 107 150 201 239 278 338
#     4   9  18  34  57  84 111 145 194 239 280 336
#     4  12  24  35  54  86 124 155 184 239 305 359
#
# _framework density 19.510071
#
# number of rings (size 3 to 8) (size 9 to 14) (size 15 to 20)
#    0.000    2.000    1.250    3.000    0.000    6.000 
#    0.000    0.625    0.000    1.500    0.000    0.000 
#    0.000    0.000    0.000    0.000    0.000    0.000 
#
# Total GULP energy -793702.275031 kJ/mol
# GULP energy per Si atom -12401.598047 kJ/mol
# Density = 1.946567 g / cm^3
# Si number density = 19.510071 Si / 1000 Ang^3
#
#
#
# Elastic Constant Matrix: (Units=GPa)
#
#
# Indices 1 2 3 4 5 6 
#
# 1 36.0765 28.0005 40.8849 0.0000 0.0000 0.0000
# 2 28.0005 132.1783 59.5100 0.0000 0.0000 0.0000
# 3 40.8849 59.5100 154.0519 0.0000 0.0000 0.0000
# 4 0.0000 0.0000 0.0000 31.3411 0.0000 0.0000
# 5 0.0000 0.0000 0.0000 0.0000 26.1774 0.0000
# 6 0.0000 0.0000 0.0000 0.0000 0.0000 8.1319
#
#
#
# Elastic Compliance Matrix: (Units=1/GPa)
#
#
# Indices 1 2 3 4 5 6 
#
# 1 0.041909 -0.004685 -0.009313 0.000000 0.000000 0.000000
# 2 -0.004685 0.009682 -0.002497 0.000000 0.000000 0.000000
# 3 -0.009313 -0.002497 0.009927 0.000000 0.000000 0.000000
# 4 0.000000 0.000000 0.000000 0.031907 0.000000 0.000000
# 5 0.000000 0.000000 0.000000 0.000000 0.038201 0.000000
# 6 0.000000 0.000000 0.000000 0.000000 0.000000 0.122972
#
#
# Mechanical properties :
#
#
# Convention : Reuss Voigt Hill
#
# Bulk Modulus (GPa) = 35.05153 64.34418 49.69785
# Shear Modulus (GPa) = 16.82948 26.05750 21.44349
#
# Velocity S-wave (km/s) = 2.94020 3.65854 3.31886
# Velocity P-wave (km/s) = 5.43426 7.13429 6.34150
#
# Compressibility (1/GPa) = 0.02852943
#
# Stress axis : x y z
#
# Youngs Moduli (GPa) = 23.86111 103.28289 100.73161
#
# Poissons Ratio (x) = 0.48390 0.93808
# Poissons Ratio (y) = 0.11179 0.25150
# Poissons Ratio (z) = 0.22221 0.25787
#
# Static dielectric constant tensor:
#      x y z
#    x 3.123950 0.000000 0.000000 
#    y 0.000000 3.841830 0.000000 
#    z 0.000000 0.000000 3.701390 
# 
# 
# High freq. dielectric constant tensor:
#      x y z
#    x 1.713300 0.000000 0.000000 
#    y 0.000000 1.770980 0.000000 
#    z 0.000000 0.000000 1.773640 
# 
# From -- ./inp_files/38219.got.cif
#   From: 2010.03.12/outbox.cif.g09.slc.cpg/sg53_20_cif.got.tgz:38219.got - 2010.04.16 14:36:59.
