data_PCOD8219965
_publ_section_title
;
Structure prediction by ZEFSAII (Michael W. Deem and Ramdas Pophale) SiO2 
 PCOD8219965
Probable space group: P M N A
;
_chemical_formula_sum "Si O2"
_cell_formula_units_Z 64
_cell_length_a 8.747493
_cell_length_b 19.023036
_cell_length_c 19.580170
_cell_angle_alpha 90.000000
_cell_angle_beta 90.000000
_cell_angle_gamma 90.000000
_cell_volume 3258.216146
_symmetry_space_group_name_H-M "P M N A"
_symmetry_group_IT_number 53
_symmetry_cell_setting 'orthorhombic'
loop_
_space_group_symop_operation_xyz
x,y,z
1/2-x,-y,1/2+z
x,-y,-z
1/2-x,y,1/2-z
-x,-y,-z
1/2+x,y,1/2-z
-x,y,z
1/2+x,-y,1/2+z
loop_
_atom_site_type_symbol
_atom_site_label
_atom_site_fract_x
_atom_site_fract_y
_atom_site_fract_z
Si Si1 0.179504 0.847031 0.821379
Si Si2 0.318505 0.707515 0.175545
Si Si3 0.319462 0.004998 0.178034
Si Si4 0.324171 0.269917 0.092264
Si Si5 0.176414 0.794555 0.452506
Si Si6 0.179606 0.060833 0.947921
Si Si7 0.820354 0.596599 0.675390
Si Si8 0.321057 0.554480 0.177291
O O1 0.250000 0.821586 0.750000
O O2 0.253864 0.919943 0.845348
O O3 0.214580 0.789054 0.877243
O O4 0.000000 0.858619 0.813323
O O5 0.250000 0.725063 0.250000
O O6 0.500000 0.711272 0.182023
O O7 0.260959 0.763195 0.119147
O O8 0.264614 0.629738 0.147587
O O9 0.250000 0.981291 0.250000
O O10 0.500000 0.009417 0.184519
O O11 0.270055 0.947704 0.122802
O O12 0.500000 0.255720 0.113758
O O13 0.267098 0.345219 0.120429
O O14 0.305975 0.265797 0.010362
O O15 0.274513 0.862312 0.475408
O O16 0.000000 0.817262 0.445696
O O17 0.000000 0.056271 0.934926
O O18 0.232585 0.000000 0.000000
O O19 0.750000 0.611014 0.750000
O O20 0.776011 0.519976 0.641256
O O21 0.000000 0.600597 0.686820
O O22 0.250000 0.545005 0.250000
O O23 0.500000 0.559860 0.185177
#
# Coordination Sequence:
#
# PCOD8219965 Si02
#       8
#     8   8   8   8   8   8   8   8
#     4  11  21  34  53  78 108 142 180 218 260 311
#     4   9  18  34  56  80 105 136 175 220 269 321
#     4  11  22  38  60  84 110 138 172 217 269 322
#     4  10  20  34  50  72 106 144 181 221 265 314
#     4  10  22  38  55  77 106 140 177 218 269 326
#     4  11  24  41  60  82 108 140 180 223 268 322
#     4   9  17  29  48  75 105 139 178 219 261 307
#     4   8  14  27  48  74 103 134 172 216 262 311
#
# _framework density 19.64265
#
# number of rings (size 3 to 8) (size 9 to 14) (size 15 to 20)
#    0.000    2.125    0.000    4.500    0.000    6.000 
#    0.000    1.875    0.000    3.750    0.000    0.000 
#    0.000   12.000    0.000    0.000    0.000    0.000 
#
# Total GULP energy -793144.554764 kJ/mol
# GULP energy per Si atom -12392.883668 kJ/mol
# Density = 1.959794 g / cm^3
# Si number density = 19.642650 Si / 1000 Ang^3
#
#
#
# Elastic Constant Matrix: (Units=GPa)
#
#
# Indices 1 2 3 4 5 6 
#
# 1 73.7110 27.1083 27.4736 0.0000 0.0000 0.0000
# 2 27.1083 117.9851 59.2989 0.0000 0.0000 0.0000
# 3 27.4736 59.2989 91.8189 0.0000 0.0000 0.0000
# 4 0.0000 0.0000 0.0000 30.2524 0.0000 0.0000
# 5 0.0000 0.0000 0.0000 0.0000 24.7310 0.0000
# 6 0.0000 0.0000 0.0000 0.0000 0.0000 21.5119
#
#
#
# Elastic Compliance Matrix: (Units=1/GPa)
#
#
# Indices 1 2 3 4 5 6 
#
# 1 0.015530 -0.001825 -0.003468 0.000000 0.000000 0.000000
# 2 -0.001825 0.012763 -0.007697 0.000000 0.000000 0.000000
# 3 -0.003468 -0.007697 0.016899 0.000000 0.000000 0.000000
# 4 0.000000 0.000000 0.000000 0.033055 0.000000 0.000000
# 5 0.000000 0.000000 0.000000 0.000000 0.040435 0.000000
# 6 0.000000 0.000000 0.000000 0.000000 0.000000 0.046486
#
#
# Mechanical properties :
#
#
# Convention : Reuss Voigt Hill
#
# Bulk Modulus (GPa) = 52.04810 56.80851 54.42831
# Shear Modulus (GPa) = 25.30954 26.60802 25.95878
#
# Velocity S-wave (km/s) = 3.59346 3.68449 3.63926
# Velocity P-wave (km/s) = 6.61606 6.86181 6.74006
#
# Compressibility (1/GPa) = 0.01921300
#
# Stress axis : x y z
#
# Youngs Moduli (GPa) = 64.38989 78.34921 59.17338
#
# Poissons Ratio (x) = 0.14300 0.20522
# Poissons Ratio (y) = 0.11752 0.45544
# Poissons Ratio (z) = 0.22332 0.60304
#
# Static dielectric constant tensor:
#      x y z
#    x 3.500730 0.000000 0.000000 
#    y 0.000000 4.037910 0.000000 
#    z 0.000000 0.000000 3.472660 
# 
# 
# High freq. dielectric constant tensor:
#      x y z
#    x 1.758960 0.000000 0.000000 
#    y 0.000000 1.775600 0.000000 
#    z 0.000000 0.000000 1.746890 
# 
# From -- ./inp_files/26892.got.cif
#   From: 2010.03.12/outbox.cif.g09.slc.cpg/sg53_14_cif.got.tgz:26892.got - 2010.04.16 14:36:59.
