data_PCOD8219078
_publ_section_title
;
Structure prediction by ZEFSAII (Michael W. Deem and Ramdas Pophale) SiO2 
 PCOD8219078
Probable space group: P M N A
;
_chemical_formula_sum "Si O2"
_cell_formula_units_Z 64
_cell_length_a 8.844752
_cell_length_b 13.908236
_cell_length_c 27.257831
_cell_angle_alpha 90.000000
_cell_angle_beta 90.000000
_cell_angle_gamma 90.000000
_cell_volume 3353.119305
_symmetry_space_group_name_H-M "P M N A"
_symmetry_group_IT_number 53
_symmetry_cell_setting 'orthorhombic'
loop_
_space_group_symop_operation_xyz
x,y,z
1/2-x,-y,1/2+z
x,-y,-z
1/2-x,y,1/2-z
-x,-y,-z
1/2+x,y,1/2-z
-x,y,z
1/2+x,-y,1/2+z
loop_
_atom_site_type_symbol
_atom_site_label
_atom_site_fract_x
_atom_site_fract_y
_atom_site_fract_z
Si Si1 0.822972 0.302733 0.614259
Si Si2 0.678848 0.429095 0.696294
Si Si3 0.175220 0.878700 0.072402
Si Si4 0.325519 0.786437 0.532569
Si Si5 0.173674 0.363040 0.198645
Si Si6 0.322123 0.154082 0.303612
Si Si7 0.678566 0.927410 0.894916
Si Si8 0.323622 0.608191 0.010797
O O1 0.751310 0.349804 0.661904
O O2 0.750697 0.197732 0.608828
O O3 0.785313 0.368202 0.567160
O O4 0.000000 0.290387 0.622165
O O5 0.750000 0.418684 0.750000
O O6 0.500000 0.412165 0.699378
O O7 0.719823 0.535558 0.673051
O O8 0.000000 0.888439 0.085802
O O9 0.255239 0.980328 0.077980
O O10 0.199657 0.846891 0.016658
O O11 0.500000 0.785626 0.548806
O O12 0.226590 0.833168 0.575165
O O13 0.270683 0.677235 0.525029
O O14 0.250000 0.356292 0.250000
O O15 0.209316 0.261144 0.172228
O O16 0.000000 0.369525 0.211153
O O17 0.250000 0.142790 0.250000
O O18 0.500000 0.133068 0.299753
O O19 0.244692 0.077993 0.339867
O O20 0.500000 0.935117 0.892383
O O21 0.500000 0.623378 0.999624
O O22 0.271274 0.500000 0.000000
#
# Coordination Sequence:
#
# PCOD8219078 Si02
#       8
#     8   8   8   8   8   8   8   8
#     4  10  20  35  55  79 109 145 181 220 270 323
#     4  10  19  33  53  79 109 142 184 228 269 316
#     4  10  21  39  60  81 107 140 179 226 279 328
#     4  10  21  37  58  84 112 143 182 228 274 321
#     4   8  16  30  50  74 102 137 175 217 263 310
#     4  10  20  37  57  80 112 147 183 224 271 323
#     4  12  24  37  57  84 111 143 183 226 274 327
#     4   9  19  36  56  81 115 151 184 219 265 325
#
# _framework density 19.086704999999998
#
# number of rings (size 3 to 8) (size 9 to 14) (size 15 to 20)
#    0.000    2.125    0.000    3.375    0.000    5.750 
#    0.000    3.125    0.000    0.000    0.000    0.000 
#    0.000    0.000    0.000    0.000    0.000    0.000 
#
# Total GULP energy -793380.165825 kJ/mol
# GULP energy per Si atom -12396.565091 kJ/mol
# Density = 1.904326 g / cm^3
# Si number density = 19.086705 Si / 1000 Ang^3
#
#
#
# Elastic Constant Matrix: (Units=GPa)
#
#
# Indices 1 2 3 4 5 6 
#
# 1 105.7336 44.5088 39.2137 0.0000 0.0000 0.0000
# 2 44.5088 100.9918 38.8966 0.0000 0.0000 0.0000
# 3 39.2137 38.8966 63.1113 0.0000 0.0000 0.0000
# 4 0.0000 0.0000 0.0000 26.7126 0.0000 0.0000
# 5 0.0000 0.0000 0.0000 0.0000 30.5365 0.0000
# 6 0.0000 0.0000 0.0000 0.0000 0.0000 33.7463
#
#
#
# Elastic Compliance Matrix: (Units=1/GPa)
#
#
# Indices 1 2 3 4 5 6 
#
# 1 0.013158 -0.003475 -0.006034 0.000000 0.000000 0.000000
# 2 -0.003475 0.013902 -0.006409 0.000000 0.000000 0.000000
# 3 -0.006034 -0.006409 0.023544 0.000000 0.000000 0.000000
# 4 0.000000 0.000000 0.000000 0.037436 0.000000 0.000000
# 5 0.000000 0.000000 0.000000 0.000000 0.032748 0.000000
# 6 0.000000 0.000000 0.000000 0.000000 0.000000 0.029633
#
#
# Mechanical properties :
#
#
# Convention : Reuss Voigt Hill
#
# Bulk Modulus (GPa) = 53.28100 57.23055 55.25578
# Shear Modulus (GPa) = 26.52353 28.01358 27.26856
#
# Velocity S-wave (km/s) = 3.73182 3.83522 3.78387
# Velocity P-wave (km/s) = 6.82235 7.04709 6.93563
#
# Compressibility (1/GPa) = 0.01876842
#
# Stress axis : x y z
#
# Youngs Moduli (GPa) = 75.99650 71.93433 42.47376
#
# Poissons Ratio (x) = 0.24998 0.25629
# Poissons Ratio (y) = 0.26410 0.27219
# Poissons Ratio (z) = 0.45857 0.46099
#
# Static dielectric constant tensor:
#      x y z
#    x 3.568790 0.000000 0.000000 
#    y 0.000000 3.820540 0.000000 
#    z 0.000000 0.000000 3.284070 
# 
# 
# High freq. dielectric constant tensor:
#      x y z
#    x 1.754500 0.000000 0.000000 
#    y 0.000000 1.748650 0.000000 
#    z 0.000000 0.000000 1.725820 
# 
# From -- ./inp_files/34172.got.cif
#   From: 2010.03.12/outbox.cif.g09.slc.cpg/sg53_18_cif.got.tgz:34172.got - 2010.04.16 14:36:59.
