data_PCOD8219730
_publ_section_title
;
Structure prediction by ZEFSAII (Michael W. Deem and Ramdas Pophale) SiO2 
 PCOD8219730
Probable space group: P M N A
;
_chemical_formula_sum "Si O2"
_cell_formula_units_Z 64
_cell_length_a 9.042240
_cell_length_b 14.384392
_cell_length_c 27.770520
_cell_angle_alpha 90.000000
_cell_angle_beta 90.000000
_cell_angle_gamma 90.000000
_cell_volume 3612.031688
_symmetry_space_group_name_H-M "P M N A"
_symmetry_group_IT_number 53
_symmetry_cell_setting 'orthorhombic'
loop_
_space_group_symop_operation_xyz
x,y,z
1/2-x,-y,1/2+z
x,-y,-z
1/2-x,y,1/2-z
-x,-y,-z
1/2+x,y,1/2-z
-x,y,z
1/2+x,-y,1/2+z
loop_
_atom_site_type_symbol
_atom_site_label
_atom_site_fract_x
_atom_site_fract_y
_atom_site_fract_z
Si Si1 0.330456 0.964898 0.892465
Si Si2 0.826876 0.859219 0.701856
Si Si3 0.669606 0.162496 0.928063
Si Si4 0.670839 0.854566 0.526460
Si Si5 0.825502 0.472615 0.389528
Si Si6 0.327419 0.651089 0.419936
Si Si7 0.167671 0.357194 0.031873
Si Si8 0.173894 0.352785 0.298636
O O1 0.500000 0.934131 0.902580
O O2 0.274864 0.924722 0.841695
O O3 0.225600 0.925352 0.933603
O O4 0.316843 0.076556 0.891044
O O5 0.750000 0.896549 0.750000
O O6 0.778131 0.753316 0.690612
O O7 0.000000 0.865845 0.710280
O O8 0.500000 0.192080 0.935835
O O9 0.758368 0.249386 0.906278
O O10 0.734935 0.128776 0.978712
O O11 0.500000 0.873955 0.514053
O O12 0.691572 0.750023 0.545879
O O13 0.748323 0.572895 0.387176
O O14 0.779790 0.418749 0.437759
O O15 0.771240 0.415139 0.343113
O O16 0.000000 0.486164 0.389971
O O17 0.500000 0.655495 0.408462
O O18 0.296972 0.627800 0.475749
O O19 0.000000 0.389164 0.043212
O O20 0.250000 0.389692 0.250000
O O21 0.000000 0.361253 0.291562
#
# Coordination Sequence:
#
# PCOD8219730 Si02
#       8
#     8   8   8   8   8   8   8   8
#     4  10  20  33  51  74 101 133 168 207 250 297
#     4   9  18  34  53  75 103 131 160 198 246 297
#     4  10  20  34  51  71  98 134 173 211 251 293
#     4  10  20  32  48  73 105 137 169 206 246 293
#     4  11  21  32  51  77 100 128 167 206 246 296
#     4  10  21  36  51  70 100 135 170 209 249 291
#     4   9  19  33  47  69 102 136 167 201 243 290
#     4   9  19  34  52  75 102 129 158 195 241 295
#
# _framework density 17.718558999999999
#
# number of rings (size 3 to 8) (size 9 to 14) (size 15 to 20)
#    0.000    2.250    0.000    3.750    0.000    9.500 
#    0.000    2.500    0.000    0.750    0.000    1.750 
#    0.000    0.000    0.000    0.000    0.000    0.000 
#
# Total GULP energy -793807.794086 kJ/mol
# GULP energy per Si atom -12403.246783 kJ/mol
# Density = 1.767823 g / cm^3
# Si number density = 17.718559 Si / 1000 Ang^3
#
#
#
# Elastic Constant Matrix: (Units=GPa)
#
#
# Indices 1 2 3 4 5 6 
#
# 1 79.2524 48.8219 36.1670 0.0000 0.0000 0.0000
# 2 48.8219 107.5991 61.5085 0.0000 0.0000 0.0000
# 3 36.1670 61.5085 78.0312 0.0000 0.0000 0.0000
# 4 0.0000 0.0000 0.0000 28.3267 0.0000 0.0000
# 5 0.0000 0.0000 0.0000 0.0000 27.8097 0.0000
# 6 0.0000 0.0000 0.0000 0.0000 0.0000 24.4766
#
#
#
# Elastic Compliance Matrix: (Units=1/GPa)
#
#
# Indices 1 2 3 4 5 6 
#
# 1 0.018015 -0.006190 -0.003470 0.000000 0.000000 0.000000
# 2 -0.006190 0.019043 -0.012142 0.000000 0.000000 0.000000
# 3 -0.003470 -0.012142 0.023995 0.000000 0.000000 0.000000
# 4 0.000000 0.000000 0.000000 0.035302 0.000000 0.000000
# 5 0.000000 0.000000 0.000000 0.000000 0.035959 0.000000
# 6 0.000000 0.000000 0.000000 0.000000 0.000000 0.040855
#
#
# Mechanical properties :
#
#
# Convention : Reuss Voigt Hill
#
# Bulk Modulus (GPa) = 57.31262 61.98638 59.64950
# Shear Modulus (GPa) = 22.46275 24.01495 23.23885
#
# Velocity S-wave (km/s) = 3.56441 3.68551 3.62547
# Velocity P-wave (km/s) = 7.02541 7.29181 7.15985
#
# Compressibility (1/GPa) = 0.01744817
#
# Stress axis : x y z
#
# Youngs Moduli (GPa) = 55.50915 52.51153 41.67577
#
# Poissons Ratio (x) = 0.32507 0.14463
# Poissons Ratio (y) = 0.34362 0.50602
# Poissons Ratio (z) = 0.19263 0.63759
#
# Static dielectric constant tensor:
#      x y z
#    x 3.302030 0.000000 0.000000 
#    y 0.000000 3.399180 0.000000 
#    z 0.000000 0.000000 3.133010 
# 
# 
# High freq. dielectric constant tensor:
#      x y z
#    x 1.692560 0.000000 0.000000 
#    y 0.000000 1.688090 0.000000 
#    z 0.000000 0.000000 1.658790 
# 
# From -- ./inp_files/34257.got.cif
#   From: 2010.03.12/outbox.cif.g09.slc.cpg/sg53_18_cif.got.tgz:34257.got - 2010.04.16 14:36:59.
