data_PCOD8219885
_publ_section_title
;
Structure prediction by ZEFSAII (Michael W. Deem and Ramdas Pophale) SiO2 
 PCOD8219885
Probable space group: P M N A
;
_chemical_formula_sum "Si O2"
_cell_formula_units_Z 40
_cell_length_a 26.913953
_cell_length_b 8.203513
_cell_length_c 9.551307
_cell_angle_alpha 90.000000
_cell_angle_beta 90.000000
_cell_angle_gamma 90.000000
_cell_volume 2108.823171
_symmetry_space_group_name_H-M "P M N A"
_symmetry_group_IT_number 53
_symmetry_cell_setting 'orthorhombic'
loop_
_space_group_symop_operation_xyz
x,y,z
1/2-x,-y,1/2+z
x,-y,-z
1/2-x,y,1/2-z
-x,-y,-z
1/2+x,y,1/2-z
-x,y,z
1/2+x,-y,1/2+z
loop_
_atom_site_type_symbol
_atom_site_label
_atom_site_fract_x
_atom_site_fract_y
_atom_site_fract_z
Si Si1 0.109222 0.869029 0.290728
Si Si2 0.130557 0.325718 0.439672
Si Si3 0.055902 0.195759 0.244175
Si Si4 0.443075 0.321209 0.553200
Si Si5 0.796463 0.934790 0.650511
O O1 0.105954 0.783940 0.440348
O O2 0.095564 0.738698 0.170865
O O3 0.069949 0.015194 0.293345
O O4 0.164833 0.942032 0.273249
O O5 0.145953 0.500000 0.500000
O O6 0.089247 0.335847 0.317507
O O7 0.179206 0.242317 0.373774
O O8 0.000000 0.235329 0.288398
O O9 0.062216 0.199159 0.077066
O O10 0.427779 0.500000 0.500000
O O11 0.500000 0.321773 0.610616
O O12 0.750000 0.911852 0.750000
O O13 0.778691 0.000000 0.500000
#
# Coordination Sequence:
#
# PCOD8219885 Si02
#       5
#     8   8   8   8   8
#     4  10  20  35  55  77 106 142 180 222 264 316
#     4  10  21  37  55  79 111 140 174 221 270 318
#     4  10  20  33  52  79 109 146 187 219 255 311
#     4  10  20  33  51  80 115 147 181 220 263 311
#     4   9  20  38  59  80 101 132 176 223 271 325
#
# _framework density 18.967924
#
# number of rings (size 3 to 8) (size 9 to 14) (size 15 to 20)
#    0.000    2.200    0.000    4.200    0.000    7.600 
#    0.000    4.000    0.000    6.000    0.000    0.000 
#    0.000    0.000    0.000    0.000    0.000    0.000 
#
# Total GULP energy -495977.818520 kJ/mol
# GULP energy per Si atom -12399.445463 kJ/mol
# Density = 1.892475 g / cm^3
# Si number density = 18.967924 Si / 1000 Ang^3
#
#
#
# Elastic Constant Matrix: (Units=GPa)
#
#
# Indices 1 2 3 4 5 6 
#
# 1 117.8421 39.4447 74.8409 0.0000 0.0000 0.0000
# 2 39.4447 93.3565 35.6537 0.0000 0.0000 0.0000
# 3 74.8409 35.6537 92.7871 0.0000 0.0000 0.0000
# 4 0.0000 0.0000 0.0000 35.7190 0.0000 0.0000
# 5 0.0000 0.0000 0.0000 0.0000 40.9053 0.0000
# 6 0.0000 0.0000 0.0000 0.0000 0.0000 12.7302
#
#
#
# Elastic Compliance Matrix: (Units=1/GPa)
#
#
# Indices 1 2 3 4 5 6 
#
# 1 0.017844 -0.002394 -0.013473 0.000000 0.000000 0.000000
# 2 -0.002394 0.012875 -0.003016 0.000000 0.000000 0.000000
# 3 -0.013473 -0.003016 0.022803 0.000000 0.000000 0.000000
# 4 0.000000 0.000000 0.000000 0.027996 0.000000 0.000000
# 5 0.000000 0.000000 0.000000 0.000000 0.024447 0.000000
# 6 0.000000 0.000000 0.000000 0.000000 0.000000 0.078554
#
#
# Mechanical properties :
#
#
# Convention : Reuss Voigt Hill
#
# Bulk Modulus (GPa) = 63.46718 67.09604 65.28161
# Shear Modulus (GPa) = 21.97454 28.14064 25.05759
#
# Velocity S-wave (km/s) = 3.40738 3.85592 3.63857
# Velocity P-wave (km/s) = 7.00095 7.43467 7.22107
#
# Compressibility (1/GPa) = 0.01575618
#
# Stress axis : x y z
#
# Youngs Moduli (GPa) = 56.04263 77.66941 43.85360
#
# Poissons Ratio (x) = 0.18594 0.59082
# Poissons Ratio (y) = 0.13416 0.13228
# Poissons Ratio (z) = 0.75503 0.23428
#
# Static dielectric constant tensor:
#      x y z
#    x 3.275200 0.000000 0.000000 
#    y 0.000000 3.498880 0.000000 
#    z 0.000000 0.000000 3.644280 
# 
# 
# High freq. dielectric constant tensor:
#      x y z
#    x 1.718110 0.000000 0.000000 
#    y 0.000000 1.737560 0.000000 
#    z 0.000000 0.000000 1.746110 
# 
# From -- ./inp_files/11543.got.cif
#   From: 2010.03.12/outbox.cif.g09.slc.cpg/sg53_6_cif.got.tgz:11543.got - 2010.04.16 14:36:59.
