data_PCOD8219940
_publ_section_title
;
Structure prediction by ZEFSAII (Michael W. Deem and Ramdas Pophale) SiO2 
 PCOD8219940
Probable space group: P M N A
;
_chemical_formula_sum "Si O2"
_cell_formula_units_Z 56
_cell_length_a 19.939939
_cell_length_b 14.577272
_cell_length_c 9.996522
_cell_angle_alpha 90.000000
_cell_angle_beta 90.000000
_cell_angle_gamma 90.000000
_cell_volume 2905.688195
_symmetry_space_group_name_H-M "P M N A"
_symmetry_group_IT_number 53
_symmetry_cell_setting 'orthorhombic'
loop_
_space_group_symop_operation_xyz
x,y,z
1/2-x,-y,1/2+z
x,-y,-z
1/2-x,y,1/2-z
-x,-y,-z
1/2+x,y,1/2-z
-x,y,z
1/2+x,-y,1/2+z
loop_
_atom_site_type_symbol
_atom_site_label
_atom_site_fract_x
_atom_site_fract_y
_atom_site_fract_z
Si Si1 0.299500 0.543674 0.370135
Si Si2 0.578081 0.596131 0.956860
Si Si3 0.626131 0.282196 0.576197
Si Si4 0.180268 0.082364 0.910068
Si Si5 0.422982 0.410576 0.345335
Si Si6 0.834166 0.924689 0.394855
Si Si7 0.076212 0.247434 0.639892
O O1 0.263472 0.500000 0.500000
O O2 0.250000 0.519815 0.250000
O O3 0.310265 0.653214 0.384834
O O4 0.373804 0.497294 0.363332
O O5 0.500000 0.590252 0.990548
O O6 0.609862 0.671096 0.054685
O O7 0.612067 0.500000 0.000000
O O8 0.590561 0.625950 0.804065
O O9 0.647443 0.178194 0.544666
O O10 0.589745 0.326750 0.447692
O O11 0.577934 0.274967 0.704366
O O12 0.163785 0.046859 0.760844
O O13 0.258585 0.099756 0.934863
O O14 0.151862 0.000000 0.000000
O O15 0.500000 0.445322 0.360549
O O16 0.881102 0.837967 0.407480
O O17 0.861779 0.000000 0.500000
O O18 0.000000 0.226981 0.599284
#
# Coordination Sequence:
#
# PCOD8219940 Si02
#       7
#     8   8   8   8   8   8   8
#     4  10  23  38  56  84 118 154 191 236 284 334
#     4   9  18  33  51  76 110 147 184 222 267 325
#     4  10  21  35  59  84 110 148 189 240 289 337
#     4   9  19  37  58  79 108 140 190 236 287 346
#     4  10  21  39  59  85 119 155 196 237 283 342
#     4   9  19  35  56  79 104 144 181 232 287 341
#     4  10  20  33  54  85 111 144 187 229 283 344
#
# _framework density 19.272542000000001
#
# number of rings (size 3 to 8) (size 9 to 14) (size 15 to 20)
#    0.000    2.429    0.000    1.286    4.000    7.429 
#    2.571    0.000    3.143   10.714    0.000    0.000 
#    0.000    0.000    0.000    0.000    0.000    0.000 
#
# Total GULP energy -694028.420471 kJ/mol
# GULP energy per Si atom -12393.364651 kJ/mol
# Density = 1.922868 g / cm^3
# Si number density = 19.272542 Si / 1000 Ang^3
#
#
#
# Elastic Constant Matrix: (Units=GPa)
#
#
# Indices 1 2 3 4 5 6 
#
# 1 64.2619 47.0708 47.7882 0.0000 0.0000 0.0000
# 2 47.0708 153.6790 88.4061 0.0000 0.0000 0.0000
# 3 47.7882 88.4061 137.4144 0.0000 0.0000 0.0000
# 4 0.0000 0.0000 0.0000 41.1268 0.0000 0.0000
# 5 0.0000 0.0000 0.0000 0.0000 26.8928 0.0000
# 6 0.0000 0.0000 0.0000 0.0000 0.0000 7.2816
#
#
#
# Elastic Compliance Matrix: (Units=1/GPa)
#
#
# Indices 1 2 3 4 5 6 
#
# 1 0.022277 -0.003757 -0.005330 0.000000 0.000000 0.000000
# 2 -0.003757 0.010964 -0.005747 0.000000 0.000000 0.000000
# 3 -0.005330 -0.005747 0.012828 0.000000 0.000000 0.000000
# 4 0.000000 0.000000 0.000000 0.024315 0.000000 0.000000
# 5 0.000000 0.000000 0.000000 0.000000 0.037185 0.000000
# 6 0.000000 0.000000 0.000000 0.000000 0.000000 0.137332
#
#
# Mechanical properties :
#
#
# Convention : Reuss Voigt Hill
#
# Bulk Modulus (GPa) = 60.97289 80.20950 70.59120
# Shear Modulus (GPa) = 17.85481 26.53292 22.19387
#
# Velocity S-wave (km/s) = 3.04705 3.71444 3.39717
# Velocity P-wave (km/s) = 6.63967 7.75274 7.21769
#
# Compressibility (1/GPa) = 0.01640073
#
# Stress axis : x y z
#
# Youngs Moduli (GPa) = 44.88930 91.20804 77.95262
#
# Poissons Ratio (x) = 0.34268 0.41549
# Poissons Ratio (y) = 0.16865 0.44800
# Poissons Ratio (z) = 0.23926 0.52418
#
# Static dielectric constant tensor:
#      x y z
#    x 3.297150 0.000000 0.000000 
#    y 0.000000 3.577030 0.000000 
#    z 0.000000 0.000000 3.817750 
# 
# 
# High freq. dielectric constant tensor:
#      x y z
#    x 1.733880 0.000000 0.000000 
#    y 0.000000 1.742260 0.000000 
#    z 0.000000 0.000000 1.764780 
# 
# From -- ./inp_files/11082.got.cif
#   From: 2010.03.12/outbox.cif.g09.slc.cpg/sg53_6_cif.got.tgz:11082.got - 2010.04.16 14:36:59.
