data_PCOD8219313
_publ_section_title
;
Structure prediction by ZEFSAII (Michael W. Deem and Ramdas Pophale) SiO2 
 PCOD8219313
Probable space group: P M N A
;
_chemical_formula_sum "Si O2"
_cell_formula_units_Z 64
_cell_length_a 8.829071
_cell_length_b 20.556136
_cell_length_c 19.523137
_cell_angle_alpha 90.000000
_cell_angle_beta 90.000000
_cell_angle_gamma 90.000000
_cell_volume 3543.285063
_symmetry_space_group_name_H-M "P M N A"
_symmetry_group_IT_number 53
_symmetry_cell_setting 'orthorhombic'
loop_
_space_group_symop_operation_xyz
x,y,z
1/2-x,-y,1/2+z
x,-y,-z
1/2-x,y,1/2-z
-x,-y,-z
1/2+x,y,1/2-z
-x,y,z
1/2+x,-y,1/2+z
loop_
_atom_site_type_symbol
_atom_site_label
_atom_site_fract_x
_atom_site_fract_y
_atom_site_fract_z
Si Si1 0.178673 0.370736 0.320942
Si Si2 0.178471 0.684945 0.954287
Si Si3 0.820346 0.980115 0.320337
Si Si4 0.820869 0.181481 0.463196
Si Si5 0.322609 0.560781 0.455658
Si Si6 0.323571 0.128405 0.181699
Si Si7 0.677290 0.479159 0.820390
Si Si8 0.179486 0.937196 0.043082
O O1 0.250000 0.346245 0.250000
O O2 0.251297 0.328143 0.380299
O O3 0.221956 0.445882 0.333302
O O4 0.000000 0.359281 0.319510
O O5 0.255411 0.749020 0.985937
O O6 0.000000 0.694652 0.946899
O O7 0.219048 0.626552 0.005240
O O8 0.750000 0.952585 0.250000
O O9 0.752169 0.938511 0.381962
O O10 0.000000 0.972537 0.319124
O O11 0.767179 0.054697 0.330533
O O12 0.777748 0.171209 0.383551
O O13 0.739916 0.127173 0.507597
O O14 0.000000 0.177754 0.475287
O O15 0.261483 0.500000 0.500000
O O16 0.500000 0.553051 0.442293
O O17 0.239894 0.563401 0.382807
O O18 0.250000 0.158740 0.250000
O O19 0.500000 0.128713 0.194387
O O20 0.750000 0.453613 0.750000
O O21 0.500000 0.469367 0.814521
O O22 0.000000 0.934438 0.049285
O O23 0.233259 0.000000 0.000000
#
# Coordination Sequence:
#
# PCOD8219313 Si02
#       8
#     8   8   8   8   8   8   8   8
#     4  10  20  34  53  79 111 149 189 229 273 329
#     4  11  23  38  56  80 112 150 188 232 282 337
#     4  10  19  34  56  84 115 145 183 229 279 330
#     4  11  23  39  56  79 113 152 191 233 281 334
#     4  10  20  36  58  82 111 146 186 231 282 332
#     4   9  19  33  52  77 108 146 185 224 269 323
#     4  10  20  33  55  84 114 144 183 231 279 331
#     4  11  22  36  58  86 113 146 189 234 280 331
#
# _framework density 18.062335000000001
#
# number of rings (size 3 to 8) (size 9 to 14) (size 15 to 20)
#    0.000    1.750    2.500    2.250    0.000    4.750 
#    0.000    1.250    0.000    0.750    0.000    1.750 
#    0.000    0.000    0.000    0.000    0.000    0.000 
#
# Total GULP energy -793907.241055 kJ/mol
# GULP energy per Si atom -12404.800641 kJ/mol
# Density = 1.802122 g / cm^3
# Si number density = 18.062335 Si / 1000 Ang^3
#
#
#
# Elastic Constant Matrix: (Units=GPa)
#
#
# Indices 1 2 3 4 5 6 
#
# 1 69.8446 34.5111 48.9307 0.0000 0.0000 0.0000
# 2 34.5111 85.6549 49.4930 0.0000 0.0000 0.0000
# 3 48.9307 49.4930 122.9293 0.0000 0.0000 0.0000
# 4 0.0000 0.0000 0.0000 23.5485 0.0000 0.0000
# 5 0.0000 0.0000 0.0000 0.0000 37.6182 0.0000
# 6 0.0000 0.0000 0.0000 0.0000 0.0000 24.9040
#
#
#
# Elastic Compliance Matrix: (Units=1/GPa)
#
#
# Indices 1 2 3 4 5 6 
#
# 1 0.021263 -0.004791 -0.006534 0.000000 0.000000 0.000000
# 2 -0.004791 0.016294 -0.004653 0.000000 0.000000 0.000000
# 3 -0.006534 -0.004653 0.012609 0.000000 0.000000 0.000000
# 4 0.000000 0.000000 0.000000 0.042466 0.000000 0.000000
# 5 0.000000 0.000000 0.000000 0.000000 0.026583 0.000000
# 6 0.000000 0.000000 0.000000 0.000000 0.000000 0.040154
#
#
# Mechanical properties :
#
#
# Convention : Reuss Voigt Hill
#
# Bulk Modulus (GPa) = 54.92001 60.47761 57.69881
# Shear Modulus (GPa) = 25.32994 26.91372 26.12183
#
# Velocity S-wave (km/s) = 3.74888 3.86430 3.80703
# Velocity P-wave (km/s) = 7.01503 7.31203 7.16507
#
# Compressibility (1/GPa) = 0.01820830
#
# Stress axis : x y z
#
# Youngs Moduli (GPa) = 47.03075 61.37315 79.30814
#
# Poissons Ratio (x) = 0.29405 0.51823
# Poissons Ratio (y) = 0.22534 0.36902
# Poissons Ratio (z) = 0.30732 0.28557
#
# Static dielectric constant tensor:
#      x y z
#    x 3.346640 0.000000 0.000000 
#    y 0.000000 3.189210 0.000000 
#    z 0.000000 0.000000 3.530060 
# 
# 
# High freq. dielectric constant tensor:
#      x y z
#    x 1.710820 0.000000 0.000000 
#    y 0.000000 1.676110 0.000000 
#    z 0.000000 0.000000 1.703690 
# 
# From -- ./inp_files/31153.got.cif
#   From: 2010.03.12/outbox.cif.g09.slc.cpg/sg53_16_cif.got.tgz:31153.got - 2010.04.16 14:36:59.
