data_PCOD8219513
_publ_section_title
;
Structure prediction by ZEFSAII (Michael W. Deem and Ramdas Pophale) SiO2 
 PCOD8219513
Probable space group: P M N A
;
_chemical_formula_sum "Si O2"
_cell_formula_units_Z 44
_cell_length_a 12.733150
_cell_length_b 11.253465
_cell_length_c 15.664622
_cell_angle_alpha 90.000000
_cell_angle_beta 90.000000
_cell_angle_gamma 90.000000
_cell_volume 2244.615922
_symmetry_space_group_name_H-M "P M N A"
_symmetry_group_IT_number 53
_symmetry_cell_setting 'orthorhombic'
loop_
_space_group_symop_operation_xyz
x,y,z
1/2-x,-y,1/2+z
x,-y,-z
1/2-x,y,1/2-z
-x,-y,-z
1/2+x,y,1/2-z
-x,y,z
1/2+x,-y,1/2+z
loop_
_atom_site_type_symbol
_atom_site_label
_atom_site_fract_x
_atom_site_fract_y
_atom_site_fract_z
Si Si1 0.375651 0.608339 0.844422
Si Si2 0.250000 0.589193 0.250000
Si Si3 0.878262 0.250688 0.875315
Si Si4 0.794846 0.628013 0.965321
Si Si5 0.378158 0.011693 0.405071
Si Si6 0.378278 0.240166 0.312165
O O1 0.500000 0.592493 0.848997
O O2 0.322015 0.486355 0.813719
O O3 0.328870 0.634474 0.938785
O O4 0.338660 0.716509 0.781639
O O5 0.170837 0.671902 0.198677
O O6 0.863553 0.111456 0.853902
O O7 0.000000 0.284391 0.885614
O O8 0.820055 0.272718 0.965146
O O9 0.860050 0.651865 0.878477
O O10 0.829165 0.500000 0.000000
O O11 0.500000 0.044438 0.418045
O O12 0.327295 0.000000 0.500000
O O13 0.325608 0.118002 0.348498
O O14 0.500000 0.217351 0.300404
#
# Coordination Sequence:
#
# PCOD8219513 Si02
#       6
#     8   4   8   8   8   8
#     4  11  23  39  57  84 124 156 189 243 295 350
#     4  12  22  42  54  88 116 152 196 234 298 362
#     4  11  23  39  60  86 117 151 194 247 289 343
#     4  12  21  36  57  87 118 149 202 235 288 353
#     4   9  17  33  57  87 117 148 189 238 294 340
#     4  10  19  35  61  89 120 151 188 244 295 346
#
# _framework density 19.602464000000001
#
# number of rings (size 3 to 8) (size 9 to 14) (size 15 to 20)
#    0.000    1.273    5.455    1.091    0.000    3.273 
#    3.273    0.000    0.000    0.000    0.000    2.545 
#    0.000    0.000    0.000    0.000    0.000    0.000 
#
# Total GULP energy -545430.303686 kJ/mol
# GULP energy per Si atom -12396.143266 kJ/mol
# Density = 1.955785 g / cm^3
# Si number density = 19.602464 Si / 1000 Ang^3
#
#
#
# Elastic Constant Matrix: (Units=GPa)
#
#
# Indices 1 2 3 4 5 6 
#
# 1 81.4537 43.4539 35.3157 0.0000 0.0000 0.0000
# 2 43.4539 128.9021 52.5053 0.0000 0.0000 0.0000
# 3 35.3157 52.5053 90.1583 0.0000 0.0000 0.0000
# 4 0.0000 0.0000 0.0000 24.4686 0.0000 0.0000
# 5 0.0000 0.0000 0.0000 0.0000 34.3281 0.0000
# 6 0.0000 0.0000 0.0000 0.0000 0.0000 22.7116
#
#
#
# Elastic Compliance Matrix: (Units=1/GPa)
#
#
# Indices 1 2 3 4 5 6 
#
# 1 0.016053 -0.003737 -0.004112 0.000000 0.000000 0.000000
# 2 -0.003737 0.011040 -0.004966 0.000000 0.000000 0.000000
# 3 -0.004112 -0.004966 0.015594 0.000000 0.000000 0.000000
# 4 0.000000 0.000000 0.000000 0.040869 0.000000 0.000000
# 5 0.000000 0.000000 0.000000 0.000000 0.029131 0.000000
# 6 0.000000 0.000000 0.000000 0.000000 0.000000 0.044030
#
#
# Mechanical properties :
#
#
# Convention : Reuss Voigt Hill
#
# Bulk Modulus (GPa) = 58.62139 62.56267 60.59203
# Shear Modulus (GPa) = 26.59116 27.58428 27.08772
#
# Velocity S-wave (km/s) = 3.68709 3.75532 3.72136
# Velocity P-wave (km/s) = 6.93515 7.12658 7.03152
#
# Compressibility (1/GPa) = 0.01705862
#
# Stress axis : x y z
#
# Youngs Moduli (GPa) = 62.29275 90.57811 64.12634
#
# Poissons Ratio (x) = 0.33847 0.26369
# Poissons Ratio (y) = 0.23277 0.31844
# Poissons Ratio (z) = 0.25615 0.44979
#
# Static dielectric constant tensor:
#      x y z
#    x 3.472430 0.000000 0.000000 
#    y 0.000000 3.790170 0.000000 
#    z 0.000000 0.000000 3.732250 
# 
# 
# High freq. dielectric constant tensor:
#      x y z
#    x 1.743890 0.000000 0.000000 
#    y 0.000000 1.771390 0.000000 
#    z 0.000000 0.000000 1.758490 
# 
# From -- ./inp_files/22608.got.cif
#   From: 2010.03.12/outbox.cif.g09.slc.cpg/sg53_12_cif.got.tgz:22608.got - 2010.04.16 14:36:59.
