data_PCOD8219582
_publ_section_title
;
Structure prediction by ZEFSAII (Michael W. Deem and Ramdas Pophale) SiO2 
 PCOD8219582
Probable space group: P M N A
;
_chemical_formula_sum "Si O2"
_cell_formula_units_Z 48
_cell_length_a 22.890140
_cell_length_b 9.309655
_cell_length_c 10.898314
_cell_angle_alpha 90.000000
_cell_angle_beta 90.000000
_cell_angle_gamma 90.000000
_cell_volume 2322.423153
_symmetry_space_group_name_H-M "P M N A"
_symmetry_group_IT_number 53
_symmetry_cell_setting 'orthorhombic'
loop_
_space_group_symop_operation_xyz
x,y,z
1/2-x,-y,1/2+z
x,-y,-z
1/2-x,y,1/2-z
-x,-y,-z
1/2+x,y,1/2-z
-x,y,z
1/2+x,-y,1/2+z
loop_
_atom_site_type_symbol
_atom_site_label
_atom_site_fract_x
_atom_site_fract_y
_atom_site_fract_z
Si Si1 0.436151 0.718186 0.152896
Si Si2 0.378157 0.209881 0.430340
Si Si3 0.848871 0.651681 0.549944
Si Si4 0.432849 0.572729 0.731953
Si Si5 0.750370 0.120569 0.392821
Si Si6 0.934632 0.061472 0.846394
O O1 0.500000 0.690573 0.090008
O O2 0.428253 0.600047 0.261708
O O3 0.435061 0.875215 0.211155
O O4 0.382984 0.723369 0.061277
O O5 0.402931 0.366695 0.392591
O O6 0.308682 0.206103 0.420996
O O7 0.396969 0.165683 0.566452
O O8 0.405261 0.094059 0.335538
O O9 0.822597 0.500000 0.500000
O O10 0.897285 0.632288 0.653148
O O11 0.799438 0.757556 0.597816
O O12 0.500000 0.624624 0.737633
O O13 0.750000 0.060296 0.250000
O O14 0.759448 0.000000 0.500000
O O15 0.000000 0.049328 0.899723
#
# Coordination Sequence:
#
# PCOD8219582 Si02
#       6
#     8   8   8   8   8   8
#     4   9  20  37  61  93 123 154 197 253 316 377
#     4  11  21  38  57  84 118 161 207 246 307 365
#     4  10  22  41  63  91 122 162 206 258 312 371
#     4  10  19  36  62  88 120 156 197 252 315 371
#     4  12  26  45  65  89 128 171 220 267 312 375
#     4  10  20  37  59  88 123 158 200 253 310 371
#
# _framework density 20.668067000000001
#
# number of rings (size 3 to 8) (size 9 to 14) (size 15 to 20)
#    0.000    1.667    3.333    2.500    2.333    2.667 
#    3.000    3.333    0.000    4.000    0.000    0.000 
#    0.000    0.000    0.000    0.000    0.000    0.000 
#
# Total GULP energy -594797.226053 kJ/mol
# GULP energy per Si atom -12391.608876 kJ/mol
# Density = 2.062103 g / cm^3
# Si number density = 20.668067 Si / 1000 Ang^3
#
#
#
# Elastic Constant Matrix: (Units=GPa)
#
#
# Indices 1 2 3 4 5 6 
#
# 1 113.2362 25.1287 13.5937 0.0000 0.0000 0.0000
# 2 25.1287 51.9691 22.4431 0.0000 0.0000 0.0000
# 3 13.5937 22.4431 55.4747 0.0000 0.0000 0.0000
# 4 0.0000 0.0000 0.0000 32.8861 0.0000 0.0000
# 5 0.0000 0.0000 0.0000 0.0000 18.6995 0.0000
# 6 0.0000 0.0000 0.0000 0.0000 0.0000 22.0786
#
#
#
# Elastic Compliance Matrix: (Units=1/GPa)
#
#
# Indices 1 2 3 4 5 6 
#
# 1 0.009909 -0.004535 -0.000593 0.000000 0.000000 0.000000
# 2 -0.004535 0.025391 -0.009161 0.000000 0.000000 0.000000
# 3 -0.000593 -0.009161 0.021878 0.000000 0.000000 0.000000
# 4 0.000000 0.000000 0.000000 0.030408 0.000000 0.000000
# 5 0.000000 0.000000 0.000000 0.000000 0.053477 0.000000
# 6 0.000000 0.000000 0.000000 0.000000 0.000000 0.045293
#
#
# Mechanical properties :
#
#
# Convention : Reuss Voigt Hill
#
# Bulk Modulus (GPa) = 34.96629 38.11234 36.53932
# Shear Modulus (GPa) = 22.27490 25.36713 23.82101
#
# Velocity S-wave (km/s) = 3.28646 3.50717 3.39861
# Velocity P-wave (km/s) = 5.59963 5.90598 5.75484
#
# Compressibility (1/GPa) = 0.02859897
#
# Stress axis : x y z
#
# Youngs Moduli (GPa) = 100.92148 39.38364 45.70819
#
# Poissons Ratio (x) = 0.17860 0.02712
# Poissons Ratio (y) = 0.45767 0.41874
# Poissons Ratio (z) = 0.05989 0.36080
#
# Static dielectric constant tensor:
#      x y z
#    x 3.859180 0.000000 0.000000 
#    y 0.000000 3.811120 0.000000 
#    z 0.000000 0.000000 3.664840 
# 
# 
# High freq. dielectric constant tensor:
#      x y z
#    x 1.817690 0.000000 0.000000 
#    y 0.000000 1.801480 0.000000 
#    z 0.000000 0.000000 1.801290 
# 
# From -- ./inp_files/18271.got.cif
#   From: 2010.03.12/outbox.cif.g09.slc.cpg/sg53_10_cif.got.tgz:18271.got - 2010.04.16 14:36:59.
