data_PCOD8219437
_publ_section_title
;
Structure prediction by ZEFSAII (Michael W. Deem and Ramdas Pophale) SiO2 
 PCOD8219437
Probable space group: P M N A
;
_chemical_formula_sum "Si O2"
_cell_formula_units_Z 48
_cell_length_a 8.811252
_cell_length_b 9.547642
_cell_length_c 30.355822
_cell_angle_alpha 90.000000
_cell_angle_beta 90.000000
_cell_angle_gamma 90.000000
_cell_volume 2553.734513
_symmetry_space_group_name_H-M "P M N A"
_symmetry_group_IT_number 53
_symmetry_cell_setting 'orthorhombic'
loop_
_space_group_symop_operation_xyz
x,y,z
1/2-x,-y,1/2+z
x,-y,-z
1/2-x,y,1/2-z
-x,-y,-z
1/2+x,y,1/2-z
-x,y,z
1/2+x,-y,1/2+z
loop_
_atom_site_type_symbol
_atom_site_label
_atom_site_fract_x
_atom_site_fract_y
_atom_site_fract_z
Si Si1 0.677752 0.200937 0.893864
Si Si2 0.323103 0.696280 0.703531
Si Si3 0.821187 0.844076 0.012618
Si Si4 0.177676 0.696707 0.566695
Si Si5 0.321248 0.481790 0.627702
Si Si6 0.174412 0.093829 0.356448
O O1 0.500000 0.207635 0.905655
O O2 0.775246 0.189679 0.937898
O O3 0.731969 0.336469 0.867073
O O4 0.713297 0.068992 0.862529
O O5 0.250000 0.661584 0.750000
O O6 0.500000 0.703728 0.710453
O O7 0.275320 0.573841 0.669947
O O8 0.269877 0.845799 0.684326
O O9 0.000000 0.826249 0.006533
O O10 0.736386 0.732882 0.981742
O O11 0.767488 0.000000 0.000000
O O12 0.265717 0.559389 0.583472
O O13 0.216579 0.827418 0.598277
O O14 0.000000 0.663002 0.565163
O O15 0.500000 0.455023 0.624772
O O16 0.000000 0.118443 0.344546
#
# Coordination Sequence:
#
# PCOD8219437 Si02
#       6
#     8   8   8   8   8   8
#     4  11  22  37  57  83 114 151 190 232 281 332
#     4  10  21  38  63  88 112 142 181 225 275 337
#     4  11  22  34  53  81 114 152 193 238 283 329
#     4  10  19  35  57  80 109 149 194 237 277 327
#     4  10  22  39  57  83 116 150 187 231 285 338
#     4   9  19  35  57  83 112 143 182 228 276 328
#
# _framework density 18.796002999999999
#
# number of rings (size 3 to 8) (size 9 to 14) (size 15 to 20)
#    0.000    1.833    1.667    2.500    0.000    5.333 
#    0.000    4.167    0.000    2.000    0.000    0.000 
#    0.000    0.000    0.000    0.000    0.000    0.000 
#
# Total GULP energy -595454.498805 kJ/mol
# GULP energy per Si atom -12405.302058 kJ/mol
# Density = 1.875322 g / cm^3
# Si number density = 18.796003 Si / 1000 Ang^3
#
#
#
# Elastic Constant Matrix: (Units=GPa)
#
#
# Indices 1 2 3 4 5 6 
#
# 1 56.3281 34.1199 28.3882 0.0000 0.0000 0.0000
# 2 34.1199 118.5736 33.3065 0.0000 0.0000 0.0000
# 3 28.3882 33.3065 90.6610 0.0000 0.0000 0.0000
# 4 0.0000 0.0000 0.0000 17.4191 0.0000 0.0000
# 5 0.0000 0.0000 0.0000 0.0000 32.3299 0.0000
# 6 0.0000 0.0000 0.0000 0.0000 0.0000 32.3447
#
#
#
# Elastic Compliance Matrix: (Units=1/GPa)
#
#
# Indices 1 2 3 4 5 6 
#
# 1 0.023719 -0.005284 -0.005486 0.000000 0.000000 0.000000
# 2 -0.005284 0.010581 -0.002233 0.000000 0.000000 0.000000
# 3 -0.005486 -0.002233 0.013568 0.000000 0.000000 0.000000
# 4 0.000000 0.000000 0.000000 0.057408 0.000000 0.000000
# 5 0.000000 0.000000 0.000000 0.000000 0.030931 0.000000
# 6 0.000000 0.000000 0.000000 0.000000 0.000000 0.030917
#
#
# Mechanical properties :
#
#
# Convention : Reuss Voigt Hill
#
# Bulk Modulus (GPa) = 45.73961 50.79910 48.26936
# Shear Modulus (GPa) = 24.94803 27.73530 26.34166
#
# Velocity S-wave (km/s) = 3.64717 3.84552 3.74766
# Velocity P-wave (km/s) = 6.49025 6.84124 6.66806
#
# Compressibility (1/GPa) = 0.02186289
#
# Stress axis : x y z
#
# Youngs Moduli (GPa) = 42.16103 94.50658 73.70281
#
# Poissons Ratio (x) = 0.49939 0.40430
# Poissons Ratio (y) = 0.22279 0.16455
# Poissons Ratio (z) = 0.23128 0.21100
#
# Static dielectric constant tensor:
#      x y z
#    x 3.483330 0.000000 0.000000 
#    y 0.000000 3.562210 0.000000 
#    z 0.000000 0.000000 3.270300 
# 
# 
# High freq. dielectric constant tensor:
#      x y z
#    x 1.742050 0.000000 0.000000 
#    y 0.000000 1.731240 0.000000 
#    z 0.000000 0.000000 1.714120 
# 
# From -- ./inp_files/37665.got.cif
#   From: 2010.03.12/outbox.cif.g09.slc.cpg/sg53_19_cif.got.tgz:37665.got - 2010.04.16 14:36:59.
