data_PCOD8219523
_publ_section_title
;
Structure prediction by ZEFSAII (Michael W. Deem and Ramdas Pophale) SiO2 
 PCOD8219523
Probable space group: P M N A
;
_chemical_formula_sum "Si O2"
_cell_formula_units_Z 40
_cell_length_a 14.585809
_cell_length_b 14.503595
_cell_length_c 9.053714
_cell_angle_alpha 90.000000
_cell_angle_beta 90.000000
_cell_angle_gamma 90.000000
_cell_volume 1915.283016
_symmetry_space_group_name_H-M "P M N A"
_symmetry_group_IT_number 53
_symmetry_cell_setting 'orthorhombic'
loop_
_space_group_symop_operation_xyz
x,y,z
1/2-x,-y,1/2+z
x,-y,-z
1/2-x,y,1/2-z
-x,-y,-z
1/2+x,y,1/2-z
-x,y,z
1/2+x,-y,1/2+z
loop_
_atom_site_type_symbol
_atom_site_label
_atom_site_fract_x
_atom_site_fract_y
_atom_site_fract_z
Si Si1 0.000000 0.138552 0.006763
Si Si2 0.140847 0.286871 0.079337
Si Si3 0.000000 0.984490 0.242030
Si Si4 0.000000 0.593834 0.082476
Si Si5 0.850368 0.726492 0.582300
Si Si6 0.175905 0.935144 0.622692
Si Si7 0.000000 0.602854 0.431518
O O1 0.094459 0.188739 0.049332
O O2 0.000000 0.048755 0.102045
O O3 0.000000 0.118109 0.830304
O O4 0.128233 0.309466 0.252576
O O5 0.246210 0.289470 0.034261
O O6 0.091948 0.357909 0.972232
O O7 0.908469 0.999289 0.334687
O O8 0.000000 0.586648 0.257517
O O9 0.000000 0.500000 0.000000
O O10 0.866329 0.837096 0.568540
O O11 0.912183 0.664496 0.475220
O O12 0.250000 0.912940 0.750000
O O13 0.226009 0.000000 0.500000
O O14 0.000000 0.500000 0.500000
#
# Coordination Sequence:
#
# PCOD8219523 Si02
#       7
#     4   8   4   4   8   8   4
#     4  10  19  35  67  93 126 180 232 275 340 389
#     4  10  21  41  69  95 132 180 225 278 344 403
#     4  11  22  37  60  91 134 178 233 286 323 391
#     4  11  25  45  69 101 132 168 219 281 352 426
#     4  11  22  44  70  97 136 184 230 283 343 401
#     4  12  26  42  65 100 140 189 240 283 335 400
#     4  12  27  47  74 106 136 175 223 286 349 425
#
# _framework density 20.884643000000001
#
# number of rings (size 3 to 8) (size 9 to 14) (size 15 to 20)
#    0.000    1.000    4.000    3.300    5.600    4.800 
#    0.000    0.000    0.000    0.000    0.000    0.000 
#    0.000    0.000    0.000    0.000    0.000    0.000 
#
# Total GULP energy -495791.427869 kJ/mol
# GULP energy per Si atom -12394.785697 kJ/mol
# Density = 2.083711 g / cm^3
# Si number density = 20.884643 Si / 1000 Ang^3
#
#
#
# Elastic Constant Matrix: (Units=GPa)
#
#
# Indices 1 2 3 4 5 6 
#
# 1 143.4274 43.5028 54.6313 0.0000 0.0000 0.0000
# 2 43.5028 87.1950 65.4421 0.0000 0.0000 0.0000
# 3 54.6313 65.4421 130.8015 0.0000 0.0000 0.0000
# 4 0.0000 0.0000 0.0000 41.9638 0.0000 0.0000
# 5 0.0000 0.0000 0.0000 0.0000 41.9252 0.0000
# 6 0.0000 0.0000 0.0000 0.0000 0.0000 1.8240
#
#
#
# Elastic Compliance Matrix: (Units=1/GPa)
#
#
# Indices 1 2 3 4 5 6 
#
# 1 0.008635 -0.002564 -0.002324 0.000000 0.000000 0.000000
# 2 -0.002564 0.019126 -0.008498 0.000000 0.000000 0.000000
# 3 -0.002324 -0.008498 0.012867 0.000000 0.000000 0.000000
# 4 0.000000 0.000000 0.000000 0.023830 0.000000 0.000000
# 5 0.000000 0.000000 0.000000 0.000000 0.023852 0.000000
# 6 0.000000 0.000000 0.000000 0.000000 0.000000 0.548243
#
#
# Mechanical properties :
#
#
# Convention : Reuss Voigt Hill
#
# Bulk Modulus (GPa) = 72.16798 76.50848 74.33823
# Shear Modulus (GPa) = 7.48567 30.33244 18.90906
#
# Velocity S-wave (km/s) = 1.89528 3.81515 3.01226
# Velocity P-wave (km/s) = 6.27853 7.49136 6.91160
#
# Compressibility (1/GPa) = 0.01385656
#
# Stress axis : x y z
#
# Youngs Moduli (GPa) = 115.80810 52.28539 77.71600
#
# Poissons Ratio (x) = 0.13407 0.18058
# Poissons Ratio (y) = 0.29695 0.66043
# Poissons Ratio (z) = 0.26910 0.44432
#
# Static dielectric constant tensor:
#      x y z
#    x 3.813680 0.000000 0.000000 
#    y 0.000000 3.585570 0.000000 
#    z 0.000000 0.000000 3.940750 
# 
# 
# High freq. dielectric constant tensor:
#      x y z
#    x 1.827410 0.000000 0.000000 
#    y 0.000000 1.817280 0.000000 
#    z 0.000000 0.000000 1.817450 
# 
# From -- ./inp_files/8504.got.cif
#   From: 2010.03.12/outbox.cif.g09.slc.cpg/sg53_5_cif.got.tgz:8504.got - 2010.04.16 14:36:59.
