data_PCOD8219561
_publ_section_title
;
Structure prediction by ZEFSAII (Michael W. Deem and Ramdas Pophale) SiO2 
 PCOD8219561
Probable space group: P M N A
;
_chemical_formula_sum "Si O2"
_cell_formula_units_Z 64
_cell_length_a 8.823133
_cell_length_b 21.377057
_cell_length_c 17.788584
_cell_angle_alpha 90.000000
_cell_angle_beta 90.000000
_cell_angle_gamma 90.000000
_cell_volume 3355.151382
_symmetry_space_group_name_H-M "P M N A"
_symmetry_group_IT_number 53
_symmetry_cell_setting 'orthorhombic'
loop_
_space_group_symop_operation_xyz
x,y,z
1/2-x,-y,1/2+z
x,-y,-z
1/2-x,y,1/2-z
-x,-y,-z
1/2+x,y,1/2-z
-x,y,z
1/2+x,-y,1/2+z
loop_
_atom_site_type_symbol
_atom_site_label
_atom_site_fract_x
_atom_site_fract_y
_atom_site_fract_z
Si Si1 0.173006 0.890036 0.076424
Si Si2 0.325517 0.113148 0.400668
Si Si3 0.321601 0.993109 0.171646
Si Si4 0.322900 0.429401 0.980310
Si Si5 0.824371 0.747614 0.093709
Si Si6 0.822574 0.636055 0.327890
Si Si7 0.178468 0.769045 0.669213
Si Si8 0.676139 0.680803 0.559766
O O1 0.289293 0.937518 0.113820
O O2 0.219910 0.820145 0.101323
O O3 0.000000 0.903984 0.101484
O O4 0.188597 0.900994 0.988188
O O5 0.500000 0.123242 0.377068
O O6 0.232039 0.175172 0.384090
O O7 0.257230 0.056650 0.353683
O O8 0.250000 0.971960 0.250000
O O9 0.500000 0.004055 0.178583
O O10 0.500000 0.415927 0.991410
O O11 0.274291 0.411470 0.894955
O O12 0.279733 0.500000 0.000000
O O13 0.230209 0.388648 0.039929
O O14 0.729751 0.706615 0.152816
O O15 0.000000 0.736199 0.111365
O O16 0.786322 0.726905 0.009120
O O17 0.750000 0.612556 0.250000
O O18 0.000000 0.636547 0.316219
O O19 0.250000 0.778346 0.750000
O O20 0.233178 0.703995 0.632749
O O21 0.000000 0.769086 0.676925
O O22 0.500000 0.680244 0.579711
#
# Coordination Sequence:
#
# PCOD8219561 Si02
#       8
#     8   8   8   8   8   8   8   8
#     4  10  21  39  62  86 113 149 187 233 291 348
#     4  11  22  41  64  86 114 149 190 237 293 351
#     4  12  26  42  58  81 112 150 194 242 293 348
#     4   9  19  37  60  86 117 157 201 243 289 341
#     4   9  18  35  58  83 112 147 185 228 281 341
#     4  10  20  34  55  84 116 153 192 237 287 338
#     4  12  24  38  59  87 119 153 193 240 292 346
#     4  10  19  36  59  86 117 150 190 235 285 343
#
# _framework density 19.075144999999999
#
# number of rings (size 3 to 8) (size 9 to 14) (size 15 to 20)
#    0.000    1.625    1.250    4.125    0.000    4.750 
#    0.000    0.625    0.000    1.500    0.000    0.000 
#    0.000    0.000    0.000    0.000    0.000    0.000 
#
# Total GULP energy -793884.133973 kJ/mol
# GULP energy per Si atom -12404.439593 kJ/mol
# Density = 1.903173 g / cm^3
# Si number density = 19.075145 Si / 1000 Ang^3
#
#
#
# Elastic Constant Matrix: (Units=GPa)
#
#
# Indices 1 2 3 4 5 6 
#
# 1 103.3768 43.5692 41.6636 0.0000 0.0000 0.0000
# 2 43.5692 86.9935 29.6009 0.0000 0.0000 0.0000
# 3 41.6636 29.6009 75.1230 0.0000 0.0000 0.0000
# 4 0.0000 0.0000 0.0000 19.5939 0.0000 0.0000
# 5 0.0000 0.0000 0.0000 0.0000 31.9497 0.0000
# 6 0.0000 0.0000 0.0000 0.0000 0.0000 29.1200
#
#
#
# Elastic Compliance Matrix: (Units=1/GPa)
#
#
# Indices 1 2 3 4 5 6 
#
# 1 0.014188 -0.005114 -0.005854 0.000000 0.000000 0.000000
# 2 -0.005114 0.015118 -0.003121 0.000000 0.000000 0.000000
# 3 -0.005854 -0.003121 0.017788 0.000000 0.000000 0.000000
# 4 0.000000 0.000000 0.000000 0.051036 0.000000 0.000000
# 5 0.000000 0.000000 0.000000 0.000000 0.031299 0.000000
# 6 0.000000 0.000000 0.000000 0.000000 0.000000 0.034341
#
#
# Mechanical properties :
#
#
# Convention : Reuss Voigt Hill
#
# Bulk Modulus (GPa) = 52.86264 55.01786 53.94025
# Shear Modulus (GPa) = 25.22037 26.17669 25.69853
#
# Velocity S-wave (km/s) = 3.64010 3.70847 3.67444
# Velocity P-wave (km/s) = 6.74092 6.87330 6.80743
#
# Compressibility (1/GPa) = 0.01891695
#
# Stress axis : x y z
#
# Youngs Moduli (GPa) = 70.48298 66.14517 56.21882
#
# Poissons Ratio (x) = 0.33826 0.32908
# Poissons Ratio (y) = 0.36045 0.17545
# Poissons Ratio (z) = 0.41258 0.20643
#
# Static dielectric constant tensor:
#      x y z
#    x 3.551310 0.000000 0.000000 
#    y 0.000000 3.495170 0.000000 
#    z 0.000000 0.000000 3.510250 
# 
# 
# High freq. dielectric constant tensor:
#      x y z
#    x 1.748270 0.000000 0.000000 
#    y 0.000000 1.737610 0.000000 
#    z 0.000000 0.000000 1.742280 
# 
# From -- ./inp_files/20948.got.cif
#   From: 2010.03.12/outbox.cif.g09.slc.cpg/sg53_11_cif.got.tgz:20948.got - 2010.04.16 14:36:59.
