data_PCOD8219501
_publ_section_title
;
Structure prediction by ZEFSAII (Michael W. Deem and Ramdas Pophale) SiO2 
 PCOD8219501
Probable space group: P M N A
;
_chemical_formula_sum "Si O2"
_cell_formula_units_Z 56
_cell_length_a 13.509228
_cell_length_b 9.497653
_cell_length_c 20.886533
_cell_angle_alpha 90.000000
_cell_angle_beta 90.000000
_cell_angle_gamma 90.000000
_cell_volume 2679.866664
_symmetry_space_group_name_H-M "P M N A"
_symmetry_group_IT_number 53
_symmetry_cell_setting 'orthorhombic'
loop_
_space_group_symop_operation_xyz
x,y,z
1/2-x,-y,1/2+z
x,-y,-z
1/2-x,y,1/2-z
-x,-y,-z
1/2+x,y,1/2-z
-x,y,z
1/2+x,-y,1/2+z
loop_
_atom_site_type_symbol
_atom_site_label
_atom_site_fract_x
_atom_site_fract_y
_atom_site_fract_z
Si Si1 0.614173 0.761634 0.739753
Si Si2 0.613722 0.005862 0.361554
Si Si3 0.384045 0.450945 0.365054
Si Si4 0.792013 0.266787 0.901383
Si Si5 0.112097 0.737605 0.619951
Si Si6 0.699562 0.227404 0.452346
Si Si7 0.610484 0.440882 0.932041
O O1 0.500000 0.735421 0.753069
O O2 0.653795 0.626413 0.699818
O O3 0.661607 0.774702 0.810666
O O4 0.634284 0.906500 0.702772
O O5 0.500000 0.953360 0.364225
O O6 0.689595 0.874449 0.360619
O O7 0.631980 0.105581 0.422558
O O8 0.500000 0.425539 0.373422
O O9 0.358320 0.615013 0.366696
O O10 0.327866 0.380453 0.424639
O O11 0.677603 0.315390 0.903704
O O12 0.825493 0.230534 0.973164
O O13 0.183999 0.801498 0.564920
O O14 0.109389 0.568189 0.618018
O O15 0.000000 0.797521 0.609974
O O16 0.500000 0.379098 0.942388
O O17 0.652046 0.500000 0.000000
#
# Coordination Sequence:
#
# PCOD8219501 Si02
#       7
#     8   8   8   8   8   8   8
#     4   8  18  38  61  85 112 154 207 247 291 355
#     4  10  23  39  56  82 122 164 201 248 299 350
#     4  10  20  33  53  83 118 152 200 255 291 343
#     4  12  21  35  55  89 121 156 197 243 302 365
#     4  10  19  36  66  90 113 152 200 254 299 346
#     4  11  21  35  56  85 119 156 206 243 289 360
#     4  10  19  35  59  92 128 157 193 251 311 353
#
# _framework density 20.896561999999999
#
# number of rings (size 3 to 8) (size 9 to 14) (size 15 to 20)
#    0.000    1.857    2.857    2.571    0.000    5.714 
#    0.000    0.714    6.286    1.714    0.000    1.000 
#    0.000    0.000    0.000    0.000    0.000    0.000 
#
# Total GULP energy -694227.805881 kJ/mol
# GULP energy per Si atom -12396.925105 kJ/mol
# Density = 2.084900 g / cm^3
# Si number density = 20.896562 Si / 1000 Ang^3
#
#
#
# Elastic Constant Matrix: (Units=GPa)
#
#
# Indices 1 2 3 4 5 6 
#
# 1 99.8407 21.5040 19.0828 0.0000 0.0000 0.0000
# 2 21.5040 99.9329 26.0488 0.0000 0.0000 0.0000
# 3 19.0828 26.0488 66.8631 0.0000 0.0000 0.0000
# 4 0.0000 0.0000 0.0000 16.3483 0.0000 0.0000
# 5 0.0000 0.0000 0.0000 0.0000 14.8564 0.0000
# 6 0.0000 0.0000 0.0000 0.0000 0.0000 33.9620
#
#
#
# Elastic Compliance Matrix: (Units=1/GPa)
#
#
# Indices 1 2 3 4 5 6 
#
# 1 0.010847 -0.001700 -0.002434 0.000000 0.000000 0.000000
# 2 -0.001700 0.011404 -0.003958 0.000000 0.000000 0.000000
# 3 -0.002434 -0.003958 0.017192 0.000000 0.000000 0.000000
# 4 0.000000 0.000000 0.000000 0.061169 0.000000 0.000000
# 5 0.000000 0.000000 0.000000 0.000000 0.067311 0.000000
# 6 0.000000 0.000000 0.000000 0.000000 0.000000 0.029445
#
#
# Mechanical properties :
#
#
# Convention : Reuss Voigt Hill
#
# Bulk Modulus (GPa) = 42.98961 44.43419 43.71190
# Shear Modulus (GPa) = 22.59335 26.36674 24.48005
#
# Velocity S-wave (km/s) = 3.29173 3.55600 3.42641
# Velocity P-wave (km/s) = 5.92153 6.17821 6.05123
#
# Compressibility (1/GPa) = 0.02326143
#
# Stress axis : x y z
#
# Youngs Moduli (GPa) = 92.18968 87.68756 58.16539
#
# Poissons Ratio (x) = 0.14905 0.14155
# Poissons Ratio (y) = 0.15670 0.23020
# Poissons Ratio (z) = 0.22435 0.34704
#
# Static dielectric constant tensor:
#      x y z
#    x 3.993780 0.000000 0.000000 
#    y 0.000000 3.568490 0.000000 
#    z 0.000000 0.000000 3.775990 
# 
# 
# High freq. dielectric constant tensor:
#      x y z
#    x 1.832410 0.000000 0.000000 
#    y 0.000000 1.790740 0.000000 
#    z 0.000000 0.000000 1.804680 
# 
# From -- ./inp_files/32469.got.cif
#   From: 2010.03.12/outbox.cif.g09.slc.cpg/sg53_17_cif.got.tgz:32469.got - 2010.04.16 14:36:59.
