data_PCOD8219802
_publ_section_title
;
Structure prediction by ZEFSAII (Michael W. Deem and Ramdas Pophale) SiO2 
 PCOD8219802
Probable space group: P M N A
;
_chemical_formula_sum "Si O2"
_cell_formula_units_Z 64
_cell_length_a 8.927369
_cell_length_b 22.501641
_cell_length_c 17.452992
_cell_angle_alpha 90.000000
_cell_angle_beta 90.000000
_cell_angle_gamma 90.000000
_cell_volume 3505.964927
_symmetry_space_group_name_H-M "P M N A"
_symmetry_group_IT_number 53
_symmetry_cell_setting 'orthorhombic'
loop_
_space_group_symop_operation_xyz
x,y,z
1/2-x,-y,1/2+z
x,-y,-z
1/2-x,y,1/2-z
-x,-y,-z
1/2+x,y,1/2-z
-x,y,z
1/2+x,-y,1/2+z
loop_
_atom_site_type_symbol
_atom_site_label
_atom_site_fract_x
_atom_site_fract_y
_atom_site_fract_z
Si Si1 0.324117 0.374660 0.447149
Si Si2 0.827898 0.449871 0.329059
Si Si3 0.675038 0.131780 0.971384
Si Si4 0.327309 0.426384 0.907868
Si Si5 0.678040 0.935611 0.332141
Si Si6 0.664004 0.043474 0.429136
Si Si7 0.170410 0.746954 0.022696
Si Si8 0.827425 0.324006 0.824564
O O1 0.500000 0.386440 0.446381
O O2 0.251587 0.392363 0.366244
O O3 0.254643 0.416447 0.512092
O O4 0.289494 0.305370 0.463042
O O5 0.750000 0.466092 0.250000
O O6 0.809363 0.505159 0.385932
O O7 0.000000 0.434315 0.313924
O O8 0.500000 0.124686 0.956880
O O9 0.760599 0.110721 0.894974
O O10 0.715777 0.199454 0.990417
O O11 0.719261 0.094621 0.047773
O O12 0.500000 0.408202 0.916823
O O13 0.253123 0.386130 0.842450
O O14 0.750000 0.921829 0.250000
O O15 0.500000 0.927268 0.327613
O O16 0.720138 0.003353 0.357343
O O17 0.500000 0.071489 0.410979
O O18 0.645866 0.000000 0.500000
O O19 0.192997 0.723082 0.108191
O O20 0.000000 0.768886 0.010746
O O21 0.750000 0.295499 0.750000
O O22 0.000000 0.337990 0.808624
#
# Coordination Sequence:
#
# PCOD8219802 Si02
#       8
#     8   8   8   8   8   8   8   8
#     4  10  21  37  57  78 102 135 173 216 263 310
#     4  11  23  36  53  78 106 135 168 210 262 317
#     4  11  21  32  52  79 104 135 175 215 251 295
#     4  10  20  34  53  77 105 136 170 209 255 312
#     4  10  20  34  53  78 110 143 171 206 253 300
#     4   8  16  32  52  73 101 137 170 203 246 291
#     4   9  20  37  53  71  99 136 176 214 255 303
#     4  10  20  33  50  72 100 136 173 212 258 307
#
# _framework density 18.254604
#
# number of rings (size 3 to 8) (size 9 to 14) (size 15 to 20)
#    0.000    2.125    0.000    5.250    0.000   10.750 
#    0.000    1.250    0.000    0.750    0.000    3.500 
#    0.000    0.000    0.000    0.000    0.000    0.000 
#
# Total GULP energy -793621.342264 kJ/mol
# GULP energy per Si atom -12400.333473 kJ/mol
# Density = 1.821306 g / cm^3
# Si number density = 18.254604 Si / 1000 Ang^3
#
#
#
# Elastic Constant Matrix: (Units=GPa)
#
#
# Indices 1 2 3 4 5 6 
#
# 1 130.6587 56.1680 33.8672 0.0000 0.0000 0.0000
# 2 56.1680 87.5707 27.5687 0.0000 0.0000 0.0000
# 3 33.8672 27.5687 45.8646 0.0000 0.0000 0.0000
# 4 0.0000 0.0000 0.0000 13.0867 0.0000 0.0000
# 5 0.0000 0.0000 0.0000 0.0000 29.6561 0.0000
# 6 0.0000 0.0000 0.0000 0.0000 0.0000 25.4883
#
#
#
# Elastic Compliance Matrix: (Units=1/GPa)
#
#
# Indices 1 2 3 4 5 6 
#
# 1 0.011417 -0.005759 -0.004969 0.000000 0.000000 0.000000
# 2 -0.005759 0.016989 -0.005960 0.000000 0.000000 0.000000
# 3 -0.004969 -0.005960 0.029055 0.000000 0.000000 0.000000
# 4 0.000000 0.000000 0.000000 0.076414 0.000000 0.000000
# 5 0.000000 0.000000 0.000000 0.000000 0.033720 0.000000
# 6 0.000000 0.000000 0.000000 0.000000 0.000000 0.039234
#
#
# Mechanical properties :
#
#
# Convention : Reuss Voigt Hill
#
# Bulk Modulus (GPa) = 41.51753 55.47797 48.49775
# Shear Modulus (GPa) = 20.14246 23.41223 21.77734
#
# Velocity S-wave (km/s) = 3.32538 3.58514 3.45770
# Velocity P-wave (km/s) = 6.12676 6.89890 6.52426
#
# Compressibility (1/GPa) = 0.02408621
#
# Stress axis : x y z
#
# Youngs Moduli (GPa) = 87.58830 58.86123 34.41756
#
# Poissons Ratio (x) = 0.33896 0.17103
# Poissons Ratio (y) = 0.50438 0.20512
# Poissons Ratio (z) = 0.43524 0.35080
#
# Static dielectric constant tensor:
#      x y z
#    x 3.461630 0.000000 0.000000 
#    y 0.000000 3.280940 0.000000 
#    z 0.000000 0.000000 3.340230 
# 
# 
# High freq. dielectric constant tensor:
#      x y z
#    x 1.720020 0.000000 0.000000 
#    y 0.000000 1.693430 0.000000 
#    z 0.000000 0.000000 1.691290 
# 
# From -- ./inp_files/26995.got.cif
#   From: 2010.03.12/outbox.cif.g09.slc.cpg/sg53_14_cif.got.tgz:26995.got - 2010.04.16 14:36:59.
