data_PCOD8219424
_publ_section_title
;
Structure prediction by ZEFSAII (Michael W. Deem and Ramdas Pophale) SiO2 
 PCOD8219424
Probable space group: P M N A
;
_chemical_formula_sum "Si O2"
_cell_formula_units_Z 56
_cell_length_a 18.333137
_cell_length_b 12.226548
_cell_length_c 12.645182
_cell_angle_alpha 90.000000
_cell_angle_beta 90.000000
_cell_angle_gamma 90.000000
_cell_volume 2834.429932
_symmetry_space_group_name_H-M "P M N A"
_symmetry_group_IT_number 53
_symmetry_cell_setting 'orthorhombic'
loop_
_space_group_symop_operation_xyz
x,y,z
1/2-x,-y,1/2+z
x,-y,-z
1/2-x,y,1/2-z
-x,-y,-z
1/2+x,y,1/2-z
-x,y,z
1/2+x,-y,1/2+z
loop_
_atom_site_type_symbol
_atom_site_label
_atom_site_fract_x
_atom_site_fract_y
_atom_site_fract_z
Si Si1 0.082511 0.912243 0.905995
Si Si2 0.835747 0.058051 0.761489
Si Si3 0.827212 0.124057 0.538257
Si Si4 0.913932 0.323474 0.486028
Si Si5 0.914797 0.512256 0.337288
Si Si6 0.582911 0.574650 0.397256
Si Si7 0.668908 0.781347 0.444422
O O1 0.000000 0.880587 0.878395
O O2 0.121786 0.948878 0.797193
O O3 0.125101 0.806108 0.947637
O O4 0.087489 0.000000 0.000000
O O5 0.750000 0.032070 0.750000
O O6 0.864502 0.107478 0.652226
O O7 0.858353 0.145930 0.847864
O O8 0.881721 0.200377 0.471632
O O9 0.753924 0.195738 0.540026
O O10 0.811552 0.000000 0.500000
O O11 0.884268 0.400096 0.389899
O O12 0.887389 0.380354 0.597033
O O13 0.000000 0.308978 0.481805
O O14 0.895884 0.513971 0.212555
O O15 0.000000 0.508942 0.356801
O O16 0.584961 0.500000 0.500000
O O17 0.500000 0.624041 0.386700
O O18 0.648436 0.659304 0.412773
#
# Coordination Sequence:
#
# PCOD8219424 Si02
#       7
#     8   8   8   8   8   8   8
#     4   9  17  31  54  82 107 139 189 238 279 339
#     4   9  18  33  53  77 107 152 192 233 284 336
#     4  11  22  36  55  82 119 160 194 239 295 347
#     4   9  18  35  60  84 112 152 196 244 289 345
#     4   8  16  35  61  86 110 143 189 242 300 346
#     4  10  20  35  57  85 116 144 183 241 298 351
#     4  10  19  35  56  78 112 153 189 235 290 352
#
# _framework density 19.757059000000002
#
# number of rings (size 3 to 8) (size 9 to 14) (size 15 to 20)
#    0.000    2.571    0.000    4.286    0.000    1.429 
#    5.143    0.000    0.000    0.000    0.000    0.000 
#    0.000    0.000    0.000    0.000    0.000    0.000 
#
# Total GULP energy -693738.500476 kJ/mol
# GULP energy per Si atom -12388.187508 kJ/mol
# Density = 1.971209 g / cm^3
# Si number density = 19.757059 Si / 1000 Ang^3
#
#
#
# Elastic Constant Matrix: (Units=GPa)
#
#
# Indices 1 2 3 4 5 6 
#
# 1 65.0823 48.0798 51.6137 0.0000 0.0000 0.0000
# 2 48.0798 93.4333 60.5647 0.0000 0.0000 0.0000
# 3 51.6137 60.5647 108.4503 0.0000 0.0000 0.0000
# 4 0.0000 0.0000 0.0000 25.5520 0.0000 0.0000
# 5 0.0000 0.0000 0.0000 0.0000 16.1938 0.0000
# 6 0.0000 0.0000 0.0000 0.0000 0.0000 29.5526
#
#
#
# Elastic Compliance Matrix: (Units=1/GPa)
#
#
# Indices 1 2 3 4 5 6 
#
# 1 0.029156 -0.009418 -0.008616 0.000000 0.000000 0.000000
# 2 -0.009418 0.019818 -0.006585 0.000000 0.000000 0.000000
# 3 -0.008616 -0.006585 0.016999 0.000000 0.000000 0.000000
# 4 0.000000 0.000000 0.000000 0.039136 0.000000 0.000000
# 5 0.000000 0.000000 0.000000 0.000000 0.061752 0.000000
# 6 0.000000 0.000000 0.000000 0.000000 0.000000 0.033838
#
#
# Mechanical properties :
#
#
# Convention : Reuss Voigt Hill
#
# Bulk Modulus (GPa) = 59.75963 65.27580 62.51771
# Shear Modulus (GPa) = 19.56823 21.37350 20.47087
#
# Velocity S-wave (km/s) = 3.15054 3.29267 3.22239
# Velocity P-wave (km/s) = 6.59905 6.89685 6.74959
#
# Compressibility (1/GPa) = 0.01673371
#
# Stress axis : x y z
#
# Youngs Moduli (GPa) = 34.29815 50.45948 58.82699
#
# Poissons Ratio (x) = 0.47524 0.50687
# Poissons Ratio (y) = 0.32303 0.38738
# Poissons Ratio (z) = 0.29552 0.33228
#
# Static dielectric constant tensor:
#      x y z
#    x 3.338800 0.000000 0.000000 
#    y 0.000000 3.528330 0.000000 
#    z 0.000000 0.000000 3.863900 
# 
# 
# High freq. dielectric constant tensor:
#      x y z
#    x 1.749320 0.000000 0.000000 
#    y 0.000000 1.752930 0.000000 
#    z 0.000000 0.000000 1.771650 
# 
# From -- ./inp_files/17849.got.cif
#   From: 2010.03.12/outbox.cif.g09.slc.cpg/sg53_9_cif.got.tgz:17849.got - 2010.04.16 14:36:59.
