data_PCOD8219512
_publ_section_title
;
Structure prediction by ZEFSAII (Michael W. Deem and Ramdas Pophale) SiO2 
 PCOD8219512
Probable space group: P M N A
;
_chemical_formula_sum "Si O2"
_cell_formula_units_Z 64
_cell_length_a 8.990233
_cell_length_b 11.761217
_cell_length_c 30.733812
_cell_angle_alpha 90.000000
_cell_angle_beta 90.000000
_cell_angle_gamma 90.000000
_cell_volume 3249.672841
_symmetry_space_group_name_H-M "P M N A"
_symmetry_group_IT_number 53
_symmetry_cell_setting 'orthorhombic'
loop_
_space_group_symop_operation_xyz
x,y,z
1/2-x,-y,1/2+z
x,-y,-z
1/2-x,y,1/2-z
-x,-y,-z
1/2+x,y,1/2-z
-x,y,z
1/2+x,-y,1/2+z
loop_
_atom_site_type_symbol
_atom_site_label
_atom_site_fract_x
_atom_site_fract_y
_atom_site_fract_z
Si Si1 0.826646 0.125915 0.623813
Si Si2 0.674240 0.136607 0.126386
Si Si3 0.674849 0.261136 0.450379
Si Si4 0.824468 0.501697 0.081690
Si Si5 0.675574 0.733516 0.206970
Si Si6 0.828589 0.742597 0.793452
Si Si7 0.174313 0.258913 0.950503
Si Si8 0.170535 0.488844 0.819147
O O1 0.766803 0.198025 0.664862
O O2 0.746521 0.164192 0.579889
O O3 0.000000 0.147142 0.617061
O O4 0.789820 0.995399 0.633040
O O5 0.500000 0.162066 0.128146
O O6 0.737433 0.173775 0.079825
O O7 0.753161 0.205645 0.164292
O O8 0.500000 0.253392 0.439438
O O9 0.735265 0.389339 0.442598
O O10 0.709179 0.226458 0.499855
O O11 0.758353 0.615959 0.059968
O O12 0.774271 0.495351 0.131564
O O13 0.000000 0.503518 0.076782
O O14 0.750000 0.787967 0.250000
O O15 0.500000 0.741672 0.211940
O O16 0.724368 0.602447 0.203819
O O17 0.750000 0.789798 0.750000
O O18 0.811601 0.607016 0.794239
O O19 0.000000 0.779794 0.792833
O O20 0.000000 0.259099 0.941084
O O21 0.000000 0.445830 0.817784
#
# Coordination Sequence:
#
# PCOD8219512 Si02
#       8
#     8   8   8   8   8   8   8   8
#     4  10  24  43  59  80 115 154 196 244 293 340
#     4  11  24  42  61  82 113 157 202 244 291 341
#     4  10  20  37  60  90 121 151 191 239 289 344
#     4   9  16  32  58  88 120 151 184 229 288 347
#     4  11  23  39  60  86 116 150 189 237 287 343
#     4  11  23  40  62  90 121 153 189 237 288 346
#     4  10  20  35  62  91 117 152 193 236 287 347
#     4  10  19  35  61  89 119 153 187 228 286 346
#
# _framework density 19.694289999999999
#
# number of rings (size 3 to 8) (size 9 to 14) (size 15 to 20)
#    0.000    1.750    2.500    1.875    0.000    6.500 
#    0.000    4.375    0.000    1.500    0.000    0.000 
#    0.000    0.000    0.000    0.000    0.000    0.000 
#
# Total GULP energy -793821.747083 kJ/mol
# GULP energy per Si atom -12403.464798 kJ/mol
# Density = 1.964947 g / cm^3
# Si number density = 19.694290 Si / 1000 Ang^3
#
#
#
# Elastic Constant Matrix: (Units=GPa)
#
#
# Indices 1 2 3 4 5 6 
#
# 1 74.1462 40.6080 52.2214 0.0000 0.0000 0.0000
# 2 40.6080 73.9862 37.5571 0.0000 0.0000 0.0000
# 3 52.2214 37.5571 127.7212 0.0000 0.0000 0.0000
# 4 0.0000 0.0000 0.0000 12.8240 0.0000 0.0000
# 5 0.0000 0.0000 0.0000 0.0000 34.1522 0.0000
# 6 0.0000 0.0000 0.0000 0.0000 0.0000 27.0248
#
#
#
# Elastic Compliance Matrix: (Units=1/GPa)
#
#
# Indices 1 2 3 4 5 6 
#
# 1 0.023439 -0.009404 -0.006818 0.000000 0.000000 0.000000
# 2 -0.009404 0.019660 -0.001936 0.000000 0.000000 0.000000
# 3 -0.006818 -0.001936 0.011187 0.000000 0.000000 0.000000
# 4 0.000000 0.000000 0.000000 0.077979 0.000000 0.000000
# 5 0.000000 0.000000 0.000000 0.000000 0.029281 0.000000
# 6 0.000000 0.000000 0.000000 0.000000 0.000000 0.037003
#
#
# Mechanical properties :
#
#
# Convention : Reuss Voigt Hill
#
# Bulk Modulus (GPa) = 55.64995 59.62521 57.63758
# Shear Modulus (GPa) = 20.75936 24.49801 22.62869
#
# Velocity S-wave (km/s) = 3.25018 3.53074 3.39336
# Velocity P-wave (km/s) = 6.51177 6.85293 6.68453
#
# Compressibility (1/GPa) = 0.01796947
#
# Stress axis : x y z
#
# Youngs Moduli (GPa) = 42.66348 50.86408 89.39114
#
# Poissons Ratio (x) = 0.47831 0.60951
# Poissons Ratio (y) = 0.40119 0.17309
# Poissons Ratio (z) = 0.29090 0.09849
#
# Static dielectric constant tensor:
#      x y z
#    x 3.411110 0.000000 0.000000 
#    y 0.000000 3.590070 0.000000 
#    z 0.000000 0.000000 3.753140 
# 
# 
# High freq. dielectric constant tensor:
#      x y z
#    x 1.749480 0.000000 0.000000 
#    y 0.000000 1.763660 0.000000 
#    z 0.000000 0.000000 1.783780 
# 
# From -- ./inp_files/38170.got.cif
#   From: 2010.03.12/outbox.cif.g09.slc.cpg/sg53_20_cif.got.tgz:38170.got - 2010.04.16 14:36:59.
