data_PCOD8219998
_publ_section_title
;
Structure prediction by ZEFSAII (Michael W. Deem and Ramdas Pophale) SiO2 
 PCOD8219998
Probable space group: P M N A
;
_chemical_formula_sum "Si O2"
_cell_formula_units_Z 48
_cell_length_a 9.459672
_cell_length_b 7.934708
_cell_length_c 34.577466
_cell_angle_alpha 90.000000
_cell_angle_beta 90.000000
_cell_angle_gamma 90.000000
_cell_volume 2595.375438
_symmetry_space_group_name_H-M "P M N A"
_symmetry_group_IT_number 53
_symmetry_cell_setting 'orthorhombic'
loop_
_space_group_symop_operation_xyz
x,y,z
1/2-x,-y,1/2+z
x,-y,-z
1/2-x,y,1/2-z
-x,-y,-z
1/2+x,y,1/2-z
-x,y,z
1/2+x,-y,1/2+z
loop_
_atom_site_type_symbol
_atom_site_label
_atom_site_fract_x
_atom_site_fract_y
_atom_site_fract_z
Si Si1 0.163689 0.049052 0.711577
Si Si2 0.665202 0.259746 0.157006
Si Si3 0.665089 0.209432 0.419635
Si Si4 0.663240 0.569401 0.211737
Si Si5 0.653133 0.688442 0.991009
Si Si6 0.652195 0.112591 0.538164
O O1 0.250000 0.009386 0.750000
O O2 0.207331 0.910212 0.679932
O O3 0.000000 0.028722 0.722290
O O4 0.195876 0.239949 0.696452
O O5 0.500000 0.257006 0.145843
O O6 0.760181 0.268071 0.119178
O O7 0.704230 0.429936 0.180089
O O8 0.500000 0.260542 0.418941
O O9 0.740137 0.300910 0.455376
O O10 0.683223 0.007447 0.425071
O O11 0.750000 0.528886 0.250000
O O12 0.500000 0.551870 0.223024
O O13 0.500000 0.777442 0.982592
O O14 0.619178 0.500000 0.000000
O O15 0.720943 0.758481 0.031034
O O16 0.500000 0.204333 0.544126
O O17 0.643088 0.000000 0.500000
#
# Coordination Sequence:
#
# PCOD8219998 Si02
#       6
#     8   8   8   8   8   8
#     4   9  18  33  53  77 103 136 175 216 262 311
#     4  10  20  34  52  75 108 143 173 216 269 313
#     4  10  21  36  53  75 104 137 173 215 262 313
#     4   9  18  33  53  77 105 137 177 219 261 314
#     4  10  20  34  54  80 104 132 172 213 257 313
#     4   8  16  32  52  72  97 129 166 208 251 298
#
# _framework density 18.494434999999999
#
# number of rings (size 3 to 8) (size 9 to 14) (size 15 to 20)
#    0.000    2.667    0.000    2.500    0.000    6.333 
#    3.000    0.000    0.000    0.000    0.000    0.000 
#    0.000    0.000    0.000    0.000    0.000    0.000 
#
# Total GULP energy -594822.731918 kJ/mol
# GULP energy per Si atom -12392.140248 kJ/mol
# Density = 1.845234 g / cm^3
# Si number density = 18.494435 Si / 1000 Ang^3
#
#
#
# Elastic Constant Matrix: (Units=GPa)
#
#
# Indices 1 2 3 4 5 6 
#
# 1 103.9355 40.5945 45.7307 0.0000 0.0000 0.0000
# 2 40.5945 86.0036 33.4710 0.0000 0.0000 0.0000
# 3 45.7307 33.4710 74.7196 0.0000 0.0000 0.0000
# 4 0.0000 0.0000 0.0000 19.8375 0.0000 0.0000
# 5 0.0000 0.0000 0.0000 0.0000 -106.8944 0.0000
# 6 0.0000 0.0000 0.0000 0.0000 0.0000 28.7175
#
#
#
# Elastic Compliance Matrix: (Units=1/GPa)
#
#
# Indices 1 2 3 4 5 6 
#
# 1 0.014234 -0.004031 -0.006906 0.000000 0.000000 0.000000
# 2 -0.004031 0.015224 -0.004353 0.000000 0.000000 0.000000
# 3 -0.006906 -0.004353 0.019560 0.000000 0.000000 0.000000
# 4 0.000000 0.000000 0.000000 0.050410 0.000000 0.000000
# 5 0.000000 0.000000 0.000000 0.000000 -0.009355 0.000000
# 6 0.000000 0.000000 0.000000 0.000000 0.000000 0.034822
#
#
# Mechanical properties :
#
#
# Convention : Reuss Voigt Hill
#
# Bulk Modulus (GPa) = 54.23339 56.02790 55.13064
# Shear Modulus (GPa) = 30.93660 -2.01040 14.46310
#
# Velocity S-wave (km/s) = 4.09437 -1.04374 2.79950
# Velocity P-wave (km/s) = 7.19302 5.37659 6.35009
#
# Compressibility (1/GPa) = 0.01843883
#
# Stress axis : x y z
#
# Youngs Moduli (GPa) = 70.25225 65.68562 51.12489
#
# Poissons Ratio (x) = 0.26478 0.35308
# Poissons Ratio (y) = 0.28319 0.22252
# Poissons Ratio (z) = 0.48518 0.28590
#
# Static dielectric constant tensor:
#      x y z
#    x 3.661870 0.000000 0.000000 
#    y 0.000000 3.570510 0.000000 
#    z 0.000000 0.000000 3.218500 
# 
# 
# High freq. dielectric constant tensor:
#      x y z
#    x 1.730430 0.000000 0.000000 
#    y 0.000000 1.716080 0.000000 
#    z 0.000000 0.000000 1.691100 
# 
# From -- ./inp_files/37774.got.cif
#   From: 2010.03.12/outbox.cif.g09.slc.cpg/sg53_19_cif.got.tgz:37774.got - 2010.04.16 14:36:59.
