data_PCOD8219826
_publ_section_title
;
Structure prediction by ZEFSAII (Michael W. Deem and Ramdas Pophale) SiO2 
 PCOD8219826
Probable space group: P M N A
;
_chemical_formula_sum "Si O2"
_cell_formula_units_Z 48
_cell_length_a 8.821555
_cell_length_b 31.227011
_cell_length_c 9.067790
_cell_angle_alpha 90.000000
_cell_angle_beta 90.000000
_cell_angle_gamma 90.000000
_cell_volume 2497.911320
_symmetry_space_group_name_H-M "P M N A"
_symmetry_group_IT_number 53
_symmetry_cell_setting 'orthorhombic'
loop_
_space_group_symop_operation_xyz
x,y,z
1/2-x,-y,1/2+z
x,-y,-z
1/2-x,y,1/2-z
-x,-y,-z
1/2+x,y,1/2-z
-x,y,z
1/2+x,-y,1/2+z
loop_
_atom_site_type_symbol
_atom_site_label
_atom_site_fract_x
_atom_site_fract_y
_atom_site_fract_z
Si Si1 0.676620 0.781279 0.591513
Si Si2 0.679823 0.700258 0.409745
Si Si3 0.679225 0.375781 0.091407
Si Si4 0.679077 0.958580 0.910628
Si Si5 0.677781 0.459670 0.909022
Si Si6 0.177866 0.875308 0.909947
O O1 0.750000 0.773153 0.750000
O O2 0.500000 0.776716 0.621615
O O3 0.731102 0.746466 0.472564
O O4 0.713731 0.828365 0.521734
O O5 0.750000 0.693411 0.250000
O O6 0.500000 0.695624 0.398600
O O7 0.744403 0.665508 0.520985
O O8 0.750000 0.384009 0.250000
O O9 0.500000 0.368739 0.104396
O O10 0.721563 0.416452 0.992795
O O11 0.750000 0.962593 0.750000
O O12 0.500000 0.955362 0.899266
O O13 0.743010 0.915537 0.993291
O O14 0.732298 0.000000 0.000000
O O15 0.750000 0.458494 0.750000
O O16 0.500000 0.464529 0.888403
O O17 0.743115 0.500000 0.000000
O O18 0.250000 0.874455 0.750000
O O19 0.000000 0.884117 0.900864
#
# Coordination Sequence:
#
# PCOD8219826 Si02
#       6
#     8   8   8   8   8   8
#     4   9  19  34  54  79 104 133 172 217 262 314
#     4  11  23  39  57  80 112 147 183 223 272 326
#     4  11  23  39  60  86 114 146 187 231 276 326
#     4  10  20  33  50  74 102 133 171 212 257 310
#     4  10  22  39  59  85 116 150 188 230 277 328
#     4   9  16  29  50  74 100 131 169 212 259 309
#
# _framework density 19.216055000000001
#
# number of rings (size 3 to 8) (size 9 to 14) (size 15 to 20)
#    0.000    2.000    0.000    4.500    0.000    7.667 
#    0.000    0.833    0.000    4.000    0.000    0.000 
#    0.000    0.000    0.000    0.000    0.000    0.000 
#
# Total GULP energy -595055.043695 kJ/mol
# GULP energy per Si atom -12396.980077 kJ/mol
# Density = 1.917232 g / cm^3
# Si number density = 19.216055 Si / 1000 Ang^3
#
#
#
# Elastic Constant Matrix: (Units=GPa)
#
#
# Indices 1 2 3 4 5 6 
#
# 1 72.3578 60.2675 40.2171 0.0000 0.0000 0.0000
# 2 60.2675 172.9797 61.2010 0.0000 0.0000 0.0000
# 3 40.2171 61.2010 109.5928 0.0000 0.0000 0.0000
# 4 0.0000 0.0000 0.0000 40.4220 0.0000 0.0000
# 5 0.0000 0.0000 0.0000 0.0000 26.5225 0.0000
# 6 0.0000 0.0000 0.0000 0.0000 0.0000 30.5048
#
#
#
# Elastic Compliance Matrix: (Units=1/GPa)
#
#
# Indices 1 2 3 4 5 6 
#
# 1 0.021141 -0.005759 -0.004542 0.000000 0.000000 0.000000
# 2 -0.005759 0.008773 -0.002786 0.000000 0.000000 0.000000
# 3 -0.004542 -0.002786 0.012347 0.000000 0.000000 0.000000
# 4 0.000000 0.000000 0.000000 0.024739 0.000000 0.000000
# 5 0.000000 0.000000 0.000000 0.000000 0.037704 0.000000
# 6 0.000000 0.000000 0.000000 0.000000 0.000000 0.032782
#
#
# Mechanical properties :
#
#
# Convention : Reuss Voigt Hill
#
# Bulk Modulus (GPa) = 62.15890 75.36682 68.76286
# Shear Modulus (GPa) = 29.58177 32.37284 30.97731
#
# Velocity S-wave (km/s) = 3.92781 4.10893 4.01939
# Velocity P-wave (km/s) = 7.27928 7.86238 7.57644
#
# Compressibility (1/GPa) = 0.01608780
#
# Stress axis : x y z
#
# Youngs Moduli (GPa) = 47.30067 113.98478 80.98886
#
# Poissons Ratio (x) = 0.65641 0.36788
# Poissons Ratio (y) = 0.27239 0.22563
# Poissons Ratio (z) = 0.21485 0.31756
#
# Static dielectric constant tensor:
#      x y z
#    x 3.598430 0.000000 0.000000 
#    y 0.000000 4.524120 0.000000 
#    z 0.000000 0.000000 3.380710 
# 
# 
# High freq. dielectric constant tensor:
#      x y z
#    x 1.755450 0.000000 0.000000 
#    y 0.000000 1.777570 0.000000 
#    z 0.000000 0.000000 1.723820 
# 
# From -- ./inp_files/6621.got.cif
#   From: 2010.03.12/outbox.cif.g09.slc.cpg/sg53_4_cif.got.tgz:6621.got - 2010.04.16 14:36:59.
