data_PCOD8219536
_publ_section_title
;
Structure prediction by ZEFSAII (Michael W. Deem and Ramdas Pophale) SiO2 
 PCOD8219536
Probable space group: P M N A
;
_chemical_formula_sum "Si O2"
_cell_formula_units_Z 56
_cell_length_a 18.595061
_cell_length_b 16.351231
_cell_length_c 9.989309
_cell_angle_alpha 90.000000
_cell_angle_beta 90.000000
_cell_angle_gamma 90.000000
_cell_volume 3037.270757
_symmetry_space_group_name_H-M "P M N A"
_symmetry_group_IT_number 53
_symmetry_cell_setting 'orthorhombic'
loop_
_space_group_symop_operation_xyz
x,y,z
1/2-x,-y,1/2+z
x,-y,-z
1/2-x,y,1/2-z
-x,-y,-z
1/2+x,y,1/2-z
-x,y,z
1/2+x,-y,1/2+z
loop_
_atom_site_type_symbol
_atom_site_label
_atom_site_fract_x
_atom_site_fract_y
_atom_site_fract_z
Si Si1 0.164289 0.067605 0.101045
Si Si2 0.166754 0.251834 0.467860
Si Si3 0.664797 0.930740 0.901927
Si Si4 0.917996 0.518587 0.147100
Si Si5 0.165703 0.753502 0.979033
Si Si6 0.582369 0.340959 0.262226
Si Si7 0.667841 0.329473 0.749918
O O1 0.249774 0.063514 0.098402
O O2 0.135455 0.053150 0.251809
O O3 0.137839 0.155840 0.052025
O O4 0.131751 0.000000 0.000000
O O5 0.140397 0.158204 0.454380
O O6 0.251390 0.257937 0.436303
O O7 0.125985 0.307432 0.362443
O O8 0.145734 0.285413 0.613115
O O9 0.632234 0.000000 0.000000
O O10 0.912488 0.438867 0.240099
O O11 0.877789 0.589705 0.225670
O O12 0.000000 0.547160 0.126981
O O13 0.884338 0.500000 0.000000
O O14 0.155188 0.738184 0.135959
O O15 0.116656 0.689723 0.900323
O O16 0.500000 0.311557 0.254099
O O17 0.750000 0.358441 0.750000
#
# Coordination Sequence:
#
# PCOD8219536 Si02
#       7
#     8   8   8   8   8   8   8
#     4   9  17  28  49  80 109 143 180 220 263 319
#     4  10  21  36  54  84 117 144 178 230 282 325
#     4   9  17  29  48  78 113 144 175 217 274 322
#     4  10  21  39  59  79 107 144 189 232 270 326
#     4  10  19  36  57  81 114 148 183 224 273 331
#     4  11  22  37  59  81 104 146 191 228 270 327
#     4  10  22  36  55  85 114 144 181 229 284 334
#
# _framework density 18.437605000000001
#
# number of rings (size 3 to 8) (size 9 to 14) (size 15 to 20)
#    0.000    2.143    2.857    0.429    2.000    2.286 
#    0.000    1.429    0.000    0.857    0.000    0.000 
#    0.000    0.000    0.000    0.000    0.000    0.000 
#
# Total GULP energy -694457.108401 kJ/mol
# GULP energy per Si atom -12401.019793 kJ/mol
# Density = 1.839564 g / cm^3
# Si number density = 18.437605 Si / 1000 Ang^3
#
#
#
# Elastic Constant Matrix: (Units=GPa)
#
#
# Indices 1 2 3 4 5 6 
#
# 1 41.6174 32.7130 36.1957 0.0000 0.0000 0.0000
# 2 32.7130 127.3000 71.7718 0.0000 0.0000 0.0000
# 3 36.1957 71.7718 144.5275 0.0000 0.0000 0.0000
# 4 0.0000 0.0000 0.0000 39.9739 0.0000 0.0000
# 5 0.0000 0.0000 0.0000 0.0000 13.3890 0.0000
# 6 0.0000 0.0000 0.0000 0.0000 0.0000 -1.2866
#
#
#
# Elastic Compliance Matrix: (Units=1/GPa)
#
#
# Indices 1 2 3 4 5 6 
#
# 1 0.033132 -0.005327 -0.005652 0.000000 0.000000 0.000000
# 2 -0.005327 0.011767 -0.004509 0.000000 0.000000 0.000000
# 3 -0.005652 -0.004509 0.010574 0.000000 0.000000 0.000000
# 4 0.000000 0.000000 0.000000 0.025016 0.000000 0.000000
# 5 0.000000 0.000000 0.000000 0.000000 0.074688 0.000000
# 6 0.000000 0.000000 0.000000 0.000000 0.000000 -0.777225
#
#
# Mechanical properties :
#
#
# Convention : Reuss Voigt Hill
#
# Bulk Modulus (GPa) = 40.82441 66.08956 53.45698
# Shear Modulus (GPa) = -8.57772 21.93287 6.67757
#
# Velocity S-wave (km/s) = -2.15926 3.45276 1.90514
# Velocity P-wave (km/s) = 3.99668 7.19849 5.82201
#
# Compressibility (1/GPa) = 0.02449515
#
# Stress axis : x y z
#
# Youngs Moduli (GPa) = 30.18259 84.98550 94.57361
#
# Poissons Ratio (x) = 0.45276 0.53453
# Poissons Ratio (y) = 0.16080 0.42644
# Poissons Ratio (z) = 0.17059 0.38321
#
# Static dielectric constant tensor:
#      x y z
#    x 3.091220 0.000000 0.000000 
#    y 0.000000 3.497870 0.000000 
#    z 0.000000 0.000000 3.597650 
# 
# 
# High freq. dielectric constant tensor:
#      x y z
#    x 1.674650 0.000000 0.000000 
#    y 0.000000 1.724360 0.000000 
#    z 0.000000 0.000000 1.727120 
# 
# From -- ./inp_files/11058.got.cif
#   From: 2010.03.12/outbox.cif.g09.slc.cpg/sg53_6_cif.got.tgz:11058.got - 2010.04.16 14:36:59.
