data_PCOD8219061
_publ_section_title
;
Structure prediction by ZEFSAII (Michael W. Deem and Ramdas Pophale) SiO2 
 PCOD8219061
Probable space group: P M N A
;
_chemical_formula_sum "Si O2"
_cell_formula_units_Z 56
_cell_length_a 14.274880
_cell_length_b 9.417768
_cell_length_c 21.707942
_cell_angle_alpha 90.000000
_cell_angle_beta 90.000000
_cell_angle_gamma 90.000000
_cell_volume 2918.361628
_symmetry_space_group_name_H-M "P M N A"
_symmetry_group_IT_number 53
_symmetry_cell_setting 'orthorhombic'
loop_
_space_group_symop_operation_xyz
x,y,z
1/2-x,-y,1/2+z
x,-y,-z
1/2-x,y,1/2-z
-x,-y,-z
1/2+x,y,1/2-z
-x,y,z
1/2+x,-y,1/2+z
loop_
_atom_site_type_symbol
_atom_site_label
_atom_site_fract_x
_atom_site_fract_y
_atom_site_fract_z
Si Si1 0.605218 0.160785 0.477226
Si Si2 0.105203 0.044503 0.386172
Si Si3 0.608076 0.274177 0.898662
Si Si4 0.801792 0.259301 0.474747
Si Si5 0.900605 0.315006 0.145220
Si Si6 0.849689 0.225715 0.272980
Si Si7 0.289619 0.456415 0.135713
O O1 0.500000 0.215584 0.497158
O O2 0.695460 0.247407 0.503643
O O3 0.618052 0.185705 0.403244
O O4 0.615131 0.000000 0.500000
O O5 0.175501 0.118228 0.434547
O O6 0.105346 0.112388 0.318563
O O7 0.000000 0.053283 0.413378
O O8 0.135763 0.882378 0.376231
O O9 0.500000 0.312419 0.884684
O O10 0.676588 0.381380 0.862142
O O11 0.623975 0.281054 0.971668
O O12 0.815908 0.394894 0.431148
O O13 0.911997 0.246007 0.212580
O O14 0.822242 0.437593 0.143891
O O15 0.000000 0.388515 0.129091
O O16 0.750000 0.168449 0.250000
O O17 0.841039 0.374762 0.309166
#
# Coordination Sequence:
#
# PCOD8219061 Si02
#       7
#     8   8   8   8   8   8   8
#     4   9  17  30  51  79 106 131 164 212 266 311
#     4  10  20  33  52  79 107 136 172 215 262 308
#     4  11  22  34  50  75 108 141 171 212 266 313
#     4  10  19  33  53  75 103 140 179 213 251 311
#     4   9  17  32  55  77  99 133 176 216 255 309
#     4   9  18  34  55  77 101 135 176 212 251 306
#     4   9  20  34  49  74 104 135 174 215 255 302
#
# _framework density 19.188849000000001
#
# number of rings (size 3 to 8) (size 9 to 14) (size 15 to 20)
#    0.000    2.429    0.000    3.429    0.000    5.143 
#    0.000    2.857    0.000    4.286    0.000    0.000 
#    0.000    0.000    0.000    0.000    0.000    0.000 
#
# Total GULP energy -693855.107638 kJ/mol
# GULP energy per Si atom -12390.269779 kJ/mol
# Density = 1.914517 g / cm^3
# Si number density = 19.188849 Si / 1000 Ang^3
#
#
#
# Elastic Constant Matrix: (Units=GPa)
#
#
# Indices 1 2 3 4 5 6 
#
# 1 91.0655 43.0398 16.8389 0.0000 0.0000 0.0000
# 2 43.0398 96.6574 27.5614 0.0000 0.0000 0.0000
# 3 16.8389 27.5614 70.5374 0.0000 0.0000 0.0000
# 4 0.0000 0.0000 0.0000 9.3881 0.0000 0.0000
# 5 0.0000 0.0000 0.0000 0.0000 22.0834 0.0000
# 6 0.0000 0.0000 0.0000 0.0000 0.0000 16.0751
#
#
#
# Elastic Compliance Matrix: (Units=1/GPa)
#
#
# Indices 1 2 3 4 5 6 
#
# 1 0.013973 -0.005932 -0.001018 0.000000 0.000000 0.000000
# 2 -0.005932 0.014161 -0.004117 0.000000 0.000000 0.000000
# 3 -0.001018 -0.004117 0.016029 0.000000 0.000000 0.000000
# 4 0.000000 0.000000 0.000000 0.106518 0.000000 0.000000
# 5 0.000000 0.000000 0.000000 0.000000 0.045283 0.000000
# 6 0.000000 0.000000 0.000000 0.000000 0.000000 0.062208
#
#
# Mechanical properties :
#
#
# Convention : Reuss Voigt Hill
#
# Bulk Modulus (GPa) = 45.39477 48.12673 46.76075
# Shear Modulus (GPa) = 17.38238 20.89732 19.13985
#
# Velocity S-wave (km/s) = 3.01301 3.30363 3.16166
# Velocity P-wave (km/s) = 5.98436 6.29976 6.14408
#
# Compressibility (1/GPa) = 0.02202897
#
# Stress axis : x y z
#
# Youngs Moduli (GPa) = 71.56794 70.61626 62.38839
#
# Poissons Ratio (x) = 0.41886 0.06351
# Poissons Ratio (y) = 0.42451 0.25687
# Poissons Ratio (z) = 0.07285 0.29074
#
# Static dielectric constant tensor:
#      x y z
#    x 3.801670 0.000000 0.000000 
#    y 0.000000 3.221960 0.000000 
#    z 0.000000 0.000000 3.528000 
# 
# 
# High freq. dielectric constant tensor:
#      x y z
#    x 1.764870 0.000000 0.000000 
#    y 0.000000 1.713100 0.000000 
#    z 0.000000 0.000000 1.736700 
# 
# From -- ./inp_files/32483.got.cif
#   From: 2010.03.12/outbox.cif.g09.slc.cpg/sg53_17_cif.got.tgz:32483.got - 2010.04.16 14:36:59.
