data_PCOD8219825
_publ_section_title
;
Structure prediction by ZEFSAII (Michael W. Deem and Ramdas Pophale) SiO2 
 PCOD8219825
Probable space group: P M N A
;
_chemical_formula_sum "Si O2"
_cell_formula_units_Z 56
_cell_length_a 9.074419
_cell_length_b 17.813793
_cell_length_c 19.466314
_cell_angle_alpha 90.000000
_cell_angle_beta 90.000000
_cell_angle_gamma 90.000000
_cell_volume 3146.726187
_symmetry_space_group_name_H-M "P M N A"
_symmetry_group_IT_number 53
_symmetry_cell_setting 'orthorhombic'
loop_
_space_group_symop_operation_xyz
x,y,z
1/2-x,-y,1/2+z
x,-y,-z
1/2-x,y,1/2-z
-x,-y,-z
1/2+x,y,1/2-z
-x,y,z
1/2+x,-y,1/2+z
loop_
_atom_site_type_symbol
_atom_site_label
_atom_site_fract_x
_atom_site_fract_y
_atom_site_fract_z
Si Si1 0.827163 0.157235 0.576331
Si Si2 0.168735 0.143973 0.065481
Si Si3 0.665109 0.006181 0.081889
Si Si4 0.170796 0.410073 0.318693
Si Si5 0.326868 0.583466 0.180086
Si Si6 0.164789 0.308280 0.078994
Si Si7 0.829017 0.303831 0.916752
O O1 0.778051 0.150943 0.497970
O O2 0.736891 0.224945 0.611909
O O3 0.000000 0.175955 0.578798
O O4 0.794338 0.076406 0.612784
O O5 0.223867 0.071370 0.109414
O O6 0.180624 0.222456 0.107055
O O7 0.000000 0.131690 0.041034
O O8 0.500000 0.028380 0.104104
O O9 0.677446 0.000000 0.000000
O O10 0.250000 0.381294 0.250000
O O11 0.208836 0.496468 0.333634
O O12 0.220555 0.361854 0.383748
O O13 0.000000 0.397390 0.306859
O O14 0.250000 0.610963 0.250000
O O15 0.500000 0.599146 0.185451
O O16 0.258042 0.627723 0.116695
O O17 0.000000 0.337933 0.093879
O O18 0.196388 0.309909 0.997950
O O19 0.000000 0.307622 0.896754
#
# Coordination Sequence:
#
# PCOD8219825 Si02
#       7
#     8   8   8   8   8   8   8
#     4   9  16  26  40  61  92 127 161 199 241 285
#     4   9  16  25  39  62  92 126 161 198 240 285
#     4   8  14  23  36  57  87 124 161 196 237 282
#     4  10  21  36  55  75  96 126 163 202 244 291
#     4  10  21  37  55  75  98 126 162 202 243 291
#     4   9  19  33  48  71 103 133 163 201 245 290
#     4  10  20  33  50  74 102 132 164 201 246 290
#
# _framework density 17.796272999999999
#
# number of rings (size 3 to 8) (size 9 to 14) (size 15 to 20)
#    0.000    2.714    0.000    3.857    0.000    8.857 
#    0.000    2.857    0.000    0.000    0.000    1.000 
#    0.000    2.286    0.000    0.000    0.000    0.000 
#
# Total GULP energy -694043.709056 kJ/mol
# GULP energy per Si atom -12393.637662 kJ/mol
# Density = 1.775577 g / cm^3
# Si number density = 17.796273 Si / 1000 Ang^3
#
#
#
# Elastic Constant Matrix: (Units=GPa)
#
#
# Indices 1 2 3 4 5 6 
#
# 1 99.4982 65.2332 30.7186 0.0000 0.0000 0.0000
# 2 65.2332 114.2272 39.2845 0.0000 0.0000 0.0000
# 3 30.7186 39.2845 36.7304 0.0000 0.0000 0.0000
# 4 0.0000 0.0000 0.0000 1.9018 0.0000 0.0000
# 5 0.0000 0.0000 0.0000 0.0000 24.2644 0.0000
# 6 0.0000 0.0000 0.0000 0.0000 0.0000 37.5582
#
#
#
# Elastic Compliance Matrix: (Units=1/GPa)
#
#
# Indices 1 2 3 4 5 6 
#
# 1 0.016866 -0.007563 -0.006017 0.000000 0.000000 0.000000
# 2 -0.007563 0.017239 -0.012113 0.000000 0.000000 0.000000
# 3 -0.006017 -0.012113 0.045213 0.000000 0.000000 0.000000
# 4 0.000000 0.000000 0.000000 0.525808 0.000000 0.000000
# 5 0.000000 0.000000 0.000000 0.000000 0.041213 0.000000
# 6 0.000000 0.000000 0.000000 0.000000 0.000000 0.026625
#
#
# Mechanical properties :
#
#
# Convention : Reuss Voigt Hill
#
# Bulk Modulus (GPa) = 35.80023 57.88092 46.84058
# Shear Modulus (GPa) = 6.81512 20.42619 13.62066
#
# Velocity S-wave (km/s) = 1.95904 3.39156 2.76953
# Velocity P-wave (km/s) = 5.02767 6.92327 6.05017
#
# Compressibility (1/GPa) = 0.02793278
#
# Stress axis : x y z
#
# Youngs Moduli (GPa) = 59.28932 58.00691 22.11738
#
# Poissons Ratio (x) = 0.43869 0.13309
# Poissons Ratio (y) = 0.44839 0.26791
# Poissons Ratio (z) = 0.35676 0.70265
#
# Static dielectric constant tensor:
#      x y z
#    x 3.422870 0.000000 0.000000 
#    y 0.000000 3.899300 0.000000 
#    z 0.000000 0.000000 2.737020 
# 
# 
# High freq. dielectric constant tensor:
#      x y z
#    x 1.703370 0.000000 0.000000 
#    y 0.000000 1.708090 0.000000 
#    z 0.000000 0.000000 1.620300 
# 
# From -- ./inp_files/31010.got.cif
#   From: 2010.03.12/outbox.cif.g09.slc.cpg/sg53_16_cif.got.tgz:31010.got - 2010.04.16 14:36:59.
