data_PCOD8219226
_publ_section_title
;
Structure prediction by ZEFSAII (Michael W. Deem and Ramdas Pophale) SiO2 
 PCOD8219226
Probable space group: P M N A
;
_chemical_formula_sum "Si O2"
_cell_formula_units_Z 64
_cell_length_a 17.268575
_cell_length_b 14.829723
_cell_length_c 12.340259
_cell_angle_alpha 90.000000
_cell_angle_beta 90.000000
_cell_angle_gamma 90.000000
_cell_volume 3160.194516
_symmetry_space_group_name_H-M "P M N A"
_symmetry_group_IT_number 53
_symmetry_cell_setting 'orthorhombic'
loop_
_space_group_symop_operation_xyz
x,y,z
1/2-x,-y,1/2+z
x,-y,-z
1/2-x,y,1/2-z
-x,-y,-z
1/2+x,y,1/2-z
-x,y,z
1/2+x,-y,1/2+z
loop_
_atom_site_type_symbol
_atom_site_label
_atom_site_fract_x
_atom_site_fract_y
_atom_site_fract_z
Si Si1 0.848280 0.171668 0.614148
Si Si2 0.090530 0.817098 0.619704
Si Si3 0.408194 0.682823 0.696850
Si Si4 0.301226 0.068257 0.582672
Si Si5 0.587825 0.992577 0.230792
Si Si6 0.587591 0.691344 0.276725
Si Si7 0.592333 0.507373 0.376547
Si Si8 0.586432 0.796498 0.498439
O O1 0.861649 0.195900 0.489516
O O2 0.760125 0.138421 0.631962
O O3 0.907038 0.092175 0.649040
O O4 0.860481 0.262430 0.684046
O O5 0.122451 0.738806 0.700018
O O6 0.000000 0.804380 0.595696
O O7 0.107177 0.915040 0.669588
O O8 0.500000 0.684721 0.696957
O O9 0.379965 0.578977 0.694166
O O10 0.378018 0.727838 0.585783
O O11 0.347087 0.018488 0.678146
O O12 0.362550 0.114704 0.502752
O O13 0.257659 0.000000 0.500000
O O14 0.500000 0.994672 0.277794
O O15 0.500000 0.679233 0.232364
O O16 0.624067 0.595370 0.313233
O O17 0.586973 0.755781 0.379475
O O18 0.624451 0.500000 0.500000
O O19 0.500000 0.515277 0.383541
O O20 0.500000 0.824322 0.533945
#
# Coordination Sequence:
#
# PCOD8219226 Si02
#       8
#     8   8   8   8   8   8   8   8
#     4  12  24  39  55  81 120 163 204 234 279 352
#     4  10  21  37  58  83 117 161 199 234 280 347
#     4   9  17  32  56  89 122 147 187 244 297 348
#     4  12  25  38  56  86 119 156 198 249 297 345
#     4  11  22  38  60  84 114 152 199 250 295 345
#     4  10  19  33  58  90 119 151 192 243 296 347
#     4   9  15  28  55  93 125 145 182 244 306 353
#     4  10  19  34  58  90 120 147 189 248 308 348
#
# _framework density 20.251918
#
# number of rings (size 3 to 8) (size 9 to 14) (size 15 to 20)
#    0.000    1.625    2.500    3.750    0.000    3.000 
#    0.000    2.500    0.000    3.000    9.750    0.000 
#    0.000    0.000    0.000    0.000    0.000    0.000 
#
# Total GULP energy -793458.842302 kJ/mol
# GULP energy per Si atom -12397.794411 kJ/mol
# Density = 2.020582 g / cm^3
# Si number density = 20.251918 Si / 1000 Ang^3
#
#
#
# Elastic Constant Matrix: (Units=GPa)
#
#
# Indices 1 2 3 4 5 6 
#
# 1 56.1816 25.1603 47.5204 0.0000 0.0000 0.0000
# 2 25.1603 141.1560 69.5403 0.0000 0.0000 0.0000
# 3 47.5204 69.5403 126.9075 0.0000 0.0000 0.0000
# 4 0.0000 0.0000 0.0000 34.6648 0.0000 0.0000
# 5 0.0000 0.0000 0.0000 0.0000 12.6670 0.0000
# 6 0.0000 0.0000 0.0000 0.0000 0.0000 12.1131
#
#
#
# Elastic Compliance Matrix: (Units=1/GPa)
#
#
# Indices 1 2 3 4 5 6 
#
# 1 0.026055 0.000222 -0.009878 0.000000 0.000000 0.000000
# 2 0.000222 0.009706 -0.005402 0.000000 0.000000 0.000000
# 3 -0.009878 -0.005402 0.014538 0.000000 0.000000 0.000000
# 4 0.000000 0.000000 0.000000 0.028848 0.000000 0.000000
# 5 0.000000 0.000000 0.000000 0.000000 0.078945 0.000000
# 6 0.000000 0.000000 0.000000 0.000000 0.000000 0.082555
#
#
# Mechanical properties :
#
#
# Convention : Reuss Voigt Hill
#
# Bulk Modulus (GPa) = 49.54303 67.63194 58.58748
# Shear Modulus (GPa) = 18.01861 24.02393 21.02127
#
# Velocity S-wave (km/s) = 2.98606 3.44794 3.22528
# Velocity P-wave (km/s) = 6.03367 7.02274 6.54691
#
# Compressibility (1/GPa) = 0.02018448
#
# Stress axis : x y z
#
# Youngs Moduli (GPa) = 38.38010 103.03054 68.78289
#
# Poissons Ratio (x) = -0.02290 0.67945
# Poissons Ratio (y) = -0.00853 0.37154
# Poissons Ratio (z) = 0.37912 0.55653
#
# Static dielectric constant tensor:
#      x y z
#    x 3.373220 0.000000 0.000000 
#    y 0.000000 3.928270 0.000000 
#    z 0.000000 0.000000 3.669660 
# 
# 
# High freq. dielectric constant tensor:
#      x y z
#    x 1.752980 0.000000 0.000000 
#    y 0.000000 1.792230 0.000000 
#    z 0.000000 0.000000 1.792310 
# 
# From -- ./inp_files/17117.got.cif
#   From: 2010.03.12/outbox.cif.g09.slc.cpg/sg53_9_cif.got.tgz:17117.got - 2010.04.16 14:36:59.
