data_PCOD8219593
_publ_section_title
;
Structure prediction by ZEFSAII (Michael W. Deem and Ramdas Pophale) SiO2 
 PCOD8219593
Probable space group: P M N A
;
_chemical_formula_sum "Si O2"
_cell_formula_units_Z 48
_cell_length_a 14.876083
_cell_length_b 11.038230
_cell_length_c 14.746953
_cell_angle_alpha 90.000000
_cell_angle_beta 90.000000
_cell_angle_gamma 90.000000
_cell_volume 2421.532644
_symmetry_space_group_name_H-M "P M N A"
_symmetry_group_IT_number 53
_symmetry_cell_setting 'orthorhombic'
loop_
_space_group_symop_operation_xyz
x,y,z
1/2-x,-y,1/2+z
x,-y,-z
1/2-x,y,1/2-z
-x,-y,-z
1/2+x,y,1/2-z
-x,y,z
1/2+x,-y,1/2+z
loop_
_atom_site_type_symbol
_atom_site_label
_atom_site_fract_x
_atom_site_fract_y
_atom_site_fract_z
Si Si1 0.396496 0.729208 0.652994
Si Si2 0.104143 0.000423 0.105096
Si Si3 0.251539 0.638099 0.520883
Si Si4 0.603298 0.246260 0.144446
Si Si5 0.243050 0.802963 0.150917
Si Si6 0.398869 0.978891 0.105370
O O1 0.500000 0.710530 0.624479
O O2 0.336765 0.646366 0.587723
O O3 0.380242 0.691455 0.757669
O O4 0.368274 0.868889 0.642735
O O5 0.161255 0.898155 0.155118
O O6 0.000000 0.971127 0.122555
O O7 0.129432 0.000000 0.000000
O O8 0.230546 0.500000 0.500000
O O9 0.163905 0.693555 0.567893
O O10 0.273919 0.704268 0.426550
O O11 0.500000 0.261560 0.113091
O O12 0.626103 0.104065 0.155728
O O13 0.250000 0.739513 0.250000
O O14 0.336176 0.870974 0.135855
O O15 0.500000 0.939480 0.129677
O O16 0.385755 0.000000 0.000000
#
# Coordination Sequence:
#
# PCOD8219593 Si02
#       6
#     8   8   8   8   8   8
#     4  10  21  39  65  93 118 150 193 242 299 358
#     4  10  19  36  63  92 122 152 185 234 302 366
#     4  12  26  42  60  81 117 163 209 249 286 331
#     4  10  21  39  65  93 118 150 193 242 299 358
#     4  12  24  37  57  88 123 158 195 238 296 354
#     4  10  19  36  63  92 122 152 185 234 302 366
#
# _framework density 19.822158000000002
#
# number of rings (size 3 to 8) (size 9 to 14) (size 15 to 20)
#    0.000    1.333    3.333    3.000    0.000    4.000 
#    0.000    0.000    0.000    0.000    0.000    0.000 
#    0.000    0.000    0.000    0.000    0.000    0.000 
#
# Total GULP energy -595332.270619 kJ/mol
# GULP energy per Si atom -12402.755638 kJ/mol
# Density = 1.977704 g / cm^3
# Si number density = 19.822158 Si / 1000 Ang^3
#
#
#
# Elastic Constant Matrix: (Units=GPa)
#
#
# Indices 1 2 3 4 5 6 
#
# 1 81.6499 14.7801 18.5515 0.0000 0.0000 0.0000
# 2 14.7801 57.4207 -9.5958 0.0000 0.0000 0.0000
# 3 18.5515 -9.5958 101.8184 0.0000 0.0000 0.0000
# 4 0.0000 0.0000 0.0000 17.2963 0.0000 0.0000
# 5 0.0000 0.0000 0.0000 0.0000 0.2069 0.0000
# 6 0.0000 0.0000 0.0000 0.0000 0.0000 12.0488
#
#
#
# Elastic Compliance Matrix: (Units=1/GPa)
#
#
# Indices 1 2 3 4 5 6 
#
# 1 0.013617 -0.003982 -0.002856 0.000000 0.000000 0.000000
# 2 -0.003982 0.018859 0.002503 0.000000 0.000000 0.000000
# 3 -0.002856 0.002503 0.010578 0.000000 0.000000 0.000000
# 4 0.000000 0.000000 0.000000 0.057816 0.000000 0.000000
# 5 0.000000 0.000000 0.000000 0.000000 4.833713 0.000000
# 6 0.000000 0.000000 0.000000 0.000000 0.000000 0.082996
#
#
# Mechanical properties :
#
#
# Convention : Reuss Voigt Hill
#
# Bulk Modulus (GPa) = 29.08512 32.04007 30.56259
# Shear Modulus (GPa) = 0.99251 20.38727 10.68989
#
# Velocity S-wave (km/s) = 0.70838 3.21052 2.32478
# Velocity P-wave (km/s) = 3.92096 5.47194 4.76004
#
# Compressibility (1/GPa) = 0.03438185
#
# Stress axis : x y z
#
# Youngs Moduli (GPa) = 73.43595 53.02600 94.53813
#
# Poissons Ratio (x) = 0.21117 0.27004
# Poissons Ratio (y) = 0.29245 -0.23662
# Poissons Ratio (z) = 0.20976 -0.13272
#
# Static dielectric constant tensor:
#      x y z
#    x 3.729160 0.000000 0.000000 
#    y 0.000000 3.252650 0.000000 
#    z 0.000000 0.000000 3.898150 
# 
# 
# High freq. dielectric constant tensor:
#      x y z
#    x 1.785660 0.000000 0.000000 
#    y 0.000000 1.729320 0.000000 
#    z 0.000000 0.000000 1.791880 
# 
# From -- ./inp_files/22709.got.cif
#   From: 2010.03.12/outbox.cif.g09.slc.cpg/sg53_12_cif.got.tgz:22709.got - 2010.04.16 14:36:59.
