data_PCOD8219768
_publ_section_title
;
Structure prediction by ZEFSAII (Michael W. Deem and Ramdas Pophale) SiO2 
 PCOD8219768
Probable space group: P M N A
;
_chemical_formula_sum "Si O2"
_cell_formula_units_Z 56
_cell_length_a 9.287661
_cell_length_b 18.954375
_cell_length_c 18.441701
_cell_angle_alpha 90.000000
_cell_angle_beta 90.000000
_cell_angle_gamma 90.000000
_cell_volume 3246.510414
_symmetry_space_group_name_H-M "P M N A"
_symmetry_group_IT_number 53
_symmetry_cell_setting 'orthorhombic'
loop_
_space_group_symop_operation_xyz
x,y,z
1/2-x,-y,1/2+z
x,-y,-z
1/2-x,y,1/2-z
-x,-y,-z
1/2+x,y,1/2-z
-x,y,z
1/2+x,-y,1/2+z
loop_
_atom_site_type_symbol
_atom_site_label
_atom_site_fract_x
_atom_site_fract_y
_atom_site_fract_z
Si Si1 0.830796 0.457462 0.174918
Si Si2 0.668245 0.792332 0.506859
Si Si3 0.833019 0.356767 0.051269
Si Si4 0.836038 0.262465 0.630721
Si Si5 0.168801 0.390689 0.890248
Si Si6 0.169478 0.922085 0.476318
Si Si7 0.839464 0.885245 0.316268
O O1 0.750000 0.447259 0.250000
O O2 0.766215 0.399405 0.118847
O O3 0.795723 0.532986 0.140521
O O4 0.000000 0.447848 0.188916
O O5 0.500000 0.807964 0.496484
O O6 0.692830 0.727580 0.563431
O O7 0.736237 0.765519 0.433078
O O8 0.748751 0.865360 0.528290
O O9 0.000000 0.375569 0.050250
O O10 0.773874 0.384317 0.973460
O O11 0.760448 0.334619 0.658343
O O12 0.836963 0.200206 0.690159
O O13 0.000000 0.277360 0.604945
O O14 0.000000 0.372198 0.884627
O O15 0.221868 0.911755 0.393473
O O16 0.000000 0.907689 0.483779
O O17 0.213686 0.000000 0.500000
O O18 0.750000 0.918059 0.250000
O O19 0.000000 0.914666 0.307641
#
# Coordination Sequence:
#
# PCOD8219768 Si02
#       7
#     8   8   8   8   8   8   8
#     4  10  20  33  47  65  92 123 157 199 247 292
#     4   9  16  28  49  74  93 113 150 193 229 269
#     4   8  15  30  51  69  87 118 158 197 235 277
#     4   9  17  29  44  65  94 123 150 183 229 280
#     4   9  17  30  49  69  88 118 160 200 236 277
#     4   9  18  33  51  72 100 129 154 186 234 283
#     4   9  18  30  45  66  92 125 157 184 220 270
#
# _framework density 17.249289999999998
#
# number of rings (size 3 to 8) (size 9 to 14) (size 15 to 20)
#    0.000    3.000    0.000    3.000    0.000    6.000 
#    0.000    6.429    0.000    5.143    0.000    6.000 
#    0.000    0.000    0.000    0.000    0.000    0.000 
#
# Total GULP energy -693839.575173 kJ/mol
# GULP energy per Si atom -12389.992414 kJ/mol
# Density = 1.721003 g / cm^3
# Si number density = 17.249290 Si / 1000 Ang^3
#
#
#
# Elastic Constant Matrix: (Units=GPa)
#
#
# Indices 1 2 3 4 5 6 
#
# 1 54.9444 42.9419 23.5121 0.0000 0.0000 0.0000
# 2 42.9419 103.9446 34.2197 0.0000 0.0000 0.0000
# 3 23.5121 34.2197 68.6304 0.0000 0.0000 0.0000
# 4 0.0000 0.0000 0.0000 12.2431 0.0000 0.0000
# 5 0.0000 0.0000 0.0000 0.0000 22.8974 0.0000
# 6 0.0000 0.0000 0.0000 0.0000 0.0000 20.3209
#
#
#
# Elastic Compliance Matrix: (Units=1/GPa)
#
#
# Indices 1 2 3 4 5 6 
#
# 1 0.028033 -0.010073 -0.004581 0.000000 0.000000 0.000000
# 2 -0.010073 0.015129 -0.004093 0.000000 0.000000 0.000000
# 3 -0.004581 -0.004093 0.018181 0.000000 0.000000 0.000000
# 4 0.000000 0.000000 0.000000 0.081678 0.000000 0.000000
# 5 0.000000 0.000000 0.000000 0.000000 0.043673 0.000000
# 6 0.000000 0.000000 0.000000 0.000000 0.000000 0.049210
#
#
# Mechanical properties :
#
#
# Convention : Reuss Voigt Hill
#
# Bulk Modulus (GPa) = 41.92985 47.65185 44.79085
# Shear Modulus (GPa) = 17.77151 19.54867 18.66009
#
# Velocity S-wave (km/s) = 3.21327 3.37011 3.29262
# Velocity P-wave (km/s) = 6.17477 6.54438 6.36226
#
# Compressibility (1/GPa) = 0.02384936
#
# Stress axis : x y z
#
# Youngs Moduli (GPa) = 35.67200 66.09732 55.00250
#
# Poissons Ratio (x) = 0.66579 0.25199
# Poissons Ratio (y) = 0.35932 0.22511
# Poissons Ratio (z) = 0.16343 0.27052
#
# Static dielectric constant tensor:
#      x y z
#    x 3.224210 0.000000 0.000000 
#    y 0.000000 3.636760 0.000000 
#    z 0.000000 0.000000 3.016600 
# 
# 
# High freq. dielectric constant tensor:
#      x y z
#    x 1.656570 0.000000 0.000000 
#    y 0.000000 1.665690 0.000000 
#    z 0.000000 0.000000 1.630340 
# 
# From -- ./inp_files/31062.got.cif
#   From: 2010.03.12/outbox.cif.g09.slc.cpg/sg53_16_cif.got.tgz:31062.got - 2010.04.16 14:36:59.
