data_PCOD8219157
_publ_section_title
;
Structure prediction by ZEFSAII (Michael W. Deem and Ramdas Pophale) SiO2 
 PCOD8219157
Probable space group: P M N A
;
_chemical_formula_sum "Si O2"
_cell_formula_units_Z 48
_cell_length_a 8.790428
_cell_length_b 15.339347
_cell_length_c 17.778215
_cell_angle_alpha 90.000000
_cell_angle_beta 90.000000
_cell_angle_gamma 90.000000
_cell_volume 2397.204295
_symmetry_space_group_name_H-M "P M N A"
_symmetry_group_IT_number 53
_symmetry_cell_setting 'orthorhombic'
loop_
_space_group_symop_operation_xyz
x,y,z
1/2-x,-y,1/2+z
x,-y,-z
1/2-x,y,1/2-z
-x,-y,-z
1/2+x,y,1/2-z
-x,y,z
1/2+x,-y,1/2+z
loop_
_atom_site_type_symbol
_atom_site_label
_atom_site_fract_x
_atom_site_fract_y
_atom_site_fract_z
Si Si1 0.677396 0.136293 0.574868
Si Si2 0.676449 0.525054 0.169007
Si Si3 0.820743 0.304618 0.832220
Si Si4 0.322324 0.332609 0.167901
Si Si5 0.678293 0.170972 0.402940
Si Si6 0.320653 0.990573 0.828152
O O1 0.500000 0.116953 0.588123
O O2 0.729238 0.224470 0.615896
O O3 0.716773 0.143928 0.487554
O O4 0.772960 0.055744 0.605839
O O5 0.750000 0.519838 0.250000
O O6 0.500000 0.547540 0.176122
O O7 0.758248 0.606540 0.127493
O O8 0.701906 0.429737 0.132154
O O9 0.750000 0.291176 0.750000
O O10 0.000000 0.311001 0.824588
O O11 0.250000 0.323595 0.250000
O O12 0.500000 0.310803 0.175046
O O13 0.241418 0.267631 0.110412
O O14 0.500000 0.168948 0.386821
O O15 0.760037 0.105779 0.345626
O O16 0.250000 0.024205 0.750000
O O17 0.500000 0.988213 0.820301
#
# Coordination Sequence:
#
# PCOD8219157 Si02
#       6
#     8   8   8   8   8   8
#     4  10  23  41  59  83 115 150 186 227 278 332
#     4   9  17  30  51  79 110 144 183 231 280 324
#     4  10  19  33  55  82 111 144 185 230 275 327
#     4  10  20  35  56  83 113 146 189 235 279 330
#     4  11  23  40  60  82 114 151 185 227 279 333
#     4  12  25  41  63  88 113 144 184 229 276 329
#
# _framework density 20.023325
#
# number of rings (size 3 to 8) (size 9 to 14) (size 15 to 20)
#    0.000    1.667    0.000    6.000    0.000    8.000 
#    0.000    0.833    0.000    5.000    0.000    0.000 
#    0.000    0.000    0.000    0.000    0.000    0.000 
#
# Total GULP energy -595226.240423 kJ/mol
# GULP energy per Si atom -12400.546675 kJ/mol
# Density = 1.997775 g / cm^3
# Si number density = 20.023325 Si / 1000 Ang^3
#
#
#
# Elastic Constant Matrix: (Units=GPa)
#
#
# Indices 1 2 3 4 5 6 
#
# 1 108.4092 42.6751 33.9802 0.0000 0.0000 0.0000
# 2 42.6751 113.7204 20.7272 0.0000 0.0000 0.0000
# 3 33.9802 20.7272 59.1580 0.0000 0.0000 0.0000
# 4 0.0000 0.0000 0.0000 5.9813 0.0000 0.0000
# 5 0.0000 0.0000 0.0000 0.0000 26.7503 0.0000
# 6 0.0000 0.0000 0.0000 0.0000 0.0000 325.3206
#
#
#
# Elastic Compliance Matrix: (Units=1/GPa)
#
#
# Indices 1 2 3 4 5 6 
#
# 1 0.012500 -0.003613 -0.005914 0.000000 0.000000 0.000000
# 2 -0.003613 0.010438 -0.001582 0.000000 0.000000 0.000000
# 3 -0.005914 -0.001582 0.020855 0.000000 0.000000 0.000000
# 4 0.000000 0.000000 0.000000 0.167187 0.000000 0.000000
# 5 0.000000 0.000000 0.000000 0.000000 0.037383 0.000000
# 6 0.000000 0.000000 0.000000 0.000000 0.000000 0.003074
#
#
# Mechanical properties :
#
#
# Convention : Reuss Voigt Hill
#
# Bulk Modulus (GPa) = 46.34955 52.89473 49.62214
# Shear Modulus (GPa) = 17.80331 83.87078 50.83705
#
# Velocity S-wave (km/s) = 2.98506 6.47900 5.04421
# Velocity P-wave (km/s) = 5.92274 9.07986 7.66559
#
# Compressibility (1/GPa) = 0.02157518
#
# Stress axis : x y z
#
# Youngs Moduli (GPa) = 79.99783 95.80744 47.94964
#
# Poissons Ratio (x) = 0.34615 0.28359
# Poissons Ratio (y) = 0.28903 0.07584
# Poissons Ratio (z) = 0.47313 0.15154
#
# Static dielectric constant tensor:
#      x y z
#    x 4.673680 0.000000 0.000000 
#    y 0.000000 4.291380 0.000000 
#    z 0.000000 0.000000 3.370820 
# 
# 
# High freq. dielectric constant tensor:
#      x y z
#    x 1.793200 0.000000 0.000000 
#    y 0.000000 1.805780 0.000000 
#    z 0.000000 0.000000 1.752920 
# 
# From -- ./inp_files/26171.got.cif
#   From: 2010.03.12/outbox.cif.g09.slc.cpg/sg53_14_cif.got.tgz:26171.got - 2010.04.16 14:36:59.
