data_PCOD8219782
_publ_section_title
;
Structure prediction by ZEFSAII (Michael W. Deem and Ramdas Pophale) SiO2 
 PCOD8219782
Probable space group: P M N A
;
_chemical_formula_sum "Si O2"
_cell_formula_units_Z 56
_cell_length_a 8.849249
_cell_length_b 19.473061
_cell_length_c 18.294292
_cell_angle_alpha 90.000000
_cell_angle_beta 90.000000
_cell_angle_gamma 90.000000
_cell_volume 3152.508356
_symmetry_space_group_name_H-M "P M N A"
_symmetry_group_IT_number 53
_symmetry_cell_setting 'orthorhombic'
loop_
_space_group_symop_operation_xyz
x,y,z
1/2-x,-y,1/2+z
x,-y,-z
1/2-x,y,1/2-z
-x,-y,-z
1/2+x,y,1/2-z
-x,y,z
1/2+x,-y,1/2+z
loop_
_atom_site_type_symbol
_atom_site_label
_atom_site_fract_x
_atom_site_fract_y
_atom_site_fract_z
Si Si1 0.169854 0.952037 0.069865
Si Si2 0.320028 0.940676 0.830399
Si Si3 0.677910 0.295653 0.453591
Si Si4 0.826889 0.365205 0.326975
Si Si5 0.171813 0.480199 0.673078
Si Si6 0.178785 0.430733 0.962006
Si Si7 0.678183 0.848861 0.968732
O O1 0.000000 0.933397 0.095819
O O2 0.256954 0.987117 0.138072
O O3 0.257475 0.885310 0.041339
O O4 0.163871 0.000000 0.000000
O O5 0.250000 0.924526 0.750000
O O6 0.500000 0.945243 0.822265
O O7 0.272256 0.882244 0.890246
O O8 0.500000 0.283661 0.458902
O O9 0.727314 0.311521 0.371512
O O10 0.734819 0.360840 0.500329
O O11 0.763344 0.227919 0.478061
O O12 0.750000 0.365292 0.250000
O O13 0.816014 0.442353 0.358682
O O14 0.000000 0.340123 0.323147
O O15 0.250000 0.473613 0.750000
O O16 0.255968 0.428204 0.619337
O O17 0.000000 0.457096 0.681696
O O18 0.000000 0.433062 0.960213
O O19 0.242104 0.500000 0.000000
O O20 0.500000 0.851549 0.974048
#
# Coordination Sequence:
#
# PCOD8219782 Si02
#       7
#     8   8   8   8   8   8   8
#     4   9  17  32  55  80 106 138 177 217 256 305
#     4  10  20  34  55  83 113 145 179 217 260 306
#     4  11  22  35  53  76 105 143 181 223 274 326
#     4  10  20  33  49  71 100 134 172 214 263 321
#     4  10  20  33  53  76 100 130 168 217 271 326
#     4  10  20  35  54  76 104 136 178 230 278 324
#     4  10  21  36  53  76 110 147 183 222 265 318
#
# _framework density 17.763632999999999
#
# number of rings (size 3 to 8) (size 9 to 14) (size 15 to 20)
#    0.000    2.000    1.429    2.571    0.000    6.571 
#    0.000    1.429    0.000    0.857    0.000    2.000 
#    0.000    0.000    0.000    0.000    0.000    0.000 
#
# Total GULP energy -694182.863358 kJ/mol
# GULP energy per Si atom -12396.122560 kJ/mol
# Density = 1.772320 g / cm^3
# Si number density = 17.763633 Si / 1000 Ang^3
#
#
#
# Elastic Constant Matrix: (Units=GPa)
#
#
# Indices 1 2 3 4 5 6 
#
# 1 36.9560 38.5052 28.8679 0.0000 0.0000 0.0000
# 2 38.5052 105.8375 47.5587 0.0000 0.0000 0.0000
# 3 28.8679 47.5587 61.0829 0.0000 0.0000 0.0000
# 4 0.0000 0.0000 0.0000 25.0747 0.0000 0.0000
# 5 0.0000 0.0000 0.0000 0.0000 34.0301 0.0000
# 6 0.0000 0.0000 0.0000 0.0000 0.0000 29.9466
#
#
#
# Elastic Compliance Matrix: (Units=1/GPa)
#
#
# Indices 1 2 3 4 5 6 
#
# 1 0.051075 -0.011898 -0.014874 0.000000 0.000000 0.000000
# 2 -0.011898 0.017305 -0.007850 0.000000 0.000000 0.000000
# 3 -0.014874 -0.007850 0.029513 0.000000 0.000000 0.000000
# 4 0.000000 0.000000 0.000000 0.039881 0.000000 0.000000
# 5 0.000000 0.000000 0.000000 0.000000 0.029386 0.000000
# 6 0.000000 0.000000 0.000000 0.000000 0.000000 0.033393
#
#
# Mechanical properties :
#
#
# Convention : Reuss Voigt Hill
#
# Bulk Modulus (GPa) = 34.90724 48.19333 41.55029
# Shear Modulus (GPa) = 17.89890 23.73990 20.81940
#
# Velocity S-wave (km/s) = 3.17774 3.65969 3.42720
# Velocity P-wave (km/s) = 5.75827 6.71171 6.25319
#
# Compressibility (1/GPa) = 0.02864735
#
# Stress axis : x y z
#
# Youngs Moduli (GPa) = 19.57905 57.78782 33.88323
#
# Poissons Ratio (x) = 0.68755 0.50400
# Poissons Ratio (y) = 0.23295 0.26600
# Poissons Ratio (z) = 0.29123 0.45365
#
# Static dielectric constant tensor:
#      x y z
#    x 3.403330 0.000000 0.000000 
#    y 0.000000 3.312410 0.000000 
#    z 0.000000 0.000000 3.231630 
# 
# 
# High freq. dielectric constant tensor:
#      x y z
#    x 1.701530 0.000000 0.000000 
#    y 0.000000 1.667180 0.000000 
#    z 0.000000 0.000000 1.677890 
# 
# From -- ./inp_files/26658.got.cif
#   From: 2010.03.12/outbox.cif.g09.slc.cpg/sg53_14_cif.got.tgz:26658.got - 2010.04.16 14:36:59.
