data_PCOD8219868
_publ_section_title
;
Structure prediction by ZEFSAII (Michael W. Deem and Ramdas Pophale) SiO2 
 PCOD8219868
Probable space group: P M N A
;
_chemical_formula_sum "Si O2"
_cell_formula_units_Z 40
_cell_length_a 8.826966
_cell_length_b 25.925510
_cell_length_c 9.140172
_cell_angle_alpha 90.000000
_cell_angle_beta 90.000000
_cell_angle_gamma 90.000000
_cell_volume 2091.669822
_symmetry_space_group_name_H-M "P M N A"
_symmetry_group_IT_number 53
_symmetry_cell_setting 'orthorhombic'
loop_
_space_group_symop_operation_xyz
x,y,z
1/2-x,-y,1/2+z
x,-y,-z
1/2-x,y,1/2-z
-x,-y,-z
1/2+x,y,1/2-z
-x,y,z
1/2+x,-y,1/2+z
loop_
_atom_site_type_symbol
_atom_site_label
_atom_site_fract_x
_atom_site_fract_y
_atom_site_fract_z
Si Si1 0.679119 0.950642 0.090229
Si Si2 0.179033 0.647796 0.592888
Si Si3 0.824830 0.850791 0.093287
Si Si4 0.823550 0.736425 0.090764
Si Si5 0.321570 0.451397 0.908304
O O1 0.750000 0.955019 0.250000
O O2 0.500000 0.948042 0.100916
O O3 0.740963 0.898224 0.009947
O O4 0.734543 0.000000 0.000000
O O5 0.250000 0.637624 0.750000
O O6 0.243488 0.700001 0.525275
O O7 0.227668 0.600611 0.489876
O O8 0.000000 0.652516 0.608904
O O9 0.750000 0.846782 0.250000
O O10 0.802949 0.794156 0.022788
O O11 0.000000 0.865221 0.108543
O O12 0.750000 0.729925 0.250000
O O13 0.000000 0.722359 0.106312
O O14 0.250000 0.451798 0.750000
O O15 0.500000 0.455084 0.889707
O O16 0.259452 0.500000 0.000000
#
# Coordination Sequence:
#
# PCOD8219868 Si02
#       5
#     8   8   8   8   8
#     4  10  20  33  51  76 104 136 174 216 263 315
#     4  11  23  38  57  81 111 147 184 224 272 324
#     4   9  17  30  51  76 102 135 173 215 263 314
#     4  10  20  35  56  82 109 139 179 224 270 321
#     4  10  22  39  59  85 114 145 183 225 270 320
#
# _framework density 19.123477000000001
#
# number of rings (size 3 to 8) (size 9 to 14) (size 15 to 20)
#    0.000    2.000    0.000    4.800    0.000    7.600 
#    0.000    1.000    0.000    2.400    0.000    0.000 
#    0.000    0.000    0.000    0.000    0.000    0.000 
#
# Total GULP energy -495881.338104 kJ/mol
# GULP energy per Si atom -12397.033453 kJ/mol
# Density = 1.907995 g / cm^3
# Si number density = 19.123477 Si / 1000 Ang^3
#
#
#
# Elastic Constant Matrix: (Units=GPa)
#
#
# Indices 1 2 3 4 5 6 
#
# 1 90.4282 63.0739 44.2663 0.0000 0.0000 0.0000
# 2 63.0739 170.3969 68.0913 0.0000 0.0000 0.0000
# 3 44.2663 68.0913 110.1827 0.0000 0.0000 0.0000
# 4 0.0000 0.0000 0.0000 58.1371 0.0000 0.0000
# 5 0.0000 0.0000 0.0000 0.0000 31.1516 0.0000
# 6 0.0000 0.0000 0.0000 0.0000 0.0000 48.9685
#
#
#
# Elastic Compliance Matrix: (Units=1/GPa)
#
#
# Indices 1 2 3 4 5 6 
#
# 1 0.015949 -0.004439 -0.003664 0.000000 0.000000 0.000000
# 2 -0.004439 0.009029 -0.003796 0.000000 0.000000 0.000000
# 3 -0.003664 -0.003796 0.012894 0.000000 0.000000 0.000000
# 4 0.000000 0.000000 0.000000 0.017201 0.000000 0.000000
# 5 0.000000 0.000000 0.000000 0.000000 0.032101 0.000000
# 6 0.000000 0.000000 0.000000 0.000000 0.000000 0.020421
#
#
# Mechanical properties :
#
#
# Convention : Reuss Voigt Hill
#
# Bulk Modulus (GPa) = 71.06164 80.20786 75.63475
# Shear Modulus (GPa) = 36.74199 40.68986 38.71593
#
# Velocity S-wave (km/s) = 4.38802 4.61775 4.50435
# Velocity P-wave (km/s) = 7.93177 8.39432 8.16632
#
# Compressibility (1/GPa) = 0.01407229
#
# Stress axis : x y z
#
# Youngs Moduli (GPa) = 62.70174 110.75546 77.55656
#
# Poissons Ratio (x) = 0.49169 0.28416
# Poissons Ratio (y) = 0.27836 0.29442
# Poissons Ratio (z) = 0.22973 0.42045
#
# Static dielectric constant tensor:
#      x y z
#    x 3.602460 0.000000 0.000000 
#    y 0.000000 4.420230 0.000000 
#    z 0.000000 0.000000 3.201720 
# 
# 
# High freq. dielectric constant tensor:
#      x y z
#    x 1.756600 0.000000 0.000000 
#    y 0.000000 1.772020 0.000000 
#    z 0.000000 0.000000 1.712780 
# 
# From -- ./inp_files/6429.got.cif
#   From: 2010.03.12/outbox.cif.g09.slc.cpg/sg53_4_cif.got.tgz:6429.got - 2010.04.16 14:36:59.
