data_PCOD8219788
_publ_section_title
;
Structure prediction by ZEFSAII (Michael W. Deem and Ramdas Pophale) SiO2 
 PCOD8219788
Probable space group: P M N A
;
_chemical_formula_sum "Si O2"
_cell_formula_units_Z 64
_cell_length_a 9.336025
_cell_length_b 21.568816
_cell_length_c 17.913703
_cell_angle_alpha 90.000000
_cell_angle_beta 90.000000
_cell_angle_gamma 90.000000
_cell_volume 3607.228729
_symmetry_space_group_name_H-M "P M N A"
_symmetry_group_IT_number 53
_symmetry_cell_setting 'orthorhombic'
loop_
_space_group_symop_operation_xyz
x,y,z
1/2-x,-y,1/2+z
x,-y,-z
1/2-x,y,1/2-z
-x,-y,-z
1/2+x,y,1/2-z
-x,y,z
1/2+x,-y,1/2+z
loop_
_atom_site_type_symbol
_atom_site_label
_atom_site_fract_x
_atom_site_fract_y
_atom_site_fract_z
Si Si1 0.169238 0.870187 0.322794
Si Si2 0.332436 0.931976 0.022401
Si Si3 0.662097 0.493823 0.911414
Si Si4 0.662983 0.175601 0.456579
Si Si5 0.166487 0.611815 0.904678
Si Si6 0.663152 0.760639 0.388112
Si Si7 0.668490 0.736497 0.675232
Si Si8 0.165713 0.376341 0.922875
O O1 0.250000 0.897235 0.250000
O O2 0.207255 0.915634 0.391821
O O3 0.228593 0.800948 0.338266
O O4 0.000000 0.866614 0.308457
O O5 0.500000 0.925521 0.009427
O O6 0.258357 0.885159 0.965511
O O7 0.277340 0.000000 0.000000
O O8 0.500000 0.492798 0.881624
O O9 0.743659 0.552626 0.876476
O O10 0.739228 0.430412 0.885836
O O11 0.669106 0.500000 0.000000
O O12 0.500000 0.153566 0.447918
O O13 0.679850 0.221911 0.525641
O O14 0.716718 0.212041 0.384199
O O15 0.214289 0.668813 0.853268
O O16 0.000000 0.595745 0.895622
O O17 0.201719 0.630053 0.989707
O O18 0.500000 0.772989 0.361224
O O19 0.702828 0.688089 0.381218
O O20 0.750000 0.753184 0.750000
O O21 0.500000 0.739091 0.688889
O O22 0.000000 0.393751 0.912021
#
# Coordination Sequence:
#
# PCOD8219788 Si02
#       8
#     8   8   8   8   8   8   8   8
#     4  10  20  34  53  78 107 138 169 204 248 298
#     4   9  19  36  57  81 108 138 171 207 249 294
#     4   9  17  26  38  63  95 122 153 201 254 300
#     4   9  17  32  52  75 102 130 167 211 250 295
#     4   9  16  29  46  63  89 126 167 208 251 305
#     4   9  16  29  51  75  99 129 165 208 253 299
#     4  10  20  33  49  71  99 133 173 216 260 307
#     4   9  15  26  46  69  92 124 162 201 251 305
#
# _framework density 17.742151
#
# number of rings (size 3 to 8) (size 9 to 14) (size 15 to 20)
#    0.000    2.750    1.250    0.750    0.000    3.750 
#    0.000    0.625    0.000    3.750    0.000    3.500 
#    0.000    0.000    0.000    0.000    0.000    0.000 
#
# Total GULP energy -793588.089864 kJ/mol
# GULP energy per Si atom -12399.813904 kJ/mol
# Density = 1.770177 g / cm^3
# Si number density = 17.742151 Si / 1000 Ang^3
#
#
#
# Elastic Constant Matrix: (Units=GPa)
#
#
# Indices 1 2 3 4 5 6 
#
# 1 77.1373 63.3892 40.3240 0.0000 0.0000 0.0000
# 2 63.3892 144.4146 48.6592 0.0000 0.0000 0.0000
# 3 40.3240 48.6592 78.7538 0.0000 0.0000 0.0000
# 4 0.0000 0.0000 0.0000 17.8992 0.0000 0.0000
# 5 0.0000 0.0000 0.0000 0.0000 25.7543 0.0000
# 6 0.0000 0.0000 0.0000 0.0000 0.0000 27.5725
#
#
#
# Elastic Compliance Matrix: (Units=1/GPa)
#
#
# Indices 1 2 3 4 5 6 
#
# 1 0.022965 -0.007727 -0.006984 0.000000 0.000000 0.000000
# 2 -0.007727 0.011345 -0.003053 0.000000 0.000000 0.000000
# 3 -0.006984 -0.003053 0.018161 0.000000 0.000000 0.000000
# 4 0.000000 0.000000 0.000000 0.055868 0.000000 0.000000
# 5 0.000000 0.000000 0.000000 0.000000 0.038828 0.000000
# 6 0.000000 0.000000 0.000000 0.000000 0.000000 0.036268
#
#
# Mechanical properties :
#
#
# Convention : Reuss Voigt Hill
#
# Bulk Modulus (GPa) = 59.02795 67.22784 63.12789
# Shear Modulus (GPa) = 22.26074 24.10744 23.18409
#
# Velocity S-wave (km/s) = 3.54599 3.69014 3.61879
# Velocity P-wave (km/s) = 7.07867 7.49200 7.28826
#
# Compressibility (1/GPa) = 0.01694113
#
# Stress axis : x y z
#
# Youngs Moduli (GPa) = 43.54517 88.14557 55.06456
#
# Poissons Ratio (x) = 0.68108 0.38459
# Poissons Ratio (y) = 0.33646 0.16813
# Poissons Ratio (z) = 0.30414 0.26913
#
# Static dielectric constant tensor:
#      x y z
#    x 3.259380 0.000000 0.000000 
#    y 0.000000 3.359540 0.000000 
#    z 0.000000 0.000000 3.030150 
# 
# 
# High freq. dielectric constant tensor:
#      x y z
#    x 1.684370 0.000000 0.000000 
#    y 0.000000 1.685160 0.000000 
#    z 0.000000 0.000000 1.656910 
# 
# From -- ./inp_files/26955.got.cif
#   From: 2010.03.12/outbox.cif.g09.slc.cpg/sg53_14_cif.got.tgz:26955.got - 2010.04.16 14:36:59.
