data_PCOD8219896
_publ_section_title
;
Structure prediction by ZEFSAII (Michael W. Deem and Ramdas Pophale) SiO2 
 PCOD8219896
Probable space group: P M N A
;
_chemical_formula_sum "Si O2"
_cell_formula_units_Z 64
_cell_length_a 9.219292
_cell_length_b 18.304896
_cell_length_c 19.380959
_cell_angle_alpha 90.000000
_cell_angle_beta 90.000000
_cell_angle_gamma 90.000000
_cell_volume 3270.695392
_symmetry_space_group_name_H-M "P M N A"
_symmetry_group_IT_number 53
_symmetry_cell_setting 'orthorhombic'
loop_
_space_group_symop_operation_xyz
x,y,z
1/2-x,-y,1/2+z
x,-y,-z
1/2-x,y,1/2-z
-x,-y,-z
1/2+x,y,1/2-z
-x,y,z
1/2+x,-y,1/2+z
loop_
_atom_site_type_symbol
_atom_site_label
_atom_site_fract_x
_atom_site_fract_y
_atom_site_fract_z
Si Si1 0.670230 0.755415 0.180023
Si Si2 0.333000 0.706062 0.450515
Si Si3 0.163053 0.976095 0.922000
Si Si4 0.665942 0.571675 0.545237
Si Si5 0.830856 0.924735 0.318869
Si Si6 0.661466 0.574614 0.814484
Si Si7 0.659220 0.254660 0.187782
Si Si8 0.833987 0.810223 0.930476
O O1 0.750000 0.730926 0.250000
O O2 0.500000 0.739732 0.187591
O O3 0.734006 0.707777 0.117428
O O4 0.702390 0.840348 0.164783
O O5 0.500000 0.693728 0.428234
O O6 0.279388 0.640409 0.499967
O O7 0.315308 0.783094 0.490794
O O8 0.218651 0.892886 0.920513
O O9 0.000000 0.983254 0.891427
O O10 0.273948 0.026325 0.881090
O O11 0.162706 0.000000 0.000000
O O12 0.682408 0.500000 0.500000
O O13 0.500000 0.585382 0.568059
O O14 0.759679 0.559780 0.613481
O O15 0.750000 0.950171 0.250000
O O16 0.000000 0.938946 0.308704
O O17 0.750000 0.539412 0.750000
O O18 0.500000 0.539612 0.817151
O O19 0.646045 0.659884 0.800212
O O20 0.750000 0.217906 0.250000
O O21 0.500000 0.218366 0.186955
O O22 0.737264 0.242186 0.115736
O O23 0.000000 0.801062 0.907256
#
# Coordination Sequence:
#
# PCOD8219896 Si02
#       8
#     8   8   8   8   8   8   8   8
#     4  10  21  37  59  85 111 142 185 232 280 336
#     4  10  20  36  59  84 113 146 182 228 280 334
#     4  10  21  36  54  77 107 143 185 229 277 335
#     4  10  21  38  61  89 120 154 191 233 283 340
#     4  10  21  37  57  80 108 145 186 231 281 333
#     4  10  20  35  58  85 115 152 191 232 275 326
#     4  10  20  33  52  78 108 142 181 226 272 322
#     4  10  20  34  54  79 107 144 185 228 278 331
#
# _framework density 19.567703000000002
#
# number of rings (size 3 to 8) (size 9 to 14) (size 15 to 20)
#    0.000    2.000    1.250    2.250    0.000    6.000 
#    0.000    0.625    0.000    0.000    0.000    0.000 
#    0.000    0.000    0.000    0.000    0.000    0.000 
#
# Total GULP energy -793678.670576 kJ/mol
# GULP energy per Si atom -12401.229228 kJ/mol
# Density = 1.952317 g / cm^3
# Si number density = 19.567703 Si / 1000 Ang^3
#
#
#
# Elastic Constant Matrix: (Units=GPa)
#
#
# Indices 1 2 3 4 5 6 
#
# 1 118.3641 25.6329 73.1409 0.0000 0.0000 0.0000
# 2 25.6329 46.8952 27.9606 0.0000 0.0000 0.0000
# 3 73.1409 27.9606 127.7356 0.0000 0.0000 0.0000
# 4 0.0000 0.0000 0.0000 21.6853 0.0000 0.0000
# 5 0.0000 0.0000 0.0000 0.0000 3.9624 0.0000
# 6 0.0000 0.0000 0.0000 0.0000 0.0000 22.3275
#
#
#
# Elastic Compliance Matrix: (Units=1/GPa)
#
#
# Indices 1 2 3 4 5 6 
#
# 1 0.013475 -0.003180 -0.007020 0.000000 0.000000 0.000000
# 2 -0.003180 0.025275 -0.003712 0.000000 0.000000 0.000000
# 3 -0.007020 -0.003712 0.012661 0.000000 0.000000 0.000000
# 4 0.000000 0.000000 0.000000 0.046114 0.000000 0.000000
# 5 0.000000 0.000000 0.000000 0.000000 0.252370 0.000000
# 6 0.000000 0.000000 0.000000 0.000000 0.000000 0.044788
#
#
# Mechanical properties :
#
#
# Convention : Reuss Voigt Hill
#
# Bulk Modulus (GPa) = 42.39430 60.71818 51.55624
# Shear Modulus (GPa) = 11.61797 20.67909 16.14853
#
# Velocity S-wave (km/s) = 2.43930 3.25437 2.87586
# Velocity P-wave (km/s) = 5.44482 6.72446 6.11819
#
# Compressibility (1/GPa) = 0.02358808
#
# Stress axis : x y z
#
# Youngs Moduli (GPa) = 74.21292 39.56413 78.98579
#
# Poissons Ratio (x) = 0.12581 0.55444
# Poissons Ratio (y) = 0.23600 0.29318
# Poissons Ratio (z) = 0.52094 0.14685
#
# Static dielectric constant tensor:
#      x y z
#    x 3.740620 0.000000 0.000000 
#    y 0.000000 3.529610 0.000000 
#    z 0.000000 0.000000 3.487690 
# 
# 
# High freq. dielectric constant tensor:
#      x y z
#    x 1.766290 0.000000 0.000000 
#    y 0.000000 1.739840 0.000000 
#    z 0.000000 0.000000 1.767460 
# 
# From -- ./inp_files/26867.got.cif
#   From: 2010.03.12/outbox.cif.g09.slc.cpg/sg53_14_cif.got.tgz:26867.got - 2010.04.16 14:36:59.
