data_PCOD8219459
_publ_section_title
;
Structure prediction by ZEFSAII (Michael W. Deem and Ramdas Pophale) SiO2 
 PCOD8219459
Probable space group: P M N A
;
_chemical_formula_sum "Si O2"
_cell_formula_units_Z 64
_cell_length_a 18.457994
_cell_length_b 17.549382
_cell_length_c 9.517652
_cell_angle_alpha 90.000000
_cell_angle_beta 90.000000
_cell_angle_gamma 90.000000
_cell_volume 3083.018631
_symmetry_space_group_name_H-M "P M N A"
_symmetry_group_IT_number 53
_symmetry_cell_setting 'orthorhombic'
loop_
_space_group_symop_operation_xyz
x,y,z
1/2-x,-y,1/2+z
x,-y,-z
1/2-x,y,1/2-z
-x,-y,-z
1/2+x,y,1/2-z
-x,y,z
1/2+x,-y,1/2+z
loop_
_atom_site_type_symbol
_atom_site_label
_atom_site_fract_x
_atom_site_fract_y
_atom_site_fract_z
Si Si1 0.082867 0.910090 0.478500
Si Si2 0.666332 0.056230 0.715460
Si Si3 0.080619 0.293933 0.771055
Si Si4 0.163723 0.112997 0.248853
Si Si5 0.078089 0.409938 0.997261
Si Si6 0.159486 0.810027 0.021927
Si Si7 0.283510 0.299689 0.896907
Si Si8 0.228574 0.423295 0.090496
O O1 0.122625 0.893561 0.331104
O O2 0.127855 0.867305 0.601078
O O3 0.000000 0.880723 0.475423
O O4 0.086852 0.000000 0.500000
O O5 0.750000 0.049955 0.750000
O O6 0.659139 0.102344 0.571925
O O7 0.634784 0.970717 0.700978
O O8 0.097925 0.239016 0.902760
O O9 0.132862 0.279650 0.637508
O O10 0.000000 0.277608 0.715713
O O11 0.087977 0.379262 0.836759
O O12 0.250000 0.112894 0.250000
O O13 0.140475 0.180894 0.142645
O O14 0.148059 0.384510 0.088422
O O15 0.000000 0.379104 0.055944
O O16 0.075709 0.500000 0.000000
O O17 0.239066 0.774058 0.051133
O O18 0.250000 0.330789 0.750000
O O19 0.283118 0.364108 0.017077
O O20 0.250000 0.440061 0.250000
O O21 0.229355 0.500000 0.000000
#
# Coordination Sequence:
#
# PCOD8219459 Si02
#       8
#     8   8   8   8   8   8   8   8
#     4   9  19  36  56  80 113 148 185 242 311 363
#     4  10  19  35  58  83 112 149 199 252 303 366
#     4  10  21  38  61  85 118 162 203 244 299 359
#     4  10  21  35  56  84 112 152 200 248 304 367
#     4   9  18  35  61  89 118 158 202 241 291 349
#     4  11  21  35  56  84 116 151 195 247 297 357
#     4  10  20  39  58  85 119 156 198 247 295 349
#     4  11  22  36  63  95 125 157 198 243 293 353
#
# _framework density 20.758873999999999
#
# number of rings (size 3 to 8) (size 9 to 14) (size 15 to 20)
#    0.000    2.000    2.500    2.625    1.750    3.500 
#    0.000    0.625    0.000    4.500    0.000    0.000 
#    0.000    0.000    0.000    0.000    0.000    0.000 
#
# Total GULP energy -793121.420259 kJ/mol
# GULP energy per Si atom -12392.522192 kJ/mol
# Density = 2.071163 g / cm^3
# Si number density = 20.758874 Si / 1000 Ang^3
#
#
#
# Elastic Constant Matrix: (Units=GPa)
#
#
# Indices 1 2 3 4 5 6 
#
# 1 156.6825 13.4775 54.2486 0.0000 0.0000 0.0000
# 2 13.4775 59.8354 33.5873 0.0000 0.0000 0.0000
# 3 54.2486 33.5873 126.0684 0.0000 0.0000 0.0000
# 4 0.0000 0.0000 0.0000 35.0077 0.0000 0.0000
# 5 0.0000 0.0000 0.0000 0.0000 26.7334 0.0000
# 6 0.0000 0.0000 0.0000 0.0000 0.0000 9.4790
#
#
#
# Elastic Compliance Matrix: (Units=1/GPa)
#
#
# Indices 1 2 3 4 5 6 
#
# 1 0.007501 0.000144 -0.003266 0.000000 0.000000 0.000000
# 2 0.000144 0.019654 -0.005298 0.000000 0.000000 0.000000
# 3 -0.003266 -0.005298 0.010749 0.000000 0.000000 0.000000
# 4 0.000000 0.000000 0.000000 0.028565 0.000000 0.000000
# 5 0.000000 0.000000 0.000000 0.000000 0.037406 0.000000
# 6 0.000000 0.000000 0.000000 0.000000 0.000000 0.105497
#
#
# Mechanical properties :
#
#
# Convention : Reuss Voigt Hill
#
# Bulk Modulus (GPa) = 47.47584 60.57926 54.02755
# Shear Modulus (GPa) = 21.43769 30.32886 25.88327
#
# Velocity S-wave (km/s) = 3.21705 3.82646 3.53491
# Velocity P-wave (km/s) = 6.05962 6.98341 6.53785
#
# Compressibility (1/GPa) = 0.02106335
#
# Stress axis : x y z
#
# Youngs Moduli (GPa) = 133.32005 50.87984 93.03082
#
# Poissons Ratio (x) = -0.00732 0.30384
# Poissons Ratio (y) = -0.01917 0.49289
# Poissons Ratio (z) = 0.43542 0.26957
#
# Static dielectric constant tensor:
#      x y z
#    x 4.061670 0.000000 0.000000 
#    y 0.000000 3.737220 0.000000 
#    z 0.000000 0.000000 3.634920 
# 
# 
# High freq. dielectric constant tensor:
#      x y z
#    x 1.807600 0.000000 0.000000 
#    y 0.000000 1.806620 0.000000 
#    z 0.000000 0.000000 1.790650 
# 
# From -- ./inp_files/11207.got.cif
#   From: 2010.03.12/outbox.cif.g09.slc.cpg/sg53_6_cif.got.tgz:11207.got - 2010.04.16 14:36:59.
