data_PCOD8219201
_publ_section_title
;
Structure prediction by ZEFSAII (Michael W. Deem and Ramdas Pophale) SiO2 
 PCOD8219201
Probable space group: P M N A
;
_chemical_formula_sum "Si O2"
_cell_formula_units_Z 64
_cell_length_a 9.042951
_cell_length_b 15.058583
_cell_length_c 24.052475
_cell_angle_alpha 90.000000
_cell_angle_beta 90.000000
_cell_angle_gamma 90.000000
_cell_volume 3275.322409
_symmetry_space_group_name_H-M "P M N A"
_symmetry_group_IT_number 53
_symmetry_cell_setting 'orthorhombic'
loop_
_space_group_symop_operation_xyz
x,y,z
1/2-x,-y,1/2+z
x,-y,-z
1/2-x,y,1/2-z
-x,-y,-z
1/2+x,y,1/2-z
-x,y,z
1/2+x,-y,1/2+z
loop_
_atom_site_type_symbol
_atom_site_label
_atom_site_fract_x
_atom_site_fract_y
_atom_site_fract_z
Si Si1 0.673232 0.881739 0.595511
Si Si2 0.332794 0.869009 0.015162
Si Si3 0.826579 0.541090 0.808298
Si Si4 0.326969 0.953617 0.132699
Si Si5 0.327269 0.320995 0.401385
Si Si6 0.674449 0.203134 0.693257
Si Si7 0.172738 0.626742 0.122085
Si Si8 0.331055 0.337370 0.986589
O O1 0.500000 0.899220 0.601578
O O2 0.721643 0.901798 0.532272
O O3 0.717640 0.780903 0.610852
O O4 0.760392 0.947056 0.637492
O O5 0.500000 0.890265 0.995391
O O6 0.292879 0.920678 0.070781
O O7 0.312882 0.765800 0.027309
O O8 0.750000 0.556870 0.750000
O O9 0.780200 0.622049 0.848214
O O10 0.773025 0.448547 0.835092
O O11 0.000000 0.539534 0.797879
O O12 0.500000 0.953637 0.147082
O O13 0.243376 0.890911 0.176043
O O14 0.500000 0.328512 0.414466
O O15 0.244365 0.360435 0.454920
O O16 0.750000 0.235087 0.750000
O O17 0.500000 0.192760 0.702051
O O18 0.711728 0.277171 0.647208
O O19 0.254607 0.610228 0.063793
O O20 0.000000 0.616778 0.110159
O O21 0.500000 0.367660 0.990113
#
# Coordination Sequence:
#
# PCOD8219201 Si02
#       8
#     8   8   8   8   8   8   8   8
#     4  10  20  33  53  81 111 146 189 234 279 332
#     4   9  18  32  50  77 112 149 184 225 277 332
#     4  10  22  41  63  86 111 146 191 237 286 339
#     4  11  21  35  54  78 111 149 188 231 279 332
#     4   9  20  39  59  81 116 155 190 235 289 343
#     4  11  23  38  57  81 112 149 190 235 283 340
#     4  10  21  37  59  86 116 149 185 228 284 347
#     4  10  19  33  56  86 119 153 189 231 280 338
#
# _framework density 19.540061999999999
#
# number of rings (size 3 to 8) (size 9 to 14) (size 15 to 20)
#    0.000    2.000    1.250    2.250    0.000    5.500 
#    0.000    3.125    0.000    1.500    0.000    0.000 
#    0.000    0.000    0.000    0.000    0.000    0.000 
#
# Total GULP energy -793818.364978 kJ/mol
# GULP energy per Si atom -12403.411953 kJ/mol
# Density = 1.949559 g / cm^3
# Si number density = 19.540062 Si / 1000 Ang^3
#
#
#
# Elastic Constant Matrix: (Units=GPa)
#
#
# Indices 1 2 3 4 5 6 
#
# 1 84.4475 39.7687 60.7597 0.0000 0.0000 0.0000
# 2 39.7687 72.3689 59.2389 0.0000 0.0000 0.0000
# 3 60.7597 59.2389 122.0015 0.0000 0.0000 0.0000
# 4 0.0000 0.0000 0.0000 27.0078 0.0000 0.0000
# 5 0.0000 0.0000 0.0000 0.0000 38.0580 0.0000
# 6 0.0000 0.0000 0.0000 0.0000 0.0000 22.2730
#
#
#
# Elastic Compliance Matrix: (Units=1/GPa)
#
#
# Indices 1 2 3 4 5 6 
#
# 1 0.019316 -0.004548 -0.007412 0.000000 0.000000 0.000000
# 2 -0.004548 0.024004 -0.009390 0.000000 0.000000 0.000000
# 3 -0.007412 -0.009390 0.016447 0.000000 0.000000 0.000000
# 4 0.000000 0.000000 0.000000 0.037026 0.000000 0.000000
# 5 0.000000 0.000000 0.000000 0.000000 0.026276 0.000000
# 6 0.000000 0.000000 0.000000 0.000000 0.000000 0.044897
#
#
# Mechanical properties :
#
#
# Convention : Reuss Voigt Hill
#
# Bulk Modulus (GPa) = 58.59022 66.48362 62.53692
# Shear Modulus (GPa) = 23.11010 25.40445 24.25728
#
# Velocity S-wave (km/s) = 3.44278 3.60963 3.52719
# Velocity P-wave (km/s) = 6.77151 7.17431 6.97582
#
# Compressibility (1/GPa) = 0.01706769
#
# Stress axis : x y z
#
# Youngs Moduli (GPa) = 51.77061 41.65984 60.79981
#
# Poissons Ratio (x) = 0.18946 0.45063
# Poissons Ratio (y) = 0.23544 0.57094
# Poissons Ratio (z) = 0.38371 0.39120
#
# Static dielectric constant tensor:
#      x y z
#    x 3.530180 0.000000 0.000000 
#    y 0.000000 3.682310 0.000000 
#    z 0.000000 0.000000 3.395330 
# 
# 
# High freq. dielectric constant tensor:
#      x y z
#    x 1.761920 0.000000 0.000000 
#    y 0.000000 1.766080 0.000000 
#    z 0.000000 0.000000 1.747670 
# 
# From -- ./inp_files/34176.got.cif
#   From: 2010.03.12/outbox.cif.g09.slc.cpg/sg53_18_cif.got.tgz:34176.got - 2010.04.16 14:36:59.
