data_PCOD8219772
_publ_section_title
;
Structure prediction by ZEFSAII (Michael W. Deem and Ramdas Pophale) SiO2 
 PCOD8219772
Probable space group: P M N A
;
_chemical_formula_sum "Si O2"
_cell_formula_units_Z 56
_cell_length_a 8.951075
_cell_length_b 16.665779
_cell_length_c 21.405770
_cell_angle_alpha 90.000000
_cell_angle_beta 90.000000
_cell_angle_gamma 90.000000
_cell_volume 3193.240797
_symmetry_space_group_name_H-M "P M N A"
_symmetry_group_IT_number 53
_symmetry_cell_setting 'orthorhombic'
loop_
_space_group_symop_operation_xyz
x,y,z
1/2-x,-y,1/2+z
x,-y,-z
1/2-x,y,1/2-z
-x,-y,-z
1/2+x,y,1/2-z
-x,y,z
1/2+x,-y,1/2+z
loop_
_atom_site_type_symbol
_atom_site_label
_atom_site_fract_x
_atom_site_fract_y
_atom_site_fract_z
Si Si1 0.172972 0.708421 0.009279
Si Si2 0.323665 0.872463 0.028337
Si Si3 0.178134 0.453056 0.184911
Si Si4 0.327588 0.541517 0.438145
Si Si5 0.830970 0.147932 0.312544
Si Si6 0.323262 0.970980 0.909694
Si Si7 0.328081 0.311725 0.120269
O O1 0.238771 0.789241 0.039310
O O2 0.194012 0.637575 0.059964
O O3 0.000000 0.721177 0.992303
O O4 0.258997 0.679140 0.948006
O O5 0.500000 0.854482 0.025637
O O6 0.281811 0.934814 0.084447
O O7 0.262294 0.916322 0.966350
O O8 0.250000 0.483382 0.250000
O O9 0.238219 0.508804 0.127550
O O10 0.235302 0.363323 0.170384
O O11 0.000000 0.453817 0.191964
O O12 0.253633 0.500000 0.500000
O O13 0.500000 0.516222 0.438251
O O14 0.750000 0.171436 0.250000
O O15 0.763482 0.067148 0.344840
O O16 0.814914 0.218926 0.362100
O O17 0.000000 0.132514 0.293472
O O18 0.500000 0.961623 0.913564
O O19 0.500000 0.340206 0.119783
#
# Coordination Sequence:
#
# PCOD8219772 Si02
#       7
#     8   8   8   8   8   8   8
#     4  11  20  32  53  79 107 136 170 216 268 310
#     4   9  16  31  53  73  96 129 166 207 254 303
#     4  11  22  38  57  77 106 140 180 219 263 320
#     4   9  18  35  55  75 103 143 176 208 265 325
#     4  10  20  33  48  70 101 137 171 201 244 302
#     4   8  15  30  51  70  95 133 169 200 246 304
#     4  11  21  34  52  76 107 141 177 211 256 314
#
# _framework density 17.537043000000001
#
# number of rings (size 3 to 8) (size 9 to 14) (size 15 to 20)
#    0.000    2.143    2.857    2.571    0.000    2.286 
#    0.000    5.714    0.000    0.857    0.000    6.000 
#    0.000    0.000    0.000    0.000    0.000    0.000 
#
# Total GULP energy -694083.484487 kJ/mol
# GULP energy per Si atom -12394.347937 kJ/mol
# Density = 1.749713 g / cm^3
# Si number density = 17.537043 Si / 1000 Ang^3
#
#
#
# Elastic Constant Matrix: (Units=GPa)
#
#
# Indices 1 2 3 4 5 6 
#
# 1 63.5581 34.2060 35.6210 0.0000 0.0000 0.0000
# 2 34.2060 103.0936 43.2901 0.0000 0.0000 0.0000
# 3 35.6210 43.2901 98.5078 0.0000 0.0000 0.0000
# 4 0.0000 0.0000 0.0000 26.3839 0.0000 0.0000
# 5 0.0000 0.0000 0.0000 0.0000 16.5768 0.0000
# 6 0.0000 0.0000 0.0000 0.0000 0.0000 14.8505
#
#
#
# Elastic Compliance Matrix: (Units=1/GPa)
#
#
# Indices 1 2 3 4 5 6 
#
# 1 0.021467 -0.004737 -0.005681 0.000000 0.000000 0.000000
# 2 -0.004737 0.012940 -0.003974 0.000000 0.000000 0.000000
# 3 -0.005681 -0.003974 0.013952 0.000000 0.000000 0.000000
# 4 0.000000 0.000000 0.000000 0.037902 0.000000 0.000000
# 5 0.000000 0.000000 0.000000 0.000000 0.060325 0.000000
# 6 0.000000 0.000000 0.000000 0.000000 0.000000 0.067338
#
#
# Mechanical properties :
#
#
# Convention : Reuss Voigt Hill
#
# Bulk Modulus (GPa) = 51.08348 54.59929 52.84139
# Shear Modulus (GPa) = 20.06157 21.69839 20.87998
#
# Velocity S-wave (km/s) = 3.38591 3.52133 3.45428
# Velocity P-wave (km/s) = 6.66918 6.90900 6.79015
#
# Compressibility (1/GPa) = 0.01957580
#
# Stress axis : x y z
#
# Youngs Moduli (GPa) = 46.58330 77.27780 71.67448
#
# Poissons Ratio (x) = 0.36608 0.40717
# Poissons Ratio (y) = 0.22068 0.28481
# Poissons Ratio (z) = 0.26463 0.30708
#
# Static dielectric constant tensor:
#      x y z
#    x 3.079940 0.000000 0.000000 
#    y 0.000000 3.372490 0.000000 
#    z 0.000000 0.000000 3.260760 
# 
# 
# High freq. dielectric constant tensor:
#      x y z
#    x 1.657270 0.000000 0.000000 
#    y 0.000000 1.678930 0.000000 
#    z 0.000000 0.000000 1.659420 
# 
# From -- ./inp_files/31068.got.cif
#   From: 2010.03.12/outbox.cif.g09.slc.cpg/sg53_16_cif.got.tgz:31068.got - 2010.04.16 14:36:59.
