data_PCOD8219571
_publ_section_title
;
Structure prediction by ZEFSAII (Michael W. Deem and Ramdas Pophale) SiO2 
 PCOD8219571
Probable space group: P M N A
;
_chemical_formula_sum "Si O2"
_cell_formula_units_Z 48
_cell_length_a 9.131528
_cell_length_b 9.627662
_cell_length_c 29.487190
_cell_angle_alpha 90.000000
_cell_angle_beta 90.000000
_cell_angle_gamma 90.000000
_cell_volume 2592.374127
_symmetry_space_group_name_H-M "P M N A"
_symmetry_group_IT_number 53
_symmetry_cell_setting 'orthorhombic'
loop_
_space_group_symop_operation_xyz
x,y,z
1/2-x,-y,1/2+z
x,-y,-z
1/2-x,y,1/2-z
-x,-y,-z
1/2+x,y,1/2-z
-x,y,z
1/2+x,-y,1/2+z
loop_
_atom_site_type_symbol
_atom_site_label
_atom_site_fract_x
_atom_site_fract_y
_atom_site_fract_z
Si Si1 0.670584 0.138360 0.527330
Si Si2 0.171359 0.974565 0.295812
Si Si3 0.672167 0.707475 0.795627
Si Si4 0.825996 0.521065 0.622284
Si Si5 0.837117 0.361998 0.471610
Si Si6 0.674007 0.205676 0.881489
O O1 0.500000 0.156557 0.537573
O O2 0.723456 0.263213 0.496044
O O3 0.755487 0.133864 0.574803
O O4 0.706234 0.000000 0.500000
O O5 0.250000 0.924201 0.250000
O O6 0.224892 0.879372 0.337288
O O7 0.000000 0.957317 0.287552
O O8 0.212949 0.133578 0.307434
O O9 0.750000 0.658125 0.750000
O O10 0.500000 0.689416 0.789136
O O11 0.733360 0.607601 0.834974
O O12 0.770574 0.600184 0.577474
O O13 0.767205 0.363230 0.623744
O O14 0.000000 0.517497 0.621847
O O15 0.853652 0.500000 0.500000
O O16 0.000000 0.293480 0.467610
O O17 0.500000 0.200855 0.887740
#
# Coordination Sequence:
#
# PCOD8219571 Si02
#       6
#     8   8   8   8   8   8
#     4  11  25  40  53  79 117 151 182 226 279 330
#     4   9  19  34  55  79 106 141 179 221 271 322
#     4   9  18  34  53  77 107 138 175 219 268 322
#     4   9  18  33  55  82 108 134 174 228 271 313
#     4  10  19  36  61  84 107 142 185 227 273 325
#     4  10  20  37  58  81 107 142 187 230 269 320
#
# _framework density 18.515844999999999
#
# number of rings (size 3 to 8) (size 9 to 14) (size 15 to 20)
#    0.000    2.333    1.667    0.500    2.333    3.000 
#    0.000    1.667    0.000    0.000    0.000    0.000 
#    0.000    0.000    0.000    0.000    0.000    0.000 
#
# Total GULP energy -595250.921865 kJ/mol
# GULP energy per Si atom -12401.060872 kJ/mol
# Density = 1.847370 g / cm^3
# Si number density = 18.515845 Si / 1000 Ang^3
#
#
#
# Elastic Constant Matrix: (Units=GPa)
#
#
# Indices 1 2 3 4 5 6 
#
# 1 37.2274 35.8177 47.1864 0.0000 0.0000 0.0000
# 2 35.8177 91.6149 77.9747 0.0000 0.0000 0.0000
# 3 47.1864 77.9747 188.4832 0.0000 0.0000 0.0000
# 4 0.0000 0.0000 0.0000 37.5667 0.0000 0.0000
# 5 0.0000 0.0000 0.0000 0.0000 32.5850 0.0000
# 6 0.0000 0.0000 0.0000 0.0000 0.0000 20.9940
#
#
#
# Elastic Compliance Matrix: (Units=1/GPa)
#
#
# Indices 1 2 3 4 5 6 
#
# 1 0.047756 -0.013112 -0.006531 0.000000 0.000000 0.000000
# 2 -0.013112 0.020447 -0.005176 0.000000 0.000000 0.000000
# 3 -0.006531 -0.005176 0.009082 0.000000 0.000000 0.000000
# 4 0.000000 0.000000 0.000000 0.026619 0.000000 0.000000
# 5 0.000000 0.000000 0.000000 0.000000 0.030689 0.000000
# 6 0.000000 0.000000 0.000000 0.000000 0.000000 0.047633
#
#
# Mechanical properties :
#
#
# Convention : Reuss Voigt Hill
#
# Bulk Modulus (GPa) = 36.17146 71.03146 53.60146
# Shear Modulus (GPa) = 20.74004 28.65227 24.69615
#
# Velocity S-wave (km/s) = 3.35046 3.93803 3.65606
# Velocity P-wave (km/s) = 5.87752 7.68916 6.84355
#
# Compressibility (1/GPa) = 0.02764611
#
# Stress axis : x y z
#
# Youngs Moduli (GPa) = 20.93996 48.90684 110.10710
#
# Poissons Ratio (x) = 0.64125 0.71914
# Poissons Ratio (y) = 0.27456 0.56996
# Poissons Ratio (z) = 0.13677 0.25316
#
# Static dielectric constant tensor:
#      x y z
#    x 3.175220 0.000000 0.000000 
#    y 0.000000 3.457970 0.000000 
#    z 0.000000 0.000000 3.636950 
# 
# 
# High freq. dielectric constant tensor:
#      x y z
#    x 1.692210 0.000000 0.000000 
#    y 0.000000 1.720740 0.000000 
#    z 0.000000 0.000000 1.732570 
# 
# From -- ./inp_files/37732.got.cif
#   From: 2010.03.12/outbox.cif.g09.slc.cpg/sg53_19_cif.got.tgz:37732.got - 2010.04.16 14:36:59.
