data_PCOD8219140
_publ_section_title
;
Structure prediction by ZEFSAII (Michael W. Deem and Ramdas Pophale) SiO2 
 PCOD8219140
Probable space group: P M N A
;
_chemical_formula_sum "Si O2"
_cell_formula_units_Z 48
_cell_length_a 8.916893
_cell_length_b 31.115962
_cell_length_c 9.034367
_cell_angle_alpha 90.000000
_cell_angle_beta 90.000000
_cell_angle_gamma 90.000000
_cell_volume 2506.654723
_symmetry_space_group_name_H-M "P M N A"
_symmetry_group_IT_number 53
_symmetry_cell_setting 'orthorhombic'
loop_
_space_group_symop_operation_xyz
x,y,z
1/2-x,-y,1/2+z
x,-y,-z
1/2-x,y,1/2-z
-x,-y,-z
1/2+x,y,1/2-z
-x,y,z
1/2+x,-y,1/2+z
loop_
_atom_site_type_symbol
_atom_site_label
_atom_site_fract_x
_atom_site_fract_y
_atom_site_fract_z
Si Si1 0.174459 0.201056 0.095203
Si Si2 0.677285 0.725105 0.088232
Si Si3 0.172718 0.368456 0.595105
Si Si4 0.176245 0.539533 0.408417
Si Si5 0.825873 0.883484 0.091221
Si Si6 0.327032 0.957382 0.905380
O O1 0.250000 0.188344 0.250000
O O2 0.000000 0.210206 0.122225
O O3 0.251741 0.243112 0.029817
O O4 0.199856 0.162918 0.979610
O O5 0.750000 0.731355 0.250000
O O6 0.500000 0.733729 0.102618
O O7 0.713289 0.677300 0.019273
O O8 0.250000 0.369775 0.750000
O O9 0.211880 0.413757 0.511597
O O10 0.000000 0.368118 0.633225
O O11 0.246196 0.500000 0.500000
O O12 0.250000 0.538452 0.250000
O O13 0.000000 0.532826 0.389073
O O14 0.750000 0.884474 0.250000
O O15 0.000000 0.894530 0.110258
O O16 0.752577 0.918214 0.985325
O O17 0.250000 0.966323 0.750000
O O18 0.500000 0.945368 0.880529
O O19 0.307737 0.000000 0.000000
#
# Coordination Sequence:
#
# PCOD8219140 Si02
#       6
#     8   8   8   8   8   8
#     4  11  24  40  58  82 112 146 183 224 273 327
#     4  10  19  33  55  80 106 137 176 222 269 320
#     4   8  15  28  47  71  98 130 169 212 258 309
#     4   9  17  30  48  70  98 131 168 211 258 310
#     4  11  24  41  63  89 117 150 189 233 278 327
#     4  11  24  41  63  91 123 158 195 236 281 330
#
# _framework density 19.149027
#
# number of rings (size 3 to 8) (size 9 to 14) (size 15 to 20)
#    0.000    2.000    0.000    3.500    0.000    9.000 
#    0.000    0.833    0.000    2.000    0.000    0.000 
#    0.000    0.000    0.000    0.000    0.000    0.000 
#
# Total GULP energy -594832.501496 kJ/mol
# GULP energy per Si atom -12392.343781 kJ/mol
# Density = 1.910544 g / cm^3
# Si number density = 19.149027 Si / 1000 Ang^3
#
#
#
# Elastic Constant Matrix: (Units=GPa)
#
#
# Indices 1 2 3 4 5 6 
#
# 1 104.2435 64.3906 50.7921 0.0000 0.0000 0.0000
# 2 64.3906 126.3865 35.4638 0.0000 0.0000 0.0000
# 3 50.7921 35.4638 92.6185 0.0000 0.0000 0.0000
# 4 0.0000 0.0000 0.0000 27.4290 0.0000 0.0000
# 5 0.0000 0.0000 0.0000 0.0000 31.7235 0.0000
# 6 0.0000 0.0000 0.0000 0.0000 0.0000 29.4163
#
#
#
# Elastic Compliance Matrix: (Units=1/GPa)
#
#
# Indices 1 2 3 4 5 6 
#
# 1 0.017099 -0.006812 -0.006769 0.000000 0.000000 0.000000
# 2 -0.006812 0.011579 -0.000698 0.000000 0.000000 0.000000
# 3 -0.006769 -0.000698 0.014776 0.000000 0.000000 0.000000
# 4 0.000000 0.000000 0.000000 0.036458 0.000000 0.000000
# 5 0.000000 0.000000 0.000000 0.000000 0.031522 0.000000
# 6 0.000000 0.000000 0.000000 0.000000 0.000000 0.033995
#
#
# Mechanical properties :
#
#
# Convention : Reuss Voigt Hill
#
# Bulk Modulus (GPa) = 67.12958 69.39348 68.26153
# Shear Modulus (GPa) = 27.94073 29.22057 28.58065
#
# Velocity S-wave (km/s) = 3.82399 3.91059 3.86753
# Velocity P-wave (km/s) = 7.39119 7.53044 7.46114
#
# Compressibility (1/GPa) = 0.01489656
#
# Stress axis : x y z
#
# Youngs Moduli (GPa) = 58.48419 86.36640 67.67720
#
# Poissons Ratio (x) = 0.58833 0.45808
# Poissons Ratio (y) = 0.39840 0.04722
# Poissons Ratio (z) = 0.39585 0.06026
#
# Static dielectric constant tensor:
#      x y z
#    x 2.078650 0.000000 0.000000 
#    y 0.000000 4.336860 0.000000 
#    z 0.000000 0.000000 3.255890 
# 
# 
# High freq. dielectric constant tensor:
#      x y z
#    x 1.756980 0.000000 0.000000 
#    y 0.000000 1.775050 0.000000 
#    z 0.000000 0.000000 1.719530 
# 
# From -- ./inp_files/6574.got.cif
#   From: 2010.03.12/outbox.cif.g09.slc.cpg/sg53_4_cif.got.tgz:6574.got - 2010.04.16 14:36:59.
