data_PCOD8219235
_publ_section_title
;
Structure prediction by ZEFSAII (Michael W. Deem and Ramdas Pophale) SiO2 
 PCOD8219235
Probable space group: P M N A
;
_chemical_formula_sum "Si O2"
_cell_formula_units_Z 48
_cell_length_a 9.012403
_cell_length_b 9.584642
_cell_length_c 30.258621
_cell_angle_alpha 90.000000
_cell_angle_beta 90.000000
_cell_angle_gamma 90.000000
_cell_volume 2613.759541
_symmetry_space_group_name_H-M "P M N A"
_symmetry_group_IT_number 53
_symmetry_cell_setting 'orthorhombic'
loop_
_space_group_symop_operation_xyz
x,y,z
1/2-x,-y,1/2+z
x,-y,-z
1/2-x,y,1/2-z
-x,-y,-z
1/2+x,y,1/2-z
-x,y,z
1/2+x,-y,1/2+z
loop_
_atom_site_type_symbol
_atom_site_label
_atom_site_fract_x
_atom_site_fract_y
_atom_site_fract_z
Si Si1 0.825994 0.319028 0.610767
Si Si2 0.328446 0.200969 0.430991
Si Si3 0.824106 0.801807 0.703854
Si Si4 0.828502 0.348649 0.980733
Si Si5 0.824863 0.414005 0.144485
Si Si6 0.171958 0.007101 0.626696
O O1 0.778373 0.319498 0.559874
O O2 0.735636 0.429788 0.639710
O O3 0.785468 0.168800 0.631364
O O4 0.000000 0.351956 0.613787
O O5 0.500000 0.171346 0.424766
O O6 0.290067 0.235441 0.481610
O O7 0.282062 0.331661 0.400246
O O8 0.247451 0.059854 0.416497
O O9 0.750000 0.840419 0.750000
O O10 0.756009 0.657104 0.686056
O O11 0.000000 0.786140 0.709007
O O12 0.778157 0.927100 0.670982
O O13 0.000000 0.338479 0.965481
O O14 0.795352 0.500000 0.000000
O O15 0.000000 0.417452 0.153128
O O16 0.000000 0.987463 0.618366
#
# Coordination Sequence:
#
# PCOD8219235 Si02
#       6
#     8   8   8   8   8   8
#     4  11  22  35  52  79 112 148 184 226 276 325
#     4   9  18  33  54  76 102 141 188 230 269 316
#     4  10  20  38  62  86 108 137 175 219 268 326
#     4  10  19  34  52  75 108 145 188 237 276 316
#     4  10  19  35  57  81 108 141 179 223 269 319
#     4   9  21  38  54  76 112 147 178 221 274 327
#
# _framework density 18.364350000000002
#
# number of rings (size 3 to 8) (size 9 to 14) (size 15 to 20)
#    0.000    2.167    1.667    1.500    0.000    4.333 
#    0.000    4.167    0.000    2.000    0.000    0.000 
#    0.000    0.000    0.000    0.000    0.000    0.000 
#
# Total GULP energy -595323.257436 kJ/mol
# GULP energy per Si atom -12402.567863 kJ/mol
# Density = 1.832255 g / cm^3
# Si number density = 18.364350 Si / 1000 Ang^3
#
#
#
# Elastic Constant Matrix: (Units=GPa)
#
#
# Indices 1 2 3 4 5 6 
#
# 1 67.3189 42.2859 33.1666 0.0000 0.0000 0.0000
# 2 42.2859 95.7929 39.5100 0.0000 0.0000 0.0000
# 3 33.1666 39.5100 82.3412 0.0000 0.0000 0.0000
# 4 0.0000 0.0000 0.0000 15.0336 0.0000 0.0000
# 5 0.0000 0.0000 0.0000 0.0000 30.9213 0.0000
# 6 0.0000 0.0000 0.0000 0.0000 0.0000 31.1413
#
#
#
# Elastic Compliance Matrix: (Units=1/GPa)
#
#
# Indices 1 2 3 4 5 6 
#
# 1 0.022268 -0.007643 -0.005302 0.000000 0.000000 0.000000
# 2 -0.007643 0.015638 -0.004425 0.000000 0.000000 0.000000
# 3 -0.005302 -0.004425 0.016404 0.000000 0.000000 0.000000
# 4 0.000000 0.000000 0.000000 0.066518 0.000000 0.000000
# 5 0.000000 0.000000 0.000000 0.000000 0.032340 0.000000
# 6 0.000000 0.000000 0.000000 0.000000 0.000000 0.032112
#
#
# Mechanical properties :
#
#
# Convention : Reuss Voigt Hill
#
# Bulk Modulus (GPa) = 51.10045 52.81977 51.96011
# Shear Modulus (GPa) = 22.07096 24.11861 23.09479
#
# Velocity S-wave (km/s) = 3.47051 3.62793 3.55010
# Velocity P-wave (km/s) = 6.62915 6.80983 6.72009
#
# Compressibility (1/GPa) = 0.01956930
#
# Stress axis : x y z
#
# Youngs Moduli (GPa) = 44.90829 63.94624 60.96230
#
# Poissons Ratio (x) = 0.48873 0.32322
# Poissons Ratio (y) = 0.34322 0.26977
# Poissons Ratio (z) = 0.23810 0.28298
#
# Static dielectric constant tensor:
#      x y z
#    x 3.379860 0.000000 0.000000 
#    y 0.000000 3.497720 0.000000 
#    z 0.000000 0.000000 3.399000 
# 
# 
# High freq. dielectric constant tensor:
#      x y z
#    x 1.716400 0.000000 0.000000 
#    y 0.000000 1.712240 0.000000 
#    z 0.000000 0.000000 1.699190 
# 
# From -- ./inp_files/37663.got.cif
#   From: 2010.03.12/outbox.cif.g09.slc.cpg/sg53_19_cif.got.tgz:37663.got - 2010.04.16 14:36:59.
