data_PCOD8219096
_publ_section_title
;
Structure prediction by ZEFSAII (Michael W. Deem and Ramdas Pophale) SiO2 
 PCOD8219096
Probable space group: P M N A
;
_chemical_formula_sum "Si O2"
_cell_formula_units_Z 48
_cell_length_a 8.801022
_cell_length_b 18.797016
_cell_length_c 15.378115
_cell_angle_alpha 90.000000
_cell_angle_beta 90.000000
_cell_angle_gamma 90.000000
_cell_volume 2544.046951
_symmetry_space_group_name_H-M "P M N A"
_symmetry_group_IT_number 53
_symmetry_cell_setting 'orthorhombic'
loop_
_space_group_symop_operation_xyz
x,y,z
1/2-x,-y,1/2+z
x,-y,-z
1/2-x,y,1/2-z
-x,-y,-z
1/2+x,y,1/2-z
-x,y,z
1/2+x,-y,1/2+z
loop_
_atom_site_type_symbol
_atom_site_label
_atom_site_fract_x
_atom_site_fract_y
_atom_site_fract_z
Si Si1 0.176468 0.581618 0.494191
Si Si2 0.820159 0.171545 0.839541
Si Si3 0.321495 0.333374 0.660496
Si Si4 0.319412 0.920183 0.499945
Si Si5 0.819369 0.175153 0.159043
Si Si6 0.178581 0.325904 0.339972
O O1 0.226042 0.500000 0.500000
O O2 0.271831 0.618012 0.418853
O O3 0.215627 0.616778 0.586447
O O4 0.000000 0.589935 0.471027
O O5 0.750000 0.142737 0.750000
O O6 0.767219 0.252507 0.857353
O O7 0.000000 0.166429 0.833123
O O8 0.755432 0.122539 0.916896
O O9 0.250000 0.362282 0.750000
O O10 0.500000 0.337583 0.670658
O O11 0.500000 0.921599 0.495565
O O12 0.265144 0.881158 0.587267
O O13 0.252702 0.000000 0.500000
O O14 0.750000 0.149126 0.250000
O O15 0.755152 0.251889 0.132359
O O16 0.000000 0.180100 0.165930
O O17 0.250000 0.354311 0.250000
O O18 0.000000 0.313777 0.327056
#
# Coordination Sequence:
#
# PCOD8219096 Si02
#       6
#     8   8   8   8   8   8
#     4  10  22  38  54  77 109 140 171 212 261 310
#     4   9  18  33  53  76 100 130 170 212 252 297
#     4  10  20  35  56  80 105 136 176 218 260 308
#     4   9  18  32  50  73 103 138 170 203 250 306
#     4  10  19  33  54  77 102 132 171 215 255 302
#     4  10  20  35  56  78 103 135 172 215 259 306
#
# _framework density 18.867574999999999
#
# number of rings (size 3 to 8) (size 9 to 14) (size 15 to 20)
#    0.000    2.333    0.000    3.500    0.000    5.000 
#    0.000    3.333    0.000    3.500    0.000    0.000 
#    0.000    0.000    0.000    0.000    0.000    0.000 
#
# Total GULP energy -595308.372414 kJ/mol
# GULP energy per Si atom -12402.257759 kJ/mol
# Density = 1.882463 g / cm^3
# Si number density = 18.867575 Si / 1000 Ang^3
#
#
#
# Elastic Constant Matrix: (Units=GPa)
#
#
# Indices 1 2 3 4 5 6 
#
# 1 62.1115 38.4114 49.2262 0.0000 0.0000 0.0000
# 2 38.4114 132.1370 101.5334 0.0000 0.0000 0.0000
# 3 49.2262 101.5334 165.3664 0.0000 0.0000 0.0000
# 4 0.0000 0.0000 0.0000 20.5981 0.0000 0.0000
# 5 0.0000 0.0000 0.0000 0.0000 27.0438 0.0000
# 6 0.0000 0.0000 0.0000 0.0000 0.0000 19.0349
#
#
#
# Elastic Compliance Matrix: (Units=1/GPa)
#
#
# Indices 1 2 3 4 5 6 
#
# 1 0.021507 -0.002523 -0.004853 0.000000 0.000000 0.000000
# 2 -0.002523 0.014623 -0.008228 0.000000 0.000000 0.000000
# 3 -0.004853 -0.008228 0.012544 0.000000 0.000000 0.000000
# 4 0.000000 0.000000 0.000000 0.048548 0.000000 0.000000
# 5 0.000000 0.000000 0.000000 0.000000 0.036977 0.000000
# 6 0.000000 0.000000 0.000000 0.000000 0.000000 0.052535
#
#
# Mechanical properties :
#
#
# Convention : Reuss Voigt Hill
#
# Bulk Modulus (GPa) = 57.25258 81.99523 69.62391
# Shear Modulus (GPa) = 22.34511 24.69828 23.52170
#
# Velocity S-wave (km/s) = 3.44512 3.62198 3.53466
# Velocity P-wave (km/s) = 6.79966 7.81308 7.32392
#
# Compressibility (1/GPa) = 0.01746646
#
# Stress axis : x y z
#
# Youngs Moduli (GPa) = 46.49753 68.38412 79.72235
#
# Poissons Ratio (x) = 0.17251 0.38691
# Poissons Ratio (y) = 0.11730 0.65592
# Poissons Ratio (z) = 0.22566 0.56264
#
# Static dielectric constant tensor:
#      x y z
#    x 3.304030 0.000000 0.000000 
#    y 0.000000 3.554800 0.000000 
#    z 0.000000 0.000000 3.513550 
# 
# 
# High freq. dielectric constant tensor:
#      x y z
#    x 1.721160 0.000000 0.000000 
#    y 0.000000 1.728470 0.000000 
#    z 0.000000 0.000000 1.747600 
# 
# From -- ./inp_files/20153.got.cif
#   From: 2010.03.12/outbox.cif.g09.slc.cpg/sg53_11_cif.got.tgz:20153.got - 2010.04.16 14:36:59.
