data_PCOD8219857
_publ_section_title
;
Structure prediction by ZEFSAII (Michael W. Deem and Ramdas Pophale) SiO2 
 PCOD8219857
Probable space group: P M N A
;
_chemical_formula_sum "Si O2"
_cell_formula_units_Z 48
_cell_length_a 8.752340
_cell_length_b 31.325746
_cell_length_c 9.661308
_cell_angle_alpha 90.000000
_cell_angle_beta 90.000000
_cell_angle_gamma 90.000000
_cell_volume 2648.875399
_symmetry_space_group_name_H-M "P M N A"
_symmetry_group_IT_number 53
_symmetry_cell_setting 'orthorhombic'
loop_
_space_group_symop_operation_xyz
x,y,z
1/2-x,-y,1/2+z
x,-y,-z
1/2-x,y,1/2-z
-x,-y,-z
1/2+x,y,1/2-z
-x,y,z
1/2+x,-y,1/2+z
loop_
_atom_site_type_symbol
_atom_site_label
_atom_site_fract_x
_atom_site_fract_y
_atom_site_fract_z
Si Si1 0.319421 0.786144 0.597292
Si Si2 0.678595 0.870423 0.900097
Si Si3 0.821951 0.716539 0.401510
Si Si4 0.176453 0.377894 0.601453
Si Si5 0.678512 0.035974 0.100305
Si Si6 0.319489 0.461831 0.597554
O O1 0.250000 0.781467 0.750000
O O2 0.500000 0.786139 0.607781
O O3 0.261948 0.830547 0.524679
O O4 0.265551 0.747226 0.504697
O O5 0.750000 0.873459 0.750000
O O6 0.500000 0.860086 0.890874
O O7 0.709175 0.917024 0.968156
O O8 0.750000 0.720617 0.250000
O O9 0.802032 0.668808 0.467061
O O10 0.000000 0.728704 0.391554
O O11 0.250000 0.373783 0.750000
O O12 0.261989 0.417354 0.525912
O O13 0.000000 0.390149 0.614958
O O14 0.750000 0.030951 0.250000
O O15 0.500000 0.028525 0.119866
O O16 0.749613 0.000000 0.000000
O O17 0.261900 0.500000 0.500000
O O18 0.250000 0.467666 0.750000
O O19 0.500000 0.461266 0.609760
#
# Coordination Sequence:
#
# PCOD8219857 Si02
#       6
#     8   8   8   8   8   8
#     4  11  21  34  53  76 102 133 169 209 252 299
#     4   9  16  29  49  70  96 129 165 204 244 293
#     4  10  20  35  54  78 104 132 168 207 251 300
#     4   9  17  30  51  74  98 130 165 201 242 293
#     4   9  18  32  50  73  99 128 163 203 246 292
#     4  10  20  33  51  75 101 131 167 205 245 291
#
# _framework density 18.120898
#
# number of rings (size 3 to 8) (size 9 to 14) (size 15 to 20)
#    0.000    2.333    0.000    5.500    0.000    4.333 
#    0.000    1.667    0.000    4.000    0.000    0.000 
#    0.000    0.000    0.000    0.000    0.000    0.000 
#
# Total GULP energy -594732.966130 kJ/mol
# GULP energy per Si atom -12390.270128 kJ/mol
# Density = 1.807965 g / cm^3
# Si number density = 18.120898 Si / 1000 Ang^3
#
#
#
# Elastic Constant Matrix: (Units=GPa)
#
#
# Indices 1 2 3 4 5 6 
#
# 1 118.0725 68.5834 33.6186 0.0000 0.0000 0.0000
# 2 68.5834 178.3277 59.2714 0.0000 0.0000 0.0000
# 3 33.6186 59.2714 56.4917 0.0000 0.0000 0.0000
# 4 0.0000 0.0000 0.0000 35.1297 0.0000 0.0000
# 5 0.0000 0.0000 0.0000 0.0000 24.1307 0.0000
# 6 0.0000 0.0000 0.0000 0.0000 0.0000 25.0218
#
#
#
# Elastic Compliance Matrix: (Units=1/GPa)
#
#
# Indices 1 2 3 4 5 6 
#
# 1 0.011298 -0.003240 -0.003324 0.000000 0.000000 0.000000
# 2 -0.003240 0.009540 -0.008081 0.000000 0.000000 0.000000
# 3 -0.003324 -0.008081 0.028158 0.000000 0.000000 0.000000
# 4 0.000000 0.000000 0.000000 0.028466 0.000000 0.000000
# 5 0.000000 0.000000 0.000000 0.000000 0.041441 0.000000
# 6 0.000000 0.000000 0.000000 0.000000 0.000000 0.039965
#
#
# Mechanical properties :
#
#
# Convention : Reuss Voigt Hill
#
# Bulk Modulus (GPa) = 50.74572 75.09318 62.91945
# Shear Modulus (GPa) = 25.67712 29.61767 27.64740
#
# Velocity S-wave (km/s) = 3.76838 4.04722 3.91028
# Velocity P-wave (km/s) = 6.85558 7.96053 7.42863
#
# Compressibility (1/GPa) = 0.01970610
#
# Stress axis : x y z
#
# Youngs Moduli (GPa) = 88.51187 104.82502 35.51394
#
# Poissons Ratio (x) = 0.33968 0.11803
# Poissons Ratio (y) = 0.28681 0.28698
# Poissons Ratio (z) = 0.29418 0.84706
#
# Static dielectric constant tensor:
#      x y z
#    x 3.487400 0.000000 0.000000 
#    y 0.000000 4.521320 0.000000 
#    z 0.000000 0.000000 2.993190 
# 
# 
# High freq. dielectric constant tensor:
#      x y z
#    x 1.718820 0.000000 0.000000 
#    y 0.000000 1.731820 0.000000 
#    z 0.000000 0.000000 1.647480 
# 
# From -- ./inp_files/14077.got.cif
#   From: 2010.03.12/outbox.cif.g09.slc.cpg/sg53_8_cif.got.tgz:14077.got - 2010.04.16 14:36:59.
