data_PCOD8219462
_publ_section_title
;
Structure prediction by ZEFSAII (Michael W. Deem and Ramdas Pophale) SiO2 
 PCOD8219462
Probable space group: P M N A
;
_chemical_formula_sum "Si O2"
_cell_formula_units_Z 48
_cell_length_a 7.754187
_cell_length_b 17.156508
_cell_length_c 18.175878
_cell_angle_alpha 90.000000
_cell_angle_beta 90.000000
_cell_angle_gamma 90.000000
_cell_volume 2418.023773
_symmetry_space_group_name_H-M "P M N A"
_symmetry_group_IT_number 53
_symmetry_cell_setting 'orthorhombic'
loop_
_space_group_symop_operation_xyz
x,y,z
1/2-x,-y,1/2+z
x,-y,-z
1/2-x,y,1/2-z
-x,-y,-z
1/2+x,y,1/2-z
-x,y,z
1/2+x,-y,1/2+z
loop_
_atom_site_type_symbol
_atom_site_label
_atom_site_fract_x
_atom_site_fract_y
_atom_site_fract_z
Si Si1 0.696757 0.990785 0.580045
Si Si2 0.296824 0.843294 0.666249
Si Si3 0.699956 0.140003 0.834442
Si Si4 0.500000 0.410181 0.586637
Si Si5 0.000000 0.416426 0.087657
Si Si6 0.301082 0.297676 0.916416
Si Si7 0.192056 0.308342 0.413477
O O1 0.500000 0.968007 0.566471
O O2 0.702222 0.068941 0.627829
O O3 0.788254 0.000000 0.500000
O O4 0.780317 0.918259 0.623384
O O5 0.250000 0.856776 0.750000
O O6 0.500000 0.832755 0.655278
O O7 0.200901 0.767424 0.636827
O O8 0.750000 0.147097 0.750000
O O9 0.500000 0.123049 0.843603
O O10 0.753630 0.219381 0.874740
O O11 0.500000 0.496635 0.621887
O O12 0.500000 0.419434 0.499655
O O13 0.326352 0.365575 0.612453
O O14 0.171634 0.372174 0.115247
O O15 0.500000 0.321036 0.899800
O O16 0.269282 0.283256 0.002734
O O17 0.000000 0.344501 0.406976
#
# Coordination Sequence:
#
# PCOD8219462 Si02
#       7
#     8   8   8   4   4   8   8
#     4  10  22  38  58  83 114 151 191 236 285 333
#     4  11  22  36  54  81 113 151 194 238 279 341
#     4  11  23  37  55  82 113 152 193 238 280 337
#     4   9  18  32  60  83 117 151 177 237 291 337
#     4   9  18  34  54  91 115 143 189 229 291 347
#     4   9  20  35  55  86 114 147 194 236 286 343
#     4  10  19  35  58  83 115 149 188 239 287 340
#
# _framework density 19.850923000000002
#
# number of rings (size 3 to 8) (size 9 to 14) (size 15 to 20)
#    0.000    2.000    0.833    2.500    2.333    3.667 
#    0.000    3.333    0.000    1.000    0.000    0.000 
#    0.000    0.000    0.000    0.000    0.000    0.000 
#
# Total GULP energy -595237.093173 kJ/mol
# GULP energy per Si atom -12400.772774 kJ/mol
# Density = 1.980574 g / cm^3
# Si number density = 19.850923 Si / 1000 Ang^3
#
#
#
# Elastic Constant Matrix: (Units=GPa)
#
#
# Indices 1 2 3 4 5 6 
#
# 1 91.3607 50.6220 19.0656 0.0000 0.0000 0.0000
# 2 50.6220 153.9376 41.9328 0.0000 0.0000 0.0000
# 3 19.0656 41.9328 84.4911 0.0000 0.0000 0.0000
# 4 0.0000 0.0000 0.0000 6.9293 0.0000 0.0000
# 5 0.0000 0.0000 0.0000 0.0000 19.1331 0.0000
# 6 0.0000 0.0000 0.0000 0.0000 0.0000 19.2494
#
#
#
# Elastic Compliance Matrix: (Units=1/GPa)
#
#
# Indices 1 2 3 4 5 6 
#
# 1 0.013453 -0.004159 -0.000971 0.000000 0.000000 0.000000
# 2 -0.004159 0.008798 -0.003428 0.000000 0.000000 0.000000
# 3 -0.000971 -0.003428 0.013756 0.000000 0.000000 0.000000
# 4 0.000000 0.000000 0.000000 0.144314 0.000000 0.000000
# 5 0.000000 0.000000 0.000000 0.000000 0.052266 0.000000
# 6 0.000000 0.000000 0.000000 0.000000 0.000000 0.051950
#
#
# Mechanical properties :
#
#
# Convention : Reuss Voigt Hill
#
# Bulk Modulus (GPa) = 52.93908 61.44781 57.19345
# Shear Modulus (GPa) = 16.23641 23.60695 19.92168
#
# Velocity S-wave (km/s) = 2.86303 3.45224 3.17135
# Velocity P-wave (km/s) = 6.13640 6.84926 6.50261
#
# Compressibility (1/GPa) = 0.01888964
#
# Stress axis : x y z
#
# Youngs Moduli (GPa) = 74.33281 113.66675 72.69598
#
# Poissons Ratio (x) = 0.47278 0.07062
# Poissons Ratio (y) = 0.30918 0.24918
# Poissons Ratio (z) = 0.07221 0.38961
#
# Static dielectric constant tensor:
#      x y z
#    x 3.717340 0.000000 0.000000 
#    y 0.000000 3.692430 0.000000 
#    z 0.000000 0.000000 3.478060 
# 
# 
# High freq. dielectric constant tensor:
#      x y z
#    x 1.781960 0.000000 0.000000 
#    y 0.000000 1.770990 0.000000 
#    z 0.000000 0.000000 1.756540 
# 
# From -- ./inp_files/26329.got.cif
#   From: 2010.03.12/outbox.cif.g09.slc.cpg/sg53_14_cif.got.tgz:26329.got - 2010.04.16 14:36:59.
