data_PCOD8219067
_publ_section_title
;
Structure prediction by ZEFSAII (Michael W. Deem and Ramdas Pophale) SiO2 
 PCOD8219067
Probable space group: P M N A
;
_chemical_formula_sum "Si O2"
_cell_formula_units_Z 64
_cell_length_a 9.198357
_cell_length_b 22.664720
_cell_length_c 15.956086
_cell_angle_alpha 90.000000
_cell_angle_beta 90.000000
_cell_angle_gamma 90.000000
_cell_volume 3326.495863
_symmetry_space_group_name_H-M "P M N A"
_symmetry_group_IT_number 53
_symmetry_cell_setting 'orthorhombic'
loop_
_space_group_symop_operation_xyz
x,y,z
1/2-x,-y,1/2+z
x,-y,-z
1/2-x,y,1/2-z
-x,-y,-z
1/2+x,y,1/2-z
-x,y,z
1/2+x,-y,1/2+z
loop_
_atom_site_type_symbol
_atom_site_label
_atom_site_fract_x
_atom_site_fract_y
_atom_site_fract_z
Si Si1 0.334061 0.126440 0.575067
Si Si2 0.161197 0.074650 0.429983
Si Si3 0.164375 0.960838 0.327227
Si Si4 0.666098 0.810882 0.834054
Si Si5 0.830020 0.423609 0.333067
Si Si6 0.330261 0.244961 0.488374
Si Si7 0.330532 0.559550 0.167360
Si Si8 0.828409 0.363343 0.507269
O O1 0.500000 0.111663 0.595560
O O2 0.289739 0.090441 0.492353
O O3 0.234677 0.102503 0.650326
O O4 0.309361 0.195921 0.561047
O O5 0.172667 0.118897 0.350981
O O6 0.000000 0.083028 0.471773
O O7 0.178472 0.006839 0.403277
O O8 0.250000 0.989158 0.250000
O O9 0.000000 0.949813 0.300451
O O10 0.750000 0.795752 0.750000
O O11 0.500000 0.789119 0.826267
O O12 0.742177 0.773775 0.906680
O O13 0.750000 0.398187 0.250000
O O14 0.787216 0.491623 0.346725
O O15 0.780931 0.389652 0.417160
O O16 0.000000 0.415698 0.317615
O O17 0.500000 0.252347 0.465953
O O18 0.262709 0.304532 0.524453
O O19 0.250000 0.584973 0.250000
O O20 0.500000 0.567194 0.184391
O O21 0.284026 0.592933 0.082549
O O22 0.000000 0.350178 0.508647
#
# Coordination Sequence:
#
# PCOD8219067 Si02
#       8
#     8   8   8   8   8   8   8   8
#     4  10  21  37  55  74  99 134 173 213 258 307
#     4   9  19  34  53  78 105 133 165 205 256 314
#     4  11  22  35  53  78 106 132 163 207 259 314
#     4  10  19  33  53  76 105 139 174 213 260 314
#     4   9  18  33  54  82 115 147 178 214 260 318
#     4  10  22  38  54  74 102 137 180 224 262 307
#     4   9  18  34  56  82 111 142 178 221 269 320
#     4  10  20  35  56  80 108 145 184 222 268 319
#
# _framework density 19.239464999999999
#
# number of rings (size 3 to 8) (size 9 to 14) (size 15 to 20)
#    0.000    2.250    0.000    2.625    0.000    7.500 
#    0.000    1.875    0.000    5.250    0.000    0.000 
#    0.000    0.000    0.000    0.000    0.000    0.000 
#
# Total GULP energy -793578.925985 kJ/mol
# GULP energy per Si atom -12399.670719 kJ/mol
# Density = 1.919568 g / cm^3
# Si number density = 19.239465 Si / 1000 Ang^3
#
#
#
# Elastic Constant Matrix: (Units=GPa)
#
#
# Indices 1 2 3 4 5 6 
#
# 1 101.0725 46.3962 38.1815 0.0000 0.0000 0.0000
# 2 46.3962 88.3180 30.9157 0.0000 0.0000 0.0000
# 3 38.1815 30.9157 80.7002 0.0000 0.0000 0.0000
# 4 0.0000 0.0000 0.0000 19.7484 0.0000 0.0000
# 5 0.0000 0.0000 0.0000 0.0000 36.6351 0.0000
# 6 0.0000 0.0000 0.0000 0.0000 0.0000 19.0475
#
#
#
# Elastic Compliance Matrix: (Units=1/GPa)
#
#
# Indices 1 2 3 4 5 6 
#
# 1 0.014325 -0.005951 -0.004498 0.000000 0.000000 0.000000
# 2 -0.005951 0.015548 -0.003141 0.000000 0.000000 0.000000
# 3 -0.004498 -0.003141 0.015723 0.000000 0.000000 0.000000
# 4 0.000000 0.000000 0.000000 0.050637 0.000000 0.000000
# 5 0.000000 0.000000 0.000000 0.000000 0.027296 0.000000
# 6 0.000000 0.000000 0.000000 0.000000 0.000000 0.052500
#
#
# Mechanical properties :
#
#
# Convention : Reuss Voigt Hill
#
# Bulk Modulus (GPa) = 54.29794 55.67529 54.98662
# Shear Modulus (GPa) = 23.88377 25.39268 24.63822
#
# Velocity S-wave (km/s) = 3.52717 3.63688 3.58244
# Velocity P-wave (km/s) = 6.69860 6.82911 6.76417
#
# Compressibility (1/GPa) = 0.01841690
#
# Stress axis : x y z
#
# Youngs Moduli (GPa) = 69.81018 64.31557 63.60192
#
# Poissons Ratio (x) = 0.38273 0.28606
# Poissons Ratio (y) = 0.41542 0.19977
# Poissons Ratio (z) = 0.31398 0.20201
#
# Static dielectric constant tensor:
#      x y z
#    x 3.557080 0.000000 0.000000 
#    y 0.000000 3.502570 0.000000 
#    z 0.000000 0.000000 3.474110 
# 
# 
# High freq. dielectric constant tensor:
#      x y z
#    x 1.753170 0.000000 0.000000 
#    y 0.000000 1.740150 0.000000 
#    z 0.000000 0.000000 1.742070 
# 
# From -- ./inp_files/20824.got.cif
#   From: 2010.03.12/outbox.cif.g09.slc.cpg/sg53_11_cif.got.tgz:20824.got - 2010.04.16 14:36:59.
