data_PCOD8219558
_publ_section_title
;
Structure prediction by ZEFSAII (Michael W. Deem and Ramdas Pophale) SiO2 
 PCOD8219558
Probable space group: P M N A
;
_chemical_formula_sum "Si O2"
_cell_formula_units_Z 48
_cell_length_a 7.784116
_cell_length_b 17.134469
_cell_length_c 18.038450
_cell_angle_alpha 90.000000
_cell_angle_beta 90.000000
_cell_angle_gamma 90.000000
_cell_volume 2405.908831
_symmetry_space_group_name_H-M "P M N A"
_symmetry_group_IT_number 53
_symmetry_cell_setting 'orthorhombic'
loop_
_space_group_symop_operation_xyz
x,y,z
1/2-x,-y,1/2+z
x,-y,-z
1/2-x,y,1/2-z
-x,-y,-z
1/2+x,y,1/2-z
-x,y,z
1/2+x,-y,1/2+z
loop_
_atom_site_type_symbol
_atom_site_label
_atom_site_fract_x
_atom_site_fract_y
_atom_site_fract_z
Si Si1 0.797563 0.991411 0.585484
Si Si2 0.306169 0.839981 0.668026
Si Si3 0.701019 0.144514 0.834943
Si Si4 0.500000 0.411057 0.585661
Si Si5 0.000000 0.415141 0.090138
Si Si6 0.300388 0.298656 0.917659
Si Si7 0.189789 0.308836 0.410341
O O1 0.720517 0.066284 0.628953
O O2 0.000000 0.982480 0.597663
O O3 0.749177 0.000000 0.500000
O O4 0.706881 0.914835 0.615959
O O5 0.250000 0.864722 0.750000
O O6 0.500000 0.809501 0.667669
O O7 0.190790 0.769468 0.638132
O O8 0.750000 0.150651 0.750000
O O9 0.500000 0.140444 0.845970
O O10 0.767845 0.220759 0.877668
O O11 0.500000 0.497013 0.622463
O O12 0.500000 0.418410 0.497817
O O13 0.324969 0.367506 0.611049
O O14 0.170684 0.370965 0.118806
O O15 0.500000 0.318643 0.898507
O O16 0.274247 0.285001 0.004902
O O17 0.000000 0.346649 0.402703
#
# Coordination Sequence:
#
# PCOD8219558 Si02
#       7
#     8   8   8   4   4   8   8
#     4  10  21  39  59  81 115 153 192 239 289 335
#     4  12  24  38  56  84 115 153 198 241 284 346
#     4  10  21  35  53  80 110 150 193 236 280 338
#     4   9  18  32  58  85 119 147 181 239 289 339
#     4   9  18  34  54  91 117 143 187 235 291 347
#     4   9  19  35  56  84 114 150 193 235 289 343
#     4  10  19  36  59  83 115 151 190 239 290 343
#
# _framework density 19.950880000000002
#
# number of rings (size 3 to 8) (size 9 to 14) (size 15 to 20)
#    0.000    2.000    0.833    3.000    1.167    5.667 
#    0.000    3.333    0.000    1.000    0.000    0.000 
#    0.000    0.000    0.000    0.000    0.000    0.000 
#
# Total GULP energy -595251.905506 kJ/mol
# GULP energy per Si atom -12401.081365 kJ/mol
# Density = 1.990547 g / cm^3
# Si number density = 19.950880 Si / 1000 Ang^3
#
#
#
# Elastic Constant Matrix: (Units=GPa)
#
#
# Indices 1 2 3 4 5 6 
#
# 1 102.7244 54.0027 23.7892 0.0000 0.0000 0.0000
# 2 54.0027 152.1323 32.7820 0.0000 0.0000 0.0000
# 3 23.7892 32.7820 72.4714 0.0000 0.0000 0.0000
# 4 0.0000 0.0000 0.0000 9.2776 0.0000 0.0000
# 5 0.0000 0.0000 0.0000 0.0000 22.8543 0.0000
# 6 0.0000 0.0000 0.0000 0.0000 0.0000 27.5679
#
#
#
# Elastic Compliance Matrix: (Units=1/GPa)
#
#
# Indices 1 2 3 4 5 6 
#
# 1 0.012301 -0.003874 -0.002285 0.000000 0.000000 0.000000
# 2 -0.003874 0.008503 -0.002575 0.000000 0.000000 0.000000
# 3 -0.002285 -0.002575 0.015713 0.000000 0.000000 0.000000
# 4 0.000000 0.000000 0.000000 0.107786 0.000000 0.000000
# 5 0.000000 0.000000 0.000000 0.000000 0.043755 0.000000
# 6 0.000000 0.000000 0.000000 0.000000 0.000000 0.036274
#
#
# Mechanical properties :
#
#
# Convention : Reuss Voigt Hill
#
# Bulk Modulus (GPa) = 52.49594 60.94175 56.71885
# Shear Modulus (GPa) = 20.14904 26.39025 23.26964
#
# Velocity S-wave (km/s) = 3.18139 3.64092 3.41889
# Velocity P-wave (km/s) = 6.31385 6.94891 6.63898
#
# Compressibility (1/GPa) = 0.01904909
#
# Stress axis : x y z
#
# Youngs Moduli (GPa) = 81.29704 117.60339 63.63996
#
# Poissons Ratio (x) = 0.45558 0.14544
# Poissons Ratio (y) = 0.31494 0.16386
# Poissons Ratio (z) = 0.18580 0.30280
#
# Static dielectric constant tensor:
#      x y z
#    x 3.711420 0.000000 0.000000 
#    y 0.000000 3.827950 0.000000 
#    z 0.000000 0.000000 3.426440 
# 
# 
# High freq. dielectric constant tensor:
#      x y z
#    x 1.785410 0.000000 0.000000 
#    y 0.000000 1.776010 0.000000 
#    z 0.000000 0.000000 1.757410 
# 
# From -- ./inp_files/26330.got.cif
#   From: 2010.03.12/outbox.cif.g09.slc.cpg/sg53_14_cif.got.tgz:26330.got - 2010.04.16 14:36:59.
