data_PCOD8219694
_publ_section_title
;
Structure prediction by ZEFSAII (Michael W. Deem and Ramdas Pophale) SiO2 
 PCOD8219694
Probable space group: P M N A
;
_chemical_formula_sum "Si O2"
_cell_formula_units_Z 64
_cell_length_a 9.644567
_cell_length_b 19.914700
_cell_length_c 22.584419
_cell_angle_alpha 90.000000
_cell_angle_beta 90.000000
_cell_angle_gamma 90.000000
_cell_volume 4337.759059
_symmetry_space_group_name_H-M "P M N A"
_symmetry_group_IT_number 53
_symmetry_cell_setting 'orthorhombic'
loop_
_space_group_symop_operation_xyz
x,y,z
1/2-x,-y,1/2+z
x,-y,-z
1/2-x,y,1/2-z
-x,-y,-z
1/2+x,y,1/2-z
-x,y,z
1/2+x,-y,1/2+z
loop_
_atom_site_type_symbol
_atom_site_label
_atom_site_fract_x
_atom_site_fract_y
_atom_site_fract_z
Si Si1 0.841369 0.092304 0.400108
Si Si2 0.342465 0.974976 0.433084
Si Si3 0.159734 0.706595 0.475429
Si Si4 0.661161 0.670346 0.891575
Si Si5 0.158725 0.141285 0.531579
Si Si6 0.843687 0.552628 0.915894
Si Si7 0.161537 0.791903 0.691400
Si Si8 0.156007 0.590971 0.052507
O O1 0.817769 0.129811 0.462047
O O2 0.804031 0.143880 0.348562
O O3 0.000000 0.067017 0.395405
O O4 0.738985 0.028907 0.392982
O O5 0.500000 0.966456 0.409847
O O6 0.261843 0.904201 0.429366
O O7 0.340909 0.000000 0.500000
O O8 0.199696 0.700474 0.544412
O O9 0.193862 0.781620 0.453811
O O10 0.245527 0.654515 0.434828
O O11 0.000000 0.688951 0.465991
O O12 0.500000 0.653152 0.887488
O O13 0.743588 0.601303 0.878520
O O14 0.705911 0.724650 0.842978
O O15 0.000000 0.123832 0.548421
O O16 0.797719 0.474442 0.909269
O O17 0.000000 0.561933 0.892287
O O18 0.834954 0.572061 0.984149
O O19 0.250000 0.797977 0.750000
O O20 0.000000 0.789712 0.707674
O O21 0.000000 0.611505 0.069712
#
# Coordination Sequence:
#
# PCOD8219694 Si02
#       8
#     8   8   8   8   8   8   8   8
#     4   9  16  29  44  54  71 101 132 162 198 240
#     4   9  17  26  37  57  79  96 123 162 197 233
#     4   9  15  23  37  55  75 100 132 163 189 224
#     4   9  16  27  40  54  72  96 129 168 201 229
#     4   9  15  25  40  56  75 103 133 159 192 235
#     4   8  14  24  36  50  70  97 128 157 189 230
#     4  10  20  32  44  59  78 101 133 172 210 244
#     4   8  14  23  33  49  74 100 125 155 189 225
#
# _framework density 14.754161
#
# number of rings (size 3 to 8) (size 9 to 14) (size 15 to 20)
#    0.000    3.125    1.250    1.125    0.000    3.500 
#    0.000    2.500    0.000    0.000    0.000    0.000 
#    0.000    0.000    0.000    1.125    0.000   16.500 
#
# Total GULP energy -793302.734514 kJ/mol
# GULP energy per Si atom -12395.355227 kJ/mol
# Density = 1.472058 g / cm^3
# Si number density = 14.754161 Si / 1000 Ang^3
#
#
#
# Elastic Constant Matrix: (Units=GPa)
#
#
# Indices 1 2 3 4 5 6 
#
# 1 92.1470 81.6187 29.9398 0.0000 0.0000 0.0000
# 2 81.6187 136.2831 34.8958 0.0000 0.0000 0.0000
# 3 29.9398 34.8958 33.7136 0.0000 0.0000 0.0000
# 4 0.0000 0.0000 0.0000 12.1508 0.0000 0.0000
# 5 0.0000 0.0000 0.0000 0.0000 15.9747 0.0000
# 6 0.0000 0.0000 0.0000 0.0000 0.0000 29.0611
#
#
#
# Elastic Compliance Matrix: (Units=1/GPa)
#
#
# Indices 1 2 3 4 5 6 
#
# 1 0.025020 -0.012647 -0.009129 0.000000 0.000000 0.000000
# 2 -0.012647 0.016376 -0.005719 0.000000 0.000000 0.000000
# 3 -0.009129 -0.005719 0.043689 0.000000 0.000000 0.000000
# 4 0.000000 0.000000 0.000000 0.082299 0.000000 0.000000
# 5 0.000000 0.000000 0.000000 0.000000 0.062599 0.000000
# 6 0.000000 0.000000 0.000000 0.000000 0.000000 0.034410
#
#
# Mechanical properties :
#
#
# Convention : Reuss Voigt Hill
#
# Bulk Modulus (GPa) = 33.22863 61.67249 47.45056
# Shear Modulus (GPa) = 15.17837 19.14994 17.16415
#
# Velocity S-wave (km/s) = 3.21090 3.60659 3.41448
# Velocity P-wave (km/s) = 6.02635 7.69637 6.91198
#
# Compressibility (1/GPa) = 0.03009453
#
# Stress axis : x y z
#
# Youngs Moduli (GPa) = 39.96740 61.06421 22.88918
#
# Poissons Ratio (x) = 0.77227 0.20896
# Poissons Ratio (y) = 0.50546 0.13091
# Poissons Ratio (z) = 0.36487 0.34924
#
# Static dielectric constant tensor:
#      x y z
#    x 2.974950 0.000000 0.000000 
#    y 0.000000 3.129540 0.000000 
#    z 0.000000 0.000000 2.308370 
# 
# 
# High freq. dielectric constant tensor:
#      x y z
#    x 1.569330 0.000000 0.000000 
#    y 0.000000 1.574820 0.000000 
#    z 0.000000 0.000000 1.489820 
# 
# From -- ./inp_files/34547.got.cif
#   From: 2010.03.12/outbox.cif.g09.slc.cpg/sg53_18_cif.got.tgz:34547.got - 2010.04.16 14:36:59.
