data_PCOD8219688
_publ_section_title
;
Structure prediction by ZEFSAII (Michael W. Deem and Ramdas Pophale) SiO2 
 PCOD8219688
Probable space group: P M N A
;
_chemical_formula_sum "Si O2"
_cell_formula_units_Z 48
_cell_length_a 9.013179
_cell_length_b 12.713132
_cell_length_c 25.202113
_cell_angle_alpha 90.000000
_cell_angle_beta 90.000000
_cell_angle_gamma 90.000000
_cell_volume 2887.802626
_symmetry_space_group_name_H-M "P M N A"
_symmetry_group_IT_number 53
_symmetry_cell_setting 'orthorhombic'
loop_
_space_group_symop_operation_xyz
x,y,z
1/2-x,-y,1/2+z
x,-y,-z
1/2-x,y,1/2-z
-x,-y,-z
1/2+x,y,1/2-z
-x,y,z
1/2+x,-y,1/2+z
loop_
_atom_site_type_symbol
_atom_site_label
_atom_site_fract_x
_atom_site_fract_y
_atom_site_fract_z
Si Si1 0.826239 0.476166 0.306666
Si Si2 0.176342 0.876639 0.390877
Si Si3 0.174103 0.275488 0.193270
Si Si4 0.163418 0.124133 0.493449
Si Si5 0.172264 0.902479 0.890723
Si Si6 0.673194 0.291633 0.806265
O O1 0.750000 0.477822 0.250000
O O2 0.745699 0.378544 0.336359
O O3 0.797395 0.591921 0.331388
O O4 0.000000 0.452140 0.302005
O O5 0.222799 0.833735 0.449525
O O6 0.235459 0.792737 0.348115
O O7 0.000000 0.890271 0.388703
O O8 0.246467 0.988979 0.377594
O O9 0.250000 0.255179 0.250000
O O10 0.207590 0.175106 0.157329
O O11 0.000000 0.293987 0.200996
O O12 0.272569 0.152389 0.445294
O O13 0.000000 0.170647 0.480705
O O14 0.151952 0.000000 0.500000
O O15 0.000000 0.926090 0.897148
O O16 0.750000 0.274138 0.750000
O O17 0.500000 0.275212 0.796283
#
# Coordination Sequence:
#
# PCOD8219688 Si02
#       6
#     8   8   8   8   8   8
#     4   9  16  28  47  67  87 115 151 186 220 260
#     4   9  18  32  48  67  93 122 150 182 221 266
#     4  10  20  32  46  66  92 120 150 185 224 265
#     4   8  15  29  48  66  85 116 154 186 219 261
#     4  10  20  31  45  68  94 118 148 187 226 264
#     4   9  18  31  47  69  95 120 148 184 223 265
#
# _framework density 16.621635999999999
#
# number of rings (size 3 to 8) (size 9 to 14) (size 15 to 20)
#    0.000    2.833    0.000    3.500    0.000    7.667 
#    0.000    3.333    0.000    1.000    0.000    7.000 
#    0.000    0.000    0.000    0.000    0.000    0.000 
#
# Total GULP energy -594767.154770 kJ/mol
# GULP energy per Si atom -12390.982391 kJ/mol
# Density = 1.658380 g / cm^3
# Si number density = 16.621636 Si / 1000 Ang^3
#
#
#
# Elastic Constant Matrix: (Units=GPa)
#
#
# Indices 1 2 3 4 5 6 
#
# 1 76.4122 54.7884 47.7058 0.0000 0.0000 0.0000
# 2 54.7884 105.7100 61.0311 0.0000 0.0000 0.0000
# 3 47.7058 61.0311 97.6063 0.0000 0.0000 0.0000
# 4 0.0000 0.0000 0.0000 3.2176 0.0000 0.0000
# 5 0.0000 0.0000 0.0000 0.0000 21.2720 0.0000
# 6 0.0000 0.0000 0.0000 0.0000 0.0000 2.7495
#
#
#
# Elastic Compliance Matrix: (Units=1/GPa)
#
#
# Indices 1 2 3 4 5 6 
#
# 1 0.022793 -0.008422 -0.005874 0.000000 0.000000 0.000000
# 2 -0.008422 0.017916 -0.007086 0.000000 0.000000 0.000000
# 3 -0.005874 -0.007086 0.017547 0.000000 0.000000 0.000000
# 4 0.000000 0.000000 0.000000 0.310788 0.000000 0.000000
# 5 0.000000 0.000000 0.000000 0.000000 0.047010 0.000000
# 6 0.000000 0.000000 0.000000 0.000000 0.000000 0.363702
#
#
# Mechanical properties :
#
#
# Convention : Reuss Voigt Hill
#
# Bulk Modulus (GPa) = 64.55166 67.41989 65.98577
# Shear Modulus (GPa) = 6.04095 13.19469 9.61782
#
# Velocity S-wave (km/s) = 1.90848 2.82055 2.40809
# Velocity P-wave (km/s) = 6.61639 7.15939 6.89324
#
# Compressibility (1/GPa) = 0.01549147
#
# Stress axis : x y z
#
# Youngs Moduli (GPa) = 43.87335 55.81587 56.98930
#
# Poissons Ratio (x) = 0.47008 0.33476
# Poissons Ratio (y) = 0.36950 0.40384
# Poissons Ratio (z) = 0.25772 0.39553
#
# Static dielectric constant tensor:
#      x y z
#    x 3.197170 0.000000 0.000000 
#    y 0.000000 3.562260 0.000000 
#    z 0.000000 0.000000 3.298350 
# 
# 
# High freq. dielectric constant tensor:
#      x y z
#    x 1.646690 0.000000 0.000000 
#    y 0.000000 1.630160 0.000000 
#    z 0.000000 0.000000 1.621460 
# 
# From -- ./inp_files/36173.got.cif
#   From: 2010.03.12/outbox.cif.g09.slc.cpg/sg53_19_cif.got.tgz:36173.got - 2010.04.16 14:36:59.
