data_PCOD8219659
_publ_section_title
;
Structure prediction by ZEFSAII (Michael W. Deem and Ramdas Pophale) SiO2 
 PCOD8219659
Probable space group: P M N A
;
_chemical_formula_sum "Si O2"
_cell_formula_units_Z 56
_cell_length_a 8.795505
_cell_length_b 20.966324
_cell_length_c 15.508738
_cell_angle_alpha 90.000000
_cell_angle_beta 90.000000
_cell_angle_gamma 90.000000
_cell_volume 2859.957187
_symmetry_space_group_name_H-M "P M N A"
_symmetry_group_IT_number 53
_symmetry_cell_setting 'orthorhombic'
loop_
_space_group_symop_operation_xyz
x,y,z
1/2-x,-y,1/2+z
x,-y,-z
1/2-x,y,1/2-z
-x,-y,-z
1/2+x,y,1/2-z
-x,y,z
1/2+x,-y,1/2+z
loop_
_atom_site_type_symbol
_atom_site_label
_atom_site_fract_x
_atom_site_fract_y
_atom_site_fract_z
Si Si1 0.318402 0.158359 0.010969
Si Si2 0.676180 0.485911 0.597371
Si Si3 0.680133 0.292274 0.495937
Si Si4 0.165625 0.966605 0.591343
Si Si5 0.320268 0.357818 0.841431
Si Si6 0.675425 0.376324 0.337665
Si Si7 0.680489 0.092354 0.836698
O O1 0.500000 0.166774 0.019419
O O2 0.272458 0.139154 0.913793
O O3 0.230501 0.222408 0.034546
O O4 0.256215 0.102727 0.076522
O O5 0.727037 0.500000 0.500000
O O6 0.500000 0.464335 0.599334
O O7 0.777767 0.430489 0.637058
O O8 0.705823 0.548500 0.653834
O O9 0.500000 0.296706 0.507904
O O10 0.758663 0.310181 0.585788
O O11 0.739942 0.340418 0.421929
O O12 0.000000 0.952672 0.631560
O O13 0.142353 0.000000 0.500000
O O14 0.250105 0.019953 0.650152
O O15 0.250000 0.337382 0.750000
O O16 0.500000 0.351195 0.835878
O O17 0.750000 0.350677 0.250000
O O18 0.500000 0.360081 0.330491
O O19 0.750000 0.121856 0.750000
O O20 0.500000 0.087671 0.830849
#
# Coordination Sequence:
#
# PCOD8219659 Si02
#       7
#     8   8   8   8   8   8   8
#     4   9  18  34  55  77 103 142 188 227 271 330
#     4  10  19  38  63  87 118 150 182 232 295 345
#     4  11  23  41  59  81 115 155 194 238 291 341
#     4   7  12  27  50  72  96 130 170 210 253 308
#     4  12  25  40  60  87 117 152 194 238 289 346
#     4  10  22  39  61  84 111 148 188 234 287 341
#     4   9  17  30  51  79 109 139 175 221 275 330
#
# _framework density 19.580712999999999
#
# number of rings (size 3 to 8) (size 9 to 14) (size 15 to 20)
#    0.000    2.286    1.429    3.857    0.000    4.286 
#    0.000    2.857    0.000    6.000    0.000    0.000 
#    0.000    0.000    0.000    0.000    0.000    0.000 
#
# Total GULP energy -694045.149521 kJ/mol
# GULP energy per Si atom -12393.663384 kJ/mol
# Density = 1.953615 g / cm^3
# Si number density = 19.580713 Si / 1000 Ang^3
#
#
#
# Elastic Constant Matrix: (Units=GPa)
#
#
# Indices 1 2 3 4 5 6 
#
# 1 62.0344 26.0068 26.2030 0.0000 0.0000 0.0000
# 2 26.0068 85.3688 5.1712 0.0000 0.0000 0.0000
# 3 26.2030 5.1712 78.5819 0.0000 0.0000 0.0000
# 4 0.0000 0.0000 0.0000 18.1022 0.0000 0.0000
# 5 0.0000 0.0000 0.0000 0.0000 24.2848 0.0000
# 6 0.0000 0.0000 0.0000 0.0000 0.0000 32.7213
#
#
#
# Elastic Compliance Matrix: (Units=1/GPa)
#
#
# Indices 1 2 3 4 5 6 
#
# 1 0.021569 -0.006160 -0.006787 0.000000 0.000000 0.000000
# 2 -0.006160 0.013520 0.001164 0.000000 0.000000 0.000000
# 3 -0.006787 0.001164 0.014912 0.000000 0.000000 0.000000
# 4 0.000000 0.000000 0.000000 0.055242 0.000000 0.000000
# 5 0.000000 0.000000 0.000000 0.000000 0.041178 0.000000
# 6 0.000000 0.000000 0.000000 0.000000 0.000000 0.030561
#
#
# Mechanical properties :
#
#
# Convention : Reuss Voigt Hill
#
# Bulk Modulus (GPa) = 37.82662 37.86078 37.84370
# Shear Modulus (GPa) = 23.88246 26.26195 25.07220
#
# Velocity S-wave (km/s) = 3.49620 3.66623 3.58223
# Velocity P-wave (km/s) = 5.97144 6.10733 6.03977
#
# Compressibility (1/GPa) = 0.02643641
#
# Stress axis : x y z
#
# Youngs Moduli (GPa) = 46.36245 73.96531 67.06000
#
# Poissons Ratio (x) = 0.45561 0.45513
# Poissons Ratio (y) = 0.28558 -0.07807
# Poissons Ratio (z) = 0.31465 -0.08611
#
# Static dielectric constant tensor:
#      x y z
#    x 3.253870 0.000000 0.000000 
#    y 0.000000 3.687780 0.000000 
#    z 0.000000 0.000000 3.709400 
# 
# 
# High freq. dielectric constant tensor:
#      x y z
#    x 1.735980 0.000000 0.000000 
#    y 0.000000 1.765930 0.000000 
#    z 0.000000 0.000000 1.758300 
# 
# From -- ./inp_files/20650.got.cif
#   From: 2010.03.12/outbox.cif.g09.slc.cpg/sg53_11_cif.got.tgz:20650.got - 2010.04.16 14:36:59.
