data_PCOD8219557
_publ_section_title
;
Structure prediction by ZEFSAII (Michael W. Deem and Ramdas Pophale) SiO2 
 PCOD8219557
Probable space group: P M N A
;
_chemical_formula_sum "Si O2"
_cell_formula_units_Z 56
_cell_length_a 18.304836
_cell_length_b 16.486162
_cell_length_c 9.876609
_cell_angle_alpha 90.000000
_cell_angle_beta 90.000000
_cell_angle_gamma 90.000000
_cell_volume 2980.528414
_symmetry_space_group_name_H-M "P M N A"
_symmetry_group_IT_number 53
_symmetry_cell_setting 'orthorhombic'
loop_
_space_group_symop_operation_xyz
x,y,z
1/2-x,-y,1/2+z
x,-y,-z
1/2-x,y,1/2-z
-x,-y,-z
1/2+x,y,1/2-z
-x,y,z
1/2+x,-y,1/2+z
loop_
_atom_site_type_symbol
_atom_site_label
_atom_site_fract_x
_atom_site_fract_y
_atom_site_fract_z
Si Si1 0.342764 0.253303 0.990392
Si Si2 0.914129 0.991190 0.846658
Si Si3 0.672015 0.743297 0.509845
Si Si4 0.166681 0.569563 0.099247
Si Si5 0.085710 0.813518 0.752132
Si Si6 0.159484 0.430150 0.597517
Si Si7 0.833812 0.143075 0.764038
O O1 0.393628 0.210836 0.100628
O O2 0.258578 0.253827 0.036755
O O3 0.368612 0.345047 0.962514
O O4 0.355872 0.204236 0.853574
O O5 0.879847 0.060947 0.753223
O O6 0.000000 0.003318 0.844557
O O7 0.890615 0.905898 0.781804
O O8 0.884035 0.000000 0.000000
O O9 0.644031 0.657739 0.453244
O O10 0.630361 0.754759 0.649920
O O11 0.649047 0.813454 0.405947
O O12 0.253612 0.566232 0.102762
O O13 0.131995 0.556581 0.248442
O O14 0.135388 0.500000 0.000000
O O15 0.000000 0.801591 0.776860
O O16 0.127598 0.500000 0.500000
O O17 0.750000 0.118377 0.750000
#
# Coordination Sequence:
#
# PCOD8219557 Si02
#       7
#     8   8   8   8   8   8   8
#     4  10  21  36  56  86 117 145 181 232 282 329
#     4  10  21  39  59  79 107 146 192 234 274 330
#     4  10  19  36  59  83 114 149 185 227 275 329
#     4   9  17  29  51  85 115 142 183 223 264 326
#     4  11  24  39  56  81 111 146 191 234 274 333
#     4   9  17  30  50  82 120 146 172 222 279 322
#     4  10  20  36  58  84 114 145 181 230 284 335
#
# _framework density 18.788613999999999
#
# number of rings (size 3 to 8) (size 9 to 14) (size 15 to 20)
#    0.000    2.143    2.857    0.429    2.000    2.286 
#    0.000    1.429    0.000    0.857    0.000    0.000 
#    0.000    0.000    0.000    0.000    0.000    0.000 
#
# Total GULP energy -694487.502236 kJ/mol
# GULP energy per Si atom -12401.562540 kJ/mol
# Density = 1.874585 g / cm^3
# Si number density = 18.788614 Si / 1000 Ang^3
#
#
#
# Elastic Constant Matrix: (Units=GPa)
#
#
# Indices 1 2 3 4 5 6 
#
# 1 26.5625 29.8912 23.9440 0.0000 0.0000 0.0000
# 2 29.8912 147.7015 54.6698 0.0000 0.0000 0.0000
# 3 23.9440 54.6698 85.1118 0.0000 0.0000 0.0000
# 4 0.0000 0.0000 0.0000 35.1208 0.0000 0.0000
# 5 0.0000 0.0000 0.0000 0.0000 18.7934 0.0000
# 6 0.0000 0.0000 0.0000 0.0000 0.0000 7.7479
#
#
#
# Elastic Compliance Matrix: (Units=1/GPa)
#
#
# Indices 1 2 3 4 5 6 
#
# 1 0.055691 -0.007178 -0.011057 0.000000 0.000000 0.000000
# 2 -0.007178 0.009807 -0.004280 0.000000 0.000000 0.000000
# 3 -0.011057 -0.004280 0.017609 0.000000 0.000000 0.000000
# 4 0.000000 0.000000 0.000000 0.028473 0.000000 0.000000
# 5 0.000000 0.000000 0.000000 0.000000 0.053210 0.000000
# 6 0.000000 0.000000 0.000000 0.000000 0.000000 0.129067
#
#
# Mechanical properties :
#
#
# Convention : Reuss Voigt Hill
#
# Bulk Modulus (GPa) = 26.26197 52.93178 39.59687
# Shear Modulus (GPa) = 14.22151 22.39047 18.30599
#
# Velocity S-wave (km/s) = 2.75421 3.45585 3.12479
# Velocity P-wave (km/s) = 4.91143 6.64510 5.84292
#
# Compressibility (1/GPa) = 0.03807787
#
# Stress axis : x y z
#
# Youngs Moduli (GPa) = 17.95615 101.96451 56.78911
#
# Poissons Ratio (x) = 0.73191 0.62789
# Poissons Ratio (y) = 0.12889 0.24307
# Poissons Ratio (z) = 0.19853 0.43643
#
# Static dielectric constant tensor:
#      x y z
#    x 3.040270 0.000000 0.000000 
#    y 0.000000 3.575020 0.000000 
#    z 0.000000 0.000000 3.560910 
# 
# 
# High freq. dielectric constant tensor:
#      x y z
#    x 1.686040 0.000000 0.000000 
#    y 0.000000 1.743450 0.000000 
#    z 0.000000 0.000000 1.738560 
# 
# From -- ./inp_files/11043.got.cif
#   From: 2010.03.12/outbox.cif.g09.slc.cpg/sg53_6_cif.got.tgz:11043.got - 2010.04.16 14:36:59.
