data_PCOD8219391
_publ_section_title
;
Structure prediction by ZEFSAII (Michael W. Deem and Ramdas Pophale) SiO2 
 PCOD8219391
Probable space group: P M N A
;
_chemical_formula_sum "Si O2"
_cell_formula_units_Z 64
_cell_length_a 14.959279
_cell_length_b 15.714126
_cell_length_c 11.690536
_cell_angle_alpha 90.000000
_cell_angle_beta 90.000000
_cell_angle_gamma 90.000000
_cell_volume 2748.117621
_symmetry_space_group_name_H-M "P M N A"
_symmetry_group_IT_number 53
_symmetry_cell_setting 'orthorhombic'
loop_
_space_group_symop_operation_xyz
x,y,z
1/2-x,-y,1/2+z
x,-y,-z
1/2-x,y,1/2-z
-x,-y,-z
1/2+x,y,1/2-z
-x,y,z
1/2+x,-y,1/2+z
loop_
_atom_site_type_symbol
_atom_site_label
_atom_site_fract_x
_atom_site_fract_y
_atom_site_fract_z
Si Si1 0.106627 0.845522 0.987741
Si Si2 0.897913 0.581162 0.217296
Si Si3 0.394105 0.898886 0.758562
Si Si4 0.894105 0.601114 0.741438
Si Si5 0.339044 0.749999 0.175169
Si Si6 0.106627 0.654478 0.987741
Si Si7 0.392535 0.750000 0.924463
Si Si8 0.602088 0.918838 0.282704
O O1 0.146743 0.902352 0.092198
O O2 0.000000 0.851449 0.986711
O O3 0.145346 0.873792 0.865624
O O4 0.137587 0.750000 0.014747
O O5 0.859221 0.496172 0.279730
O O6 0.892086 0.663884 0.296243
O O7 0.000000 0.559707 0.193026
O O8 0.853257 0.597649 0.092198
O O9 0.500000 0.890326 0.757479
O O10 0.360398 0.833859 0.855159
O O11 0.359221 0.996172 0.779730
O O12 0.854655 0.626208 0.865624
O O13 0.860398 0.666141 0.644841
O O14 0.000000 0.609674 0.742521
O O15 0.250000 0.749998 0.250000
O O16 0.392084 0.836116 0.203757
O O17 0.331866 0.750000 0.038185
O O18 0.000000 0.648551 0.986712
O O19 0.500000 0.750000 0.949277
O O20 0.500000 0.940292 0.306972
#
# Coordination Sequence:
#
# PCOD8219391 Si02
#       8
#     8   8   8   8   8   8   8   8
#     4   9  14  25  51  87 122 148 176 229 292 343
#     4  10  19  34  60  89 114 148 195 243 292 349
#     4   9  17  30  57  95 124 144 180 239 301 352
#     4   9  17  30  57  95 124 144 180 239 301 352
#     4  12  26  41  56  72 112 159 203 246 299 352
#     4   9  14  25  51  87 122 148 176 229 292 343
#     4  10  20  37  62  91 122 155 192 243 302 360
#     4  10  19  34  60  89 114 148 195 243 292 349
#
# _framework density 23.28867
#
# number of rings (size 3 to 8) (size 9 to 14) (size 15 to 20)
#    0.000    2.250    2.500    1.875    0.000    4.000 
#    0.000    3.750   11.000    1.500    0.000    0.000 
#    0.000    0.000    0.000    0.000    0.000    0.000 
#
# Total GULP energy -792907.071966 kJ/mol
# GULP energy per Si atom -12389.172999 kJ/mol
# Density = 2.323566 g / cm^3
# Si number density = 23.288670 Si / 1000 Ang^3
#
#
#
# Elastic Constant Matrix: (Units=GPa)
#
#
# Indices 1 2 3 4 5 6 
#
# 1 21.8379 14.0452 10.4691 0.0000 0.0000 0.0000
# 2 14.0452 213.3846 98.7809 0.0000 0.0000 0.0000
# 3 10.4691 98.7809 191.1829 0.0000 0.0000 0.0000
# 4 0.0000 0.0000 0.0000 16.2865 0.0000 0.0000
# 5 0.0000 0.0000 0.0000 0.0000 14.9513 0.0000
# 6 0.0000 0.0000 0.0000 0.0000 0.0000 -3.7052
#
#
#
# Elastic Compliance Matrix: (Units=1/GPa)
#
#
# Indices 1 2 3 4 5 6 
#
# 1 0.048065 -0.002557 -0.001311 0.000000 0.000000 0.000000
# 2 -0.002557 0.006296 -0.003113 0.000000 0.000000 0.000000
# 3 -0.001311 -0.003113 0.006911 0.000000 0.000000 0.000000
# 4 0.000000 0.000000 0.000000 0.061401 0.000000 0.000000
# 5 0.000000 0.000000 0.000000 0.000000 0.066884 0.000000
# 6 0.000000 0.000000 0.000000 0.000000 0.000000 -0.269887
#
#
# Mechanical properties :
#
#
# Convention : Reuss Voigt Hill
#
# Bulk Modulus (GPa) = 21.13715 74.77732 47.95724
# Shear Modulus (GPa) = -98.81364 25.71385 -36.54990
#
# Velocity S-wave (km/s) = -6.52089 3.32646 -3.96590
# Velocity P-wave (km/s) = 6.89929 6.85072 0.57785
#
# Compressibility (1/GPa) = 0.04731006
#
# Stress axis : x y z
#
# Youngs Moduli (GPa) = 20.80521 158.83889 144.70229
#
# Poissons Ratio (x) = 0.40612 0.18970
# Poissons Ratio (y) = 0.05320 0.45044
# Poissons Ratio (z) = 0.02727 0.49444
#
# Static dielectric constant tensor:
#      x y z
#    x 3.488580 0.000000 0.000000 
#    y 0.000000 4.865750 0.000000 
#    z 0.000000 0.000000 4.281040 
# 
# 
# High freq. dielectric constant tensor:
#      x y z
#    x 1.864670 0.000000 0.000000 
#    y 0.000000 1.939120 0.000000 
#    z 0.000000 0.000000 1.917850 
# 
# From -- ./inp_files/17079.got.cif
#   From: 2010.03.12/outbox.cif.g09.slc.cpg/sg53_9_cif.got.tgz:17079.got - 2010.04.16 14:36:59.
