data_PCOD8219322
_publ_section_title
;
Structure prediction by ZEFSAII (Michael W. Deem and Ramdas Pophale) SiO2 
 PCOD8219322
Probable space group: P M N A
;
_chemical_formula_sum "Si O2"
_cell_formula_units_Z 64
_cell_length_a 9.192951
_cell_length_b 21.585937
_cell_length_c 17.820655
_cell_angle_alpha 90.000000
_cell_angle_beta 90.000000
_cell_angle_gamma 90.000000
_cell_volume 3536.303355
_symmetry_space_group_name_H-M "P M N A"
_symmetry_group_IT_number 53
_symmetry_cell_setting 'orthorhombic'
loop_
_space_group_symop_operation_xyz
x,y,z
1/2-x,-y,1/2+z
x,-y,-z
1/2-x,y,1/2-z
-x,-y,-z
1/2+x,y,1/2-z
-x,y,z
1/2+x,-y,1/2+z
loop_
_atom_site_type_symbol
_atom_site_label
_atom_site_fract_x
_atom_site_fract_y
_atom_site_fract_z
Si Si1 0.171271 0.931086 0.981064
Si Si2 0.667482 0.124220 0.323474
Si Si3 0.667676 0.505542 0.673658
Si Si4 0.332115 0.817510 0.039048
Si Si5 0.831463 0.379154 0.911950
Si Si6 0.831044 0.728336 0.326414
Si Si7 0.830774 0.619342 0.919452
Si Si8 0.167945 0.756219 0.907239
O O1 0.214832 0.916499 0.895140
O O2 0.000000 0.922695 0.993619
O O3 0.251930 0.883764 0.036740
O O4 0.223922 0.000000 0.000000
O O5 0.750000 0.100862 0.250000
O O6 0.500000 0.114712 0.305700
O O7 0.705451 0.196336 0.340155
O O8 0.750000 0.492029 0.750000
O O9 0.500000 0.517282 0.693614
O O10 0.687534 0.447857 0.619061
O O11 0.738273 0.565650 0.632229
O O12 0.500000 0.827453 0.018652
O O13 0.311856 0.788172 0.120870
O O14 0.264269 0.769870 0.979763
O O15 0.737740 0.332737 0.862352
O O16 0.000000 0.357737 0.910281
O O17 0.766850 0.379608 0.996337
O O18 0.750000 0.745032 0.250000
O O19 0.000000 0.714364 0.310580
O O20 0.801901 0.686040 0.880341
O O21 0.000000 0.603880 0.927292
O O22 0.000000 0.765233 0.931612
#
# Coordination Sequence:
#
# PCOD8219322 Si02
#       8
#     8   8   8   8   8   8   8   8
#     4   9  19  37  60  82 106 144 188 219 251 307
#     4   9  18  31  50  78 108 138 173 213 256 305
#     4  10  21  35  50  73 103 136 177 222 271 326
#     4  10  20  34  53  80 110 135 168 217 265 310
#     4  10  19  34  57  77  98 134 179 226 273 319
#     4  11  23  36  53  79 109 139 176 220 269 322
#     4   9  17  32  55  77  98 132 179 222 262 320
#     4   9  17  32  54  76 100 136 179 215 257 315
#
# _framework density 18.097994
#
# number of rings (size 3 to 8) (size 9 to 14) (size 15 to 20)
#    0.000    2.375    1.250    2.250    0.000    7.250 
#    0.000    1.875    0.000    4.500    0.000    0.000 
#    0.000    0.000    0.000    0.000    0.000    0.000 
#
# Total GULP energy -793600.063424 kJ/mol
# GULP energy per Si atom -12400.000991 kJ/mol
# Density = 1.805680 g / cm^3
# Si number density = 18.097994 Si / 1000 Ang^3
#
#
#
# Elastic Constant Matrix: (Units=GPa)
#
#
# Indices 1 2 3 4 5 6 
#
# 1 65.1714 37.7531 33.3542 0.0000 0.0000 0.0000
# 2 37.7531 120.5340 35.4656 0.0000 0.0000 0.0000
# 3 33.3542 35.4656 79.9911 0.0000 0.0000 0.0000
# 4 0.0000 0.0000 0.0000 21.7246 0.0000 0.0000
# 5 0.0000 0.0000 0.0000 0.0000 25.8826 0.0000
# 6 0.0000 0.0000 0.0000 0.0000 0.0000 8.9444
#
#
#
# Elastic Compliance Matrix: (Units=1/GPa)
#
#
# Indices 1 2 3 4 5 6 
#
# 1 0.021630 -0.004739 -0.006918 0.000000 0.000000 0.000000
# 2 -0.004739 0.010580 -0.002714 0.000000 0.000000 0.000000
# 3 -0.006918 -0.002714 0.016589 0.000000 0.000000 0.000000
# 4 0.000000 0.000000 0.000000 0.046031 0.000000 0.000000
# 5 0.000000 0.000000 0.000000 0.000000 0.038636 0.000000
# 6 0.000000 0.000000 0.000000 0.000000 0.000000 0.111802
#
#
# Mechanical properties :
#
#
# Convention : Reuss Voigt Hill
#
# Bulk Modulus (GPa) = 49.86112 53.20469 51.53291
# Shear Modulus (GPa) = 17.81285 21.91856 19.86571
#
# Velocity S-wave (km/s) = 3.14067 3.48387 3.31671
# Velocity P-wave (km/s) = 6.38453 6.75611 6.57295
#
# Compressibility (1/GPa) = 0.02005571
#
# Stress axis : x y z
#
# Youngs Moduli (GPa) = 46.23172 94.52185 60.27916
#
# Poissons Ratio (x) = 0.44798 0.41701
# Poissons Ratio (y) = 0.21911 0.16363
# Poissons Ratio (z) = 0.31983 0.25658
#
# Static dielectric constant tensor:
#      x y z
#    x 3.237130 0.000000 0.000000 
#    y 0.000000 3.452020 0.000000 
#    z 0.000000 0.000000 3.293540 
# 
# 
# High freq. dielectric constant tensor:
#      x y z
#    x 1.685600 0.000000 0.000000 
#    y 0.000000 1.704200 0.000000 
#    z 0.000000 0.000000 1.695350 
# 
# From -- ./inp_files/27052.got.cif
#   From: 2010.03.12/outbox.cif.g09.slc.cpg/sg53_14_cif.got.tgz:27052.got - 2010.04.16 14:36:59.
