data_PCOD8219698
_publ_section_title
;
Structure prediction by ZEFSAII (Michael W. Deem and Ramdas Pophale) SiO2 
 PCOD8219698
Probable space group: P M N A
;
_chemical_formula_sum "Si O2"
_cell_formula_units_Z 64
_cell_length_a 18.389056
_cell_length_b 14.296047
_cell_length_c 14.655289
_cell_angle_alpha 90.000000
_cell_angle_beta 90.000000
_cell_angle_gamma 90.000000
_cell_volume 3852.740779
_symmetry_space_group_name_H-M "P M N A"
_symmetry_group_IT_number 53
_symmetry_cell_setting 'orthorhombic'
loop_
_space_group_symop_operation_xyz
x,y,z
1/2-x,-y,1/2+z
x,-y,-z
1/2-x,y,1/2-z
-x,-y,-z
1/2+x,y,1/2-z
-x,y,z
1/2+x,-y,1/2+z
loop_
_atom_site_type_symbol
_atom_site_label
_atom_site_fract_x
_atom_site_fract_y
_atom_site_fract_z
Si Si1 0.921059 0.864666 0.387240
Si Si2 0.917332 0.043813 0.269993
Si Si3 0.419908 0.679830 0.231849
Si Si4 0.830955 0.984528 0.104582
Si Si5 0.783391 0.132547 0.343054
Si Si6 0.584669 0.596527 0.048353
Si Si7 0.311837 0.241573 0.989054
Si Si8 0.201306 0.222994 0.837074
O O1 0.923381 0.769333 0.332053
O O2 0.856581 0.853228 0.460732
O O3 0.000000 0.883036 0.434423
O O4 0.903481 0.943840 0.315152
O O5 0.892804 0.034739 0.164968
O O6 0.869198 0.117153 0.326473
O O7 0.000000 0.078216 0.274093
O O8 0.500000 0.660916 0.275856
O O9 0.399258 0.596875 0.158945
O O10 0.361006 0.700029 0.311474
O O11 0.754135 0.034313 0.127692
O O12 0.830275 0.874054 0.125004
O O13 0.852343 0.000000 0.000000
O O14 0.750000 0.172081 0.250000
O O15 0.771804 0.213703 0.417534
O O16 0.500000 0.620566 0.032055
O O17 0.633265 0.673080 0.996122
O O18 0.605879 0.500000 0.000000
O O19 0.251379 0.270046 0.914466
O O20 0.250000 0.199178 0.750000
#
# Coordination Sequence:
#
# PCOD8219698 Si02
#       8
#     8   8   8   8   8   8   8   8
#     4   9  16  26  42  68  95 121 156 202 255 304
#     4  10  20  32  45  65  97 132 174 226 264 299
#     4   9  17  29  46  71 106 138 163 203 263 318
#     4  11  20  31  46  68  96 141 183 218 264 306
#     4  10  22  35  47  63  96 137 181 218 252 305
#     4   9  18  33  54  81 109 130 152 199 270 340
#     4  11  19  31  52  72  97 133 171 206 255 315
#     4  12  18  28  49  77 103 133 176 221 261 311
#
# _framework density 16.611550999999999
#
# number of rings (size 3 to 8) (size 9 to 14) (size 15 to 20)
#    0.000    1.875    5.000    3.000    0.000    1.250 
#    0.000    1.250    2.750    0.000    0.000    0.000 
#    0.000    0.500    0.000    0.000    0.000    0.000 
#
# Total GULP energy -793179.689282 kJ/mol
# GULP energy per Si atom -12393.432645 kJ/mol
# Density = 1.657374 g / cm^3
# Si number density = 16.611551 Si / 1000 Ang^3
#
#
#
# Elastic Constant Matrix: (Units=GPa)
#
#
# Indices 1 2 3 4 5 6 
#
# 1 95.9220 34.0436 44.0055 0.0000 0.0000 0.0000
# 2 34.0436 57.7246 40.8326 0.0000 0.0000 0.0000
# 3 44.0055 40.8326 104.5604 0.0000 0.0000 0.0000
# 4 0.0000 0.0000 0.0000 24.4757 0.0000 0.0000
# 5 0.0000 0.0000 0.0000 0.0000 15.0633 0.0000
# 6 0.0000 0.0000 0.0000 0.0000 0.0000 16.6278
#
#
#
# Elastic Compliance Matrix: (Units=1/GPa)
#
#
# Indices 1 2 3 4 5 6 
#
# 1 0.014165 -0.005716 -0.003729 0.000000 0.000000 0.000000
# 2 -0.005716 0.026242 -0.007842 0.000000 0.000000 0.000000
# 3 -0.003729 -0.007842 0.014196 0.000000 0.000000 0.000000
# 4 0.000000 0.000000 0.000000 0.040857 0.000000 0.000000
# 5 0.000000 0.000000 0.000000 0.000000 0.066387 0.000000
# 6 0.000000 0.000000 0.000000 0.000000 0.000000 0.060140
#
#
# Mechanical properties :
#
#
# Convention : Reuss Voigt Hill
#
# Bulk Modulus (GPa) = 49.93072 55.10782 52.51927
# Shear Modulus (GPa) = 18.99432 20.52173 19.75803
#
# Velocity S-wave (km/s) = 3.38515 3.51862 3.45253
# Velocity P-wave (km/s) = 6.73810 7.05365 6.89768
#
# Compressibility (1/GPa) = 0.02002775
#
# Stress axis : x y z
#
# Youngs Moduli (GPa) = 70.59887 38.10680 70.44273
#
# Poissons Ratio (x) = 0.21781 0.26270
# Poissons Ratio (y) = 0.40352 0.55244
# Poissons Ratio (z) = 0.26328 0.29885
#
# Static dielectric constant tensor:
#      x y z
#    x 3.571920 0.000000 0.000000 
#    y 0.000000 2.869110 0.000000 
#    z 0.000000 0.000000 3.205390 
# 
# 
# High freq. dielectric constant tensor:
#      x y z
#    x 1.646470 0.000000 0.000000 
#    y 0.000000 1.590020 0.000000 
#    z 0.000000 0.000000 1.630110 
# 
# From -- ./inp_files/23982.got.cif
#   From: 2010.03.12/outbox.cif.g09.slc.cpg/sg53_12_cif.got.tgz:23982.got - 2010.04.16 14:36:59.
