data_PCOD8219323
_publ_section_title
;
Structure prediction by ZEFSAII (Michael W. Deem and Ramdas Pophale) SiO2 
 PCOD8219323
Probable space group: P M N A
;
_chemical_formula_sum "Si O2"
_cell_formula_units_Z 64
_cell_length_a 18.163710
_cell_length_b 17.693346
_cell_length_c 10.994412
_cell_angle_alpha 90.000000
_cell_angle_beta 90.000000
_cell_angle_gamma 90.000000
_cell_volume 3533.349009
_symmetry_space_group_name_H-M "P M N A"
_symmetry_group_IT_number 53
_symmetry_cell_setting 'orthorhombic'
loop_
_space_group_symop_operation_xyz
x,y,z
1/2-x,-y,1/2+z
x,-y,-z
1/2-x,y,1/2-z
-x,-y,-z
1/2+x,y,1/2-z
-x,y,z
1/2+x,-y,1/2+z
loop_
_atom_site_type_symbol
_atom_site_label
_atom_site_fract_x
_atom_site_fract_y
_atom_site_fract_z
Si Si1 0.416482 0.587327 0.518882
Si Si2 0.584758 0.633795 0.254116
Si Si3 0.697181 0.090504 0.862894
Si Si4 0.083480 0.211127 0.348226
Si Si5 0.304111 0.916551 0.860720
Si Si6 0.583360 0.780400 0.126302
Si Si7 0.163123 0.350457 0.243738
Si Si8 0.582673 0.483162 0.139540
O O1 0.396809 0.500000 0.500000
O O2 0.500000 0.594459 0.567883
O O3 0.406287 0.636520 0.398134
O O4 0.358581 0.621593 0.611040
O O5 0.500000 0.632261 0.211545
O O6 0.620625 0.709535 0.197634
O O7 0.620054 0.555618 0.205305
O O8 0.750000 0.112300 0.750000
O O9 0.626481 0.142994 0.845457
O O10 0.673084 0.003804 0.849155
O O11 0.729329 0.101283 0.002390
O O12 0.120820 0.129198 0.341234
O O13 0.085487 0.242002 0.485278
O O14 0.127538 0.268952 0.264215
O O15 0.000000 0.203404 0.300739
O O16 0.250000 0.893884 0.750000
O O17 0.500000 0.794617 0.171017
O O18 0.250000 0.342441 0.250000
O O19 0.133562 0.410415 0.341797
O O20 0.500000 0.467404 0.191943
O O21 0.577719 0.500000 0.000000
#
# Coordination Sequence:
#
# PCOD8219323 Si02
#       8
#     8   8   8   8   8   8   8   8
#     4  10  19  36  59  76  99 139 186 226 265 321
#     4   9  17  32  54  78 101 133 176 223 269 311
#     4   9  18  34  57  84 113 151 181 213 273 336
#     4  10  20  36  57  79 107 142 185 230 270 316
#     4   9  18  35  58  83 114 146 183 223 269 327
#     4   9  18  34  55  82 110 136 179 233 269 310
#     4  12  24  36  51  76 111 143 175 223 276 330
#     4  10  19  34  57  77  98 136 184 227 271 320
#
# _framework density 18.113126999999999
#
# number of rings (size 3 to 8) (size 9 to 14) (size 15 to 20)
#    0.000    2.250    1.250    2.250    0.000    3.000 
#    6.750    3.125    0.000    0.000    0.000    3.500 
#    0.000    0.000    0.000    0.000    0.000    0.000 
#
# Total GULP energy -793332.684682 kJ/mol
# GULP energy per Si atom -12395.823198 kJ/mol
# Density = 1.807190 g / cm^3
# Si number density = 18.113127 Si / 1000 Ang^3
#
#
#
# Elastic Constant Matrix: (Units=GPa)
#
#
# Indices 1 2 3 4 5 6 
#
# 1 103.0412 50.7291 45.3136 0.0000 0.0000 0.0000
# 2 50.7291 89.1324 35.3601 0.0000 0.0000 0.0000
# 3 45.3136 35.3601 96.0157 0.0000 0.0000 0.0000
# 4 0.0000 0.0000 0.0000 27.6562 0.0000 0.0000
# 5 0.0000 0.0000 0.0000 0.0000 20.3447 0.0000
# 6 0.0000 0.0000 0.0000 0.0000 0.0000 22.3582
#
#
#
# Elastic Compliance Matrix: (Units=1/GPa)
#
#
# Indices 1 2 3 4 5 6 
#
# 1 0.015053 -0.006733 -0.004625 0.000000 0.000000 0.000000
# 2 -0.006733 0.016150 -0.002770 0.000000 0.000000 0.000000
# 3 -0.004625 -0.002770 0.013618 0.000000 0.000000 0.000000
# 4 0.000000 0.000000 0.000000 0.036158 0.000000 0.000000
# 5 0.000000 0.000000 0.000000 0.000000 0.049153 0.000000
# 6 0.000000 0.000000 0.000000 0.000000 0.000000 0.044726
#
#
# Mechanical properties :
#
#
# Convention : Reuss Voigt Hill
#
# Bulk Modulus (GPa) = 60.36556 61.22168 60.79362
# Shear Modulus (GPa) = 23.96517 24.52425 24.24471
#
# Velocity S-wave (km/s) = 3.64137 3.68360 3.66254
# Velocity P-wave (km/s) = 7.14694 7.20866 7.17787
#
# Compressibility (1/GPa) = 0.01656574
#
# Stress axis : x y z
#
# Youngs Moduli (GPa) = 66.43051 61.91885 73.43344
#
# Poissons Ratio (x) = 0.41689 0.33961
# Poissons Ratio (y) = 0.44726 0.20343
# Poissons Ratio (z) = 0.30722 0.17153
#
# Static dielectric constant tensor:
#      x y z
#    x 3.116720 0.000000 0.000000 
#    y 0.000000 3.432060 0.000000 
#    z 0.000000 0.000000 3.499620 
# 
# 
# High freq. dielectric constant tensor:
#      x y z
#    x 1.668970 0.000000 0.000000 
#    y 0.000000 1.709620 0.000000 
#    z 0.000000 0.000000 1.709300 
# 
# From -- ./inp_files/16256.got.cif
#   From: 2010.03.12/outbox.cif.g09.slc.cpg/sg53_9_cif.got.tgz:16256.got - 2010.04.16 14:36:59.
