data_PCOD8219356
_publ_section_title
;
Structure prediction by ZEFSAII (Michael W. Deem and Ramdas Pophale) SiO2 
 PCOD8219356
Probable space group: P M N A
;
_chemical_formula_sum "Si O2"
_cell_formula_units_Z 48
_cell_length_a 9.267046
_cell_length_b 13.374249
_cell_length_c 19.489422
_cell_angle_alpha 90.000000
_cell_angle_beta 90.000000
_cell_angle_gamma 90.000000
_cell_volume 2415.514689
_symmetry_space_group_name_H-M "P M N A"
_symmetry_group_IT_number 53
_symmetry_cell_setting 'orthorhombic'
loop_
_space_group_symop_operation_xyz
x,y,z
1/2-x,-y,1/2+z
x,-y,-z
1/2-x,y,1/2-z
-x,-y,-z
1/2+x,y,1/2-z
-x,y,z
1/2+x,-y,1/2+z
loop_
_atom_site_type_symbol
_atom_site_label
_atom_site_fract_x
_atom_site_fract_y
_atom_site_fract_z
Si Si1 0.832981 0.809750 0.948918
Si Si2 0.666124 0.723252 0.182934
Si Si3 0.165861 0.510421 0.683197
Si Si4 0.831763 0.130475 0.905887
Si Si5 0.167439 0.417569 0.055796
Si Si6 0.830110 0.069570 0.177278
O O1 0.799479 0.694951 0.969310
O O2 0.766455 0.846368 0.875812
O O3 0.000000 0.826145 0.935616
O O4 0.788890 0.880429 0.013410
O O5 0.750000 0.760215 0.250000
O O6 0.500000 0.753401 0.191729
O O7 0.686871 0.606473 0.170344
O O8 0.735574 0.777271 0.118535
O O9 0.250000 0.546572 0.750000
O O10 0.232384 0.570023 0.620864
O O11 0.000000 0.540003 0.691981
O O12 0.000000 0.159309 0.899521
O O13 0.794323 0.034045 0.861107
O O14 0.000000 0.432064 0.075728
O O15 0.213614 0.500000 0.000000
O O16 0.750000 0.077066 0.250000
O O17 0.000000 0.080094 0.192196
#
# Coordination Sequence:
#
# PCOD8219356 Si02
#       6
#     8   8   8   8   8   8
#     4   9  19  36  57  81 109 143 182 221 267 326
#     4  10  20  33  51  78 111 145 181 225 276 327
#     4  10  21  36  54  77 108 145 185 229 277 330
#     4  10  19  34  58  82 106 140 181 225 270 319
#     4  10  20  35  57  83 111 144 183 228 276 327
#     4  10  21  37  57  81 110 144 182 222 266 320
#
# _framework density 19.871541000000001
#
# number of rings (size 3 to 8) (size 9 to 14) (size 15 to 20)
#    0.000    2.167    0.000    3.000    0.000    8.333 
#    0.000    4.167    0.000    2.000    0.000    0.000 
#    0.000    0.000    0.000    0.000    0.000    0.000 
#
# Total GULP energy -595015.291623 kJ/mol
# GULP energy per Si atom -12396.151909 kJ/mol
# Density = 1.982631 g / cm^3
# Si number density = 19.871541 Si / 1000 Ang^3
#
#
#
# Elastic Constant Matrix: (Units=GPa)
#
#
# Indices 1 2 3 4 5 6 
#
# 1 62.1021 29.8621 39.9876 0.0000 0.0000 0.0000
# 2 29.8621 58.4972 54.9008 0.0000 0.0000 0.0000
# 3 39.9876 54.9008 153.7031 0.0000 0.0000 0.0000
# 4 0.0000 0.0000 0.0000 32.6124 0.0000 0.0000
# 5 0.0000 0.0000 0.0000 0.0000 36.3375 0.0000
# 6 0.0000 0.0000 0.0000 0.0000 0.0000 21.5471
#
#
#
# Elastic Compliance Matrix: (Units=1/GPa)
#
#
# Indices 1 2 3 4 5 6 
#
# 1 0.021999 -0.008813 -0.002575 0.000000 0.000000 0.000000
# 2 -0.008813 0.029246 -0.008153 0.000000 0.000000 0.000000
# 3 -0.002575 -0.008153 0.010088 0.000000 0.000000 0.000000
# 4 0.000000 0.000000 0.000000 0.030663 0.000000 0.000000
# 5 0.000000 0.000000 0.000000 0.000000 0.027520 0.000000
# 6 0.000000 0.000000 0.000000 0.000000 0.000000 0.046410
#
#
# Mechanical properties :
#
#
# Convention : Reuss Voigt Hill
#
# Bulk Modulus (GPa) = 44.94526 58.20039 51.57282
# Shear Modulus (GPa) = 23.53764 28.06953 25.80359
#
# Velocity S-wave (km/s) = 3.44538 3.76247 3.60741
# Velocity P-wave (km/s) = 6.20439 6.94455 6.58488
#
# Compressibility (1/GPa) = 0.02224929
#
# Stress axis : x y z
#
# Youngs Moduli (GPa) = 45.45760 34.19274 99.12422
#
# Poissons Ratio (x) = 0.30134 0.25527
# Poissons Ratio (y) = 0.40062 0.80821
# Poissons Ratio (z) = 0.11707 0.27879
#
# Static dielectric constant tensor:
#      x y z
#    x 3.426820 0.000000 0.000000 
#    y 0.000000 3.628500 0.000000 
#    z 0.000000 0.000000 3.812940 
# 
# 
# High freq. dielectric constant tensor:
#      x y z
#    x 1.750910 0.000000 0.000000 
#    y 0.000000 1.772650 0.000000 
#    z 0.000000 0.000000 1.788980 
# 
# From -- ./inp_files/26241.got.cif
#   From: 2010.03.12/outbox.cif.g09.slc.cpg/sg53_14_cif.got.tgz:26241.got - 2010.04.16 14:36:59.
