data_PCOD8219496
_publ_section_title
;
Structure prediction by ZEFSAII (Michael W. Deem and Ramdas Pophale) SiO2 
 PCOD8219496
Probable space group: P M N A
;
_chemical_formula_sum "Si O2"
_cell_formula_units_Z 48
_cell_length_a 8.915784
_cell_length_b 10.059009
_cell_length_c 27.972521
_cell_angle_alpha 90.000000
_cell_angle_beta 90.000000
_cell_angle_gamma 90.000000
_cell_volume 2508.686217
_symmetry_space_group_name_H-M "P M N A"
_symmetry_group_IT_number 53
_symmetry_cell_setting 'orthorhombic'
loop_
_space_group_symop_operation_xyz
x,y,z
1/2-x,-y,1/2+z
x,-y,-z
1/2-x,y,1/2-z
-x,-y,-z
1/2+x,y,1/2-z
-x,y,z
1/2+x,-y,1/2+z
loop_
_atom_site_type_symbol
_atom_site_label
_atom_site_fract_x
_atom_site_fract_y
_atom_site_fract_z
Si Si1 0.326613 0.509666 0.899280
Si Si2 0.327305 0.003202 0.608382
Si Si3 0.827824 0.267854 0.948280
Si Si4 0.673987 0.782755 0.952893
Si Si5 0.325245 0.605499 0.797341
Si Si6 0.322739 0.908434 0.798458
O O1 0.500000 0.468469 0.906760
O O2 0.218101 0.405431 0.923968
O O3 0.295147 0.652807 0.921735
O O4 0.284503 0.516466 0.843193
O O5 0.500000 0.969818 0.618530
O O6 0.268254 0.903941 0.567962
O O7 0.234655 0.993758 0.657113
O O8 0.305225 0.152348 0.590121
O O9 0.000000 0.277109 0.965316
O O10 0.722010 0.242350 0.993101
O O11 0.500000 0.822150 0.951377
O O12 0.250000 0.543519 0.750000
O O13 0.500000 0.606886 0.787936
O O14 0.269746 0.756318 0.806140
O O15 0.250000 0.965827 0.750000
O O16 0.500000 0.922348 0.795281
#
# Coordination Sequence:
#
# PCOD8219496 Si02
#       6
#     8   8   8   8   8   8
#     4  10  21  39  59  84 116 150 190 236 284 342
#     4  11  23  39  58  84 119 154 192 239 285 337
#     4  11  25  40  55  83 119 153 193 237 286 343
#     4  11  22  39  62  86 112 149 197 241 287 343
#     4   9  18  34  56  85 115 142 182 232 280 333
#     4  10  19  35  59  88 117 147 189 237 286 340
#
# _framework density 19.133520999999998
#
# number of rings (size 3 to 8) (size 9 to 14) (size 15 to 20)
#    0.000    1.667    1.667    3.000    0.000    9.333 
#    0.000    0.833    0.000    2.000    0.000    0.000 
#    0.000    0.000    0.000    0.000    0.000    0.000 
#
# Total GULP energy -595429.655756 kJ/mol
# GULP energy per Si atom -12404.784495 kJ/mol
# Density = 1.908997 g / cm^3
# Si number density = 19.133521 Si / 1000 Ang^3
#
#
#
# Elastic Constant Matrix: (Units=GPa)
#
#
# Indices 1 2 3 4 5 6 
#
# 1 70.4348 21.0243 29.6419 0.0000 0.0000 0.0000
# 2 21.0243 21.8670 -6.0597 0.0000 0.0000 0.0000
# 3 29.6419 -6.0597 99.1316 0.0000 0.0000 0.0000
# 4 0.0000 0.0000 0.0000 -69.4691 0.0000 0.0000
# 5 0.0000 0.0000 0.0000 0.0000 40.8727 0.0000
# 6 0.0000 0.0000 0.0000 0.0000 0.0000 28.7847
#
#
#
# Elastic Compliance Matrix: (Units=1/GPa)
#
#
# Indices 1 2 3 4 5 6 
#
# 1 0.026801 -0.028471 -0.009754 0.000000 0.000000 0.000000
# 2 -0.028471 0.076765 0.013206 0.000000 0.000000 0.000000
# 3 -0.009754 0.013206 0.013812 0.000000 0.000000 0.000000
# 4 0.000000 0.000000 0.000000 -0.014395 0.000000 0.000000
# 5 0.000000 0.000000 0.000000 0.000000 0.024466 0.000000
# 6 0.000000 0.000000 0.000000 0.000000 0.000000 0.034741
#
#
# Mechanical properties :
#
#
# Convention : Reuss Voigt Hill
#
# Bulk Modulus (GPa) = 14.85054 31.18293 23.01673
# Shear Modulus (GPa) = 21.30609 9.82610 15.56609
#
# Velocity S-wave (km/s) = 3.34061 2.26863 2.85538
# Velocity P-wave (km/s) = 4.76003 4.81614 4.78817
#
# Compressibility (1/GPa) = 0.06733763
#
# Stress axis : x y z
#
# Youngs Moduli (GPa) = 37.31197 13.02684 72.40316
#
# Poissons Ratio (x) = 0.37089 0.70624
# Poissons Ratio (y) = 1.06232 -0.95614
# Poissons Ratio (z) = 0.36395 -0.17203
#
# Static dielectric constant tensor:
#      x y z
#    x 3.660900 0.000000 0.000000 
#    y 0.000000 3.347060 0.000000 
#    z 0.000000 0.000000 3.655270 
# 
# 
# High freq. dielectric constant tensor:
#      x y z
#    x 1.752210 0.000000 0.000000 
#    y 0.000000 1.725320 0.000000 
#    z 0.000000 0.000000 1.759890 
# 
# From -- ./inp_files/37707.got.cif
#   From: 2010.03.12/outbox.cif.g09.slc.cpg/sg53_19_cif.got.tgz:37707.got - 2010.04.16 14:36:59.
