data_PCOD8219289
_publ_section_title
;
Structure prediction by ZEFSAII (Michael W. Deem and Ramdas Pophale) SiO2 
 PCOD8219289
Probable space group: P M N A
;
_chemical_formula_sum "Si O2"
_cell_formula_units_Z 64
_cell_length_a 17.184749
_cell_length_b 12.019269
_cell_length_c 16.712437
_cell_angle_alpha 90.000000
_cell_angle_beta 90.000000
_cell_angle_gamma 90.000000
_cell_volume 3451.922458
_symmetry_space_group_name_H-M "P M N A"
_symmetry_group_IT_number 53
_symmetry_cell_setting 'orthorhombic'
loop_
_space_group_symop_operation_xyz
x,y,z
1/2-x,-y,1/2+z
x,-y,-z
1/2-x,y,1/2-z
-x,-y,-z
1/2+x,y,1/2-z
-x,y,z
1/2+x,-y,1/2+z
loop_
_atom_site_type_symbol
_atom_site_label
_atom_site_fract_x
_atom_site_fract_y
_atom_site_fract_z
Si Si1 0.909537 0.419179 0.834747
Si Si2 0.839674 0.364177 0.237155
Si Si3 0.661609 0.240508 0.777222
Si Si4 0.592159 0.181295 0.367949
Si Si5 0.408669 0.595147 0.903016
Si Si6 0.908046 0.756333 0.042418
Si Si7 0.908427 0.070188 0.827921
Si Si8 0.592535 0.343385 0.925373
O O1 0.866556 0.534276 0.818787
O O2 0.893961 0.330603 0.765072
O O3 0.883704 0.364009 0.920159
O O4 0.000000 0.447893 0.835431
O O5 0.750000 0.381266 0.250000
O O6 0.859159 0.249345 0.195462
O O7 0.879692 0.349361 0.322550
O O8 0.750000 0.263100 0.750000
O O9 0.635432 0.115525 0.751729
O O10 0.644908 0.258051 0.872169
O O11 0.500000 0.201946 0.359455
O O12 0.624370 0.222195 0.453982
O O13 0.614549 0.054347 0.350716
O O14 0.500000 0.591481 0.904799
O O15 0.380461 0.467748 0.902473
O O16 0.382892 0.667632 0.980823
O O17 0.877015 0.854176 0.099434
O O18 0.000000 0.765585 0.039514
O O19 0.000000 0.082259 0.813832
O O20 0.500000 0.322185 0.912270
#
# Coordination Sequence:
#
# PCOD8219289 Si02
#       8
#     8   8   8   8   8   8   8   8
#     4  10  19  34  56  79 110 145 182 222 266 326
#     4  12  24  36  49  78 114 151 180 221 288 345
#     4  11  20  31  52  86 115 139 173 227 293 335
#     4  10  20  36  58  79 105 147 191 223 263 327
#     4   9  18  34  55  75  99 140 190 233 268 317
#     4   8  16  32  56  85 106 129 176 231 270 311
#     4   9  18  34  57  81 105 141 186 227 265 321
#     4   9  17  32  56  79 101 138 189 235 269 314
#
# _framework density 18.540393999999999
#
# number of rings (size 3 to 8) (size 9 to 14) (size 15 to 20)
#    0.000    2.250    1.250    4.500    0.000    2.500 
#    4.500    1.875    0.000    0.750    0.000    3.500 
#    0.000    0.000    0.000    0.000    0.000    0.000 
#
# Total GULP energy -793219.603518 kJ/mol
# GULP energy per Si atom -12394.056305 kJ/mol
# Density = 1.849820 g / cm^3
# Si number density = 18.540394 Si / 1000 Ang^3
#
#
#
# Elastic Constant Matrix: (Units=GPa)
#
#
# Indices 1 2 3 4 5 6 
#
# 1 43.3391 49.8288 30.8982 0.0000 0.0000 0.0000
# 2 49.8288 77.8309 71.1224 0.0000 0.0000 0.0000
# 3 30.8982 71.1224 144.1993 0.0000 0.0000 0.0000
# 4 0.0000 0.0000 0.0000 28.4253 0.0000 0.0000
# 5 0.0000 0.0000 0.0000 0.0000 5.0167 0.0000
# 6 0.0000 0.0000 0.0000 0.0000 0.0000 17.0379
#
#
#
# Elastic Compliance Matrix: (Units=1/GPa)
#
#
# Indices 1 2 3 4 5 6 
#
# 1 0.114503 -0.092641 0.021158 0.000000 0.000000 0.000000
# 2 -0.092641 0.098344 -0.028655 0.000000 0.000000 0.000000
# 3 0.021158 -0.028655 0.016535 0.000000 0.000000 0.000000
# 4 0.000000 0.000000 0.000000 0.035180 0.000000 0.000000
# 5 0.000000 0.000000 0.000000 0.000000 0.199334 0.000000
# 6 0.000000 0.000000 0.000000 0.000000 0.000000 0.058693
#
#
# Mechanical properties :
#
#
# Convention : Reuss Voigt Hill
#
# Bulk Modulus (GPa) = 34.35832 63.22978 48.79405
# Shear Modulus (GPa) = 6.82531 17.66397 12.24464
#
# Velocity S-wave (km/s) = 1.92076 3.08998 2.57267
# Velocity P-wave (km/s) = 4.84674 6.84898 5.93293
#
# Compressibility (1/GPa) = 0.02910503
#
# Stress axis : x y z
#
# Youngs Moduli (GPa) = 8.73337 10.16835 60.47910
#
# Poissons Ratio (x) = 0.94201 -1.27960
# Poissons Ratio (y) = 0.80907 1.73303
# Poissons Ratio (z) = -0.18478 0.29137
#
# Static dielectric constant tensor:
#      x y z
#    x 3.130720 0.000000 0.000000 
#    y 0.000000 3.434010 0.000000 
#    z 0.000000 0.000000 3.688880 
# 
# 
# High freq. dielectric constant tensor:
#      x y z
#    x 1.695210 0.000000 0.000000 
#    y 0.000000 1.699850 0.000000 
#    z 0.000000 0.000000 1.726450 
# 
# From -- ./inp_files/28549.got.cif
#   From: 2010.03.12/outbox.cif.g09.slc.cpg/sg53_15_cif.got.tgz:28549.got - 2010.04.16 14:36:59.
