data_PCOD8219864
_publ_section_title
;
Structure prediction by ZEFSAII (Michael W. Deem and Ramdas Pophale) SiO2 
 PCOD8219864
Probable space group: P M N A
;
_chemical_formula_sum "Si O2"
_cell_formula_units_Z 56
_cell_length_a 9.214063
_cell_length_b 18.750100
_cell_length_c 17.283345
_cell_angle_alpha 90.000000
_cell_angle_beta 90.000000
_cell_angle_gamma 90.000000
_cell_volume 2985.950231
_symmetry_space_group_name_H-M "P M N A"
_symmetry_group_IT_number 53
_symmetry_cell_setting 'orthorhombic'
loop_
_space_group_symop_operation_xyz
x,y,z
1/2-x,-y,1/2+z
x,-y,-z
1/2-x,y,1/2-z
-x,-y,-z
1/2+x,y,1/2-z
-x,y,z
1/2+x,-y,1/2+z
loop_
_atom_site_type_symbol
_atom_site_label
_atom_site_fract_x
_atom_site_fract_y
_atom_site_fract_z
Si Si1 0.331761 0.330144 0.169245
Si Si2 0.334123 0.285323 0.588892
Si Si3 0.336042 0.780581 0.953969
Si Si4 0.167966 0.141646 0.828343
Si Si5 0.164718 0.463922 0.423963
Si Si6 0.832963 0.923792 0.470613
Si Si7 0.164436 0.400273 0.672317
O O1 0.250000 0.333367 0.250000
O O2 0.500000 0.347325 0.185764
O O3 0.311602 0.251111 0.132191
O O4 0.268169 0.389470 0.108165
O O5 0.500000 0.309989 0.582309
O O6 0.283958 0.254914 0.507430
O O7 0.314064 0.225751 0.655215
O O8 0.234559 0.353100 0.605273
O O9 0.500000 0.761001 0.981855
O O10 0.314972 0.866240 0.959273
O O11 0.250000 0.121831 0.750000
O O12 0.000000 0.120448 0.820432
O O13 0.236255 0.096548 0.897611
O O14 0.242398 0.500000 0.500000
O O15 0.173586 0.517704 0.352045
O O16 0.000000 0.447498 0.449331
O O17 0.000000 0.927818 0.443538
O O18 0.777323 0.000000 0.500000
O O19 0.250000 0.386951 0.750000
O O20 0.000000 0.375444 0.685656
#
# Coordination Sequence:
#
# PCOD8219864 Si02
#       7
#     8   8   8   8   8   8   8
#     4  10  20  35  55  77 103 137 177 219 263 311
#     4  10  20  33  51  76 104 133 168 210 255 305
#     4   9  18  34  56  78 101 135 174 208 252 310
#     4  10  20  33  51  76 105 137 172 210 254 306
#     4   9  18  33  52  72  95 128 171 216 261 309
#     4   9  18  34  56  80 107 137 170 212 261 313
#     4  11  21  32  48  70  99 132 165 204 251 300
#
# _framework density 18.754498000000002
#
# number of rings (size 3 to 8) (size 9 to 14) (size 15 to 20)
#    0.000    2.286    0.000    3.000    0.000    6.000 
#    0.000    1.429    0.000    4.714    0.000    0.000 
#    0.000    0.000    0.000    0.000    0.000    0.000 
#
# Total GULP energy -694233.157807 kJ/mol
# GULP energy per Si atom -12397.020675 kJ/mol
# Density = 1.871181 g / cm^3
# Si number density = 18.754498 Si / 1000 Ang^3
#
#
#
# Elastic Constant Matrix: (Units=GPa)
#
#
# Indices 1 2 3 4 5 6 
#
# 1 93.5226 40.4603 40.3935 0.0000 0.0000 0.0000
# 2 40.4603 113.7108 49.7370 0.0000 0.0000 0.0000
# 3 40.3935 49.7370 103.5578 0.0000 0.0000 0.0000
# 4 0.0000 0.0000 0.0000 23.4716 0.0000 0.0000
# 5 0.0000 0.0000 0.0000 0.0000 31.5838 0.0000
# 6 0.0000 0.0000 0.0000 0.0000 0.0000 18.5215
#
#
#
# Elastic Compliance Matrix: (Units=1/GPa)
#
#
# Indices 1 2 3 4 5 6 
#
# 1 0.013731 -0.003219 -0.003810 0.000000 0.000000 0.000000
# 2 -0.003219 0.011888 -0.004454 0.000000 0.000000 0.000000
# 3 -0.003810 -0.004454 0.013281 0.000000 0.000000 0.000000
# 4 0.000000 0.000000 0.000000 0.042605 0.000000 0.000000
# 5 0.000000 0.000000 0.000000 0.000000 0.031662 0.000000
# 6 0.000000 0.000000 0.000000 0.000000 0.000000 0.053991
#
#
# Mechanical properties :
#
#
# Convention : Reuss Voigt Hill
#
# Bulk Modulus (GPa) = 62.75637 63.55252 63.15444
# Shear Modulus (GPa) = 25.58398 26.72875 26.15637
#
# Velocity S-wave (km/s) = 3.69745 3.77927 3.73858
# Velocity P-wave (km/s) = 7.19464 7.28038 7.23764
#
# Compressibility (1/GPa) = 0.01593464
#
# Stress axis : x y z
#
# Youngs Moduli (GPa) = 72.82908 84.11978 75.29288
#
# Poissons Ratio (x) = 0.27081 0.28684
# Poissons Ratio (y) = 0.23446 0.33534
# Poissons Ratio (z) = 0.27745 0.37465
#
# Static dielectric constant tensor:
#      x y z
#    x 3.363130 0.000000 0.000000 
#    y 0.000000 3.562520 0.000000 
#    z 0.000000 0.000000 3.277610 
# 
# 
# High freq. dielectric constant tensor:
#      x y z
#    x 1.717080 0.000000 0.000000 
#    y 0.000000 1.724330 0.000000 
#    z 0.000000 0.000000 1.718240 
# 
# From -- ./inp_files/20468.got.cif
#   From: 2010.03.12/outbox.cif.g09.slc.cpg/sg53_11_cif.got.tgz:20468.got - 2010.04.16 14:36:59.
