data_PCOD8219230
_publ_section_title
;
Structure prediction by ZEFSAII (Michael W. Deem and Ramdas Pophale) SiO2 
 PCOD8219230
Probable space group: P M N A
;
_chemical_formula_sum "Si O2"
_cell_formula_units_Z 56
_cell_length_a 8.869086
_cell_length_b 19.304226
_cell_length_c 18.287531
_cell_angle_alpha 90.000000
_cell_angle_beta 90.000000
_cell_angle_gamma 90.000000
_cell_volume 3131.023554
_symmetry_space_group_name_H-M "P M N A"
_symmetry_group_IT_number 53
_symmetry_cell_setting 'orthorhombic'
loop_
_space_group_symop_operation_xyz
x,y,z
1/2-x,-y,1/2+z
x,-y,-z
1/2-x,y,1/2-z
-x,-y,-z
1/2+x,y,1/2-z
-x,y,z
1/2+x,-y,1/2+z
loop_
_atom_site_type_symbol
_atom_site_label
_atom_site_fract_x
_atom_site_fract_y
_atom_site_fract_z
Si Si1 0.677048 0.153964 0.528459
Si Si2 0.822325 0.297811 0.540642
Si Si3 0.820197 0.937888 0.169490
Si Si4 0.171787 0.573320 0.970252
Si Si5 0.667801 0.486606 0.319824
Si Si6 0.177410 0.640933 0.175178
Si Si7 0.168708 0.047368 0.429978
O O1 0.500000 0.166552 0.524598
O O2 0.763408 0.224988 0.511931
O O3 0.719267 0.121073 0.608293
O O4 0.725473 0.109253 0.457978
O O5 0.773612 0.361966 0.490109
O O6 0.748533 0.306239 0.619098
O O7 0.000000 0.296818 0.545772
O O8 0.750000 0.920169 0.250000
O O9 0.000000 0.945978 0.177518
O O10 0.748963 0.009291 0.138631
O O11 0.177291 0.570038 0.882836
O O12 0.000000 0.583826 0.999882
O O13 0.234997 0.500000 0.000000
O O14 0.750000 0.455149 0.250000
O O15 0.500000 0.500493 0.293132
O O16 0.729009 0.562219 0.345131
O O17 0.250000 0.664289 0.250000
O O18 0.000000 0.651260 0.176577
O O19 0.000000 0.071663 0.405545
O O20 0.150373 0.000000 0.500000
#
# Coordination Sequence:
#
# PCOD8219230 Si02
#       7
#     8   8   8   8   8   8   8
#     4  10  21  37  55  76 108 149 187 224 269 325
#     4  12  24  35  51  78 108 143 183 228 277 328
#     4  10  20  34  56  85 114 146 183 220 261 311
#     4  10  19  36  56  75 102 139 181 228 280 332
#     4   9  18  32  53  75  98 129 166 215 271 325
#     4  10  19  34  51  72 101 136 174 215 266 325
#     4   9  17  32  55  81 109 140 176 219 262 311
#
# _framework density 17.885525000000001
#
# number of rings (size 3 to 8) (size 9 to 14) (size 15 to 20)
#    0.000    2.000    1.429    3.000    0.000    5.429 
#    0.000    1.429    0.000    0.857    0.000    4.000 
#    0.000    0.000    0.000    0.000    0.000    0.000 
#
# Total GULP energy -694070.877307 kJ/mol
# GULP energy per Si atom -12394.122809 kJ/mol
# Density = 1.784482 g / cm^3
# Si number density = 17.885525 Si / 1000 Ang^3
#
#
#
# Elastic Constant Matrix: (Units=GPa)
#
#
# Indices 1 2 3 4 5 6 
#
# 1 112.3938 38.7628 37.3238 0.0000 0.0000 0.0000
# 2 38.7628 75.4382 36.4981 0.0000 0.0000 0.0000
# 3 37.3238 36.4981 54.1137 0.0000 0.0000 0.0000
# 4 0.0000 0.0000 0.0000 19.6744 0.0000 0.0000
# 5 0.0000 0.0000 0.0000 0.0000 31.9994 0.0000
# 6 0.0000 0.0000 0.0000 0.0000 0.0000 50.3053
#
#
#
# Elastic Compliance Matrix: (Units=1/GPa)
#
#
# Indices 1 2 3 4 5 6 
#
# 1 0.012046 -0.003221 -0.006136 0.000000 0.000000 0.000000
# 2 -0.003221 0.020538 -0.011631 0.000000 0.000000 0.000000
# 3 -0.006136 -0.011631 0.030556 0.000000 0.000000 0.000000
# 4 0.000000 0.000000 0.000000 0.050827 0.000000 0.000000
# 5 0.000000 0.000000 0.000000 0.000000 0.031251 0.000000
# 6 0.000000 0.000000 0.000000 0.000000 0.000000 0.019879
#
#
# Mechanical properties :
#
#
# Convention : Reuss Voigt Hill
#
# Bulk Modulus (GPa) = 47.24783 51.90168 49.57476
# Shear Modulus (GPa) = 23.35064 29.01989 26.18526
#
# Velocity S-wave (km/s) = 3.61717 4.03244 3.83044
# Velocity P-wave (km/s) = 6.62717 7.12479 6.88048
#
# Compressibility (1/GPa) = 0.02116499
#
# Stress axis : x y z
#
# Youngs Moduli (GPa) = 83.01697 48.69014 32.72641
#
# Poissons Ratio (x) = 0.15682 0.20081
# Poissons Ratio (y) = 0.26739 0.38063
# Poissons Ratio (z) = 0.50938 0.56630
#
# Static dielectric constant tensor:
#      x y z
#    x 3.407730 0.000000 0.000000 
#    y 0.000000 3.199440 0.000000 
#    z 0.000000 0.000000 3.340890 
# 
# 
# High freq. dielectric constant tensor:
#      x y z
#    x 1.702050 0.000000 0.000000 
#    y 0.000000 1.671280 0.000000 
#    z 0.000000 0.000000 1.684440 
# 
# From -- ./inp_files/26693.got.cif
#   From: 2010.03.12/outbox.cif.g09.slc.cpg/sg53_14_cif.got.tgz:26693.got - 2010.04.16 14:36:59.
