data_PCOD8219542
_publ_section_title
;
Structure prediction by ZEFSAII (Michael W. Deem and Ramdas Pophale) SiO2 
 PCOD8219542
Probable space group: P M N A
;
_chemical_formula_sum "Si O2"
_cell_formula_units_Z 64
_cell_length_a 8.899155
_cell_length_b 23.945380
_cell_length_c 15.196273
_cell_angle_alpha 90.000000
_cell_angle_beta 90.000000
_cell_angle_gamma 90.000000
_cell_volume 3238.229252
_symmetry_space_group_name_H-M "P M N A"
_symmetry_group_IT_number 53
_symmetry_cell_setting 'orthorhombic'
loop_
_space_group_symop_operation_xyz
x,y,z
1/2-x,-y,1/2+z
x,-y,-z
1/2-x,y,1/2-z
-x,-y,-z
1/2+x,y,1/2-z
-x,y,z
1/2+x,-y,1/2+z
loop_
_atom_site_type_symbol
_atom_site_label
_atom_site_fract_x
_atom_site_fract_y
_atom_site_fract_z
Si Si1 0.328633 0.120297 0.884208
Si Si2 0.676336 0.703990 0.007338
Si Si3 0.323359 0.770537 0.336202
Si Si4 0.822383 0.772810 0.661327
Si Si5 0.329676 0.115005 0.085014
Si Si6 0.178874 0.997687 0.658566
Si Si7 0.823171 0.414639 0.996197
Si Si8 0.675382 0.503107 0.652218
O O1 0.500000 0.125405 0.849254
O O2 0.223120 0.164178 0.835237
O O3 0.261047 0.058150 0.871401
O O4 0.321527 0.135566 0.985931
O O5 0.500000 0.709970 0.025625
O O6 0.764205 0.738556 0.079782
O O7 0.723189 0.729275 0.913719
O O8 0.723556 0.640083 0.009486
O O9 0.250000 0.742265 0.250000
O O10 0.500000 0.764925 0.331061
O O11 0.750000 0.749513 0.750000
O O12 0.754307 0.834939 0.641174
O O13 0.000000 0.776128 0.670792
O O14 0.500000 0.109254 0.117252
O O15 0.260541 0.052680 0.095953
O O16 0.250000 0.981272 0.750000
O O17 0.000000 0.000951 0.660829
O O18 0.779675 0.445075 0.088450
O O19 0.000000 0.400981 0.996359
O O20 0.782633 0.449273 0.907450
O O21 0.750000 0.504040 0.750000
O O22 0.500000 0.504290 0.671596
#
# Coordination Sequence:
#
# PCOD8219542 Si02
#       8
#     8   8   8   8   8   8   8   8
#     4  10  19  36  58  80 109 143 188 240 293 357
#     4  11  23  41  62  88 121 159 201 250 297 347
#     4  12  25  41  62  86 114 153 197 244 300 360
#     4  10  21  37  58  82 114 152 195 243 295 351
#     4   9  17  34  56  78 106 145 188 234 290 354
#     4  10  20  32  52  78 106 143 184 232 291 355
#     4   9  20  39  60  87 124 165 201 243 293 347
#     4   9  19  37  62  90 125 164 203 243 291 342
#
# _framework density 19.763885999999999
#
# number of rings (size 3 to 8) (size 9 to 14) (size 15 to 20)
#    0.000    2.000    1.250    3.375    0.000    6.000 
#    0.000    5.625    0.000    1.500    0.000    0.000 
#    0.000    0.000    0.000    0.000    0.000    0.000 
#
# Total GULP energy -793192.977938 kJ/mol
# GULP energy per Si atom -12393.640280 kJ/mol
# Density = 1.971890 g / cm^3
# Si number density = 19.763886 Si / 1000 Ang^3
#
#
#
# Elastic Constant Matrix: (Units=GPa)
#
#
# Indices 1 2 3 4 5 6 
#
# 1 73.8428 46.9968 51.7470 0.0000 0.0000 0.0000
# 2 46.9968 115.2469 46.3774 0.0000 0.0000 0.0000
# 3 51.7470 46.3774 130.6847 0.0000 0.0000 0.0000
# 4 0.0000 0.0000 0.0000 1.1291 0.0000 0.0000
# 5 0.0000 0.0000 0.0000 0.0000 35.3693 0.0000
# 6 0.0000 0.0000 0.0000 0.0000 0.0000 51.1934
#
#
#
# Elastic Compliance Matrix: (Units=1/GPa)
#
#
# Indices 1 2 3 4 5 6 
#
# 1 0.022196 -0.006433 -0.006506 0.000000 0.000000 0.000000
# 2 -0.006433 0.011987 -0.001707 0.000000 0.000000 0.000000
# 3 -0.006506 -0.001707 0.010834 0.000000 0.000000 0.000000
# 4 0.000000 0.000000 0.000000 0.885653 0.000000 0.000000
# 5 0.000000 0.000000 0.000000 0.000000 0.028273 0.000000
# 6 0.000000 0.000000 0.000000 0.000000 0.000000 0.019534
#
#
# Mechanical properties :
#
#
# Convention : Reuss Voigt Hill
#
# Bulk Modulus (GPa) = 63.59153 67.77965 65.68559
# Shear Modulus (GPa) = 4.93579 29.18191 17.05885
#
# Velocity S-wave (km/s) = 1.58202 3.84673 2.94110
# Velocity P-wave (km/s) = 5.96511 7.35520 6.69632
#
# Compressibility (1/GPa) = 0.01572536
#
# Stress axis : x y z
#
# Youngs Moduli (GPa) = 45.05374 83.42213 92.30401
#
# Poissons Ratio (x) = 0.53667 0.60051
# Poissons Ratio (y) = 0.28984 0.15753
# Poissons Ratio (z) = 0.29311 0.14238
#
# Static dielectric constant tensor:
#      x y z
#    x 3.354700 0.000000 0.000000 
#    y 0.000000 3.746780 0.000000 
#    z 0.000000 0.000000 3.754310 
# 
# 
# High freq. dielectric constant tensor:
#      x y z
#    x 1.745040 0.000000 0.000000 
#    y 0.000000 1.776690 0.000000 
#    z 0.000000 0.000000 1.782100 
# 
# From -- ./inp_files/20974.got.cif
#   From: 2010.03.12/outbox.cif.g09.slc.cpg/sg53_11_cif.got.tgz:20974.got - 2010.04.16 14:36:59.
