data_PCOD8219883
_publ_section_title
;
Structure prediction by ZEFSAII (Michael W. Deem and Ramdas Pophale) SiO2 
 PCOD8219883
Probable space group: P M N A
;
_chemical_formula_sum "Si O2"
_cell_formula_units_Z 64
_cell_length_a 8.914723
_cell_length_b 22.885231
_cell_length_c 17.236207
_cell_angle_alpha 90.000000
_cell_angle_beta 90.000000
_cell_angle_gamma 90.000000
_cell_volume 3516.453306
_symmetry_space_group_name_H-M "P M N A"
_symmetry_group_IT_number 53
_symmetry_cell_setting 'orthorhombic'
loop_
_space_group_symop_operation_xyz
x,y,z
1/2-x,-y,1/2+z
x,-y,-z
1/2-x,y,1/2-z
-x,-y,-z
1/2+x,y,1/2-z
-x,y,z
1/2+x,-y,1/2+z
loop_
_atom_site_type_symbol
_atom_site_label
_atom_site_fract_x
_atom_site_fract_y
_atom_site_fract_z
Si Si1 0.828611 0.634225 0.543571
Si Si2 0.323681 0.133828 0.982317
Si Si3 0.829163 0.681901 0.172876
Si Si4 0.331597 0.038457 0.423865
Si Si5 0.173778 0.434535 0.908371
Si Si6 0.821649 0.741365 0.017154
Si Si7 0.170936 0.542113 0.668535
Si Si8 0.822529 0.941130 0.331389
O O1 0.749008 0.589641 0.485526
O O2 0.745928 0.697061 0.546925
O O3 0.819206 0.605448 0.628422
O O4 0.000000 0.643183 0.517165
O O5 0.500000 0.142507 0.991154
O O6 0.239724 0.194339 0.993545
O O7 0.284208 0.106315 0.898130
O O8 0.266208 0.094819 0.054028
O O9 0.750000 0.703798 0.250000
O O10 0.806625 0.612630 0.160657
O O11 0.763862 0.717341 0.099967
O O12 0.000000 0.699019 0.183073
O O13 0.500000 0.055805 0.396564
O O14 0.342203 0.000000 0.500000
O O15 0.248614 0.003425 0.355181
O O16 0.250432 0.494482 0.885238
O O17 0.000000 0.445757 0.926358
O O18 0.000000 0.740755 0.009925
O O19 0.250000 0.547335 0.750000
O O20 0.000000 0.522382 0.681206
O O21 0.750000 0.920184 0.250000
O O22 0.000000 0.948548 0.321498
#
# Coordination Sequence:
#
# PCOD8219883 Si02
#       8
#     8   8   8   8   8   8   8   8
#     4  10  21  37  55  76 103 135 173 216 262 312
#     4  10  20  34  53  77 104 137 177 217 257 304
#     4   9  19  32  46  68  98 132 168 206 250 301
#     4   9  17  31  52  76 103 136 172 210 252 297
#     4  10  20  34  53  77 104 135 171 211 258 314
#     4  10  21  36  53  74 100 134 177 218 258 306
#     4  11  23  36  53  78 105 133 167 211 263 318
#     4  10  20  33  51  78 112 145 175 210 254 303
#
# _framework density 18.200156
#
# number of rings (size 3 to 8) (size 9 to 14) (size 15 to 20)
#    0.000    2.125    0.000    4.125    0.000   11.000 
#    0.000    2.500    0.000    0.750    0.000    3.500 
#    0.000    0.000    0.000    0.000    0.000    0.000 
#
# Total GULP energy -793623.184991 kJ/mol
# GULP energy per Si atom -12400.362265 kJ/mol
# Density = 1.815873 g / cm^3
# Si number density = 18.200156 Si / 1000 Ang^3
#
#
#
# Elastic Constant Matrix: (Units=GPa)
#
#
# Indices 1 2 3 4 5 6 
#
# 1 123.5921 52.4184 33.5411 0.0000 0.0000 0.0000
# 2 52.4184 108.2435 33.4190 0.0000 0.0000 0.0000
# 3 33.5411 33.4190 45.6798 0.0000 0.0000 0.0000
# 4 0.0000 0.0000 0.0000 14.8246 0.0000 0.0000
# 5 0.0000 0.0000 0.0000 0.0000 28.9036 0.0000
# 6 0.0000 0.0000 0.0000 0.0000 0.0000 37.8019
#
#
#
# Elastic Compliance Matrix: (Units=1/GPa)
#
#
# Indices 1 2 3 4 5 6 
#
# 1 0.011150 -0.003710 -0.005473 0.000000 0.000000 0.000000
# 2 -0.003710 0.013168 -0.006910 0.000000 0.000000 0.000000
# 3 -0.005473 -0.006910 0.030965 0.000000 0.000000 0.000000
# 4 0.000000 0.000000 0.000000 0.067456 0.000000 0.000000
# 5 0.000000 0.000000 0.000000 0.000000 0.034598 0.000000
# 6 0.000000 0.000000 0.000000 0.000000 0.000000 0.026454
#
#
# Mechanical properties :
#
#
# Convention : Reuss Voigt Hill
#
# Bulk Modulus (GPa) = 43.29318 57.36360 50.32839
# Shear Modulus (GPa) = 22.35388 26.84848 24.60118
#
# Velocity S-wave (km/s) = 3.50841 3.84497 3.68054
# Velocity P-wave (km/s) = 6.34435 7.16229 6.76569
#
# Compressibility (1/GPa) = 0.02309833
#
# Stress axis : x y z
#
# Youngs Moduli (GPa) = 89.68780 75.94015 32.29423
#
# Poissons Ratio (x) = 0.28172 0.17674
# Poissons Ratio (y) = 0.33272 0.22315
# Poissons Ratio (z) = 0.49085 0.52474
#
# Static dielectric constant tensor:
#      x y z
#    x 3.543800 0.000000 0.000000 
#    y 0.000000 3.349480 0.000000 
#    z 0.000000 0.000000 3.245050 
# 
# 
# High freq. dielectric constant tensor:
#      x y z
#    x 1.724180 0.000000 0.000000 
#    y 0.000000 1.695880 0.000000 
#    z 0.000000 0.000000 1.684450 
# 
# From -- ./inp_files/26894.got.cif
#   From: 2010.03.12/outbox.cif.g09.slc.cpg/sg53_14_cif.got.tgz:26894.got - 2010.04.16 14:36:59.
