data_PCOD8219627
_publ_section_title
;
Structure prediction by ZEFSAII (Michael W. Deem and Ramdas Pophale) SiO2 
 PCOD8219627
Probable space group: P M N A
;
_chemical_formula_sum "Si O2"
_cell_formula_units_Z 44
_cell_length_a 22.881233
_cell_length_b 6.693547
_cell_length_c 13.694638
_cell_angle_alpha 90.000000
_cell_angle_beta 90.000000
_cell_angle_gamma 90.000000
_cell_volume 2097.424311
_symmetry_space_group_name_H-M "P M N A"
_symmetry_group_IT_number 53
_symmetry_cell_setting 'orthorhombic'
loop_
_space_group_symop_operation_xyz
x,y,z
1/2-x,-y,1/2+z
x,-y,-z
1/2-x,y,1/2-z
-x,-y,-z
1/2+x,y,1/2-z
-x,y,z
1/2+x,-y,1/2+z
loop_
_atom_site_type_symbol
_atom_site_label
_atom_site_fract_x
_atom_site_fract_y
_atom_site_fract_z
Si Si1 0.318603 0.176783 0.746503
Si Si2 0.371206 0.463083 0.886118
Si Si3 0.000000 0.828325 0.084230
Si Si4 0.500000 0.605691 0.104305
Si Si5 0.500000 0.009938 0.199711
Si Si6 0.387461 0.554757 0.397234
Si Si7 0.113456 0.217804 0.251571
O O1 0.250000 0.149999 0.750000
O O2 0.339719 0.258641 0.852859
O O3 0.338005 0.333020 0.664390
O O4 0.347779 0.968025 0.717944
O O5 0.438838 0.456362 0.846157
O O6 0.346439 0.653279 0.827021
O O7 0.364047 0.500000 0.000000
O O8 0.056721 0.689780 0.076558
O O9 0.000000 0.918703 0.192073
O O10 0.000000 0.000000 0.000000
O O11 0.500000 0.847974 0.111389
O O12 0.500000 0.500000 0.000000
O O13 0.443084 0.145632 0.187923
O O14 0.357497 0.500000 0.500000
O O15 0.405433 0.349880 0.341950
#
# Coordination Sequence:
#
# PCOD8219627 Si02
#       7
#     8   8   4   4   4   8   8
#     4  11  25  44  64  90 123 173 229 268 314 380
#     4  10  22  42  64  93 130 160 209 264 325 387
#     4  12  22  38  70 104 140 165 210 265 340 425
#     4  10  19  37  61  96 132 159 200 260 319 401
#     4  12  18  37  64  91 132 177 197 261 332 388
#     4  11  24  42  66  99 135 169 208 271 333 397
#     4  11  22  39  65  91 129 170 212 260 328 388
#
# _framework density 20.978110999999998
#
# number of rings (size 3 to 8) (size 9 to 14) (size 15 to 20)
#    0.000    1.091    3.636    3.545    0.000    4.364 
#    0.000    3.636    0.000    0.000    0.000    0.000 
#    0.000    0.000    0.000    0.000    0.000    0.000 
#
# Total GULP energy -545314.155388 kJ/mol
# GULP energy per Si atom -12393.503532 kJ/mol
# Density = 2.093036 g / cm^3
# Si number density = 20.978111 Si / 1000 Ang^3
#
#
#
# Elastic Constant Matrix: (Units=GPa)
#
#
# Indices 1 2 3 4 5 6 
#
# 1 110.3108 41.2629 14.1116 0.0000 0.0000 0.0000
# 2 41.2629 150.5346 59.5602 0.0000 0.0000 0.0000
# 3 14.1116 59.5602 120.0956 0.0000 0.0000 0.0000
# 4 0.0000 0.0000 0.0000 40.4704 0.0000 0.0000
# 5 0.0000 0.0000 0.0000 0.0000 14.3515 0.0000
# 6 0.0000 0.0000 0.0000 0.0000 0.0000 3.5635
#
#
#
# Elastic Compliance Matrix: (Units=1/GPa)
#
#
# Indices 1 2 3 4 5 6 
#
# 1 0.010106 -0.002862 0.000232 0.000000 0.000000 0.000000
# 2 -0.002862 0.009075 -0.004164 0.000000 0.000000 0.000000
# 3 0.000232 -0.004164 0.010365 0.000000 0.000000 0.000000
# 4 0.000000 0.000000 0.000000 0.024709 0.000000 0.000000
# 5 0.000000 0.000000 0.000000 0.000000 0.069679 0.000000
# 6 0.000000 0.000000 0.000000 0.000000 0.000000 0.280622
#
#
# Mechanical properties :
#
#
# Convention : Reuss Voigt Hill
#
# Bulk Modulus (GPa) = 62.66829 67.86783 65.26806
# Shear Modulus (GPa) = 11.80736 29.41082 20.60909
#
# Velocity S-wave (km/s) = 2.37500 3.74836 3.13774
# Velocity P-wave (km/s) = 6.12037 7.15231 6.65637
#
# Compressibility (1/GPa) = 0.01595703
#
# Stress axis : x y z
#
# Youngs Moduli (GPa) = 98.94948 110.19083 96.48059
#
# Poissons Ratio (x) = 0.31536 -0.02237
# Poissons Ratio (y) = 0.28319 0.40179
# Poissons Ratio (z) = -0.02294 0.45888
#
# Static dielectric constant tensor:
#      x y z
#    x 3.653350 0.000000 0.000000 
#    y 0.000000 4.170650 0.000000 
#    z 0.000000 0.000000 3.746690 
# 
# 
# High freq. dielectric constant tensor:
#      x y z
#    x 1.795490 0.000000 0.000000 
#    y 0.000000 1.845030 0.000000 
#    z 0.000000 0.000000 1.818940 
# 
# From -- ./inp_files/24865.got.cif
#   From: 2010.03.12/outbox.cif.g09.slc.cpg/sg53_13_cif.got.tgz:24865.got - 2010.04.16 14:36:59.
