data_PCOD8219725
_publ_section_title
;
Structure prediction by ZEFSAII (Michael W. Deem and Ramdas Pophale) SiO2 
 PCOD8219725
Probable space group: P M N A
;
_chemical_formula_sum "Si O2"
_cell_formula_units_Z 56
_cell_length_a 9.018358
_cell_length_b 17.990388
_cell_length_c 19.628167
_cell_angle_alpha 90.000000
_cell_angle_beta 90.000000
_cell_angle_gamma 90.000000
_cell_volume 3184.547607
_symmetry_space_group_name_H-M "P M N A"
_symmetry_group_IT_number 53
_symmetry_cell_setting 'orthorhombic'
loop_
_space_group_symop_operation_xyz
x,y,z
1/2-x,-y,1/2+z
x,-y,-z
1/2-x,y,1/2-z
-x,-y,-z
1/2+x,y,1/2-z
-x,y,z
1/2+x,-y,1/2+z
loop_
_atom_site_type_symbol
_atom_site_label
_atom_site_fract_x
_atom_site_fract_y
_atom_site_fract_z
Si Si1 0.325702 0.580231 0.680009
Si Si2 0.834115 0.001320 0.081375
Si Si3 0.334637 0.855150 0.920012
Si Si4 0.172511 0.293155 0.070797
Si Si5 0.664023 0.859349 0.081887
Si Si6 0.825588 0.303125 0.570479
Si Si7 0.176252 0.572626 0.320830
O O1 0.250000 0.606895 0.750000
O O2 0.500000 0.565985 0.691883
O O3 0.295938 0.641997 0.623928
O O4 0.247343 0.504755 0.654528
O O5 0.742400 0.071185 0.110486
O O6 0.000000 0.008991 0.108932
O O7 0.769176 0.924014 0.110927
O O8 0.829658 0.000000 0.000000
O O9 0.500000 0.849633 0.889597
O O10 0.244667 0.781716 0.899138
O O11 0.339758 0.862060 0.000722
O O12 0.000000 0.277657 0.059896
O O13 0.241055 0.319090 0.999457
O O14 0.500000 0.873867 0.111400
O O15 0.721462 0.776998 0.102494
O O16 0.781252 0.366130 0.623608
O O17 0.000000 0.301892 0.553811
O O18 0.250000 0.597570 0.250000
O O19 0.000000 0.564336 0.312084
#
# Coordination Sequence:
#
# PCOD8219725 Si02
#       7
#     8   8   8   8   8   8   8
#     4  10  21  36  53  73  96 125 160 198 240 286
#     4   9  15  22  35  58  88 121 156 192 232 275
#     4   9  16  26  41  61  89 125 159 191 233 282
#     4  10  20  32  48  72 100 126 157 200 244 283
#     4   8  14  25  39  58  87 121 156 191 229 276
#     4   9  19  33  49  71  99 130 161 195 239 289
#     4  10  20  35  54  74  96 125 162 200 238 284
#
# _framework density 17.584916
#
# number of rings (size 3 to 8) (size 9 to 14) (size 15 to 20)
#    0.000    2.714    0.000    3.857    0.000    9.143 
#    0.000    2.857    0.000    0.000    0.000    1.000 
#    0.000    4.571    0.000    0.000    0.000    0.000 
#
# Total GULP energy -694246.406997 kJ/mol
# GULP energy per Si atom -12397.257268 kJ/mol
# Density = 1.754489 g / cm^3
# Si number density = 17.584916 Si / 1000 Ang^3
#
#
#
# Elastic Constant Matrix: (Units=GPa)
#
#
# Indices 1 2 3 4 5 6 
#
# 1 130.9306 87.1337 46.8237 0.0000 0.0000 0.0000
# 2 87.1337 162.2539 65.8183 0.0000 0.0000 0.0000
# 3 46.8237 65.8183 50.6050 0.0000 0.0000 0.0000
# 4 0.0000 0.0000 0.0000 -1.6506 0.0000 0.0000
# 5 0.0000 0.0000 0.0000 0.0000 12.1268 0.0000
# 6 0.0000 0.0000 0.0000 0.0000 0.0000 31.2414
#
#
#
# Elastic Compliance Matrix: (Units=1/GPa)
#
#
# Indices 1 2 3 4 5 6 
#
# 1 0.012718 -0.004353 -0.006106 0.000000 0.000000 0.000000
# 2 -0.004353 0.014536 -0.014879 0.000000 0.000000 0.000000
# 3 -0.006106 -0.014879 0.044763 0.000000 0.000000 0.000000
# 4 0.000000 0.000000 0.000000 -0.605847 0.000000 0.000000
# 5 0.000000 0.000000 0.000000 0.000000 0.082462 0.000000
# 6 0.000000 0.000000 0.000000 0.000000 0.000000 0.032009
#
#
# Mechanical properties :
#
#
# Convention : Reuss Voigt Hill
#
# Bulk Modulus (GPa) = 46.85770 82.59342 64.72556
# Shear Modulus (GPa) = -13.82860 17.94445 2.05792
#
# Velocity S-wave (km/s) = -2.80731 3.19791 1.08297
# Velocity P-wave (km/s) = 4.02448 7.79139 6.20089
#
# Compressibility (1/GPa) = 0.02134121
#
# Stress axis : x y z
#
# Youngs Moduli (GPa) = 78.62713 68.79319 22.34007
#
# Poissons Ratio (x) = 0.29945 0.13642
# Poissons Ratio (y) = 0.34226 0.33239
# Poissons Ratio (z) = 0.48013 1.02355
#
# Static dielectric constant tensor:
#      x y z
#    x 3.466930 0.000000 0.000000 
#    y 0.000000 3.564250 0.000000 
#    z 0.000000 0.000000 2.744900 
# 
# 
# High freq. dielectric constant tensor:
#      x y z
#    x 1.694570 0.000000 0.000000 
#    y 0.000000 1.697460 0.000000 
#    z 0.000000 0.000000 1.619070 
# 
# From -- ./inp_files/31035.got.cif
#   From: 2010.03.12/outbox.cif.g09.slc.cpg/sg53_16_cif.got.tgz:31035.got - 2010.04.16 14:36:59.
