data_PCOD8219503
_publ_section_title
;
Structure prediction by ZEFSAII (Michael W. Deem and Ramdas Pophale) SiO2 
 PCOD8219503
Probable space group: P M N A
;
_chemical_formula_sum "Si O2"
_cell_formula_units_Z 56
_cell_length_a 20.630100
_cell_length_b 14.015842
_cell_length_c 9.531513
_cell_angle_alpha 90.000000
_cell_angle_beta 90.000000
_cell_angle_gamma 90.000000
_cell_volume 2756.020037
_symmetry_space_group_name_H-M "P M N A"
_symmetry_group_IT_number 53
_symmetry_cell_setting 'orthorhombic'
loop_
_space_group_symop_operation_xyz
x,y,z
1/2-x,-y,1/2+z
x,-y,-z
1/2-x,y,1/2-z
-x,-y,-z
1/2+x,y,1/2-z
-x,y,z
1/2+x,-y,1/2+z
loop_
_atom_site_type_symbol
_atom_site_label
_atom_site_fract_x
_atom_site_fract_y
_atom_site_fract_z
Si Si1 0.126847 0.107870 0.984886
Si Si2 0.925217 0.564672 0.366172
Si Si3 0.628841 0.244969 0.987315
Si Si4 0.232118 0.754383 0.100741
Si Si5 0.188428 0.548038 0.154056
Si Si6 0.074765 0.080264 0.689396
Si Si7 0.426027 0.865282 0.777514
O O1 0.191237 0.171110 0.987935
O O2 0.083567 0.119073 0.846860
O O3 0.081917 0.143094 0.111278
O O4 0.151006 0.000000 0.000000
O O5 0.909718 0.500000 0.500000
O O6 0.913796 0.673641 0.413980
O O7 0.878331 0.529510 0.239695
O O8 0.000000 0.553779 0.317011
O O9 0.703835 0.275089 0.984639
O O10 0.618600 0.144293 0.910207
O O11 0.611234 0.222809 0.148874
O O12 0.250000 0.802303 0.250000
O O13 0.190108 0.660833 0.130604
O O14 0.250000 0.514353 0.250000
O O15 0.187990 0.500000 0.000000
O O16 0.000000 0.090912 0.646555
O O17 0.097746 0.970435 0.672855
O O18 0.500000 0.852613 0.818872
#
# Coordination Sequence:
#
# PCOD8219503 Si02
#       7
#     8   8   8   8   8   8   8
#     4  10  21  38  57  84 122 163 199 252 309 351
#     4  11  24  42  65  96 130 162 199 254 319 375
#     4  12  22  38  61  86 122 160 201 249 302 363
#     4  11  22  41  61  88 118 155 210 248 289 371
#     4  11  23  44  71  94 120 161 210 256 313 377
#     4  10  19  35  60  84 113 161 210 251 299 360
#     4  10  22  37  56  88 121 155 205 254 304 363
#
# _framework density 20.319156
#
# number of rings (size 3 to 8) (size 9 to 14) (size 15 to 20)
#    0.000    1.286    4.286    2.571    0.000    6.000 
#    0.000    0.714    0.000    0.000    0.000    0.000 
#    0.000    0.000    0.000    0.000    0.000    0.000 
#
# Total GULP energy -694371.328638 kJ/mol
# GULP energy per Si atom -12399.488011 kJ/mol
# Density = 2.027291 g / cm^3
# Si number density = 20.319156 Si / 1000 Ang^3
#
#
#
# Elastic Constant Matrix: (Units=GPa)
#
#
# Indices 1 2 3 4 5 6 
#
# 1 112.9142 29.3843 41.5029 0.0000 0.0000 0.0000
# 2 29.3843 50.3994 32.9862 0.0000 0.0000 0.0000
# 3 41.5029 32.9862 110.3118 0.0000 0.0000 0.0000
# 4 0.0000 0.0000 0.0000 30.7393 0.0000 0.0000
# 5 0.0000 0.0000 0.0000 0.0000 33.6795 0.0000
# 6 0.0000 0.0000 0.0000 0.0000 0.0000 25.1845
#
#
#
# Elastic Compliance Matrix: (Units=1/GPa)
#
#
# Indices 1 2 3 4 5 6 
#
# 1 0.011087 -0.004643 -0.002783 0.000000 0.000000 0.000000
# 2 -0.004643 0.026614 -0.006211 0.000000 0.000000 0.000000
# 3 -0.002783 -0.006211 0.011970 0.000000 0.000000 0.000000
# 4 0.000000 0.000000 0.000000 0.032532 0.000000 0.000000
# 5 0.000000 0.000000 0.000000 0.000000 0.029692 0.000000
# 6 0.000000 0.000000 0.000000 0.000000 0.000000 0.039707
#
#
# Mechanical properties :
#
#
# Convention : Reuss Voigt Hill
#
# Bulk Modulus (GPa) = 44.65046 53.48581 49.06813
# Shear Modulus (GPa) = 26.83246 29.23745 28.03496
#
# Velocity S-wave (km/s) = 3.63788 3.79741 3.71850
# Velocity P-wave (km/s) = 6.29824 6.75330 6.52974
#
# Compressibility (1/GPa) = 0.02239618
#
# Stress axis : x y z
#
# Youngs Moduli (GPa) = 90.19183 37.57450 83.54411
#
# Poissons Ratio (x) = 0.17445 0.23252
# Poissons Ratio (y) = 0.41874 0.51893
# Poissons Ratio (z) = 0.25102 0.23339
#
# Static dielectric constant tensor:
#      x y z
#    x 3.633090 0.000000 0.000000 
#    y 0.000000 3.646670 0.000000 
#    z 0.000000 0.000000 3.893550 
# 
# 
# High freq. dielectric constant tensor:
#      x y z
#    x 1.789550 0.000000 0.000000 
#    y 0.000000 1.786130 0.000000 
#    z 0.000000 0.000000 1.799000 
# 
# From -- ./inp_files/11066.got.cif
#   From: 2010.03.12/outbox.cif.g09.slc.cpg/sg53_6_cif.got.tgz:11066.got - 2010.04.16 14:36:59.
