data_PCOD8219040
_publ_section_title
;
Structure prediction by ZEFSAII (Michael W. Deem and Ramdas Pophale) SiO2 
 PCOD8219040
Probable space group: P M N A
;
_chemical_formula_sum "Si O2"
_cell_formula_units_Z 64
_cell_length_a 8.415524
_cell_length_b 12.300585
_cell_length_c 27.638457
_cell_angle_alpha 90.000000
_cell_angle_beta 90.000000
_cell_angle_gamma 90.000000
_cell_volume 2861.018874
_symmetry_space_group_name_H-M "P M N A"
_symmetry_group_IT_number 53
_symmetry_cell_setting 'orthorhombic'
loop_
_space_group_symop_operation_xyz
x,y,z
1/2-x,-y,1/2+z
x,-y,-z
1/2-x,y,1/2-z
-x,-y,-z
1/2+x,y,1/2-z
-x,y,z
1/2+x,-y,1/2+z
loop_
_atom_site_type_symbol
_atom_site_label
_atom_site_fract_x
_atom_site_fract_y
_atom_site_fract_z
Si Si1 0.682920 0.222525 0.649057
Si Si2 0.317568 0.700619 0.053771
Si Si3 0.188683 0.580807 0.301455
Si Si4 0.311864 0.733264 0.903736
Si Si5 0.686284 0.881074 0.517117
Si Si6 0.313723 0.213388 0.200679
Si Si7 0.186787 0.506992 0.902086
Si Si8 0.687453 0.033468 0.799600
O O1 0.500000 0.239618 0.633384
O O2 0.805120 0.251851 0.607134
O O3 0.728433 0.300729 0.693836
O O4 0.716440 0.096806 0.659318
O O5 0.500000 0.693685 0.036724
O O6 0.242385 0.580105 0.057381
O O7 0.224775 0.783080 0.019179
O O8 0.250000 0.530664 0.250000
O O9 0.235306 0.508970 0.348694
O O10 0.000000 0.590067 0.299800
O O11 0.500000 0.728247 0.906640
O O12 0.257361 0.843074 0.931244
O O13 0.249409 0.732506 0.848220
O O14 0.237014 0.622979 0.925337
O O15 0.500000 0.893514 0.522917
O O16 0.755432 0.000000 0.500000
O O17 0.250000 0.269490 0.250000
O O18 0.500000 0.221818 0.202606
O O19 0.255409 0.089813 0.197875
O O20 0.000000 0.498365 0.895433
O O21 0.750000 0.085450 0.750000
O O22 0.500000 0.048034 0.805880
#
# Coordination Sequence:
#
# PCOD8219040 Si02
#       8
#     8   8   8   8   8   8   8   8
#     4  11  21  34  54  84 121 165 210 263 321 383
#     4  11  23  42  67  95 128 168 212 264 321 386
#     4  11  21  36  57  86 124 168 216 270 325 389
#     4  11  24  44  68  98 132 172 220 270 322 386
#     4  11  26  47  70 102 136 170 214 265 325 390
#     4   9  21  39  61  89 125 167 214 264 315 377
#     4  11  23  42  66  95 129 170 218 272 330 390
#     4  10  19  33  51  79 114 159 210 262 316 378
#
# _framework density 22.369651999999999
#
# number of rings (size 3 to 8) (size 9 to 14) (size 15 to 20)
#    0.000    1.375    0.000    7.500    1.750    3.500 
#    0.000    3.750    0.000    0.000    0.000    0.000 
#    0.000    0.000    0.000    0.000    0.000    0.000 
#
# Total GULP energy -793283.939487 kJ/mol
# GULP energy per Si atom -12395.061554 kJ/mol
# Density = 2.231874 g / cm^3
# Si number density = 22.369652 Si / 1000 Ang^3
#
#
#
# Elastic Constant Matrix: (Units=GPa)
#
#
# Indices 1 2 3 4 5 6 
#
# 1 94.0265 27.5798 10.2850 0.0000 0.0000 0.0000
# 2 27.5798 117.4725 50.6718 0.0000 0.0000 0.0000
# 3 10.2850 50.6718 78.1428 0.0000 0.0000 0.0000
# 4 0.0000 0.0000 0.0000 22.1838 0.0000 0.0000
# 5 0.0000 0.0000 0.0000 0.0000 35.0300 0.0000
# 6 0.0000 0.0000 0.0000 0.0000 0.0000 16.0924
#
#
#
# Elastic Compliance Matrix: (Units=1/GPa)
#
#
# Indices 1 2 3 4 5 6 
#
# 1 0.011428 -0.002824 0.000327 0.000000 0.000000 0.000000
# 2 -0.002824 0.012516 -0.007744 0.000000 0.000000 0.000000
# 3 0.000327 -0.007744 0.017776 0.000000 0.000000 0.000000
# 4 0.000000 0.000000 0.000000 0.045078 0.000000 0.000000
# 5 0.000000 0.000000 0.000000 0.000000 0.028547 0.000000
# 6 0.000000 0.000000 0.000000 0.000000 0.000000 0.062141
#
#
# Mechanical properties :
#
#
# Convention : Reuss Voigt Hill
#
# Bulk Modulus (GPa) = 47.08709 51.85722 49.47216
# Shear Modulus (GPa) = 24.38455 28.06827 26.22641
#
# Velocity S-wave (km/s) = 3.30521 3.54608 3.42776
# Velocity P-wave (km/s) = 5.97169 6.32444 6.15060
#
# Compressibility (1/GPa) = 0.02123724
#
# Stress axis : x y z
#
# Youngs Moduli (GPa) = 87.50530 79.89616 56.25591
#
# Poissons Ratio (x) = 0.22564 -0.01841
# Poissons Ratio (y) = 0.24713 0.43567
# Poissons Ratio (z) = -0.02863 0.61875
#
# Static dielectric constant tensor:
#      x y z
#    x 3.906980 0.000000 0.000000 
#    y 0.000000 4.259760 0.000000 
#    z 0.000000 0.000000 4.215100 
# 
# 
# High freq. dielectric constant tensor:
#      x y z
#    x 1.882600 0.000000 0.000000 
#    y 0.000000 1.885300 0.000000 
#    z 0.000000 0.000000 1.880030 
# 
# From -- ./inp_files/38131.got.cif
#   From: 2010.03.12/outbox.cif.g09.slc.cpg/sg53_20_cif.got.tgz:38131.got - 2010.04.16 14:36:59.
