data_PCOD8219999
_publ_section_title
;
Structure prediction by ZEFSAII (Michael W. Deem and Ramdas Pophale) SiO2 
 PCOD8219999
Probable space group: P M N A
;
_chemical_formula_sum "Si O2"
_cell_formula_units_Z 48
_cell_length_a 9.123665
_cell_length_b 9.084925
_cell_length_c 33.088240
_cell_angle_alpha 90.000000
_cell_angle_beta 90.000000
_cell_angle_gamma 90.000000
_cell_volume 2742.611825
_symmetry_space_group_name_H-M "P M N A"
_symmetry_group_IT_number 53
_symmetry_cell_setting 'orthorhombic'
loop_
_space_group_symop_operation_xyz
x,y,z
1/2-x,-y,1/2+z
x,-y,-z
1/2-x,y,1/2-z
-x,-y,-z
1/2+x,y,1/2-z
-x,y,z
1/2+x,-y,1/2+z
loop_
_atom_site_type_symbol
_atom_site_label
_atom_site_fract_x
_atom_site_fract_y
_atom_site_fract_z
Si Si1 0.834039 0.572742 0.132150
Si Si2 0.670360 0.850592 0.835759
Si Si3 0.672185 0.066283 0.043131
Si Si4 0.831200 0.128197 0.618195
Si Si5 0.830318 0.286873 0.089542
Si Si6 0.673012 0.382432 0.290157
O O1 0.817585 0.464096 0.093283
O O2 0.783251 0.489362 0.172972
O O3 0.000000 0.623699 0.137585
O O4 0.742387 0.716680 0.124749
O O5 0.500000 0.813918 0.828696
O O6 0.694972 0.026126 0.841938
O O7 0.724023 0.778490 0.876899
O O8 0.764048 0.782300 0.798925
O O9 0.500000 0.101476 0.047116
O O10 0.726473 0.951441 0.077462
O O11 0.765349 0.219062 0.047930
O O12 0.712604 0.000000 0.000000
O O13 0.000000 0.161679 0.611886
O O14 0.000000 0.240072 0.096228
O O15 0.750000 0.445266 0.250000
O O16 0.500000 0.371185 0.284048
#
# Coordination Sequence:
#
# PCOD8219999 Si02
#       6
#     8   8   8   8   8   8
#     4   9  19  33  49  71 100 131 162 198 242 293
#     4   9  17  31  50  72  96 125 161 198 236 282
#     4   9  18  33  51  72  98 127 163 208 253 296
#     4   9  18  31  50  74  96 124 163 200 240 291
#     4   9  17  30  48  71  96 126 165 200 236 288
#     4  10  20  34  52  75  99 127 163 200 241 287
#
# _framework density 17.501566
#
# number of rings (size 3 to 8) (size 9 to 14) (size 15 to 20)
#    0.000    2.833    0.000    3.500    0.000    7.667 
#    0.000    1.667    0.000    7.000    0.000    0.000 
#    0.000    0.000    0.000    0.000    0.000    0.000 
#
# Total GULP energy -594787.308721 kJ/mol
# GULP energy per Si atom -12391.402265 kJ/mol
# Density = 1.746173 g / cm^3
# Si number density = 17.501566 Si / 1000 Ang^3
#
#
#
# Elastic Constant Matrix: (Units=GPa)
#
#
# Indices 1 2 3 4 5 6 
#
# 1 69.0372 49.4867 30.0130 0.0000 0.0000 0.0000
# 2 49.4867 106.4089 37.1310 0.0000 0.0000 0.0000
# 3 30.0130 37.1310 72.2403 0.0000 0.0000 0.0000
# 4 0.0000 0.0000 0.0000 17.3059 0.0000 0.0000
# 5 0.0000 0.0000 0.0000 0.0000 17.7044 0.0000
# 6 0.0000 0.0000 0.0000 0.0000 0.0000 35.8137
#
#
#
# Elastic Compliance Matrix: (Units=1/GPa)
#
#
# Indices 1 2 3 4 5 6 
#
# 1 0.023104 -0.009012 -0.004967 0.000000 0.000000 0.000000
# 2 -0.009012 0.014967 -0.003949 0.000000 0.000000 0.000000
# 3 -0.004967 -0.003949 0.017936 0.000000 0.000000 0.000000
# 4 0.000000 0.000000 0.000000 0.057784 0.000000 0.000000
# 5 0.000000 0.000000 0.000000 0.000000 0.056483 0.000000
# 6 0.000000 0.000000 0.000000 0.000000 0.000000 0.027922
#
#
# Mechanical properties :
#
#
# Convention : Reuss Voigt Hill
#
# Bulk Modulus (GPa) = 49.62308 53.43862 51.53085
# Shear Modulus (GPa) = 20.76699 22.90186 21.83442
#
# Velocity S-wave (km/s) = 3.44841 3.62133 3.53593
# Velocity P-wave (km/s) = 6.65361 6.93435 6.79543
#
# Compressibility (1/GPa) = 0.02015191
#
# Stress axis : x y z
#
# Youngs Moduli (GPa) = 43.28297 66.81582 55.75422
#
# Poissons Ratio (x) = 0.60211 0.27692
# Poissons Ratio (y) = 0.39004 0.22016
# Poissons Ratio (z) = 0.21498 0.26384
#
# Static dielectric constant tensor:
#      x y z
#    x 3.329410 0.000000 0.000000 
#    y 0.000000 3.318940 0.000000 
#    z 0.000000 0.000000 3.300740 
# 
# 
# High freq. dielectric constant tensor:
#      x y z
#    x 1.684870 0.000000 0.000000 
#    y 0.000000 1.665910 0.000000 
#    z 0.000000 0.000000 1.654150 
# 
# From -- ./inp_files/37781.got.cif
#   From: 2010.03.12/outbox.cif.g09.slc.cpg/sg53_19_cif.got.tgz:37781.got - 2010.04.16 14:36:59.
