data_PCOD8219360
_publ_section_title
;
Structure prediction by ZEFSAII (Michael W. Deem and Ramdas Pophale) SiO2 
 PCOD8219360
Probable space group: P M N A
;
_chemical_formula_sum "Si O2"
_cell_formula_units_Z 48
_cell_length_a 8.920522
_cell_length_b 11.495881
_cell_length_c 23.422877
_cell_angle_alpha 90.000000
_cell_angle_beta 90.000000
_cell_angle_gamma 90.000000
_cell_volume 2401.998689
_symmetry_space_group_name_H-M "P M N A"
_symmetry_group_IT_number 53
_symmetry_cell_setting 'orthorhombic'
loop_
_space_group_symop_operation_xyz
x,y,z
1/2-x,-y,1/2+z
x,-y,-z
1/2-x,y,1/2-z
-x,-y,-z
1/2+x,y,1/2-z
-x,y,z
1/2+x,-y,1/2+z
loop_
_atom_site_type_symbol
_atom_site_label
_atom_site_fract_x
_atom_site_fract_y
_atom_site_fract_z
Si Si1 0.823454 0.790657 0.898081
Si Si2 0.332198 0.194982 0.691836
Si Si3 0.176025 0.733924 0.021035
Si Si4 0.677647 0.627811 0.812432
Si Si5 0.670814 0.576216 0.378514
Si Si6 0.321553 0.050093 0.588462
O O1 0.734547 0.746054 0.842641
O O2 0.000000 0.791334 0.883809
O O3 0.761921 0.918562 0.914882
O O4 0.789993 0.710451 0.954232
O O5 0.250000 0.182494 0.750000
O O6 0.500000 0.156071 0.703447
O O7 0.324437 0.325811 0.669542
O O8 0.260428 0.105590 0.646997
O O9 0.237105 0.629568 0.061729
O O10 0.237381 0.863236 0.038261
O O11 0.000000 0.736431 0.033991
O O12 0.750000 0.612973 0.750000
O O13 0.500000 0.629909 0.804915
O O14 0.724257 0.526127 0.855926
O O15 0.500000 0.529277 0.386290
O O16 0.500000 0.046615 0.585967
#
# Coordination Sequence:
#
# PCOD8219360 Si02
#       6
#     8   8   8   8   8   8
#     4  10  19  34  58  84 111 145 182 217 257 311
#     4   9  17  29  48  75 105 135 172 221 269 313
#     4   8  15  30  57  89 114 139 175 218 262 314
#     4  12  26  42  57  75 104 142 184 226 270 319
#     4   9  18  35  57  81 108 137 175 221 269 319
#     4   8  15  29  51  81 112 142 178 218 259 307
#
# _framework density 19.983359
#
# number of rings (size 3 to 8) (size 9 to 14) (size 15 to 20)
#    0.000    2.667    0.000    4.500    0.000    5.333 
#    0.000    6.667    0.000    4.000    0.000    0.000 
#    0.000    0.000    0.000    0.000    0.000    0.000 
#
# Total GULP energy -594759.637011 kJ/mol
# GULP energy per Si atom -12390.825771 kJ/mol
# Density = 1.993788 g / cm^3
# Si number density = 19.983359 Si / 1000 Ang^3
#
#
#
# Elastic Constant Matrix: (Units=GPa)
#
#
# Indices 1 2 3 4 5 6 
#
# 1 66.2567 28.0563 32.4526 0.0000 0.0000 0.0000
# 2 28.0563 44.2759 14.6551 0.0000 0.0000 0.0000
# 3 32.4526 14.6551 82.6471 0.0000 0.0000 0.0000
# 4 0.0000 0.0000 0.0000 27.9016 0.0000 0.0000
# 5 0.0000 0.0000 0.0000 0.0000 24.8701 0.0000
# 6 0.0000 0.0000 0.0000 0.0000 0.0000 17.3528
#
#
#
# Elastic Compliance Matrix: (Units=1/GPa)
#
#
# Indices 1 2 3 4 5 6 
#
# 1 0.024050 -0.012869 -0.007162 0.000000 0.000000 0.000000
# 2 -0.012869 0.030880 -0.000422 0.000000 0.000000 0.000000
# 3 -0.007162 -0.000422 0.014987 0.000000 0.000000 0.000000
# 4 0.000000 0.000000 0.000000 0.035840 0.000000 0.000000
# 5 0.000000 0.000000 0.000000 0.000000 0.040209 0.000000
# 6 0.000000 0.000000 0.000000 0.000000 0.000000 0.057627
#
#
# Mechanical properties :
#
#
# Convention : Reuss Voigt Hill
#
# Bulk Modulus (GPa) = 34.47042 38.16753 36.31897
# Shear Modulus (GPa) = 19.67181 21.89261 20.78221
#
# Velocity S-wave (km/s) = 3.14093 3.31349 3.22836
# Velocity P-wave (km/s) = 5.51733 5.81206 5.66661
#
# Compressibility (1/GPa) = 0.02901038
#
# Stress axis : x y z
#
# Youngs Moduli (GPa) = 41.57982 32.38297 66.72601
#
# Poissons Ratio (x) = 0.41675 0.47787
# Poissons Ratio (y) = 0.53511 0.02818
# Poissons Ratio (z) = 0.29778 0.01368
#
# Static dielectric constant tensor:
#      x y z
#    x 3.136310 0.000000 0.000000 
#    y 0.000000 3.842590 0.000000 
#    z 0.000000 0.000000 3.690490 
# 
# 
# High freq. dielectric constant tensor:
#      x y z
#    x 1.719510 0.000000 0.000000 
#    y 0.000000 1.783290 0.000000 
#    z 0.000000 0.000000 1.792820 
# 
# From -- ./inp_files/33916.got.cif
#   From: 2010.03.12/outbox.cif.g09.slc.cpg/sg53_17_cif.got.tgz:33916.got - 2010.04.16 14:36:59.
