data_PCOD8219251
_publ_section_title
;
Structure prediction by ZEFSAII (Michael W. Deem and Ramdas Pophale) SiO2 
 PCOD8219251
Probable space group: P M N A
;
_chemical_formula_sum "Si O2"
_cell_formula_units_Z 48
_cell_length_a 18.390337
_cell_length_b 13.385365
_cell_length_c 9.389230
_cell_angle_alpha 90.000000
_cell_angle_beta 90.000000
_cell_angle_gamma 90.000000
_cell_volume 2311.265750
_symmetry_space_group_name_H-M "P M N A"
_symmetry_group_IT_number 53
_symmetry_cell_setting 'orthorhombic'
loop_
_space_group_symop_operation_xyz
x,y,z
1/2-x,-y,1/2+z
x,-y,-z
1/2-x,y,1/2-z
-x,-y,-z
1/2+x,y,1/2-z
-x,y,z
1/2+x,-y,1/2+z
loop_
_atom_site_type_symbol
_atom_site_label
_atom_site_fract_x
_atom_site_fract_y
_atom_site_fract_z
Si Si1 0.165653 0.438468 0.266984
Si Si2 0.578956 0.156246 0.305907
Si Si3 0.774136 0.910428 0.901588
Si Si4 0.835597 0.338550 0.731094
Si Si5 0.154853 0.244254 0.446370
Si Si6 0.080852 0.354912 0.019524
O O1 0.250000 0.421558 0.250000
O O2 0.149768 0.549136 0.327153
O O3 0.143056 0.352660 0.376168
O O4 0.125715 0.436446 0.111843
O O5 0.500000 0.101944 0.310402
O O6 0.638297 0.097871 0.399983
O O7 0.602949 0.167280 0.139093
O O8 0.572210 0.264127 0.373377
O O9 0.750000 0.948910 0.750000
O O10 0.736729 0.802827 0.937455
O O11 0.747946 0.000000 0.000000
O O12 0.750000 0.320907 0.750000
O O13 0.865158 0.259642 0.612771
O O14 0.876876 0.319689 0.878516
O O15 0.000000 0.395035 0.979292
#
# Coordination Sequence:
#
# PCOD8219251 Si02
#       6
#     8   8   8   8   8   8
#     4  10  19  34  54  77 109 153 196 230 272 326
#     4   9  19  37  58  78 107 149 185 218 271 334
#     4  10  21  37  60  85 109 138 177 229 287 342
#     4  11  21  31  52  83 113 149 193 234 271 319
#     4  10  20  36  55  78 111 145 183 228 273 329
#     4  10  21  36  54  80 117 156 191 233 280 321
#
# _framework density 20.767842000000002
#
# number of rings (size 3 to 8) (size 9 to 14) (size 15 to 20)
#    0.000    2.000    0.000    5.500    0.000    7.000 
#    0.000    0.000    0.000   13.000    0.000    0.000 
#    0.000    0.000    0.000    0.000    0.000    0.000 
#
# Total GULP energy -594704.538694 kJ/mol
# GULP energy per Si atom -12389.677889 kJ/mol
# Density = 2.072057 g / cm^3
# Si number density = 20.767842 Si / 1000 Ang^3
#
#
#
# Elastic Constant Matrix: (Units=GPa)
#
#
# Indices 1 2 3 4 5 6 
#
# 1 137.9891 5.5615 43.0151 0.0000 0.0000 0.0000
# 2 5.5615 46.5815 30.1746 0.0000 0.0000 0.0000
# 3 43.0151 30.1746 131.6564 0.0000 0.0000 0.0000
# 4 0.0000 0.0000 0.0000 29.0318 0.0000 0.0000
# 5 0.0000 0.0000 0.0000 0.0000 22.7947 0.0000
# 6 0.0000 0.0000 0.0000 0.0000 0.0000 4.3688
#
#
#
# Elastic Compliance Matrix: (Units=1/GPa)
#
#
# Indices 1 2 3 4 5 6 
#
# 1 0.008099 0.000877 -0.002847 0.000000 0.000000 0.000000
# 2 0.000877 0.025306 -0.006087 0.000000 0.000000 0.000000
# 3 -0.002847 -0.006087 0.009921 0.000000 0.000000 0.000000
# 4 0.000000 0.000000 0.000000 0.034445 0.000000 0.000000
# 5 0.000000 0.000000 0.000000 0.000000 0.043870 0.000000
# 6 0.000000 0.000000 0.000000 0.000000 0.000000 0.228897
#
#
# Mechanical properties :
#
#
# Convention : Reuss Voigt Hill
#
# Bulk Modulus (GPa) = 36.74728 52.63659 44.69193
# Shear Modulus (GPa) = 13.30775 27.07079 20.18927
#
# Velocity S-wave (km/s) = 2.53412 3.61431 3.12130
# Velocity P-wave (km/s) = 5.12787 6.54354 5.87848
#
# Compressibility (1/GPa) = 0.02721290
#
# Stress axis : x y z
#
# Youngs Moduli (GPa) = 123.46958 39.51668 100.79845
#
# Poissons Ratio (x) = -0.03467 0.28700
# Poissons Ratio (y) = -0.10833 0.61352
# Poissons Ratio (z) = 0.35155 0.24052
#
# Static dielectric constant tensor:
#      x y z
#    x 4.242560 0.000000 0.000000 
#    y 0.000000 3.475880 0.000000 
#    z 0.000000 0.000000 3.825490 
# 
# 
# High freq. dielectric constant tensor:
#      x y z
#    x 1.803720 0.000000 0.000000 
#    y 0.000000 1.786640 0.000000 
#    z 0.000000 0.000000 1.814420 
# 
# From -- ./inp_files/9949.got.cif
#   From: 2010.03.12/outbox.cif.g09.slc.cpg/sg53_5_cif.got.tgz:9949.got - 2010.04.16 14:36:59.
