data_PCOD8219872
_publ_section_title
;
Structure prediction by ZEFSAII (Michael W. Deem and Ramdas Pophale) SiO2 
 PCOD8219872
Probable space group: P M N A
;
_chemical_formula_sum "Si O2"
_cell_formula_units_Z 48
_cell_length_a 8.696492
_cell_length_b 31.039347
_cell_length_c 9.060123
_cell_angle_alpha 90.000000
_cell_angle_beta 90.000000
_cell_angle_gamma 90.000000
_cell_volume 2445.630104
_symmetry_space_group_name_H-M "P M N A"
_symmetry_group_IT_number 53
_symmetry_cell_setting 'orthorhombic'
loop_
_space_group_symop_operation_xyz
x,y,z
1/2-x,-y,1/2+z
x,-y,-z
1/2-x,y,1/2-z
-x,-y,-z
1/2+x,y,1/2-z
-x,y,z
1/2+x,-y,1/2+z
loop_
_atom_site_type_symbol
_atom_site_label
_atom_site_fract_x
_atom_site_fract_y
_atom_site_fract_z
Si Si1 0.181208 0.459076 0.910751
Si Si2 0.682256 0.624983 0.589901
Si Si3 0.682139 0.702872 0.089249
Si Si4 0.179471 0.221107 0.087245
Si Si5 0.322516 0.874424 0.590700
Si Si6 0.681565 0.041282 0.087547
O O1 0.250000 0.459042 0.750000
O O2 0.000000 0.462383 0.897214
O O3 0.247131 0.500000 0.000000
O O4 0.232061 0.415540 0.991593
O O5 0.750000 0.616687 0.750000
O O6 0.500000 0.630795 0.598080
O O7 0.756952 0.667498 0.523544
O O8 0.750000 0.693946 0.250000
O O9 0.500000 0.700821 0.098935
O O10 0.734525 0.749115 0.029751
O O11 0.250000 0.226599 0.250000
O O12 0.201098 0.172817 0.019596
O O13 0.000000 0.233255 0.097508
O O14 0.250000 0.870698 0.750000
O O15 0.500000 0.886530 0.604208
O O16 0.238360 0.914283 0.506922
O O17 0.750000 0.039316 0.250000
O O18 0.500000 0.040968 0.094482
O O19 0.744923 0.000000 0.000000
#
# Coordination Sequence:
#
# PCOD8219872 Si02
#       6
#     8   8   8   8   8   8
#     4  10  22  39  60  88 120 155 195 238 286 339
#     4  11  23  40  62  88 118 152 193 238 284 335
#     4  12  25  41  60  83 114 150 187 230 281 336
#     4  10  20  36  58  85 112 142 183 227 275 329
#     4   9  17  30  52  78 105 138 176 220 268 321
#     4  10  20  33  51  76 105 139 179 222 269 322
#
# _framework density 19.626844999999999
#
# number of rings (size 3 to 8) (size 9 to 14) (size 15 to 20)
#    0.000    1.667    0.000    6.000    0.000    6.333 
#    0.000    0.833    0.000    2.000    0.000    0.000 
#    0.000    0.000    0.000    0.000    0.000    0.000 
#
# Total GULP energy -595145.144723 kJ/mol
# GULP energy per Si atom -12398.857182 kJ/mol
# Density = 1.958217 g / cm^3
# Si number density = 19.626845 Si / 1000 Ang^3
#
#
#
# Elastic Constant Matrix: (Units=GPa)
#
#
# Indices 1 2 3 4 5 6 
#
# 1 103.1806 52.1697 38.1735 0.0000 0.0000 0.0000
# 2 52.1697 150.9469 51.8942 0.0000 0.0000 0.0000
# 3 38.1735 51.8942 105.2526 0.0000 0.0000 0.0000
# 4 0.0000 0.0000 0.0000 35.1732 0.0000 0.0000
# 5 0.0000 0.0000 0.0000 0.0000 32.5971 0.0000
# 6 0.0000 0.0000 0.0000 0.0000 0.0000 28.0150
#
#
#
# Elastic Compliance Matrix: (Units=1/GPa)
#
#
# Indices 1 2 3 4 5 6 
#
# 1 0.012428 -0.003306 -0.002877 0.000000 0.000000 0.000000
# 2 -0.003306 0.008856 -0.003168 0.000000 0.000000 0.000000
# 3 -0.002877 -0.003168 0.012106 0.000000 0.000000 0.000000
# 4 0.000000 0.000000 0.000000 0.028431 0.000000 0.000000
# 5 0.000000 0.000000 0.000000 0.000000 0.030678 0.000000
# 6 0.000000 0.000000 0.000000 0.000000 0.000000 0.035695
#
#
# Mechanical properties :
#
#
# Convention : Reuss Voigt Hill
#
# Bulk Modulus (GPa) = 68.07988 71.53941 69.80964
# Shear Modulus (GPa) = 32.93975 33.63324 33.28649
#
# Velocity S-wave (km/s) = 4.10115 4.14410 4.12268
# Velocity P-wave (km/s) = 7.56230 7.70889 7.63595
#
# Compressibility (1/GPa) = 0.01468863
#
# Stress axis : x y z
#
# Youngs Moduli (GPa) = 80.46428 112.91198 82.60175
#
# Poissons Ratio (x) = 0.37329 0.23768
# Poissons Ratio (y) = 0.26602 0.26165
# Poissons Ratio (z) = 0.23153 0.35766
#
# Static dielectric constant tensor:
#      x y z
#    x 3.706860 0.000000 0.000000 
#    y 0.000000 4.424440 0.000000 
#    z 0.000000 0.000000 3.239790 
# 
# 
# High freq. dielectric constant tensor:
#      x y z
#    x 1.777650 0.000000 0.000000 
#    y 0.000000 1.793060 0.000000 
#    z 0.000000 0.000000 1.741520 
# 
# From -- ./inp_files/6696.got.cif
#   From: 2010.03.12/outbox.cif.g09.slc.cpg/sg53_4_cif.got.tgz:6696.got - 2010.04.16 14:36:59.
