data_PCOD8219176
_publ_section_title
;
Structure prediction by ZEFSAII (Michael W. Deem and Ramdas Pophale) SiO2 
 PCOD8219176
Probable space group: P M N A
;
_chemical_formula_sum "Si O2"
_cell_formula_units_Z 56
_cell_length_a 9.080268
_cell_length_b 14.766547
_cell_length_c 22.349488
_cell_angle_alpha 90.000000
_cell_angle_beta 90.000000
_cell_angle_gamma 90.000000
_cell_volume 2996.713313
_symmetry_space_group_name_H-M "P M N A"
_symmetry_group_IT_number 53
_symmetry_cell_setting 'orthorhombic'
loop_
_space_group_symop_operation_xyz
x,y,z
1/2-x,-y,1/2+z
x,-y,-z
1/2-x,y,1/2-z
-x,-y,-z
1/2+x,y,1/2-z
-x,y,z
1/2+x,-y,1/2+z
loop_
_atom_site_type_symbol
_atom_site_label
_atom_site_fract_x
_atom_site_fract_y
_atom_site_fract_z
Si Si1 0.326857 0.694721 0.690186
Si Si2 0.668710 0.899044 0.513280
Si Si3 0.173892 0.617946 0.055583
Si Si4 0.173582 0.207614 0.585150
Si Si5 0.825995 0.927264 0.310341
Si Si6 0.673873 0.415913 0.422765
Si Si7 0.332210 0.106169 0.347860
O O1 0.250000 0.657146 0.750000
O O2 0.500000 0.677364 0.695211
O O3 0.260616 0.640860 0.632883
O O4 0.290326 0.800849 0.684585
O O5 0.500000 0.887083 0.492079
O O6 0.770711 0.830016 0.477942
O O7 0.687999 0.876093 0.582232
O O8 0.724486 0.000000 0.500000
O O9 0.255720 0.693729 0.094976
O O10 0.217092 0.521265 0.084090
O O11 0.000000 0.634604 0.058806
O O12 0.230654 0.622142 0.986604
O O13 0.226099 0.140316 0.637517
O O14 0.000000 0.217018 0.584006
O O15 0.750000 0.892281 0.250000
O O16 0.000000 0.926842 0.302134
O O17 0.776445 0.029142 0.324753
O O18 0.500000 0.405428 0.423584
O O19 0.500000 0.076550 0.333806
#
# Coordination Sequence:
#
# PCOD8219176 Si02
#       7
#     8   8   8   8   8   8   8
#     4  10  20  34  52  77 110 142 176 216 263 317
#     4  10  19  33  56  82 106 139 182 222 264 317
#     4   9  17  34  62  85 102 134 178 221 270 326
#     4  11  23  36  52  80 115 144 172 219 276 321
#     4  11  24  39  54  72 102 144 186 225 265 312
#     4   8  16  34  59  84 106 132 174 225 268 313
#     4  10  20  35  56  81 108 140 180 224 265 315
#
# _framework density 18.687139999999999
#
# number of rings (size 3 to 8) (size 9 to 14) (size 15 to 20)
#    0.000    2.143    1.429    3.000    0.000    6.571 
#    0.000    5.000    0.000    3.429    0.000    0.000 
#    0.000    0.000    0.000    0.000    0.000    0.000 
#
# Total GULP energy -694482.337708 kJ/mol
# GULP energy per Si atom -12401.470316 kJ/mol
# Density = 1.864461 g / cm^3
# Si number density = 18.687140 Si / 1000 Ang^3
#
#
#
# Elastic Constant Matrix: (Units=GPa)
#
#
# Indices 1 2 3 4 5 6 
#
# 1 48.9658 35.4040 30.3226 0.0000 0.0000 0.0000
# 2 35.4040 101.5349 45.9121 0.0000 0.0000 0.0000
# 3 30.3226 45.9121 95.2587 0.0000 0.0000 0.0000
# 4 0.0000 0.0000 0.0000 24.7876 0.0000 0.0000
# 5 0.0000 0.0000 0.0000 0.0000 26.0398 0.0000
# 6 0.0000 0.0000 0.0000 0.0000 0.0000 -2.3655
#
#
#
# Elastic Compliance Matrix: (Units=1/GPa)
#
#
# Indices 1 2 3 4 5 6 
#
# 1 0.029524 -0.007730 -0.005673 0.000000 0.000000 0.000000
# 2 -0.007730 0.014617 -0.004585 0.000000 0.000000 0.000000
# 3 -0.005673 -0.004585 0.014513 0.000000 0.000000 0.000000
# 4 0.000000 0.000000 0.000000 0.040343 0.000000 0.000000
# 5 0.000000 0.000000 0.000000 0.000000 0.038403 0.000000
# 6 0.000000 0.000000 0.000000 0.000000 0.000000 -0.422741
#
#
# Mechanical properties :
#
#
# Convention : Reuss Voigt Hill
#
# Bulk Modulus (GPa) = 44.09047 52.11520 48.10284
# Shear Modulus (GPa) = -20.67762 18.63375 -1.02193
#
# Velocity S-wave (km/s) = -3.33004 3.16118 -0.74031
# Velocity P-wave (km/s) = 2.97652 6.42440 5.00662
#
# Compressibility (1/GPa) = 0.02268064
#
# Stress axis : x y z
#
# Youngs Moduli (GPa) = 33.87066 68.41286 68.90351
#
# Poissons Ratio (x) = 0.52881 0.39086
# Poissons Ratio (y) = 0.26181 0.31589
# Poissons Ratio (z) = 0.19213 0.31364
#
# Static dielectric constant tensor:
#      x y z
#    x 3.172930 0.000000 0.000000 
#    y 0.000000 3.527410 0.000000 
#    z 0.000000 0.000000 3.731690 
# 
# 
# High freq. dielectric constant tensor:
#      x y z
#    x 1.702560 0.000000 0.000000 
#    y 0.000000 1.729170 0.000000 
#    z 0.000000 0.000000 1.725360 
# 
# From -- ./inp_files/30866.got.cif
#   From: 2010.03.12/outbox.cif.g09.slc.cpg/sg53_16_cif.got.tgz:30866.got - 2010.04.16 14:36:59.
