data_PCOD8219015
_publ_section_title
;
Structure prediction by ZEFSAII (Michael W. Deem and Ramdas Pophale) SiO2 
 PCOD8219015
Probable space group: P M N A
;
_chemical_formula_sum "Si O2"
_cell_formula_units_Z 64
_cell_length_a 22.824192
_cell_length_b 9.446226
_cell_length_c 15.472290
_cell_angle_alpha 90.000000
_cell_angle_beta 90.000000
_cell_angle_gamma 90.000000
_cell_volume 3335.864032
_symmetry_space_group_name_H-M "P M N A"
_symmetry_group_IT_number 53
_symmetry_cell_setting 'orthorhombic'
loop_
_space_group_symop_operation_xyz
x,y,z
1/2-x,-y,1/2+z
x,-y,-z
1/2-x,y,1/2-z
-x,-y,-z
1/2+x,y,1/2-z
-x,y,z
1/2+x,-y,1/2+z
loop_
_atom_site_type_symbol
_atom_site_label
_atom_site_fract_x
_atom_site_fract_y
_atom_site_fract_z
Si Si1 0.568531 0.116018 0.573024
Si Si2 0.875523 0.832245 0.501757
Si Si3 0.360740 0.427739 0.772601
Si Si4 0.063529 0.193690 0.664416
Si Si5 0.570153 0.309095 0.167593
Si Si6 0.565409 0.940471 0.726413
Si Si7 0.284121 0.376800 0.932190
Si Si8 0.650037 0.387553 0.574844
O O1 0.500000 0.159931 0.584717
O O2 0.605346 0.258749 0.559078
O O3 0.576673 0.000000 0.500000
O O4 0.597986 0.034542 0.654830
O O5 0.927536 0.787284 0.437288
O O6 0.893495 0.763766 0.591585
O O7 0.816358 0.764344 0.463920
O O8 0.865520 0.000000 0.500000
O O9 0.389367 0.273140 0.776639
O O10 0.407748 0.533883 0.815386
O O11 0.303009 0.425821 0.834371
O O12 0.351691 0.459456 0.670910
O O13 0.000000 0.253923 0.689837
O O14 0.067472 0.026100 0.683388
O O15 0.500000 0.305972 0.150911
O O16 0.588340 0.216999 0.252824
O O17 0.500000 0.924127 0.689473
O O18 0.216278 0.334454 0.935066
O O19 0.299117 0.500000 0.000000
O O20 0.634386 0.500000 0.500000
#
# Coordination Sequence:
#
# PCOD8219015 Si02
#       8
#     8   8   8   8   8   8   8   8
#     4  10  22  41  63  87 118 152 190 244 305 362
#     4  11  21  35  58  88 125 161 199 241 289 355
#     4  11  22  39  60  84 118 159 202 253 294 351
#     4  10  19  32  55  84 120 159 193 233 289 355
#     4  11  22  34  57  92 127 162 197 240 297 363
#     4   9  18  34  54  81 118 154 188 230 287 351
#     4  10  22  43  62  85 117 159 200 247 301 350
#     4  11  25  42  65  88 114 154 206 254 302 354
#
# _framework density 19.185434999999998
#
# number of rings (size 3 to 8) (size 9 to 14) (size 15 to 20)
#    0.000    1.625    3.750    1.125    1.750    1.750 
#    0.000    1.875    0.000    0.000    0.000    0.000 
#    0.000    0.000    0.000    0.000    0.000    0.000 
#
# Total GULP energy -792888.649155 kJ/mol
# GULP energy per Si atom -12388.885143 kJ/mol
# Density = 1.914177 g / cm^3
# Si number density = 19.185435 Si / 1000 Ang^3
#
#
#
# Elastic Constant Matrix: (Units=GPa)
#
#
# Indices 1 2 3 4 5 6 
#
# 1 83.6515 40.1224 34.3908 0.0000 0.0000 0.0000
# 2 40.1224 86.6123 38.2914 0.0000 0.0000 0.0000
# 3 34.3908 38.2914 113.8396 0.0000 0.0000 0.0000
# 4 0.0000 0.0000 0.0000 30.3208 0.0000 0.0000
# 5 0.0000 0.0000 0.0000 0.0000 18.6564 0.0000
# 6 0.0000 0.0000 0.0000 0.0000 0.0000 23.7846
#
#
#
# Elastic Compliance Matrix: (Units=1/GPa)
#
#
# Indices 1 2 3 4 5 6 
#
# 1 0.016076 -0.006226 -0.002762 0.000000 0.000000 0.000000
# 2 -0.006226 0.015974 -0.003492 0.000000 0.000000 0.000000
# 3 -0.002762 -0.003492 0.010793 0.000000 0.000000 0.000000
# 4 0.000000 0.000000 0.000000 0.032981 0.000000 0.000000
# 5 0.000000 0.000000 0.000000 0.000000 0.053601 0.000000
# 6 0.000000 0.000000 0.000000 0.000000 0.000000 0.042044
#
#
# Mechanical properties :
#
#
# Convention : Reuss Voigt Hill
#
# Bulk Modulus (GPa) = 55.92082 56.63472 56.27777
# Shear Modulus (GPa) = 24.70469 25.97227 25.33848
#
# Velocity S-wave (km/s) = 3.59232 3.68332 3.63811
# Velocity P-wave (km/s) = 6.81301 6.90456 6.85894
#
# Compressibility (1/GPa) = 0.01788243
#
# Stress axis : x y z
#
# Youngs Moduli (GPa) = 62.20364 62.60303 92.64886
#
# Poissons Ratio (x) = 0.38976 0.25594
# Poissons Ratio (y) = 0.38727 0.32354
# Poissons Ratio (z) = 0.17183 0.21862
#
# Static dielectric constant tensor:
#      x y z
#    x 3.320060 0.000000 0.000000 
#    y 0.000000 3.460110 0.000000 
#    z 0.000000 0.000000 3.693420 
# 
# 
# High freq. dielectric constant tensor:
#      x y z
#    x 1.724830 0.000000 0.000000 
#    y 0.000000 1.749520 0.000000 
#    z 0.000000 0.000000 1.758450 
# 
# From -- ./inp_files/24703.got.cif
#   From: 2010.03.12/outbox.cif.g09.slc.cpg/sg53_13_cif.got.tgz:24703.got - 2010.04.16 14:36:59.
