data_PCOD8219515
_publ_section_title
;
Structure prediction by ZEFSAII (Michael W. Deem and Ramdas Pophale) SiO2 
 PCOD8219515
Probable space group: P M N A
;
_chemical_formula_sum "Si O2"
_cell_formula_units_Z 40
_cell_length_a 8.694338
_cell_length_b 7.847339
_cell_length_c 28.643653
_cell_angle_alpha 90.000000
_cell_angle_beta 90.000000
_cell_angle_gamma 90.000000
_cell_volume 1954.282477
_symmetry_space_group_name_H-M "P M N A"
_symmetry_group_IT_number 53
_symmetry_cell_setting 'orthorhombic'
loop_
_space_group_symop_operation_xyz
x,y,z
1/2-x,-y,1/2+z
x,-y,-z
1/2-x,y,1/2-z
-x,-y,-z
1/2+x,y,1/2-z
-x,y,z
1/2+x,-y,1/2+z
loop_
_atom_site_type_symbol
_atom_site_label
_atom_site_fract_x
_atom_site_fract_y
_atom_site_fract_z
Si Si1 0.317961 0.563142 0.548879
Si Si2 0.680878 0.052841 0.448118
Si Si3 0.318153 0.751914 0.699041
Si Si4 0.319973 0.936350 0.142751
Si Si5 0.181987 0.414397 0.854530
O O1 0.243638 0.500000 0.500000
O O2 0.500000 0.560955 0.543775
O O3 0.265116 0.754138 0.559978
O O4 0.266176 0.444833 0.591762
O O5 0.500000 0.025118 0.439407
O O6 0.727576 0.000000 0.500000
O O7 0.773553 0.936804 0.411755
O O8 0.250000 0.769321 0.750000
O O9 0.500000 0.757204 0.701497
O O10 0.262256 0.574397 0.676334
O O11 0.264756 0.910133 0.668306
O O12 0.500000 0.957116 0.149971
O O13 0.265903 0.755222 0.164126
O O14 0.000000 0.389539 0.850756
#
# Coordination Sequence:
#
# PCOD8219515 Si02
#       5
#     8   8   8   8   8
#     4   9  16  30  56  90 121 157 207 259 310 365
#     4  10  19  35  61  90 124 168 218 267 315 375
#     4  11  24  45  71  96 125 163 212 267 323 377
#     4  12  25  40  62  93 134 173 210 259 318 384
#     4  10  21  40  65  91 125 166 213 266 315 372
#
# _framework density 20.467869
#
# number of rings (size 3 to 8) (size 9 to 14) (size 15 to 20)
#    0.000    1.600    2.000    3.600    0.000    6.000 
#    0.000    2.000    0.000    2.400    0.000    0.000 
#    0.000    0.000    0.000    0.000    0.000    0.000 
#
# Total GULP energy -496079.704090 kJ/mol
# GULP energy per Si atom -12401.992602 kJ/mol
# Density = 2.042128 g / cm^3
# Si number density = 20.467869 Si / 1000 Ang^3
#
#
#
# Elastic Constant Matrix: (Units=GPa)
#
#
# Indices 1 2 3 4 5 6 
#
# 1 54.9998 34.5780 27.1622 0.0000 0.0000 0.0000
# 2 34.5780 145.2595 43.1477 0.0000 0.0000 0.0000
# 3 27.1622 43.1477 100.3566 0.0000 0.0000 0.0000
# 4 0.0000 0.0000 0.0000 28.1858 0.0000 0.0000
# 5 0.0000 0.0000 0.0000 0.0000 24.9672 0.0000
# 6 0.0000 0.0000 0.0000 0.0000 0.0000 14.8299
#
#
#
# Elastic Compliance Matrix: (Units=1/GPa)
#
#
# Indices 1 2 3 4 5 6 
#
# 1 0.022983 -0.004154 -0.004435 0.000000 0.000000 0.000000
# 2 -0.004154 0.008643 -0.002592 0.000000 0.000000 0.000000
# 3 -0.004435 -0.002592 0.012279 0.000000 0.000000 0.000000
# 4 0.000000 0.000000 0.000000 0.035479 0.000000 0.000000
# 5 0.000000 0.000000 0.000000 0.000000 0.040053 0.000000
# 6 0.000000 0.000000 0.000000 0.000000 0.000000 0.067431
#
#
# Mechanical properties :
#
#
# Convention : Reuss Voigt Hill
#
# Bulk Modulus (GPa) = 46.41459 56.71017 51.56238
# Shear Modulus (GPa) = 23.10429 26.64512 24.87470
#
# Velocity S-wave (km/s) = 3.36342 3.61196 3.48990
# Velocity P-wave (km/s) = 6.14894 6.72028 6.44095
#
# Compressibility (1/GPa) = 0.02154495
#
# Stress axis : x y z
#
# Youngs Moduli (GPa) = 43.50954 115.70276 81.43957
#
# Poissons Ratio (x) = 0.48060 0.36116
# Poissons Ratio (y) = 0.18073 0.21107
# Poissons Ratio (z) = 0.19295 0.29987
#
# Static dielectric constant tensor:
#      x y z
#    x 3.343760 0.000000 0.000000 
#    y 0.000000 3.957790 0.000000 
#    z 0.000000 0.000000 3.879380 
# 
# 
# High freq. dielectric constant tensor:
#      x y z
#    x 1.765020 0.000000 0.000000 
#    y 0.000000 1.819000 0.000000 
#    z 0.000000 0.000000 1.803290 
# 
# From -- ./inp_files/36021.got.cif
#   From: 2010.03.12/outbox.cif.g09.slc.cpg/sg53_19_cif.got.tgz:36021.got - 2010.04.16 14:36:59.
