data_PCOD8219763
_publ_section_title
;
Structure prediction by ZEFSAII (Michael W. Deem and Ramdas Pophale) SiO2 
 PCOD8219763
Probable space group: P M N A
;
_chemical_formula_sum "Si O2"
_cell_formula_units_Z 28
_cell_length_a 13.463623
_cell_length_b 8.695452
_cell_length_c 12.692921
_cell_angle_alpha 90.000000
_cell_angle_beta 90.000000
_cell_angle_gamma 90.000000
_cell_volume 1485.989297
_symmetry_space_group_name_H-M "P M N A"
_symmetry_group_IT_number 53
_symmetry_cell_setting 'orthorhombic'
loop_
_space_group_symop_operation_xyz
x,y,z
1/2-x,-y,1/2+z
x,-y,-z
1/2-x,y,1/2-z
-x,-y,-z
1/2+x,y,1/2-z
-x,y,z
1/2+x,-y,1/2+z
loop_
_atom_site_type_symbol
_atom_site_label
_atom_site_fract_x
_atom_site_fract_y
_atom_site_fract_z
Si Si1 0.750000 0.776412 0.750000
Si Si2 0.802677 0.499884 0.618005
Si Si3 0.885066 0.002339 0.880275
Si Si4 0.387398 0.654153 0.310801
O O1 0.810143 0.670310 0.667069
O O2 0.828607 0.877697 0.811780
O O3 0.844930 0.500000 0.500000
O O4 0.687066 0.446896 0.618111
O O5 0.867680 0.381567 0.687407
O O6 0.866199 0.167279 0.828761
O O7 0.000000 0.955636 0.878993
O O8 0.844646 0.000000 0.000000
O O9 0.500000 0.611043 0.342090
#
# Coordination Sequence:
#
# PCOD8219763 Si02
#       4
#     4   8   8   8
#     4  10  20  32  54  80 104 132 170 218 254 300
#     4  10  21  35  53  77 105 139 173 208 254 304
#     4  10  20  35  56  79 103 134 171 213 260 305
#     4   9  19  35  53  74 104 137 171 212 254 303
#
# _framework density 18.842665
#
# number of rings (size 3 to 8) (size 9 to 14) (size 15 to 20)
#    0.000    2.571    0.000    3.429    0.000    5.714 
#    0.000    0.000    0.000    4.286    0.000    0.000 
#    0.000    0.000    0.000    0.000    0.000    0.000 
#
# Total GULP energy -347186.273125 kJ/mol
# GULP energy per Si atom -12399.509754 kJ/mol
# Density = 1.879978 g / cm^3
# Si number density = 18.842665 Si / 1000 Ang^3
#
#
#
# Elastic Constant Matrix: (Units=GPa)
#
#
# Indices 1 2 3 4 5 6 
#
# 1 66.9807 48.7760 17.1621 0.0000 0.0000 0.0000
# 2 48.7760 128.7682 69.0636 0.0000 0.0000 0.0000
# 3 17.1621 69.0636 144.0756 0.0000 0.0000 0.0000
# 4 0.0000 0.0000 0.0000 20.9818 0.0000 0.0000
# 5 0.0000 0.0000 0.0000 0.0000 21.5074 0.0000
# 6 0.0000 0.0000 0.0000 0.0000 0.0000 2.5164
#
#
#
# Elastic Compliance Matrix: (Units=1/GPa)
#
#
# Indices 1 2 3 4 5 6 
#
# 1 0.020943 -0.008877 0.001761 0.000000 0.000000 0.000000
# 2 -0.008877 0.014216 -0.005757 0.000000 0.000000 0.000000
# 3 0.001761 -0.005757 0.009491 0.000000 0.000000 0.000000
# 4 0.000000 0.000000 0.000000 0.047660 0.000000 0.000000
# 5 0.000000 0.000000 0.000000 0.000000 0.046496 0.000000
# 6 0.000000 0.000000 0.000000 0.000000 0.000000 0.397386
#
#
# Mechanical properties :
#
#
# Convention : Reuss Voigt Hill
#
# Bulk Modulus (GPa) = 52.90298 67.75867 60.33082
# Shear Modulus (GPa) = 8.79909 22.65596 15.72753
#
# Velocity S-wave (km/s) = 2.16331 3.47129 2.89221
# Velocity P-wave (km/s) = 5.86319 7.21836 6.57578
#
# Compressibility (1/GPa) = 0.01890253
#
# Stress axis : x y z
#
# Youngs Moduli (GPa) = 47.74830 70.34122 105.36455
#
# Poissons Ratio (x) = 0.62445 -0.18552
# Poissons Ratio (y) = 0.42388 0.60661
# Poissons Ratio (z) = -0.08407 0.40497
#
# Static dielectric constant tensor:
#      x y z
#    x 3.367030 0.000000 0.000000 
#    y 0.000000 3.490740 0.000000 
#    z 0.000000 0.000000 3.620150 
# 
# 
# High freq. dielectric constant tensor:
#      x y z
#    x 1.718410 0.000000 0.000000 
#    y 0.000000 1.740040 0.000000 
#    z 0.000000 0.000000 1.732520 
# 
# From -- ./inp_files/22113.got.cif
#   From: 2010.03.12/outbox.cif.g09.slc.cpg/sg53_12_cif.got.tgz:22113.got - 2010.04.16 14:36:59.
