data_PCOD8219780
_publ_section_title
;
Structure prediction by ZEFSAII (Michael W. Deem and Ramdas Pophale) SiO2 
 PCOD8219780
Probable space group: P M N A
;
_chemical_formula_sum "Si O2"
_cell_formula_units_Z 40
_cell_length_a 9.078324
_cell_length_b 13.598030
_cell_length_c 18.550307
_cell_angle_alpha 90.000000
_cell_angle_beta 90.000000
_cell_angle_gamma 90.000000
_cell_volume 2289.985723
_symmetry_space_group_name_H-M "P M N A"
_symmetry_group_IT_number 53
_symmetry_cell_setting 'orthorhombic'
loop_
_space_group_symop_operation_xyz
x,y,z
1/2-x,-y,1/2+z
x,-y,-z
1/2-x,y,1/2-z
-x,-y,-z
1/2+x,y,1/2-z
-x,y,z
1/2+x,-y,1/2+z
loop_
_atom_site_type_symbol
_atom_site_label
_atom_site_fract_x
_atom_site_fract_y
_atom_site_fract_z
Si Si1 0.164349 0.781313 0.970392
Si Si2 0.835187 0.043319 0.419889
Si Si3 0.838023 0.869630 0.128118
Si Si4 0.675366 0.661023 0.322062
Si Si5 0.669565 0.393786 0.965554
O O1 0.241297 0.856311 0.914533
O O2 0.000000 0.755105 0.942536
O O3 0.153588 0.835078 0.046198
O O4 0.260191 0.682621 0.977770
O O5 0.000000 0.067707 0.395032
O O6 0.833164 0.000000 0.500000
O O7 0.770655 0.962317 0.364363
O O8 0.782761 0.776870 0.174669
O O9 0.000000 0.903431 0.153582
O O10 0.750000 0.617388 0.250000
O O11 0.500000 0.644916 0.321695
O O12 0.742706 0.604763 0.390396
O O13 0.500000 0.364029 0.951419
O O14 0.683012 0.500000 0.000000
#
# Coordination Sequence:
#
# PCOD8219780 Si02
#       5
#     8   8   8   8   8
#     4   9  16  26  41  61  88 120 152 189 232 279
#     4   9  15  22  36  59  86 116 147 179 216 261
#     4   8  15  26  39  59  87 118 149 182 223 271
#     4  10  20  33  50  71  97 128 161 199 243 296
#     4  10  20  33  49  70  97 127 162 208 256 299
#
# _framework density 17.467358999999998
#
# number of rings (size 3 to 8) (size 9 to 14) (size 15 to 20)
#    0.000    2.800    0.000    3.600    0.000    9.600 
#    0.000    0.000    0.000    0.000    0.000    1.400 
#    0.000    3.200    0.000    0.000    0.000    0.000 
#
# Total GULP energy -495832.624993 kJ/mol
# GULP energy per Si atom -12395.815625 kJ/mol
# Density = 1.742760 g / cm^3
# Si number density = 17.467359 Si / 1000 Ang^3
#
#
#
# Elastic Constant Matrix: (Units=GPa)
#
#
# Indices 1 2 3 4 5 6 
#
# 1 145.8471 58.3159 33.8597 0.0000 0.0000 0.0000
# 2 58.3159 82.3288 22.4002 0.0000 0.0000 0.0000
# 3 33.8597 22.4002 40.8414 0.0000 0.0000 0.0000
# 4 0.0000 0.0000 0.0000 13.1855 0.0000 0.0000
# 5 0.0000 0.0000 0.0000 0.0000 13.4043 0.0000
# 6 0.0000 0.0000 0.0000 0.0000 0.0000 31.1131
#
#
#
# Elastic Compliance Matrix: (Units=1/GPa)
#
#
# Indices 1 2 3 4 5 6 
#
# 1 0.010502 -0.005959 -0.005438 0.000000 0.000000 0.000000
# 2 -0.005959 0.017658 -0.004745 0.000000 0.000000 0.000000
# 3 -0.005438 -0.004745 0.031596 0.000000 0.000000 0.000000
# 4 0.000000 0.000000 0.000000 0.075841 0.000000 0.000000
# 5 0.000000 0.000000 0.000000 0.000000 0.074603 0.000000
# 6 0.000000 0.000000 0.000000 0.000000 0.000000 0.032141
#
#
# Mechanical properties :
#
#
# Convention : Reuss Voigt Hill
#
# Bulk Modulus (GPa) = 36.40053 55.35210 45.87631
# Shear Modulus (GPa) = 17.61920 21.83668 19.72794
#
# Velocity S-wave (km/s) = 3.17944 3.53957 3.36433
# Velocity P-wave (km/s) = 5.86198 6.96150 6.43526
#
# Compressibility (1/GPa) = 0.02747213
#
# Stress axis : x y z
#
# Youngs Moduli (GPa) = 95.22293 56.63059 31.64977
#
# Poissons Ratio (x) = 0.33746 0.17212
# Poissons Ratio (y) = 0.56743 0.15017
# Poissons Ratio (z) = 0.51783 0.26869
#
# Static dielectric constant tensor:
#      x y z
#    x 3.555550 0.000000 0.000000 
#    y 0.000000 3.170890 0.000000 
#    z 0.000000 0.000000 2.837990 
# 
# 
# High freq. dielectric constant tensor:
#      x y z
#    x 1.695610 0.000000 0.000000 
#    y 0.000000 1.659370 0.000000 
#    z 0.000000 0.000000 1.616800 
# 
# From -- ./inp_files/25990.got.cif
#   From: 2010.03.12/outbox.cif.g09.slc.cpg/sg53_13_cif.got.tgz:25990.got - 2010.04.16 14:36:59.
