data_PCOD8219570
_publ_section_title
;
Structure prediction by ZEFSAII (Michael W. Deem and Ramdas Pophale) SiO2 
 PCOD8219570
Probable space group: P M N A
;
_chemical_formula_sum "Si O2"
_cell_formula_units_Z 40
_cell_length_a 8.917299
_cell_length_b 7.720921
_cell_length_c 28.670663
_cell_angle_alpha 90.000000
_cell_angle_beta 90.000000
_cell_angle_gamma 90.000000
_cell_volume 1973.968298
_symmetry_space_group_name_H-M "P M N A"
_symmetry_group_IT_number 53
_symmetry_cell_setting 'orthorhombic'
loop_
_space_group_symop_operation_xyz
x,y,z
1/2-x,-y,1/2+z
x,-y,-z
1/2-x,y,1/2-z
-x,-y,-z
1/2+x,y,1/2-z
-x,y,z
1/2+x,-y,1/2+z
loop_
_atom_site_type_symbol
_atom_site_label
_atom_site_fract_x
_atom_site_fract_y
_atom_site_fract_z
Si Si1 0.676219 0.646609 0.104949
Si Si2 0.825299 0.789112 0.296439
Si Si3 0.822936 0.812761 0.702550
Si Si4 0.323105 0.300810 0.390276
Si Si5 0.327906 0.002949 0.945062
O O1 0.500000 0.609361 0.100388
O O2 0.724330 0.681824 0.158415
O O3 0.768031 0.480767 0.086446
O O4 0.723036 0.809910 0.073482
O O5 0.750000 0.711233 0.250000
O O6 0.000000 0.776474 0.288189
O O7 0.777060 0.987492 0.304627
O O8 0.750000 0.740790 0.750000
O O9 0.755884 0.706561 0.659833
O O10 0.000000 0.783695 0.704314
O O11 0.500000 0.299182 0.384155
O O12 0.276001 0.143040 0.423056
O O13 0.500000 0.966773 0.930095
O O14 0.307074 0.000000 0.000000
#
# Coordination Sequence:
#
# PCOD8219570 Si02
#       5
#     8   8   8   8   8
#     4  10  21  40  63  89 121 159 204 253 302 358
#     4   9  18  33  57  86 118 156 198 246 295 349
#     4  10  19  36  60  89 123 162 209 252 299 356
#     4  12  25  39  60  92 128 166 202 246 306 367
#     4  10  22  44  71  92 115 155 206 259 314 368
#
# _framework density 20.263749000000001
#
# number of rings (size 3 to 8) (size 9 to 14) (size 15 to 20)
#    0.000    1.800    2.000    2.400    0.000    4.400 
#    0.000    6.000    0.000    0.000    0.000    0.000 
#    0.000    0.000    0.000    0.000    0.000    0.000 
#
# Total GULP energy -496159.016946 kJ/mol
# GULP energy per Si atom -12403.975424 kJ/mol
# Density = 2.021763 g / cm^3
# Si number density = 20.263749 Si / 1000 Ang^3
#
#
#
# Elastic Constant Matrix: (Units=GPa)
#
#
# Indices 1 2 3 4 5 6 
#
# 1 95.2939 55.0897 42.4802 0.0000 0.0000 0.0000
# 2 55.0897 123.1539 45.6187 0.0000 0.0000 0.0000
# 3 42.4802 45.6187 88.2853 0.0000 0.0000 0.0000
# 4 0.0000 0.0000 0.0000 5.1136 0.0000 0.0000
# 5 0.0000 0.0000 0.0000 0.0000 28.1272 0.0000
# 6 0.0000 0.0000 0.0000 0.0000 0.0000 52.0014
#
#
#
# Elastic Compliance Matrix: (Units=1/GPa)
#
#
# Indices 1 2 3 4 5 6 
#
# 1 0.015668 -0.005214 -0.004845 0.000000 0.000000 0.000000
# 2 -0.005214 0.011777 -0.003577 0.000000 0.000000 0.000000
# 3 -0.004845 -0.003577 0.015506 0.000000 0.000000 0.000000
# 4 0.000000 0.000000 0.000000 0.195559 0.000000 0.000000
# 5 0.000000 0.000000 0.000000 0.000000 0.035553 0.000000
# 6 0.000000 0.000000 0.000000 0.000000 0.000000 0.019230
#
#
# Mechanical properties :
#
#
# Convention : Reuss Voigt Hill
#
# Bulk Modulus (GPa) = 63.77396 65.90115 64.83755
# Shear Modulus (GPa) = 15.34731 27.95138 21.64934
#
# Velocity S-wave (km/s) = 2.75503 3.71803 3.27215
# Velocity P-wave (km/s) = 6.45450 7.14310 6.80751
#
# Compressibility (1/GPa) = 0.01568038
#
# Stress axis : x y z
#
# Youngs Moduli (GPa) = 63.82539 84.91026 64.49050
#
# Poissons Ratio (x) = 0.44272 0.31244
# Poissons Ratio (y) = 0.33279 0.23066
# Poissons Ratio (z) = 0.30921 0.30370
#
# Static dielectric constant tensor:
#      x y z
#    x 3.537740 0.000000 0.000000 
#    y 0.000000 3.735730 0.000000 
#    z 0.000000 0.000000 3.631280 
# 
# 
# High freq. dielectric constant tensor:
#      x y z
#    x 1.779740 0.000000 0.000000 
#    y 0.000000 1.797260 0.000000 
#    z 0.000000 0.000000 1.790830 
# 
# From -- ./inp_files/36037.got.cif
#   From: 2010.03.12/outbox.cif.g09.slc.cpg/sg53_19_cif.got.tgz:36037.got - 2010.04.16 14:36:59.
