data_PCOD8219056
_publ_section_title
;
Structure prediction by ZEFSAII (Michael W. Deem and Ramdas Pophale) SiO2 
 PCOD8219056
Probable space group: P M N A
;
_chemical_formula_sum "Si O2"
_cell_formula_units_Z 48
_cell_length_a 16.860035
_cell_length_b 9.737780
_cell_length_c 16.586138
_cell_angle_alpha 90.000000
_cell_angle_beta 90.000000
_cell_angle_gamma 90.000000
_cell_volume 2723.100719
_symmetry_space_group_name_H-M "P M N A"
_symmetry_group_IT_number 53
_symmetry_cell_setting 'orthorhombic'
loop_
_space_group_symop_operation_xyz
x,y,z
1/2-x,-y,1/2+z
x,-y,-z
1/2-x,y,1/2-z
-x,-y,-z
1/2+x,y,1/2-z
-x,y,z
1/2+x,-y,1/2+z
loop_
_atom_site_type_symbol
_atom_site_label
_atom_site_fract_x
_atom_site_fract_y
_atom_site_fract_z
Si Si1 0.591196 0.678593 0.201942
Si Si2 0.713280 0.390594 0.936325
Si Si3 0.184682 0.850499 0.020699
Si Si4 0.590549 0.093624 0.676787
Si Si5 0.590916 0.791867 0.634679
Si Si6 0.321583 0.526028 0.689560
O O1 0.500000 0.661974 0.176323
O O2 0.644106 0.655490 0.123528
O O3 0.608540 0.830521 0.238326
O O4 0.610873 0.569188 0.271664
O O5 0.743391 0.257180 0.984798
O O6 0.789120 0.457763 0.892120
O O7 0.678082 0.500000 0.000000
O O8 0.148303 0.843987 0.109809
O O9 0.115306 0.816600 0.957617
O O10 0.220461 0.000000 0.000000
O O11 0.500000 0.122132 0.649982
O O12 0.604433 0.930549 0.686833
O O13 0.500000 0.745482 0.635455
O O14 0.643248 0.674876 0.674198
O O15 0.250000 0.546538 0.750000
#
# Coordination Sequence:
#
# PCOD8219056 Si02
#       6
#     8   8   8   8   8   8
#     4  10  21  37  57  78 105 145 188 228 270 325
#     4  11  21  37  55  78 112 143 186 230 272 325
#     4  10  19  33  52  79 108 143 173 214 273 331
#     4   9  18  33  52  78 109 139 176 218 265 327
#     4  10  19  33  53  80 110 139 171 216 274 331
#     4  10  20  35  52  78 109 140 177 226 273 323
#
# _framework density 17.626964000000001
#
# number of rings (size 3 to 8) (size 9 to 14) (size 15 to 20)
#    0.000    2.000    3.333    1.000    0.000    2.333 
#    6.000    0.833    0.000    0.500    0.000    0.000 
#    0.000    0.000    0.000    0.000    0.000    0.000 
#
# Total GULP energy -595265.396853 kJ/mol
# GULP energy per Si atom -12401.362434 kJ/mol
# Density = 1.758684 g / cm^3
# Si number density = 17.626964 Si / 1000 Ang^3
#
#
#
# Elastic Constant Matrix: (Units=GPa)
#
#
# Indices 1 2 3 4 5 6 
#
# 1 78.8855 55.2165 34.9977 0.0000 0.0000 0.0000
# 2 55.2165 125.9077 48.8382 0.0000 0.0000 0.0000
# 3 34.9977 48.8382 76.8620 0.0000 0.0000 0.0000
# 4 0.0000 0.0000 0.0000 30.7026 0.0000 0.0000
# 5 0.0000 0.0000 0.0000 0.0000 17.5642 0.0000
# 6 0.0000 0.0000 0.0000 0.0000 0.0000 20.7920
#
#
#
# Elastic Compliance Matrix: (Units=1/GPa)
#
#
# Indices 1 2 3 4 5 6 
#
# 1 0.019423 -0.006751 -0.004554 0.000000 0.000000 0.000000
# 2 -0.006751 0.012887 -0.005114 0.000000 0.000000 0.000000
# 3 -0.004554 -0.005114 0.018333 0.000000 0.000000 0.000000
# 4 0.000000 0.000000 0.000000 0.032570 0.000000 0.000000
# 5 0.000000 0.000000 0.000000 0.000000 0.056934 0.000000
# 6 0.000000 0.000000 0.000000 0.000000 0.000000 0.048095
#
#
# Mechanical properties :
#
#
# Convention : Reuss Voigt Hill
#
# Bulk Modulus (GPa) = 56.16726 62.19554 59.18140
# Shear Modulus (GPa) = 22.02486 23.31863 22.67175
#
# Velocity S-wave (km/s) = 3.53866 3.64111 3.59025
# Velocity P-wave (km/s) = 6.97350 7.28271 7.12978
#
# Compressibility (1/GPa) = 0.01780397
#
# Stress axis : x y z
#
# Youngs Moduli (GPa) = 51.48644 77.59850 54.54503
#
# Poissons Ratio (x) = 0.52389 0.24839
# Poissons Ratio (y) = 0.34760 0.27896
# Poissons Ratio (z) = 0.23447 0.39686
#
# Static dielectric constant tensor:
#      x y z
#    x 3.086840 0.000000 0.000000 
#    y 0.000000 3.481360 0.000000 
#    z 0.000000 0.000000 3.115920 
# 
# 
# High freq. dielectric constant tensor:
#      x y z
#    x 1.669130 0.000000 0.000000 
#    y 0.000000 1.695730 0.000000 
#    z 0.000000 0.000000 1.667440 
# 
# From -- ./inp_files/23651.got.cif
#   From: 2010.03.12/outbox.cif.g09.slc.cpg/sg53_12_cif.got.tgz:23651.got - 2010.04.16 14:36:59.
