data_PCOD8219244
_publ_section_title
;
Structure prediction by ZEFSAII (Michael W. Deem and Ramdas Pophale) SiO2 
 PCOD8219244
Probable space group: P M N A
;
_chemical_formula_sum "Si O2"
_cell_formula_units_Z 48
_cell_length_a 8.522943
_cell_length_b 9.236028
_cell_length_c 33.260737
_cell_angle_alpha 90.000000
_cell_angle_beta 90.000000
_cell_angle_gamma 90.000000
_cell_volume 2618.223358
_symmetry_space_group_name_H-M "P M N A"
_symmetry_group_IT_number 53
_symmetry_cell_setting 'orthorhombic'
loop_
_space_group_symop_operation_xyz
x,y,z
1/2-x,-y,1/2+z
x,-y,-z
1/2-x,y,1/2-z
-x,-y,-z
1/2+x,y,1/2-z
-x,y,z
1/2+x,-y,1/2+z
loop_
_atom_site_type_symbol
_atom_site_label
_atom_site_fract_x
_atom_site_fract_y
_atom_site_fract_z
Si Si1 0.815202 0.402598 0.206626
Si Si2 0.173497 0.858840 0.665919
Si Si3 0.187625 0.049049 0.456794
Si Si4 0.812530 0.420759 0.633381
Si Si5 0.828345 0.320164 0.415218
Si Si6 0.816538 0.892758 0.118999
O O1 0.750000 0.444372 0.250000
O O2 0.775389 0.234587 0.197235
O O3 0.729417 0.510631 0.176100
O O4 0.000000 0.426762 0.204314
O O5 0.156298 0.772403 0.624958
O O6 0.000000 0.886448 0.684253
O O7 0.255026 0.011978 0.656422
O O8 0.256713 0.212122 0.447196
O O9 0.000000 0.055868 0.456271
O O10 0.253025 0.000000 0.500000
O O11 0.239845 0.934398 0.423480
O O12 0.747745 0.527553 0.597259
O O13 0.724112 0.271547 0.628435
O O14 0.000000 0.402354 0.630477
O O15 0.000000 0.357975 0.432353
O O16 0.000000 0.915561 0.115138
#
# Coordination Sequence:
#
# PCOD8219244 Si02
#       6
#     8   8   8   8   8   8
#     4  11  21  35  55  81 109 138 172 211 256 304
#     4   9  17  33  54  75  99 132 172 210 250 302
#     4   9  17  32  54  77 101 133 175 222 269 317
#     4  10  19  34  54  75 103 141 180 218 261 313
#     4   7  13  27  49  73  95 125 168 210 249 300
#     4  11  21  33  51  77 106 136 172 217 267 315
#
# _framework density 18.333044000000001
#
# number of rings (size 3 to 8) (size 9 to 14) (size 15 to 20)
#    0.000    2.500    0.000    6.000    0.000    0.333 
#    0.000    2.500    0.000    5.000    0.000    0.000 
#    0.000    0.000    0.000    0.000    0.000    0.000 
#
# Total GULP energy -594733.425772 kJ/mol
# GULP energy per Si atom -12390.279704 kJ/mol
# Density = 1.829132 g / cm^3
# Si number density = 18.333044 Si / 1000 Ang^3
#
#
#
# Elastic Constant Matrix: (Units=GPa)
#
#
# Indices 1 2 3 4 5 6 
#
# 1 47.5342 -4.9535 -2.4838 0.0000 0.0000 0.0000
# 2 -4.9535 104.4110 20.7345 0.0000 0.0000 0.0000
# 3 -2.4838 20.7345 64.2696 0.0000 0.0000 0.0000
# 4 0.0000 0.0000 0.0000 11.8047 0.0000 0.0000
# 5 0.0000 0.0000 0.0000 0.0000 20.7326 0.0000
# 6 0.0000 0.0000 0.0000 0.0000 0.0000 26.7504
#
#
#
# Elastic Compliance Matrix: (Units=1/GPa)
#
#
# Indices 1 2 3 4 5 6 
#
# 1 0.021159 0.000899 0.000528 0.000000 0.000000 0.000000
# 2 0.000899 0.010271 -0.003279 0.000000 0.000000 0.000000
# 3 0.000528 -0.003279 0.016638 0.000000 0.000000 0.000000
# 4 0.000000 0.000000 0.000000 0.084712 0.000000 0.000000
# 5 0.000000 0.000000 0.000000 0.000000 0.048233 0.000000
# 6 0.000000 0.000000 0.000000 0.000000 0.000000 0.037383
#
#
# Mechanical properties :
#
#
# Convention : Reuss Voigt Hill
#
# Bulk Modulus (GPa) = 22.54118 26.97880 24.75999
# Shear Modulus (GPa) = 21.10704 25.38537 23.24620
#
# Velocity S-wave (km/s) = 3.39678 3.72516 3.56475
# Velocity P-wave (km/s) = 5.26367 5.76631 5.52071
#
# Compressibility (1/GPa) = 0.04436325
#
# Stress axis : x y z
#
# Youngs Moduli (GPa) = 47.26178 97.35824 60.10441
#
# Poissons Ratio (x) = -0.08753 -0.03172
# Poissons Ratio (y) = -0.04249 0.19708
# Poissons Ratio (z) = -0.02494 0.31924
#
# Static dielectric constant tensor:
#      x y z
#    x 3.299580 0.000000 0.000000 
#    y 0.000000 3.597280 0.000000 
#    z 0.000000 0.000000 3.417900 
# 
# 
# High freq. dielectric constant tensor:
#      x y z
#    x 1.701130 0.000000 0.000000 
#    y 0.000000 1.712770 0.000000 
#    z 0.000000 0.000000 1.687890 
# 
# From -- ./inp_files/37749.got.cif
#   From: 2010.03.12/outbox.cif.g09.slc.cpg/sg53_19_cif.got.tgz:37749.got - 2010.04.16 14:36:59.
