data_PCOD8219504
_publ_section_title
;
Structure prediction by ZEFSAII (Michael W. Deem and Ramdas Pophale) SiO2 
 PCOD8219504
Probable space group: P M N A
;
_chemical_formula_sum "Si O2"
_cell_formula_units_Z 64
_cell_length_a 8.777566
_cell_length_b 21.354346
_cell_length_c 18.099444
_cell_angle_alpha 90.000000
_cell_angle_beta 90.000000
_cell_angle_gamma 90.000000
_cell_volume 3392.544967
_symmetry_space_group_name_H-M "P M N A"
_symmetry_group_IT_number 53
_symmetry_cell_setting 'orthorhombic'
loop_
_space_group_symop_operation_xyz
x,y,z
1/2-x,-y,1/2+z
x,-y,-z
1/2-x,y,1/2-z
-x,-y,-z
1/2+x,y,1/2-z
-x,y,z
1/2+x,-y,1/2+z
loop_
_atom_site_type_symbol
_atom_site_label
_atom_site_fract_x
_atom_site_fract_y
_atom_site_fract_z
Si Si1 0.175746 0.675908 0.055186
Si Si2 0.177638 0.890794 0.404257
Si Si3 0.679301 0.005642 0.326553
Si Si4 0.678191 0.239901 0.829389
Si Si5 0.825720 0.750283 0.909503
Si Si6 0.317954 0.370793 0.329404
Si Si7 0.178520 0.567315 0.532040
Si Si8 0.680665 0.885689 0.562340
O O1 0.243770 0.700599 0.131875
O O2 0.000000 0.657234 0.065757
O O3 0.194982 0.729693 0.994021
O O4 0.269531 0.615479 0.030710
O O5 0.257010 0.938274 0.348314
O O6 0.213974 0.821179 0.377442
O O7 0.243459 0.901111 0.485023
O O8 0.000000 0.905286 0.404716
O O9 0.750000 0.027716 0.250000
O O10 0.500000 0.000478 0.318921
O O11 0.728416 0.058120 0.384914
O O12 0.750000 0.230052 0.750000
O O13 0.500000 0.252731 0.821802
O O14 0.753461 0.697984 0.854635
O O15 0.754422 0.820063 0.903284
O O16 0.000000 0.754432 0.886480
O O17 0.250000 0.388460 0.250000
O O18 0.500000 0.372055 0.326517
O O19 0.264680 0.421340 0.390229
O O20 0.222362 0.500000 0.500000
O O21 0.000000 0.574327 0.546897
O O22 0.500000 0.880791 0.550364
#
# Coordination Sequence:
#
# PCOD8219504 Si02
#       8
#     8   8   8   8   8   8   8   8
#     4  10  19  35  60  85 114 149 185 231 279 334
#     4  11  23  38  58  83 110 144 189 238 287 344
#     4  11  24  39  56  77 107 148 189 237 291 343
#     4  11  23  37  56  84 114 147 188 235 291 346
#     4   8  16  32  55  81 109 144 183 224 276 335
#     4  10  20  35  57  87 120 156 196 240 288 336
#     4  10  21  38  61  88 120 158 197 238 282 334
#     4  10  20  37  59  82 110 146 189 232 284 345
#
# _framework density 18.864892000000001
#
# number of rings (size 3 to 8) (size 9 to 14) (size 15 to 20)
#    0.000    1.875    1.250    3.750    0.000    6.500 
#    0.000    1.250    0.000    3.000    0.000    0.000 
#    0.000    0.000    0.000    0.000    0.000    0.000 
#
# Total GULP energy -793664.477036 kJ/mol
# GULP energy per Si atom -12401.007454 kJ/mol
# Density = 1.882195 g / cm^3
# Si number density = 18.864892 Si / 1000 Ang^3
#
#
#
# Elastic Constant Matrix: (Units=GPa)
#
#
# Indices 1 2 3 4 5 6 
#
# 1 65.2410 35.2900 50.3960 0.0000 0.0000 0.0000
# 2 35.2900 76.0717 32.0195 0.0000 0.0000 0.0000
# 3 50.3960 32.0195 124.1959 0.0000 0.0000 0.0000
# 4 0.0000 0.0000 0.0000 24.2163 0.0000 0.0000
# 5 0.0000 0.0000 0.0000 0.0000 34.6341 0.0000
# 6 0.0000 0.0000 0.0000 0.0000 0.0000 27.0517
#
#
#
# Elastic Compliance Matrix: (Units=1/GPa)
#
#
# Indices 1 2 3 4 5 6 
#
# 1 0.026695 -0.008777 -0.008569 0.000000 0.000000 0.000000
# 2 -0.008777 0.017631 -0.000984 0.000000 0.000000 0.000000
# 3 -0.008569 -0.000984 0.011783 0.000000 0.000000 0.000000
# 4 0.000000 0.000000 0.000000 0.041294 0.000000 0.000000
# 5 0.000000 0.000000 0.000000 0.000000 0.028873 0.000000
# 6 0.000000 0.000000 0.000000 0.000000 0.000000 0.036966
#
#
# Mechanical properties :
#
#
# Convention : Reuss Voigt Hill
#
# Bulk Modulus (GPa) = 51.41874 55.65773 53.53823
# Shear Modulus (GPa) = 24.22636 27.03396 25.63016
#
# Velocity S-wave (km/s) = 3.58747 3.78965 3.68994
# Velocity P-wave (km/s) = 6.66899 6.97968 6.82610
#
# Compressibility (1/GPa) = 0.01944816
#
# Stress axis : x y z
#
# Youngs Moduli (GPa) = 37.46031 56.71704 84.86953
#
# Poissons Ratio (x) = 0.49780 0.72728
# Poissons Ratio (y) = 0.32879 0.08352
# Poissons Ratio (z) = 0.32101 0.05582
#
# Static dielectric constant tensor:
#      x y z
#    x 3.427920 0.000000 0.000000 
#    y 0.000000 3.580930 0.000000 
#    z 0.000000 0.000000 3.399750 
# 
# 
# High freq. dielectric constant tensor:
#      x y z
#    x 1.732630 0.000000 0.000000 
#    y 0.000000 1.733330 0.000000 
#    z 0.000000 0.000000 1.732570 
# 
# From -- ./inp_files/26861.got.cif
#   From: 2010.03.12/outbox.cif.g09.slc.cpg/sg53_14_cif.got.tgz:26861.got - 2010.04.16 14:36:59.
