data_PCOD8219981
_publ_section_title
;
Structure prediction by ZEFSAII (Michael W. Deem and Ramdas Pophale) SiO2 
 PCOD8219981
Probable space group: P M N A
;
_chemical_formula_sum "Si O2"
_cell_formula_units_Z 64
_cell_length_a 8.618601
_cell_length_b 18.137907
_cell_length_c 23.078283
_cell_angle_alpha 90.000000
_cell_angle_beta 90.000000
_cell_angle_gamma 90.000000
_cell_volume 3607.675282
_symmetry_space_group_name_H-M "P M N A"
_symmetry_group_IT_number 53
_symmetry_cell_setting 'orthorhombic'
loop_
_space_group_symop_operation_xyz
x,y,z
1/2-x,-y,1/2+z
x,-y,-z
1/2-x,y,1/2-z
-x,-y,-z
1/2+x,y,1/2-z
-x,y,z
1/2+x,-y,1/2+z
loop_
_atom_site_type_symbol
_atom_site_label
_atom_site_fract_x
_atom_site_fract_y
_atom_site_fract_z
Si Si1 0.180939 0.874718 0.115671
Si Si2 0.821923 0.418613 0.687166
Si Si3 0.181222 0.085393 0.499391
Si Si4 0.318041 0.560917 0.686188
Si Si5 0.317081 0.135378 0.380172
Si Si6 0.182980 0.003937 0.311607
Si Si7 0.182173 0.278081 0.186986
Si Si8 0.681325 0.744228 0.185876
O O1 0.220095 0.871524 0.047671
O O2 0.225529 0.797067 0.143326
O O3 0.000000 0.890995 0.125515
O O4 0.283510 0.939548 0.142940
O O5 0.750000 0.411718 0.750000
O O6 0.746356 0.488287 0.651848
O O7 0.795924 0.338067 0.658631
O O8 0.000000 0.437600 0.693681
O O9 0.221575 0.120121 0.437854
O O10 0.000000 0.095444 0.512120
O O11 0.229665 0.000000 0.500000
O O12 0.250000 0.554857 0.750000
O O13 0.500000 0.554680 0.687648
O O14 0.266757 0.641247 0.661519
O O15 0.500000 0.129733 0.392303
O O16 0.269897 0.078034 0.330464
O O17 0.265195 0.216230 0.358509
O O18 0.250000 0.978488 0.250000
O O19 0.000000 0.018098 0.308353
O O20 0.250000 0.261963 0.250000
O O21 0.000000 0.275402 0.195694
O O22 0.750000 0.751902 0.250000
O O23 0.500000 0.765571 0.188235
#
# Coordination Sequence:
#
# PCOD8219981 Si02
#       8
#     8   8   8   8   8   8   8   8
#     4  12  24  38  57  78 101 133 172 214 259 307
#     4   9  16  26  43  68  99 136 172 206 246 296
#     4  11  23  40  60  79 100 130 170 218 263 308
#     4   9  15  25  42  66  99 136 171 206 245 294
#     4  11  22  37  56  78 103 134 174 216 259 307
#     4  12  24  38  54  76 105 137 171 208 255 309
#     4   9  19  32  48  74 107 140 172 210 255 303
#     4  10  20  34  51  75 109 141 172 212 257 307
#
# _framework density 17.739955999999999
#
# number of rings (size 3 to 8) (size 9 to 14) (size 15 to 20)
#    0.000    1.625    1.250    5.625    0.000    4.500 
#    0.000    0.000    0.000    0.000    0.000    0.875 
#    0.000    7.000    0.000    0.000    0.000    0.000 
#
# Total GULP energy -793356.721116 kJ/mol
# GULP energy per Si atom -12396.198767 kJ/mol
# Density = 1.769958 g / cm^3
# Si number density = 17.739956 Si / 1000 Ang^3
#
#
#
# Elastic Constant Matrix: (Units=GPa)
#
#
# Indices 1 2 3 4 5 6 
#
# 1 68.4910 40.6572 21.3840 0.0000 0.0000 0.0000
# 2 40.6572 132.7551 34.3519 0.0000 0.0000 0.0000
# 3 21.3840 34.3519 67.1367 0.0000 0.0000 0.0000
# 4 0.0000 0.0000 0.0000 7.3275 0.0000 0.0000
# 5 0.0000 0.0000 0.0000 0.0000 24.4705 0.0000
# 6 0.0000 0.0000 0.0000 0.0000 0.0000 29.7918
#
#
#
# Elastic Compliance Matrix: (Units=1/GPa)
#
#
# Indices 1 2 3 4 5 6 
#
# 1 0.018514 -0.004777 -0.003453 0.000000 0.000000 0.000000
# 2 -0.004777 0.009915 -0.003552 0.000000 0.000000 0.000000
# 3 -0.003453 -0.003552 0.017812 0.000000 0.000000 0.000000
# 4 0.000000 0.000000 0.000000 0.136472 0.000000 0.000000
# 5 0.000000 0.000000 0.000000 0.000000 0.040865 0.000000
# 6 0.000000 0.000000 0.000000 0.000000 0.000000 0.033566
#
#
# Mechanical properties :
#
#
# Convention : Reuss Voigt Hill
#
# Bulk Modulus (GPa) = 44.09482 51.24100 47.66791
# Shear Modulus (GPa) = 17.34507 23.78393 20.56450
#
# Velocity S-wave (km/s) = 3.13028 3.66553 3.40842
# Velocity P-wave (km/s) = 6.16239 6.84558 6.51295
#
# Compressibility (1/GPa) = 0.02267840
#
# Stress axis : x y z
#
# Youngs Moduli (GPa) = 54.01332 100.86195 56.14178
#
# Poissons Ratio (x) = 0.48177 0.19385
# Poissons Ratio (y) = 0.25800 0.19939
# Poissons Ratio (z) = 0.18650 0.35822
#
# Static dielectric constant tensor:
#      x y z
#    x 3.408570 0.000000 0.000000 
#    y 0.000000 4.260780 0.000000 
#    z 0.000000 0.000000 2.955740 
# 
# 
# High freq. dielectric constant tensor:
#      x y z
#    x 1.703500 0.000000 0.000000 
#    y 0.000000 1.704690 0.000000 
#    z 0.000000 0.000000 1.638060 
# 
# From -- ./inp_files/34440.got.cif
#   From: 2010.03.12/outbox.cif.g09.slc.cpg/sg53_18_cif.got.tgz:34440.got - 2010.04.16 14:36:59.
