data_PCOD8219734
_publ_section_title
;
Structure prediction by ZEFSAII (Michael W. Deem and Ramdas Pophale) SiO2 
 PCOD8219734
Probable space group: P M N A
;
_chemical_formula_sum "Si O2"
_cell_formula_units_Z 48
_cell_length_a 8.903529
_cell_length_b 15.926097
_cell_length_c 18.478294
_cell_angle_alpha 90.000000
_cell_angle_beta 90.000000
_cell_angle_gamma 90.000000
_cell_volume 2620.193753
_symmetry_space_group_name_H-M "P M N A"
_symmetry_group_IT_number 53
_symmetry_cell_setting 'orthorhombic'
loop_
_space_group_symop_operation_xyz
x,y,z
1/2-x,-y,1/2+z
x,-y,-z
1/2-x,y,1/2-z
-x,-y,-z
1/2+x,y,1/2-z
-x,y,z
1/2+x,-y,1/2+z
loop_
_atom_site_type_symbol
_atom_site_label
_atom_site_fract_x
_atom_site_fract_y
_atom_site_fract_z
Si Si1 0.324685 0.524131 0.675706
Si Si2 0.177312 0.666101 0.174534
Si Si3 0.674501 0.090351 0.465323
Si Si4 0.821566 0.841903 0.672740
Si Si5 0.829757 0.331537 0.399278
Si Si6 0.173237 0.760293 0.454682
O O1 0.250000 0.553849 0.750000
O O2 0.500000 0.530644 0.686674
O O3 0.276367 0.429587 0.655025
O O4 0.273824 0.587700 0.613321
O O5 0.250000 0.692873 0.250000
O O6 0.241372 0.728201 0.115247
O O7 0.000000 0.676677 0.179815
O O8 0.500000 0.112899 0.455658
O O9 0.753885 0.094561 0.386817
O O10 0.750455 0.153998 0.520931
O O11 0.698429 0.000000 0.500000
O O12 0.750000 0.863326 0.750000
O O13 0.778320 0.746984 0.650085
O O14 0.000000 0.854162 0.675171
O O15 0.811789 0.309299 0.483120
O O16 0.000000 0.355780 0.380334
O O17 0.000000 0.778059 0.436376
#
# Coordination Sequence:
#
# PCOD8219734 Si02
#       6
#     8   8   8   8   8   8
#     4  10  20  32  49  73 103 141 181 221 264 308
#     4  10  21  37  55  76 104 139 180 224 267 311
#     4  10  21  38  60  84 110 140 174 215 265 320
#     4  10  20  34  54  81 112 145 179 217 264 315
#     4   9  19  33  50  75 106 140 176 214 259 311
#     4  10  21  37  57  80 105 137 175 215 264 318
#
# _framework density 18.319255999999999
#
# number of rings (size 3 to 8) (size 9 to 14) (size 15 to 20)
#    0.000    2.167    0.000    4.000    0.000    9.333 
#    0.000    4.167    0.000    4.000    0.000    0.000 
#    0.000    0.000    0.000    0.000    0.000    0.000 
#
# Total GULP energy -595352.449442 kJ/mol
# GULP energy per Si atom -12403.176030 kJ/mol
# Density = 1.827756 g / cm^3
# Si number density = 18.319256 Si / 1000 Ang^3
#
#
#
# Elastic Constant Matrix: (Units=GPa)
#
#
# Indices 1 2 3 4 5 6 
#
# 1 100.1101 43.1644 56.1623 0.0000 0.0000 0.0000
# 2 43.1644 70.9263 54.6980 0.0000 0.0000 0.0000
# 3 56.1623 54.6980 119.4962 0.0000 0.0000 0.0000
# 4 0.0000 0.0000 0.0000 24.0408 0.0000 0.0000
# 5 0.0000 0.0000 0.0000 0.0000 36.0506 0.0000
# 6 0.0000 0.0000 0.0000 0.0000 0.0000 28.5744
#
#
#
# Elastic Compliance Matrix: (Units=1/GPa)
#
#
# Indices 1 2 3 4 5 6 
#
# 1 0.014909 -0.005672 -0.004411 0.000000 0.000000 0.000000
# 2 -0.005672 0.023949 -0.008297 0.000000 0.000000 0.000000
# 3 -0.004411 -0.008297 0.014239 0.000000 0.000000 0.000000
# 4 0.000000 0.000000 0.000000 0.041596 0.000000 0.000000
# 5 0.000000 0.000000 0.000000 0.000000 0.027739 0.000000
# 6 0.000000 0.000000 0.000000 0.000000 0.000000 0.034996
#
#
# Mechanical properties :
#
#
# Convention : Reuss Voigt Hill
#
# Bulk Modulus (GPa) = 61.20436 66.50911 63.85674
# Shear Modulus (GPa) = 25.04583 26.83370 25.93976
#
# Velocity S-wave (km/s) = 3.70156 3.83140 3.76704
# Velocity P-wave (km/s) = 7.19382 7.48045 7.33854
#
# Compressibility (1/GPa) = 0.01633870
#
# Stress axis : x y z
#
# Youngs Moduli (GPa) = 67.07346 41.75489 70.22762
#
# Poissons Ratio (x) = 0.23682 0.30978
# Poissons Ratio (y) = 0.38041 0.58267
# Poissons Ratio (z) = 0.29586 0.34644
#
# Static dielectric constant tensor:
#      x y z
#    x 3.506650 0.000000 0.000000 
#    y 0.000000 3.233910 0.000000 
#    z 0.000000 0.000000 3.319000 
# 
# 
# High freq. dielectric constant tensor:
#      x y z
#    x 1.726610 0.000000 0.000000 
#    y 0.000000 1.696170 0.000000 
#    z 0.000000 0.000000 1.710110 
# 
# From -- ./inp_files/20247.got.cif
#   From: 2010.03.12/outbox.cif.g09.slc.cpg/sg53_11_cif.got.tgz:20247.got - 2010.04.16 14:36:59.
