data_PCOD8219057
_publ_section_title
;
Structure prediction by ZEFSAII (Michael W. Deem and Ramdas Pophale) SiO2 
 PCOD8219057
Probable space group: P M N A
;
_chemical_formula_sum "Si O2"
_cell_formula_units_Z 64
_cell_length_a 24.562524
_cell_length_b 9.471598
_cell_length_c 14.383449
_cell_angle_alpha 90.000000
_cell_angle_beta 90.000000
_cell_angle_gamma 90.000000
_cell_volume 3346.256956
_symmetry_space_group_name_H-M "P M N A"
_symmetry_group_IT_number 53
_symmetry_cell_setting 'orthorhombic'
loop_
_space_group_symop_operation_xyz
x,y,z
1/2-x,-y,1/2+z
x,-y,-z
1/2-x,y,1/2-z
-x,-y,-z
1/2+x,y,1/2-z
-x,y,z
1/2+x,-y,1/2+z
loop_
_atom_site_type_symbol
_atom_site_label
_atom_site_fract_x
_atom_site_fract_y
_atom_site_fract_z
Si Si1 0.246821 0.156067 0.356999
Si Si2 0.440770 0.349111 0.045112
Si Si3 0.130517 0.871375 0.880560
Si Si4 0.823625 0.329240 0.500748
Si Si5 0.561883 0.433666 0.596762
Si Si6 0.754071 0.170647 0.642149
Si Si7 0.560536 0.320153 0.259192
Si Si8 0.633534 0.181274 0.584926
O O1 0.250000 0.201135 0.250000
O O2 0.307270 0.172486 0.394874
O O3 0.207222 0.261291 0.412339
O O4 0.228215 0.993016 0.369877
O O5 0.500000 0.269782 0.030306
O O6 0.387063 0.277128 0.001229
O O7 0.427762 0.364588 0.154227
O O8 0.447630 0.500000 0.000000
O O9 0.102882 0.796608 0.793452
O O10 0.123182 0.036938 0.858795
O O11 0.107129 0.831146 0.981530
O O12 0.819012 0.500000 0.500000
O O13 0.799976 0.268827 0.596556
O O14 0.583529 0.500000 0.500000
O O15 0.500000 0.380539 0.583683
O O16 0.567556 0.543018 0.678935
O O17 0.600202 0.307049 0.631721
O O18 0.750000 0.211062 0.750000
O O19 0.698204 0.208229 0.588703
O O20 0.500000 0.256906 0.270900
#
# Coordination Sequence:
#
# PCOD8219057 Si02
#       8
#     8   8   8   8   8   8   8   8
#     4  10  20  37  59  81 113 155 194 230 279 344
#     4   9  20  39  60  83 113 150 190 234 286 339
#     4  10  19  33  52  79 111 148 189 229 279 336
#     4  11  22  35  58  89 115 146 189 243 286 335
#     4  10  20  34  52  78 110 148 189 228 280 340
#     4  10  22  39  58  81 114 156 192 230 284 344
#     4  10  20  35  57  82 111 149 192 236 282 339
#     4  10  20  33  52  76 113 151 186 229 280 337
#
# _framework density 19.125848000000001
#
# number of rings (size 3 to 8) (size 9 to 14) (size 15 to 20)
#    0.000    2.000    2.500    1.125    0.000    4.500 
#    0.000    1.250    0.000    1.500    0.000    7.000 
#    0.000    0.000    0.000    0.000    0.000    0.000 
#
# Total GULP energy -793190.164876 kJ/mol
# GULP energy per Si atom -12393.596326 kJ/mol
# Density = 1.908232 g / cm^3
# Si number density = 19.125848 Si / 1000 Ang^3
#
#
#
# Elastic Constant Matrix: (Units=GPa)
#
#
# Indices 1 2 3 4 5 6 
#
# 1 122.4928 70.6289 49.5416 0.0000 0.0000 0.0000
# 2 70.6289 87.4187 39.6129 0.0000 0.0000 0.0000
# 3 49.5416 39.6129 114.4075 0.0000 0.0000 0.0000
# 4 0.0000 0.0000 0.0000 29.6214 0.0000 0.0000
# 5 0.0000 0.0000 0.0000 0.0000 33.9615 0.0000
# 6 0.0000 0.0000 0.0000 0.0000 0.0000 33.0205
#
#
#
# Elastic Compliance Matrix: (Units=1/GPa)
#
#
# Indices 1 2 3 4 5 6 
#
# 1 0.016067 -0.011657 -0.002921 0.000000 0.000000 0.000000
# 2 -0.011657 0.022026 -0.002578 0.000000 0.000000 0.000000
# 3 -0.002921 -0.002578 0.010898 0.000000 0.000000 0.000000
# 4 0.000000 0.000000 0.000000 0.033759 0.000000 0.000000
# 5 0.000000 0.000000 0.000000 0.000000 0.029445 0.000000
# 6 0.000000 0.000000 0.000000 0.000000 0.000000 0.030284
#
#
# Mechanical properties :
#
#
# Convention : Reuss Voigt Hill
#
# Bulk Modulus (GPa) = 68.13160 71.54287 69.83724
# Shear Modulus (GPa) = 27.52007 30.28973 28.90490
#
# Velocity S-wave (km/s) = 3.79739 3.98390 3.89176
# Velocity P-wave (km/s) = 7.41128 7.65830 7.53580
#
# Compressibility (1/GPa) = 0.01467748
#
# Stress axis : x y z
#
# Youngs Moduli (GPa) = 62.24067 45.40104 91.75697
#
# Poissons Ratio (x) = 0.52925 0.26803
# Poissons Ratio (y) = 0.72555 0.23659
# Poissons Ratio (z) = 0.18181 0.11706
#
# Static dielectric constant tensor:
#      x y z
#    x 3.809720 0.000000 0.000000 
#    y 0.000000 3.329430 0.000000 
#    z 0.000000 0.000000 3.489360 
# 
# 
# High freq. dielectric constant tensor:
#      x y z
#    x 1.748790 0.000000 0.000000 
#    y 0.000000 1.723000 0.000000 
#    z 0.000000 0.000000 1.747930 
# 
# From -- ./inp_files/24723.got.cif
#   From: 2010.03.12/outbox.cif.g09.slc.cpg/sg53_13_cif.got.tgz:24723.got - 2010.04.16 14:36:59.
