data_PCOD8219488
_publ_section_title
;
Structure prediction by ZEFSAII (Michael W. Deem and Ramdas Pophale) SiO2 
 PCOD8219488
Probable space group: P M N A
;
_chemical_formula_sum "Si O2"
_cell_formula_units_Z 48
_cell_length_a 8.855054
_cell_length_b 10.320946
_cell_length_c 28.136215
_cell_angle_alpha 90.000000
_cell_angle_beta 90.000000
_cell_angle_gamma 90.000000
_cell_volume 2571.439991
_symmetry_space_group_name_H-M "P M N A"
_symmetry_group_IT_number 53
_symmetry_cell_setting 'orthorhombic'
loop_
_space_group_symop_operation_xyz
x,y,z
1/2-x,-y,1/2+z
x,-y,-z
1/2-x,y,1/2-z
-x,-y,-z
1/2+x,y,1/2-z
-x,y,z
1/2+x,-y,1/2+z
loop_
_atom_site_type_symbol
_atom_site_label
_atom_site_fract_x
_atom_site_fract_y
_atom_site_fract_z
Si Si1 0.675387 0.268439 0.560720
Si Si2 0.322253 0.486068 0.106614
Si Si3 0.322079 0.403730 0.298803
Si Si4 0.677119 0.105238 0.298038
Si Si5 0.679118 0.999256 0.396574
Si Si6 0.325155 0.254144 0.448844
O O1 0.500000 0.292162 0.573551
O O2 0.775885 0.384281 0.579711
O O3 0.697489 0.257940 0.504749
O O4 0.740367 0.137232 0.584350
O O5 0.500000 0.481899 0.113802
O O6 0.243872 0.486392 0.157984
O O7 0.272356 0.365282 0.075068
O O8 0.250000 0.456003 0.250000
O O9 0.500000 0.423402 0.296467
O O10 0.276130 0.254080 0.306711
O O11 0.750000 0.049479 0.250000
O O12 0.500000 0.092263 0.292329
O O13 0.737031 0.022210 0.342731
O O14 0.500000 0.997457 0.398230
O O15 0.735321 0.115886 0.430213
O O16 0.500000 0.275856 0.434378
#
# Coordination Sequence:
#
# PCOD8219488 Si02
#       6
#     8   8   8   8   8   8
#     4  10  21  36  58  82 110 148 189 234 285 337
#     4  12  24  37  54  80 116 154 190 228 275 332
#     4  10  19  35  59  86 113 141 182 232 279 329
#     4   9  17  31  54  82 111 137 172 222 272 325
#     4   9  17  34  58  85 110 139 182 234 284 334
#     4  10  19  36  60  84 107 141 192 241 283 332
#
# _framework density 18.666584
#
# number of rings (size 3 to 8) (size 9 to 14) (size 15 to 20)
#    0.000    2.000    1.667    3.000    0.000    5.333 
#    0.000    2.500    0.000    4.000    0.000    0.000 
#    0.000    0.000    0.000    0.000    0.000    0.000 
#
# Total GULP energy -595306.492569 kJ/mol
# GULP energy per Si atom -12402.218595 kJ/mol
# Density = 1.862410 g / cm^3
# Si number density = 18.666584 Si / 1000 Ang^3
#
#
#
# Elastic Constant Matrix: (Units=GPa)
#
#
# Indices 1 2 3 4 5 6 
#
# 1 62.7003 24.3031 33.6734 0.0000 0.0000 0.0000
# 2 24.3031 78.3961 27.3057 0.0000 0.0000 0.0000
# 3 33.6734 27.3057 108.6877 0.0000 0.0000 0.0000
# 4 0.0000 0.0000 0.0000 -26.5425 0.0000 0.0000
# 5 0.0000 0.0000 0.0000 0.0000 31.6607 0.0000
# 6 0.0000 0.0000 0.0000 0.0000 0.0000 -8.8063
#
#
#
# Elastic Compliance Matrix: (Units=1/GPa)
#
#
# Indices 1 2 3 4 5 6 
#
# 1 0.020509 -0.004542 -0.005213 0.000000 0.000000 0.000000
# 2 -0.004542 0.014985 -0.002357 0.000000 0.000000 0.000000
# 3 -0.005213 -0.002357 0.011408 0.000000 0.000000 0.000000
# 4 0.000000 0.000000 0.000000 -0.037675 0.000000 0.000000
# 5 0.000000 0.000000 0.000000 0.000000 0.031585 0.000000
# 6 0.000000 0.000000 0.000000 0.000000 0.000000 -0.113555
#
#
# Mechanical properties :
#
#
# Convention : Reuss Voigt Hill
#
# Bulk Modulus (GPa) = 44.09778 46.70540 45.40159
# Shear Modulus (GPa) = -122.07190 10.22918 -55.92136
#
# Velocity S-wave (km/s) = -8.09555 2.34347 -5.47933
# Velocity P-wave (km/s) = 7.98177 5.69189 3.95671
#
# Compressibility (1/GPa) = 0.02267688
#
# Stress axis : x y z
#
# Youngs Moduli (GPa) = 48.75884 66.73370 87.65781
#
# Poissons Ratio (x) = 0.30312 0.45696
# Poissons Ratio (y) = 0.22147 0.20665
# Poissons Ratio (z) = 0.25418 0.15732
#
# Static dielectric constant tensor:
#      x y z
#    x 3.220420 0.000000 0.000000 
#    y 0.000000 3.487330 0.000000 
#    z 0.000000 0.000000 3.684720 
# 
# 
# High freq. dielectric constant tensor:
#      x y z
#    x 1.701640 0.000000 0.000000 
#    y 0.000000 1.712390 0.000000 
#    z 0.000000 0.000000 1.744070 
# 
# From -- ./inp_files/37743.got.cif
#   From: 2010.03.12/outbox.cif.g09.slc.cpg/sg53_19_cif.got.tgz:37743.got - 2010.04.16 14:36:59.
