data_PCOD8219530
_publ_section_title
;
Structure prediction by ZEFSAII (Michael W. Deem and Ramdas Pophale) SiO2 
 PCOD8219530
Probable space group: P M N A
;
_chemical_formula_sum "Si O2"
_cell_formula_units_Z 28
_cell_length_a 12.483012
_cell_length_b 10.033371
_cell_length_c 12.055500
_cell_angle_alpha 90.000000
_cell_angle_beta 90.000000
_cell_angle_gamma 90.000000
_cell_volume 1509.911478
_symmetry_space_group_name_H-M "P M N A"
_symmetry_group_IT_number 53
_symmetry_cell_setting 'orthorhombic'
loop_
_space_group_symop_operation_xyz
x,y,z
1/2-x,-y,1/2+z
x,-y,-z
1/2-x,y,1/2-z
-x,-y,-z
1/2+x,y,1/2-z
-x,y,z
1/2+x,-y,1/2+z
loop_
_atom_site_type_symbol
_atom_site_label
_atom_site_fract_x
_atom_site_fract_y
_atom_site_fract_z
Si Si1 0.624207 0.140336 0.550590
Si Si2 0.674479 0.607409 0.586447
Si Si3 0.619388 0.507663 0.821977
Si Si4 0.250000 0.737289 0.250000
O O1 0.500000 0.139671 0.585331
O O2 0.645469 0.246319 0.453841
O O3 0.693852 0.169460 0.659562
O O4 0.660425 0.000000 0.500000
O O5 0.628052 0.500000 0.500000
O O6 0.618063 0.580135 0.703094
O O7 0.803681 0.590843 0.596011
O O8 0.500000 0.505709 0.871566
O O9 0.662898 0.356865 0.810160
#
# Coordination Sequence:
#
# PCOD8219530 Si02
#       4
#     8   8   8   4
#     4  11  23  39  60  82 112 154 187 224 280 337
#     4  10  19  36  55  86 108 144 192 231 269 328
#     4  10  20  33  58  87 116 145 184 239 283 321
#     4  10  20  36  56  88 112 142 190 238 272 332
#
# _framework density 18.544134
#
# number of rings (size 3 to 8) (size 9 to 14) (size 15 to 20)
#    0.000    2.000    5.714    1.714    0.000    4.000 
#    0.000    0.000    0.000    6.000    0.000    0.000 
#    0.000    0.000    0.000    0.000    0.000    0.000 
#
# Total GULP energy -347193.825195 kJ/mol
# GULP energy per Si atom -12399.779471 kJ/mol
# Density = 1.850193 g / cm^3
# Si number density = 18.544134 Si / 1000 Ang^3
#
#
#
# Elastic Constant Matrix: (Units=GPa)
#
#
# Indices 1 2 3 4 5 6 
#
# 1 110.7843 32.8854 11.4982 0.0000 0.0000 0.0000
# 2 32.8854 146.9660 51.1006 0.0000 0.0000 0.0000
# 3 11.4982 51.1006 83.0548 0.0000 0.0000 0.0000
# 4 0.0000 0.0000 0.0000 27.2629 0.0000 0.0000
# 5 0.0000 0.0000 0.0000 0.0000 16.5614 0.0000
# 6 0.0000 0.0000 0.0000 0.0000 0.0000 -36.3996
#
#
#
# Elastic Compliance Matrix: (Units=1/GPa)
#
#
# Indices 1 2 3 4 5 6 
#
# 1 0.009669 -0.002160 -0.000009 0.000000 0.000000 0.000000
# 2 -0.002160 0.009139 -0.005324 0.000000 0.000000 0.000000
# 3 -0.000009 -0.005324 0.015317 0.000000 0.000000 0.000000
# 4 0.000000 0.000000 0.000000 0.036680 0.000000 0.000000
# 5 0.000000 0.000000 0.000000 0.000000 0.060381 0.000000
# 6 0.000000 0.000000 0.000000 0.000000 0.000000 -0.027473
#
#
# Mechanical properties :
#
#
# Convention : Reuss Voigt Hill
#
# Bulk Modulus (GPa) = 52.25248 59.08593 55.66920
# Shear Modulus (GPa) = 39.97478 17.83967 28.90723
#
# Velocity S-wave (km/s) = 4.64794 3.10500 3.95249
# Velocity P-wave (km/s) = 7.55268 6.69225 7.13545
#
# Compressibility (1/GPa) = 0.01913785
#
# Stress axis : x y z
#
# Youngs Moduli (GPa) = 103.42575 109.42453 65.28689
#
# Poissons Ratio (x) = 0.23638 0.00062
# Poissons Ratio (y) = 0.22342 0.34757
# Poissons Ratio (z) = 0.00098 0.58254
#
# Static dielectric constant tensor:
#      x y z
#    x 3.465930 0.000000 0.000000 
#    y 0.000000 3.266130 0.000000 
#    z 0.000000 0.000000 3.504630 
# 
# 
# High freq. dielectric constant tensor:
#      x y z
#    x 1.723730 0.000000 0.000000 
#    y 0.000000 1.699310 0.000000 
#    z 0.000000 0.000000 1.725050 
# 
# From -- ./inp_files/15286.got.cif
#   From: 2010.03.12/outbox.cif.g09.slc.cpg/sg53_8_cif.got.tgz:15286.got - 2010.04.16 14:36:59.
