data_PCOD8219548
_publ_section_title
;
Structure prediction by ZEFSAII (Michael W. Deem and Ramdas Pophale) SiO2 
 PCOD8219548
Probable space group: P M N A
;
_chemical_formula_sum "Si O2"
_cell_formula_units_Z 64
_cell_length_a 8.990366
_cell_length_b 24.290475
_cell_length_c 14.475254
_cell_angle_alpha 90.000000
_cell_angle_beta 90.000000
_cell_angle_gamma 90.000000
_cell_volume 3161.109740
_symmetry_space_group_name_H-M "P M N A"
_symmetry_group_IT_number 53
_symmetry_cell_setting 'orthorhombic'
loop_
_space_group_symop_operation_xyz
x,y,z
1/2-x,-y,1/2+z
x,-y,-z
1/2-x,y,1/2-z
-x,-y,-z
1/2+x,y,1/2-z
-x,y,z
1/2+x,-y,1/2+z
loop_
_atom_site_type_symbol
_atom_site_label
_atom_site_fract_x
_atom_site_fract_y
_atom_site_fract_z
Si Si1 0.671860 0.634908 0.157992
Si Si2 0.674471 0.407451 0.339173
Si Si3 0.327808 0.031065 0.343674
Si Si4 0.676180 0.885204 0.969824
Si Si5 0.826677 0.675357 0.535367
Si Si6 0.170036 0.512788 0.392975
Si Si7 0.825596 0.219393 0.349078
Si Si8 0.327618 0.901245 0.344174
O O1 0.750000 0.657043 0.250000
O O2 0.500000 0.632153 0.180770
O O3 0.727857 0.574042 0.129417
O O4 0.703965 0.677924 0.074713
O O5 0.750000 0.378701 0.250000
O O6 0.500000 0.401378 0.331963
O O7 0.733728 0.376412 0.428932
O O8 0.721670 0.471261 0.339744
O O9 0.250000 0.051966 0.250000
O O10 0.500000 0.048550 0.340711
O O11 0.247704 0.058965 0.430593
O O12 0.308066 0.966349 0.355568
O O13 0.500000 0.892110 0.980241
O O14 0.720526 0.836544 0.900113
O O15 0.745792 0.872147 0.069981
O O16 0.772501 0.731074 0.584537
O O17 0.000000 0.663420 0.554209
O O18 0.184493 0.500000 0.500000
O O19 0.000000 0.503822 0.360156
O O20 0.750000 0.223428 0.250000
O O21 0.000000 0.222163 0.332496
O O22 0.250000 0.880862 0.250000
O O23 0.500000 0.884123 0.342070
#
# Coordination Sequence:
#
# PCOD8219548 Si02
#       8
#     8   8   8   8   8   8   8   8
#     4  10  21  37  60  84 112 148 186 230 278 333
#     4  12  24  36  55  84 115 148 186 229 278 336
#     4  10  20  34  54  83 118 156 197 239 288 346
#     4  11  22  36  56  85 117 153 193 239 293 350
#     4  10  21  42  63  81 110 149 189 235 287 335
#     4  10  19  36  58  82 113 151 187 224 278 335
#     4  10  23  41  63  87 114 146 187 235 288 344
#     4  10  21  37  57  83 116 156 198 241 286 338
#
# _framework density 20.246053
#
# number of rings (size 3 to 8) (size 9 to 14) (size 15 to 20)
#    0.000    1.625    1.250    3.750    0.000    8.750 
#    0.000    0.625    0.000    1.500    0.000    0.000 
#    0.000    0.000    0.000    0.000    0.000    0.000 
#
# Total GULP energy -793803.248986 kJ/mol
# GULP energy per Si atom -12403.175765 kJ/mol
# Density = 2.019997 g / cm^3
# Si number density = 20.246053 Si / 1000 Ang^3
#
#
#
# Elastic Constant Matrix: (Units=GPa)
#
#
# Indices 1 2 3 4 5 6 
#
# 1 105.5102 32.9640 65.1279 0.0000 0.0000 0.0000
# 2 32.9640 57.3321 39.2898 0.0000 0.0000 0.0000
# 3 65.1279 39.2898 158.3842 0.0000 0.0000 0.0000
# 4 0.0000 0.0000 0.0000 31.0169 0.0000 0.0000
# 5 0.0000 0.0000 0.0000 0.0000 41.3274 0.0000
# 6 0.0000 0.0000 0.0000 0.0000 0.0000 12.4274
#
#
#
# Elastic Compliance Matrix: (Units=1/GPa)
#
#
# Indices 1 2 3 4 5 6 
#
# 1 0.013738 -0.004852 -0.004445 0.000000 0.000000 0.000000
# 2 -0.004852 0.022729 -0.003643 0.000000 0.000000 0.000000
# 3 -0.004445 -0.003643 0.009045 0.000000 0.000000 0.000000
# 4 0.000000 0.000000 0.000000 0.032240 0.000000 0.000000
# 5 0.000000 0.000000 0.000000 0.000000 0.024197 0.000000
# 6 0.000000 0.000000 0.000000 0.000000 0.000000 0.080467
#
#
# Mechanical properties :
#
#
# Convention : Reuss Voigt Hill
#
# Bulk Modulus (GPa) = 50.94079 66.22110 58.58095
# Shear Modulus (GPa) = 23.27304 29.21067 26.24186
#
# Velocity S-wave (km/s) = 3.39412 3.80252 3.60411
# Velocity P-wave (km/s) = 6.36989 7.21513 6.80564
#
# Compressibility (1/GPa) = 0.01963063
#
# Stress axis : x y z
#
# Youngs Moduli (GPa) = 72.79269 43.99730 110.55407
#
# Poissons Ratio (x) = 0.21349 0.49144
# Poissons Ratio (y) = 0.35321 0.40274
# Poissons Ratio (z) = 0.32358 0.16028
#
# Static dielectric constant tensor:
#      x y z
#    x 3.585100 0.000000 0.000000 
#    y 0.000000 3.516270 0.000000 
#    z 0.000000 0.000000 3.843920 
# 
# 
# High freq. dielectric constant tensor:
#      x y z
#    x 1.787300 0.000000 0.000000 
#    y 0.000000 1.766860 0.000000 
#    z 0.000000 0.000000 1.807960 
# 
# From -- ./inp_files/20840.got.cif
#   From: 2010.03.12/outbox.cif.g09.slc.cpg/sg53_11_cif.got.tgz:20840.got - 2010.04.16 14:36:59.
