data_PCOD8219580
_publ_section_title
;
Structure prediction by ZEFSAII (Michael W. Deem and Ramdas Pophale) SiO2 
 PCOD8219580
Probable space group: P M N A
;
_chemical_formula_sum "Si O2"
_cell_formula_units_Z 64
_cell_length_a 9.213307
_cell_length_b 14.293399
_cell_length_c 25.729238
_cell_angle_alpha 90.000000
_cell_angle_beta 90.000000
_cell_angle_gamma 90.000000
_cell_volume 3388.269794
_symmetry_space_group_name_H-M "P M N A"
_symmetry_group_IT_number 53
_symmetry_cell_setting 'orthorhombic'
loop_
_space_group_symop_operation_xyz
x,y,z
1/2-x,-y,1/2+z
x,-y,-z
1/2-x,y,1/2-z
-x,-y,-z
1/2+x,y,1/2-z
-x,y,z
1/2+x,-y,1/2+z
loop_
_atom_site_type_symbol
_atom_site_label
_atom_site_fract_x
_atom_site_fract_y
_atom_site_fract_z
Si Si1 0.671203 0.099742 0.023746
Si Si2 0.827536 0.384532 0.100409
Si Si3 0.667184 0.914310 0.629574
Si Si4 0.331494 0.736796 0.696474
Si Si5 0.172558 0.405719 0.901879
Si Si6 0.329168 0.704567 0.301848
Si Si7 0.172461 0.279329 0.997132
Si Si8 0.167402 0.917113 0.199568
O O1 0.500000 0.115996 0.022759
O O2 0.727186 0.107131 0.082393
O O3 0.749390 0.179596 0.989614
O O4 0.715051 0.000000 0.000000
O O5 0.772475 0.336642 0.153492
O O6 0.763688 0.489316 0.095912
O O7 0.000000 0.387575 0.099699
O O8 0.774727 0.324069 0.051354
O O9 0.500000 0.905368 0.610674
O O10 0.697315 0.841281 0.675804
O O11 0.703558 0.017715 0.650498
O O12 0.250000 0.719088 0.750000
O O13 0.500000 0.719613 0.707160
O O14 0.229268 0.357248 0.849361
O O15 0.227247 0.347507 0.951445
O O16 0.000000 0.408209 0.902244
O O17 0.250000 0.669237 0.250000
O O18 0.500000 0.692935 0.293603
O O19 0.286477 0.811663 0.314633
O O20 0.000000 0.264019 0.995004
O O21 0.250000 0.954447 0.250000
O O22 0.000000 0.923464 0.214114
#
# Coordination Sequence:
#
# PCOD8219580 Si02
#       8
#     8   8   8   8   8   8   8   8
#     4  11  25  40  54  80 116 148 175 216 279 339
#     4   9  17  33  54  83 115 139 178 233 280 321
#     4  10  20  36  57  80 106 139 186 233 268 321
#     4  10  20  34  53  81 113 148 187 229 277 330
#     4   9  18  31  56  86 109 139 183 232 276 324
#     4   9  18  33  50  76 108 142 178 218 270 321
#     4  10  19  36  62  85 106 141 186 230 274 321
#     4   9  18  31  50  75 105 137 176 221 264 317
#
# _framework density 18.888698000000002
#
# number of rings (size 3 to 8) (size 9 to 14) (size 15 to 20)
#    0.000    2.375    1.250    1.125    1.750    4.000 
#    0.000    0.625    0.000    3.000    0.000    0.000 
#    0.000    0.000    0.000    0.000    0.000    0.000 
#
# Total GULP energy -793680.268233 kJ/mol
# GULP energy per Si atom -12401.254191 kJ/mol
# Density = 1.884571 g / cm^3
# Si number density = 18.888698 Si / 1000 Ang^3
#
#
#
# Elastic Constant Matrix: (Units=GPa)
#
#
# Indices 1 2 3 4 5 6 
#
# 1 37.0669 36.1143 34.8676 0.0000 0.0000 0.0000
# 2 36.1143 137.6508 65.1453 0.0000 0.0000 0.0000
# 3 34.8676 65.1453 133.8624 0.0000 0.0000 0.0000
# 4 0.0000 0.0000 0.0000 30.8489 0.0000 0.0000
# 5 0.0000 0.0000 0.0000 0.0000 29.1114 0.0000
# 6 0.0000 0.0000 0.0000 0.0000 0.0000 15.0811
#
#
#
# Elastic Compliance Matrix: (Units=1/GPa)
#
#
# Indices 1 2 3 4 5 6 
#
# 1 0.040775 -0.007368 -0.007035 0.000000 0.000000 0.000000
# 2 -0.007368 0.010770 -0.003322 0.000000 0.000000 0.000000
# 3 -0.007035 -0.003322 0.010919 0.000000 0.000000 0.000000
# 4 0.000000 0.000000 0.000000 0.032416 0.000000 0.000000
# 5 0.000000 0.000000 0.000000 0.000000 0.034351 0.000000
# 6 0.000000 0.000000 0.000000 0.000000 0.000000 0.066308
#
#
# Mechanical properties :
#
#
# Convention : Reuss Voigt Hill
#
# Bulk Modulus (GPa) = 37.01829 64.53716 50.77772
# Shear Modulus (GPa) = 20.83380 26.50516 23.66948
#
# Velocity S-wave (km/s) = 3.32471 3.75003 3.54376
# Velocity P-wave (km/s) = 5.86336 7.27953 6.60948
#
# Compressibility (1/GPa) = 0.02701368
#
# Stress axis : x y z
#
# Youngs Moduli (GPa) = 24.52502 92.84889 91.57940
#
# Poissons Ratio (x) = 0.68415 0.64425
# Poissons Ratio (y) = 0.18071 0.30424
# Poissons Ratio (z) = 0.17253 0.30846
#
# Static dielectric constant tensor:
#      x y z
#    x 3.114730 0.000000 0.000000 
#    y 0.000000 3.797660 0.000000 
#    z 0.000000 0.000000 3.475040 
# 
# 
# High freq. dielectric constant tensor:
#      x y z
#    x 1.694760 0.000000 0.000000 
#    y 0.000000 1.747250 0.000000 
#    z 0.000000 0.000000 1.737910 
# 
# From -- ./inp_files/34240.got.cif
#   From: 2010.03.12/outbox.cif.g09.slc.cpg/sg53_18_cif.got.tgz:34240.got - 2010.04.16 14:36:59.
