data_PCOD8219748
_publ_section_title
;
Structure prediction by ZEFSAII (Michael W. Deem and Ramdas Pophale) SiO2 
 PCOD8219748
Probable space group: P M N A
;
_chemical_formula_sum "Si O2"
_cell_formula_units_Z 64
_cell_length_a 17.687905
_cell_length_b 9.564011
_cell_length_c 22.423565
_cell_angle_alpha 90.000000
_cell_angle_beta 90.000000
_cell_angle_gamma 90.000000
_cell_volume 3793.334351
_symmetry_space_group_name_H-M "P M N A"
_symmetry_group_IT_number 53
_symmetry_cell_setting 'orthorhombic'
loop_
_space_group_symop_operation_xyz
x,y,z
1/2-x,-y,1/2+z
x,-y,-z
1/2-x,y,1/2-z
-x,-y,-z
1/2+x,y,1/2-z
-x,y,z
1/2+x,-y,1/2+z
loop_
_atom_site_type_symbol
_atom_site_label
_atom_site_fract_x
_atom_site_fract_y
_atom_site_fract_z
Si Si1 0.359195 0.036724 0.136022
Si Si2 0.590141 0.715851 0.939081
Si Si3 0.287665 0.920230 0.314428
Si Si4 0.412647 0.901160 0.735476
Si Si5 0.587457 0.420465 0.257288
Si Si6 0.147116 0.475216 0.632993
Si Si7 0.292468 0.395163 0.687558
Si Si8 0.086335 0.221343 0.571439
O O1 0.271616 0.989571 0.139553
O O2 0.404292 0.938954 0.089931
O O3 0.365890 0.191231 0.109461
O O4 0.399942 0.030481 0.199855
O O5 0.500000 0.729810 0.931234
O O6 0.618863 0.559485 0.924996
O O7 0.618237 0.756316 0.004877
O O8 0.250000 0.920137 0.250000
O O9 0.309722 0.762710 0.334759
O O10 0.363224 0.014949 0.313235
O O11 0.500000 0.915405 0.717364
O O12 0.385931 0.739895 0.736267
O O13 0.500000 0.436145 0.272542
O O14 0.601853 0.471090 0.190311
O O15 0.631038 0.516389 0.305290
O O16 0.237717 0.479901 0.642382
O O17 0.129036 0.312832 0.621034
O O18 0.250000 0.385224 0.750000
O O19 0.000000 0.267786 0.571493
#
# Coordination Sequence:
#
# PCOD8219748 Si02
#       8
#     8   8   8   8   8   8   8   8
#     4  11  20  34  51  69 100 136 167 203 243 290
#     4  11  22  34  49  72  99 131 176 211 240 280
#     4   9  19  33  48  71  97 128 165 200 242 297
#     4  10  20  32  50  75 101 129 164 201 244 298
#     4  10  20  32  50  75 101 129 164 201 244 298
#     4  11  20  34  51  69 100 136 167 203 243 290
#     4   9  19  33  48  71  97 128 165 200 242 297
#     4  11  22  34  49  70  99 135 172 211 242 274
#
# _framework density 16.871699
#
# number of rings (size 3 to 8) (size 9 to 14) (size 15 to 20)
#    0.000    1.750    2.500    3.000    3.500    4.000 
#    0.000    0.000    0.000    0.000    0.000    0.000 
#    0.000    6.000    0.000    0.000    0.000    0.000 
#
# Total GULP energy -793691.905088 kJ/mol
# GULP energy per Si atom -12401.436017 kJ/mol
# Density = 1.683330 g / cm^3
# Si number density = 16.871699 Si / 1000 Ang^3
#
#
#
# Elastic Constant Matrix: (Units=GPa)
#
#
# Indices 1 2 3 4 5 6 
#
# 1 87.8924 40.9282 32.1599 0.0000 0.0000 0.0000
# 2 40.9282 81.3627 18.2757 0.0000 0.0000 0.0000
# 3 32.1599 18.2757 41.8392 0.0000 0.0000 0.0000
# 4 0.0000 0.0000 0.0000 19.9671 0.0000 0.0000
# 5 0.0000 0.0000 0.0000 0.0000 19.7133 0.0000
# 6 0.0000 0.0000 0.0000 0.0000 0.0000 32.7659
#
#
#
# Elastic Compliance Matrix: (Units=1/GPa)
#
#
# Indices 1 2 3 4 5 6 
#
# 1 0.018753 -0.006869 -0.011414 0.000000 0.000000 0.000000
# 2 -0.006869 0.016144 -0.001772 0.000000 0.000000 0.000000
# 3 -0.011414 -0.001772 0.033448 0.000000 0.000000 0.000000
# 4 0.000000 0.000000 0.000000 0.050082 0.000000 0.000000
# 5 0.000000 0.000000 0.000000 0.000000 0.050727 0.000000
# 6 0.000000 0.000000 0.000000 0.000000 0.000000 0.030520
#
#
# Mechanical properties :
#
#
# Convention : Reuss Voigt Hill
#
# Bulk Modulus (GPa) = 35.41667 43.75801 39.58734
# Shear Modulus (GPa) = 20.06454 22.47127 21.26790
#
# Velocity S-wave (km/s) = 3.45228 3.65347 3.55430
# Velocity P-wave (km/s) = 6.07687 6.61734 6.35285
#
# Compressibility (1/GPa) = 0.02823529
#
# Stress axis : x y z
#
# Youngs Moduli (GPa) = 53.32562 61.94181 29.89704
#
# Poissons Ratio (x) = 0.42551 0.34124
# Poissons Ratio (y) = 0.36632 0.05297
# Poissons Ratio (z) = 0.60864 0.10974
#
# Static dielectric constant tensor:
#      x y z
#    x 3.143280 0.000000 0.000000 
#    y 0.000000 3.327680 0.000000 
#    z 0.000000 0.000000 2.912440 
# 
# 
# High freq. dielectric constant tensor:
#      x y z
#    x 1.637110 0.000000 0.000000 
#    y 0.000000 1.671200 0.000000 
#    z 0.000000 0.000000 1.609490 
# 
# From -- ./inp_files/32834.got.cif
#   From: 2010.03.12/outbox.cif.g09.slc.cpg/sg53_17_cif.got.tgz:32834.got - 2010.04.16 14:36:59.
