data_PCOD8219262
_publ_section_title
;
Structure prediction by ZEFSAII (Michael W. Deem and Ramdas Pophale) SiO2 
 PCOD8219262
Probable space group: P M N A
;
_chemical_formula_sum "Si O2"
_cell_formula_units_Z 64
_cell_length_a 9.100203
_cell_length_b 21.630692
_cell_length_c 17.673357
_cell_angle_alpha 90.000000
_cell_angle_beta 90.000000
_cell_angle_gamma 90.000000
_cell_volume 3478.888775
_symmetry_space_group_name_H-M "P M N A"
_symmetry_group_IT_number 53
_symmetry_cell_setting 'orthorhombic'
loop_
_space_group_symop_operation_xyz
x,y,z
1/2-x,-y,1/2+z
x,-y,-z
1/2-x,y,1/2-z
-x,-y,-z
1/2+x,y,1/2-z
-x,y,z
1/2+x,-y,1/2+z
loop_
_atom_site_type_symbol
_atom_site_label
_atom_site_fract_x
_atom_site_fract_y
_atom_site_fract_z
Si Si1 0.667251 0.881563 0.078230
Si Si2 0.325973 0.103636 0.423370
Si Si3 0.328364 0.000452 0.170968
Si Si4 0.326390 0.431348 0.982303
Si Si5 0.667608 0.743396 0.089224
Si Si6 0.830974 0.625441 0.324849
Si Si7 0.329342 0.776958 0.670638
Si Si8 0.671590 0.682110 0.544759
O O1 0.500000 0.889277 0.047959
O O2 0.699676 0.930387 0.144295
O O3 0.690444 0.813898 0.115231
O O4 0.780401 0.890040 0.010287
O O5 0.500000 0.093355 0.418783
O O6 0.274552 0.164258 0.377631
O O7 0.241941 0.044765 0.391109
O O8 0.250000 0.012176 0.250000
O O9 0.500000 0.015523 0.179881
O O10 0.500000 0.425554 0.992834
O O11 0.252432 0.383913 0.041193
O O12 0.269623 0.500000 0.000000
O O13 0.277799 0.414327 0.897058
O O14 0.500000 0.730604 0.062611
O O15 0.703892 0.697789 0.159105
O O16 0.772810 0.729097 0.019188
O O17 0.750000 0.602483 0.250000
O O18 0.000000 0.613259 0.309300
O O19 0.250000 0.774275 0.750000
O O20 0.500000 0.784184 0.687173
O O21 0.295343 0.713830 0.625401
O O22 0.500000 0.671534 0.532187
#
# Coordination Sequence:
#
# PCOD8219262 Si02
#       8
#     8   8   8   8   8   8   8   8
#     4  10  21  37  58  81 107 141 183 229 276 334
#     4  11  22  38  58  81 108 141 184 231 280 335
#     4  11  24  40  55  77 108 144 186 232 283 335
#     4   9  19  37  59  81 108 148 191 223 261 324
#     4   9  18  34  55  78 105 143 182 216 264 327
#     4   9  18  32  52  80 110 141 180 221 265 316
#     4  10  22  36  53  80 110 140 178 225 274 327
#     4  10  19  34  54  81 112 137 174 226 270 316
#
# _framework density 18.396678000000001
#
# number of rings (size 3 to 8) (size 9 to 14) (size 15 to 20)
#    0.000    2.125    1.250    2.625    0.000    8.250 
#    0.000    0.625    0.000    3.000    0.000    0.000 
#    0.000    0.000    0.000    0.000    0.000    0.000 
#
# Total GULP energy -793677.009284 kJ/mol
# GULP energy per Si atom -12401.203270 kJ/mol
# Density = 1.835481 g / cm^3
# Si number density = 18.396678 Si / 1000 Ang^3
#
#
#
# Elastic Constant Matrix: (Units=GPa)
#
#
# Indices 1 2 3 4 5 6 
#
# 1 60.5472 33.7846 28.3916 0.0000 0.0000 0.0000
# 2 33.7846 123.2507 22.4111 0.0000 0.0000 0.0000
# 3 28.3916 22.4111 66.6660 0.0000 0.0000 0.0000
# 4 0.0000 0.0000 0.0000 20.3009 0.0000 0.0000
# 5 0.0000 0.0000 0.0000 0.0000 33.6356 0.0000
# 6 0.0000 0.0000 0.0000 0.0000 0.0000 -9.4382
#
#
#
# Elastic Compliance Matrix: (Units=1/GPa)
#
#
# Indices 1 2 3 4 5 6 
#
# 1 0.023053 -0.004829 -0.008194 0.000000 0.000000 0.000000
# 2 -0.004829 0.009653 -0.001189 0.000000 0.000000 0.000000
# 3 -0.008194 -0.001189 0.018890 0.000000 0.000000 0.000000
# 4 0.000000 0.000000 0.000000 0.049259 0.000000 0.000000
# 5 0.000000 0.000000 0.000000 0.000000 0.029730 0.000000
# 6 0.000000 0.000000 0.000000 0.000000 0.000000 -0.105953
#
#
# Mechanical properties :
#
#
# Convention : Reuss Voigt Hill
#
# Bulk Modulus (GPa) = 43.15582 46.62649 44.89116
# Shear Modulus (GPa) = 82.26303 19.95812 51.11057
#
# Velocity S-wave (km/s) = 6.69427 3.29732 5.27663
# Velocity P-wave (km/s) = 9.12472 6.31637 7.84720
#
# Compressibility (1/GPa) = 0.02317184
#
# Stress axis : x y z
#
# Youngs Moduli (GPa) = 43.37810 103.59049 52.93939
#
# Poissons Ratio (x) = 0.50025 0.43381
# Poissons Ratio (y) = 0.20948 0.06292
# Poissons Ratio (z) = 0.35546 0.12312
#
# Static dielectric constant tensor:
#      x y z
#    x 3.377400 0.000000 0.000000 
#    y 0.000000 3.584440 0.000000 
#    z 0.000000 0.000000 3.191280 
# 
# 
# High freq. dielectric constant tensor:
#      x y z
#    x 1.715280 0.000000 0.000000 
#    y 0.000000 1.718200 0.000000 
#    z 0.000000 0.000000 1.700670 
# 
# From -- ./inp_files/26919.got.cif
#   From: 2010.03.12/outbox.cif.g09.slc.cpg/sg53_14_cif.got.tgz:26919.got - 2010.04.16 14:36:59.
