data_PCOD8219975
_publ_section_title
;
Structure prediction by ZEFSAII (Michael W. Deem and Ramdas Pophale) SiO2 
 PCOD8219975
Probable space group: P M N A
;
_chemical_formula_sum "Si O2"
_cell_formula_units_Z 48
_cell_length_a 9.246289
_cell_length_b 20.164515
_cell_length_c 13.960921
_cell_angle_alpha 90.000000
_cell_angle_beta 90.000000
_cell_angle_gamma 90.000000
_cell_volume 2602.970906
_symmetry_space_group_name_H-M "P M N A"
_symmetry_group_IT_number 53
_symmetry_cell_setting 'orthorhombic'
loop_
_space_group_symop_operation_xyz
x,y,z
1/2-x,-y,1/2+z
x,-y,-z
1/2-x,y,1/2-z
-x,-y,-z
1/2+x,y,1/2-z
-x,y,z
1/2+x,-y,1/2+z
loop_
_atom_site_type_symbol
_atom_site_label
_atom_site_fract_x
_atom_site_fract_y
_atom_site_fract_z
Si Si1 0.827864 0.773101 0.350349
Si Si2 0.171607 0.967518 0.651315
Si Si3 0.334441 0.659978 0.455599
Si Si4 0.334738 0.533307 0.339904
Si Si5 0.670432 0.096399 0.957978
Si Si6 0.331748 0.615623 0.657934
O O1 0.750000 0.784471 0.250000
O O2 0.776107 0.704836 0.397128
O O3 0.777632 0.832119 0.421055
O O4 0.000000 0.771081 0.335191
O O5 0.250000 0.948408 0.750000
O O6 0.220718 0.915644 0.567870
O O7 0.000000 0.965487 0.668759
O O8 0.226395 0.039698 0.615066
O O9 0.500000 0.682292 0.434844
O O10 0.312935 0.582868 0.428334
O O11 0.297499 0.663354 0.568230
O O12 0.250000 0.563545 0.250000
O O13 0.500000 0.529582 0.308745
O O14 0.278213 0.459470 0.365274
O O15 0.500000 0.090619 0.956949
O O16 0.250000 0.644960 0.750000
O O17 0.500000 0.616008 0.681139
#
# Coordination Sequence:
#
# PCOD8219975 Si02
#       6
#     8   8   8   8   8   8
#     4  11  22  36  53  74 101 133 166 200 242 293
#     4   9  16  31  54  78 102 130 165 204 245 286
#     4  10  20  34  51  72  99 131 166 203 245 294
#     4   9  17  30  49  72  97 125 158 200 250 297
#     4   8  17  33  52  73 102 137 166 196 242 295
#     4   9  18  33  52  72  95 125 163 207 252 296
#
# _framework density 18.440469
#
# number of rings (size 3 to 8) (size 9 to 14) (size 15 to 20)
#    0.000    2.667    0.000    3.000    0.000    4.667 
#    0.000    5.000    0.000    9.000    0.000    0.000 
#    0.000    0.000    0.000    0.000    0.000    0.000 
#
# Total GULP energy -595003.226811 kJ/mol
# GULP energy per Si atom -12395.900559 kJ/mol
# Density = 1.839850 g / cm^3
# Si number density = 18.440469 Si / 1000 Ang^3
#
#
#
# Elastic Constant Matrix: (Units=GPa)
#
#
# Indices 1 2 3 4 5 6 
#
# 1 54.7085 25.0805 48.7476 0.0000 0.0000 0.0000
# 2 25.0805 57.5928 36.7000 0.0000 0.0000 0.0000
# 3 48.7476 36.7000 140.6106 0.0000 0.0000 0.0000
# 4 0.0000 0.0000 0.0000 25.3540 0.0000 0.0000
# 5 0.0000 0.0000 0.0000 0.0000 34.2856 0.0000
# 6 0.0000 0.0000 0.0000 0.0000 0.0000 -21.8204
#
#
#
# Elastic Compliance Matrix: (Units=1/GPa)
#
#
# Indices 1 2 3 4 5 6 
#
# 1 0.028878 -0.007432 -0.008072 0.000000 0.000000 0.000000
# 2 -0.007432 0.022740 -0.003359 0.000000 0.000000 0.000000
# 3 -0.008072 -0.003359 0.010787 0.000000 0.000000 0.000000
# 4 0.000000 0.000000 0.000000 0.039442 0.000000 0.000000
# 5 0.000000 0.000000 0.000000 0.000000 0.029167 0.000000
# 6 0.000000 0.000000 0.000000 0.000000 0.000000 -0.045829
#
#
# Mechanical properties :
#
#
# Convention : Reuss Voigt Hill
#
# Bulk Modulus (GPa) = 40.51896 52.66312 46.59104
# Shear Modulus (GPa) = 38.12808 17.05608 27.59208
#
# Velocity S-wave (km/s) = 4.55205 3.04456 3.87237
# Velocity P-wave (km/s) = 7.04619 6.40153 6.73158
#
# Compressibility (1/GPa) = 0.02467981
#
# Stress axis : x y z
#
# Youngs Moduli (GPa) = 34.62805 43.97520 92.70556
#
# Poissons Ratio (x) = 0.32684 0.74830
# Poissons Ratio (y) = 0.25737 0.31136
# Poissons Ratio (z) = 0.27951 0.14770
#
# Static dielectric constant tensor:
#      x y z
#    x 3.190320 0.000000 0.000000 
#    y 0.000000 3.415000 0.000000 
#    z 0.000000 0.000000 3.605280 
# 
# 
# High freq. dielectric constant tensor:
#      x y z
#    x 1.694530 0.000000 0.000000 
#    y 0.000000 1.697480 0.000000 
#    z 0.000000 0.000000 1.724500 
# 
# From -- ./inp_files/20215.got.cif
#   From: 2010.03.12/outbox.cif.g09.slc.cpg/sg53_11_cif.got.tgz:20215.got - 2010.04.16 14:36:59.
