data_PCOD8219778
_publ_section_title
;
Structure prediction by ZEFSAII (Michael W. Deem and Ramdas Pophale) SiO2 
 PCOD8219778
Probable space group: P M N A
;
_chemical_formula_sum "Si O2"
_cell_formula_units_Z 56
_cell_length_a 9.218656
_cell_length_b 17.768572
_cell_length_c 20.276988
_cell_angle_alpha 90.000000
_cell_angle_beta 90.000000
_cell_angle_gamma 90.000000
_cell_volume 3321.418344
_symmetry_space_group_name_H-M "P M N A"
_symmetry_group_IT_number 53
_symmetry_cell_setting 'orthorhombic'
loop_
_space_group_symop_operation_xyz
x,y,z
1/2-x,-y,1/2+z
x,-y,-z
1/2-x,y,1/2-z
-x,-y,-z
1/2+x,y,1/2-z
-x,y,z
1/2+x,-y,1/2+z
loop_
_atom_site_type_symbol
_atom_site_label
_atom_site_fract_x
_atom_site_fract_y
_atom_site_fract_z
Si Si1 0.171896 0.465892 0.567201
Si Si2 0.163846 0.845200 0.061483
Si Si3 0.836187 0.131852 0.094323
Si Si4 0.832312 0.700866 0.456740
Si Si5 0.832996 0.276434 0.391024
Si Si6 0.170975 0.572883 0.682261
Si Si7 0.164195 0.011491 0.578045
O O1 0.239654 0.500000 0.500000
O O2 0.215688 0.378513 0.574679
O O3 0.230878 0.512136 0.629702
O O4 0.000000 0.474598 0.563229
O O5 0.237665 0.765454 0.078069
O O6 0.253125 0.911632 0.096953
O O7 0.000000 0.845397 0.088704
O O8 0.166158 0.858129 0.983748
O O9 0.763530 0.204415 0.128256
O O10 0.000000 0.123390 0.120587
O O11 0.746257 0.057454 0.113657
O O12 0.803187 0.696190 0.534751
O O13 0.000000 0.719140 0.442772
O O14 0.789051 0.343697 0.342501
O O15 0.000000 0.253034 0.382704
O O16 0.250000 0.555721 0.750000
O O17 0.000000 0.564437 0.692287
O O18 0.000000 0.015605 0.604752
O O19 0.164610 0.000000 0.500000
#
# Coordination Sequence:
#
# PCOD8219778 Si02
#       7
#     8   8   8   8   8   8   8
#     4   9  15  28  50  71  88 115 159 203 237 277
#     4   9  16  24  34  53  85 117 143 177 227 276
#     4   9  16  24  36  55  81 113 146 181 223 268
#     4   9  15  25  44  65  83 109 152 197 230 268
#     4   9  16  27  43  62  84 113 151 190 226 269
#     4  10  20  33  49  69  94 123 155 195 242 287
#     4   9  15  23  35  52  77 112 152 185 215 258
#
# _framework density 16.860267
#
# number of rings (size 3 to 8) (size 9 to 14) (size 15 to 20)
#    0.000    2.857    1.429    1.286    0.000    5.714 
#    0.000    0.714    0.000    0.857    0.000    0.000 
#    0.000    1.143    0.000    7.143    0.000    7.571 
#
# Total GULP energy -694306.343555 kJ/mol
# GULP energy per Si atom -12398.327563 kJ/mol
# Density = 1.682189 g / cm^3
# Si number density = 16.860267 Si / 1000 Ang^3
#
#
#
# Elastic Constant Matrix: (Units=GPa)
#
#
# Indices 1 2 3 4 5 6 
#
# 1 103.4290 75.6308 28.4149 0.0000 0.0000 0.0000
# 2 75.6308 155.5541 51.1969 0.0000 0.0000 0.0000
# 3 28.4149 51.1969 51.8555 0.0000 0.0000 0.0000
# 4 0.0000 0.0000 0.0000 12.3766 0.0000 0.0000
# 5 0.0000 0.0000 0.0000 0.0000 14.7885 0.0000
# 6 0.0000 0.0000 0.0000 0.0000 0.0000 20.5059
#
#
#
# Elastic Compliance Matrix: (Units=1/GPa)
#
#
# Indices 1 2 3 4 5 6 
#
# 1 0.015082 -0.006834 -0.001518 0.000000 0.000000 0.000000
# 2 -0.006834 0.012619 -0.008714 0.000000 0.000000 0.000000
# 3 -0.001518 -0.008714 0.028720 0.000000 0.000000 0.000000
# 4 0.000000 0.000000 0.000000 0.080798 0.000000 0.000000
# 5 0.000000 0.000000 0.000000 0.000000 0.067620 0.000000
# 6 0.000000 0.000000 0.000000 0.000000 0.000000 0.048766
#
#
# Mechanical properties :
#
#
# Convention : Reuss Voigt Hill
#
# Bulk Modulus (GPa) = 44.86353 69.03599 56.94976
# Shear Modulus (GPa) = 16.93954 19.90727 18.42340
#
# Velocity S-wave (km/s) = 3.17314 3.43989 3.30920
# Velocity P-wave (km/s) = 6.33182 7.53737 6.96074
#
# Compressibility (1/GPa) = 0.02228982
#
# Stress axis : x y z
#
# Youngs Moduli (GPa) = 66.30266 79.24394 34.81903
#
# Poissons Ratio (x) = 0.54151 0.05285
# Poissons Ratio (y) = 0.45308 0.30343
# Poissons Ratio (z) = 0.10064 0.69057
#
# Static dielectric constant tensor:
#      x y z
#    x 3.127560 0.000000 0.000000 
#    y 0.000000 3.375840 0.000000 
#    z 0.000000 0.000000 2.582920 
# 
# 
# High freq. dielectric constant tensor:
#      x y z
#    x 1.642330 0.000000 0.000000 
#    y 0.000000 1.667420 0.000000 
#    z 0.000000 0.000000 1.576510 
# 
# From -- ./inp_files/31002.got.cif
#   From: 2010.03.12/outbox.cif.g09.slc.cpg/sg53_16_cif.got.tgz:31002.got - 2010.04.16 14:36:59.
