data_PCOD8219759
_publ_section_title
;
Structure prediction by ZEFSAII (Michael W. Deem and Ramdas Pophale) SiO2 
 PCOD8219759
Probable space group: P M N A
;
_chemical_formula_sum "Si O2"
_cell_formula_units_Z 60
_cell_length_a 9.897248
_cell_length_b 19.386185
_cell_length_c 16.643007
_cell_angle_alpha 90.000000
_cell_angle_beta 90.000000
_cell_angle_gamma 90.000000
_cell_volume 3193.291768
_symmetry_space_group_name_H-M "P M N A"
_symmetry_group_IT_number 53
_symmetry_cell_setting 'orthorhombic'
loop_
_space_group_symop_operation_xyz
x,y,z
1/2-x,-y,1/2+z
x,-y,-z
1/2-x,y,1/2-z
-x,-y,-z
1/2+x,y,1/2-z
-x,y,z
1/2+x,-y,1/2+z
loop_
_atom_site_type_symbol
_atom_site_label
_atom_site_fract_x
_atom_site_fract_y
_atom_site_fract_z
Si Si1 0.346510 0.385164 0.127587
Si Si2 0.750000 0.724726 0.750000
Si Si3 0.656348 0.645986 0.048477
Si Si4 0.656437 0.532045 0.179622
Si Si5 0.155628 0.040760 0.174282
Si Si6 0.846575 0.181906 0.110616
Si Si7 0.841424 0.233712 0.944774
Si Si8 0.153330 0.111495 0.825322
O O1 0.500000 0.403172 0.108781
O O2 0.339444 0.323591 0.192462
O O3 0.282689 0.455739 0.161557
O O4 0.282781 0.365911 0.041309
O O5 0.662610 0.774075 0.692630
O O6 0.500000 0.670646 0.047133
O O7 0.672038 0.576494 0.099201
O O8 0.750944 0.703927 0.089707
O O9 0.750000 0.563788 0.250000
O O10 0.500000 0.530477 0.208193
O O11 0.250000 0.040327 0.250000
O O12 0.210000 0.103733 0.119310
O O13 0.000000 0.055644 0.199428
O O14 0.169356 0.964886 0.134364
O O15 0.000000 0.174836 0.084685
O O16 0.779806 0.219113 0.034107
O O17 0.810689 0.166224 0.893050
O O18 0.000000 0.254021 0.942923
O O19 0.250000 0.122767 0.750000
O O20 0.000000 0.121097 0.794290
#
# Coordination Sequence:
#
# PCOD8219759 Si02
#       8
#     8   4   8   8   8   8   8   8
#     4  10  20  35  56  80 109 144 178 215 264 325
#     4  12  18  32  56  82 108 138 176 216 268 320
#     4  10  21  38  58  80 107 144 183 222 267 317
#     4  10  21  38  59  82 109 141 182 224 265 318
#     4   9  17  32  52  77 106 141 180 219 261 313
#     4  10  20  32  51  80 112 141 174 216 266 323
#     4  10  21  37  54  79 111 142 177 223 273 318
#     4   9  19  35  57  78 103 141 184 225 267 315
#
# _framework density 18.789389
#
# number of rings (size 3 to 8) (size 9 to 14) (size 15 to 20)
#    0.000    2.133    2.667    0.800    0.000    3.733 
#    0.000    6.667    0.000    1.600    0.000    4.667 
#    0.000    0.000    0.000    0.000    0.000    0.000 
#
# Total GULP energy -743592.160270 kJ/mol
# GULP energy per Si atom -12393.202671 kJ/mol
# Density = 1.874662 g / cm^3
# Si number density = 18.789389 Si / 1000 Ang^3
#
#
#
# Elastic Constant Matrix: (Units=GPa)
#
#
# Indices 1 2 3 4 5 6 
#
# 1 54.2790 41.6454 29.3874 0.0000 0.0000 0.0000
# 2 41.6454 125.8411 49.0041 0.0000 0.0000 0.0000
# 3 29.3874 49.0041 90.7808 0.0000 0.0000 0.0000
# 4 0.0000 0.0000 0.0000 31.5203 0.0000 0.0000
# 5 0.0000 0.0000 0.0000 0.0000 23.4659 0.0000
# 6 0.0000 0.0000 0.0000 0.0000 0.0000 26.7703
#
#
#
# Elastic Compliance Matrix: (Units=1/GPa)
#
#
# Indices 1 2 3 4 5 6 
#
# 1 0.026262 -0.006813 -0.004824 0.000000 0.000000 0.000000
# 2 -0.006813 0.011829 -0.004180 0.000000 0.000000 0.000000
# 3 -0.004824 -0.004180 0.014834 0.000000 0.000000 0.000000
# 4 0.000000 0.000000 0.000000 0.031726 0.000000 0.000000
# 5 0.000000 0.000000 0.000000 0.000000 0.042615 0.000000
# 6 0.000000 0.000000 0.000000 0.000000 0.000000 0.037355
#
#
# Mechanical properties :
#
#
# Convention : Reuss Voigt Hill
#
# Bulk Modulus (GPa) = 46.96745 56.77498 51.87122
# Shear Modulus (GPa) = 24.58817 26.40890 25.49853
#
# Velocity S-wave (km/s) = 3.62141 3.75310 3.68784
# Velocity P-wave (km/s) = 6.52206 7.00450 6.76758
#
# Compressibility (1/GPa) = 0.02129134
#
# Stress axis : x y z
#
# Youngs Moduli (GPa) = 38.07780 84.53986 67.41486
#
# Poissons Ratio (x) = 0.57593 0.32521
# Poissons Ratio (y) = 0.25941 0.28179
# Poissons Ratio (z) = 0.18369 0.35337
#
# Static dielectric constant tensor:
#      x y z
#    x 3.247690 0.000000 0.000000 
#    y 0.000000 3.797840 0.000000 
#    z 0.000000 0.000000 3.395840 
# 
# 
# High freq. dielectric constant tensor:
#      x y z
#    x 1.707990 0.000000 0.000000 
#    y 0.000000 1.746630 0.000000 
#    z 0.000000 0.000000 1.720270 
# 
# From -- ./inp_files/26567.got.cif
#   From: 2010.03.12/outbox.cif.g09.slc.cpg/sg53_14_cif.got.tgz:26567.got - 2010.04.16 14:36:59.
