data_PCOD8219444
_publ_section_title
;
Structure prediction by ZEFSAII (Michael W. Deem and Ramdas Pophale) SiO2 
 PCOD8219444
Probable space group: P M N A
;
_chemical_formula_sum "Si O2"
_cell_formula_units_Z 64
_cell_length_a 9.014588
_cell_length_b 21.385949
_cell_length_c 17.586116
_cell_angle_alpha 90.000000
_cell_angle_beta 90.000000
_cell_angle_gamma 90.000000
_cell_volume 3390.348504
_symmetry_space_group_name_H-M "P M N A"
_symmetry_group_IT_number 53
_symmetry_cell_setting 'orthorhombic'
loop_
_space_group_symop_operation_xyz
x,y,z
1/2-x,-y,1/2+z
x,-y,-z
1/2-x,y,1/2-z
-x,-y,-z
1/2+x,y,1/2-z
-x,y,z
1/2+x,-y,1/2+z
loop_
_atom_site_type_symbol
_atom_site_label
_atom_site_fract_x
_atom_site_fract_y
_atom_site_fract_z
Si Si1 0.172292 0.883482 0.408595
Si Si2 0.671829 0.993542 0.326405
Si Si3 0.327094 0.630016 0.325306
Si Si4 0.826844 0.570820 0.016416
Si Si5 0.173487 0.683455 0.556183
Si Si6 0.670414 0.109525 0.433294
Si Si7 0.174658 0.227881 0.169188
Si Si8 0.330035 0.741154 0.103728
O O1 0.261842 0.927763 0.352436
O O2 0.223975 0.890866 0.494733
O O3 0.202056 0.813349 0.379624
O O4 0.000000 0.900804 0.405126
O O5 0.750000 0.017122 0.250000
O O6 0.500000 0.983995 0.308900
O O7 0.698991 0.044661 0.390869
O O8 0.250000 0.602363 0.250000
O O9 0.500000 0.632067 0.310094
O O10 0.285209 0.585880 0.396272
O O11 0.272096 0.700533 0.340789
O O12 0.000000 0.583351 0.001380
O O13 0.781458 0.500000 0.000000
O O14 0.733013 0.613797 0.959399
O O15 0.259224 0.711144 0.628314
O O16 0.209405 0.727243 0.484025
O O17 0.000000 0.680554 0.574773
O O18 0.500000 0.115113 0.460131
O O19 0.714220 0.166410 0.378804
O O20 0.250000 0.219494 0.250000
O O21 0.000000 0.236619 0.179654
O O22 0.500000 0.722893 0.119795
#
# Coordination Sequence:
#
# PCOD8219444 Si02
#       8
#     8   8   8   8   8   8   8   8
#     4  11  22  37  59  85 111 145 186 231 283 340
#     4  11  24  41  57  78 109 146 188 236 288 341
#     4  10  20  34  56  84 114 149 186 230 279 329
#     4   9  19  37  60  85 114 153 196 234 277 331
#     4  10  19  35  57  83 114 146 184 230 277 332
#     4  10  22  39  59  82 110 145 187 235 285 342
#     4  11  22  36  57  84 114 148 187 233 287 340
#     4   9  19  35  55  80 110 143 181 226 273 329
#
# _framework density 18.877113999999999
#
# number of rings (size 3 to 8) (size 9 to 14) (size 15 to 20)
#    0.000    1.875    1.250    2.625    0.000    5.750 
#    0.000    0.625    0.000    1.500    0.000    0.000 
#    0.000    0.000    0.000    0.000    0.000    0.000 
#
# Total GULP energy -793941.115071 kJ/mol
# GULP energy per Si atom -12405.329923 kJ/mol
# Density = 1.883415 g / cm^3
# Si number density = 18.877114 Si / 1000 Ang^3
#
#
#
# Elastic Constant Matrix: (Units=GPa)
#
#
# Indices 1 2 3 4 5 6 
#
# 1 90.8170 42.6367 38.1455 0.0000 0.0000 0.0000
# 2 42.6367 100.0301 25.4432 0.0000 0.0000 0.0000
# 3 38.1455 25.4432 71.5169 0.0000 0.0000 0.0000
# 4 0.0000 0.0000 0.0000 15.7872 0.0000 0.0000
# 5 0.0000 0.0000 0.0000 0.0000 38.2591 0.0000
# 6 0.0000 0.0000 0.0000 0.0000 0.0000 28.5806
#
#
#
# Elastic Compliance Matrix: (Units=1/GPa)
#
#
# Indices 1 2 3 4 5 6 
#
# 1 0.016344 -0.005222 -0.006860 0.000000 0.000000 0.000000
# 2 -0.005222 0.012660 -0.001719 0.000000 0.000000 0.000000
# 3 -0.006860 -0.001719 0.018253 0.000000 0.000000 0.000000
# 4 0.000000 0.000000 0.000000 0.063343 0.000000 0.000000
# 5 0.000000 0.000000 0.000000 0.000000 0.026138 0.000000
# 6 0.000000 0.000000 0.000000 0.000000 0.000000 0.034989
#
#
# Mechanical properties :
#
#
# Convention : Reuss Voigt Hill
#
# Bulk Modulus (GPa) = 50.87418 52.75718 51.81568
# Shear Modulus (GPa) = 24.28620 26.93462 25.61041
#
# Velocity S-wave (km/s) = 3.59073 3.78145 3.68732
# Velocity P-wave (km/s) = 6.64830 6.86106 6.75552
#
# Compressibility (1/GPa) = 0.01965634
#
# Stress axis : x y z
#
# Youngs Moduli (GPa) = 61.18506 78.99008 54.78533
#
# Poissons Ratio (x) = 0.41245 0.37582
# Poissons Ratio (y) = 0.31948 0.09417
# Poissons Ratio (z) = 0.41972 0.13577
#
# Static dielectric constant tensor:
#      x y z
#    x 3.520740 0.000000 0.000000 
#    y 0.000000 3.443730 0.000000 
#    z 0.000000 0.000000 3.445060 
# 
# 
# High freq. dielectric constant tensor:
#      x y z
#    x 1.742990 0.000000 0.000000 
#    y 0.000000 1.729850 0.000000 
#    z 0.000000 0.000000 1.731800 
# 
# From -- ./inp_files/26950.got.cif
#   From: 2010.03.12/outbox.cif.g09.slc.cpg/sg53_14_cif.got.tgz:26950.got - 2010.04.16 14:36:59.
