data_PCOD8219130
_publ_section_title
;
Structure prediction by ZEFSAII (Michael W. Deem and Ramdas Pophale) SiO2 
 PCOD8219130
Probable space group: P M N A
;
_chemical_formula_sum "Si O2"
_cell_formula_units_Z 64
_cell_length_a 8.977241
_cell_length_b 20.175095
_cell_length_c 19.253975
_cell_angle_alpha 90.000000
_cell_angle_beta 90.000000
_cell_angle_gamma 90.000000
_cell_volume 3487.216222
_symmetry_space_group_name_H-M "P M N A"
_symmetry_group_IT_number 53
_symmetry_cell_setting 'orthorhombic'
loop_
_space_group_symop_operation_xyz
x,y,z
1/2-x,-y,1/2+z
x,-y,-z
1/2-x,y,1/2-z
-x,-y,-z
1/2+x,y,1/2-z
-x,y,z
1/2+x,-y,1/2+z
loop_
_atom_site_type_symbol
_atom_site_label
_atom_site_fract_x
_atom_site_fract_y
_atom_site_fract_z
Si Si1 0.672032 0.932710 0.958238
Si Si2 0.676527 0.567888 0.033036
Si Si3 0.826791 0.180544 0.953804
Si Si4 0.824391 0.772211 0.320810
Si Si5 0.176284 0.095843 0.179104
Si Si6 0.174094 0.751123 0.818973
Si Si7 0.674615 0.619089 0.179458
Si Si8 0.171703 0.687675 0.960413
O O1 0.500000 0.912870 0.947980
O O2 0.750140 0.944322 0.883993
O O3 0.756314 0.874957 0.998249
O O4 0.689056 0.000000 0.000000
O O5 0.500000 0.568807 0.032754
O O6 0.732696 0.577296 0.112730
O O7 0.739334 0.500000 0.000000
O O8 0.729888 0.626870 0.984544
O O9 0.742924 0.181610 0.880522
O O10 0.000000 0.164360 0.942909
O O11 0.803137 0.251291 0.988732
O O12 0.750000 0.797024 0.250000
O O13 0.781964 0.695496 0.334051
O O14 0.000000 0.782870 0.317122
O O15 0.250000 0.069309 0.250000
O O16 0.218579 0.172750 0.168086
O O17 0.000000 0.083746 0.180839
O O18 0.250000 0.722362 0.750000
O O19 0.228274 0.707800 0.883931
O O20 0.000000 0.745093 0.808556
O O21 0.750000 0.592078 0.250000
O O22 0.500000 0.610840 0.189806
O O23 0.000000 0.666056 0.959313
#
# Coordination Sequence:
#
# PCOD8219130 Si02
#       8
#     8   8   8   8   8   8   8   8
#     4  11  24  40  58  84 117 153 193 235 281 338
#     4  10  21  37  55  79 111 146 187 229 276 332
#     4  11  21  36  58  84 113 146 184 233 284 333
#     4  10  19  33  54  83 114 145 185 232 284 340
#     4  10  19  35  58  85 115 148 188 233 282 338
#     4   9  18  33  52  81 112 142 180 226 273 327
#     4   9  18  32  52  78 105 140 181 225 273 328
#     4  10  20  35  55  81 112 141 181 228 275 329
#
# _framework density 18.352747000000001
#
# number of rings (size 3 to 8) (size 9 to 14) (size 15 to 20)
#    0.000    2.000    2.500    1.500    0.000    3.750 
#    0.000    1.250    0.000    6.000    0.000    0.000 
#    0.000    0.000    0.000    0.000    0.000    0.000 
#
# Total GULP energy -793738.453768 kJ/mol
# GULP energy per Si atom -12402.163340 kJ/mol
# Density = 1.831098 g / cm^3
# Si number density = 18.352747 Si / 1000 Ang^3
#
#
#
# Elastic Constant Matrix: (Units=GPa)
#
#
# Indices 1 2 3 4 5 6 
#
# 1 75.5623 32.0928 57.8580 0.0000 0.0000 0.0000
# 2 32.0928 43.2280 33.3845 0.0000 0.0000 0.0000
# 3 57.8580 33.3845 163.6779 0.0000 0.0000 0.0000
# 4 0.0000 0.0000 0.0000 22.8013 0.0000 0.0000
# 5 0.0000 0.0000 0.0000 0.0000 38.7601 0.0000
# 6 0.0000 0.0000 0.0000 0.0000 0.0000 21.0068
#
#
#
# Elastic Compliance Matrix: (Units=1/GPa)
#
#
# Indices 1 2 3 4 5 6 
#
# 1 0.022829 -0.012720 -0.005475 0.000000 0.000000 0.000000
# 2 -0.012720 0.034546 -0.002550 0.000000 0.000000 0.000000
# 3 -0.005475 -0.002550 0.008565 0.000000 0.000000 0.000000
# 4 0.000000 0.000000 0.000000 0.043857 0.000000 0.000000
# 5 0.000000 0.000000 0.000000 0.000000 0.025800 0.000000
# 6 0.000000 0.000000 0.000000 0.000000 0.000000 0.047604
#
#
# Mechanical properties :
#
#
# Convention : Reuss Voigt Hill
#
# Bulk Modulus (GPa) = 40.90022 58.79320 49.84671
# Shear Modulus (GPa) = 21.47397 27.12252 24.29825
#
# Velocity S-wave (km/s) = 3.42434 3.84845 3.64257
# Velocity P-wave (km/s) = 6.16188 7.20083 6.70152
#
# Compressibility (1/GPa) = 0.02444975
#
# Stress axis : x y z
#
# Youngs Moduli (GPa) = 43.80407 28.94717 116.75314
#
# Poissons Ratio (x) = 0.36820 0.63926
# Poissons Ratio (y) = 0.55718 0.29770
# Poissons Ratio (z) = 0.23984 0.07381
#
# Static dielectric constant tensor:
#      x y z
#    x 3.379610 0.000000 0.000000 
#    y 0.000000 2.298150 0.000000 
#    z 0.000000 0.000000 32.591640 
# 
# 
# High freq. dielectric constant tensor:
#      x y z
#    x 1.715630 0.000000 0.000000 
#    y 0.000000 1.679300 0.000000 
#    z 0.000000 0.000000 1.730840 
# 
# From -- ./inp_files/26848.got.cif
#   From: 2010.03.12/outbox.cif.g09.slc.cpg/sg53_14_cif.got.tgz:26848.got - 2010.04.16 14:36:59.
