data_PCOD8219937
_publ_section_title
;
Structure prediction by ZEFSAII (Michael W. Deem and Ramdas Pophale) SiO2 
 PCOD8219937
Probable space group: P M N A
;
_chemical_formula_sum "Si O2"
_cell_formula_units_Z 64
_cell_length_a 8.922161
_cell_length_b 11.883910
_cell_length_c 31.420399
_cell_angle_alpha 90.000000
_cell_angle_beta 90.000000
_cell_angle_gamma 90.000000
_cell_volume 3331.509881
_symmetry_space_group_name_H-M "P M N A"
_symmetry_group_IT_number 53
_symmetry_cell_setting 'orthorhombic'
loop_
_space_group_symop_operation_xyz
x,y,z
1/2-x,-y,1/2+z
x,-y,-z
1/2-x,y,1/2-z
-x,-y,-z
1/2+x,y,1/2-z
-x,y,z
1/2+x,-y,1/2+z
loop_
_atom_site_type_symbol
_atom_site_label
_atom_site_fract_x
_atom_site_fract_y
_atom_site_fract_z
Si Si1 0.823132 0.010944 0.549725
Si Si2 0.667454 0.632549 0.003093
Si Si3 0.172500 0.238118 0.926864
Si Si4 0.325664 0.551513 0.792828
Si Si5 0.677217 0.810001 0.794654
Si Si6 0.827633 0.566079 0.132723
Si Si7 0.830124 0.865838 0.877967
Si Si8 0.167087 0.641598 0.922228
O O1 0.780294 0.131822 0.568974
O O2 0.000000 0.993588 0.552477
O O3 0.770141 0.000000 0.500000
O O4 0.744736 0.920937 0.580396
O O5 0.500000 0.676027 0.014171
O O6 0.714923 0.682248 0.957569
O O7 0.674568 0.500000 0.000000
O O8 0.788429 0.673642 0.036601
O O9 0.199293 0.305225 0.882550
O O10 0.000000 0.200040 0.931167
O O11 0.250000 0.509845 0.750000
O O12 0.500000 0.543192 0.786298
O O13 0.279307 0.679888 0.803553
O O14 0.277568 0.461301 0.827913
O O15 0.750000 0.849770 0.750000
O O16 0.500000 0.828519 0.792087
O O17 0.742067 0.886250 0.833506
O O18 0.783187 0.479724 0.095286
O O19 0.000000 0.546457 0.145761
O O20 0.829301 0.731913 0.884476
O O21 0.000000 0.912081 0.873467
O O22 0.000000 0.634208 0.942037
#
# Coordination Sequence:
#
# PCOD8219937 Si02
#       8
#     8   8   8   8   8   8   8   8
#     4  11  25  44  63  84 114 153 200 253 303 353
#     4  11  22  33  49  76 111 147 184 229 278 331
#     4  11  23  39  60  82 110 149 193 238 285 342
#     4  10  20  33  54  83 119 159 193 232 283 345
#     4  10  20  34  55  86 122 157 194 239 292 348
#     4  10  20  35  55  82 115 148 186 232 283 341
#     4  11  22  37  60  86 115 153 196 241 291 348
#     4  10  20  34  53  79 112 149 187 230 279 337
#
# _framework density 19.210509999999999
#
# number of rings (size 3 to 8) (size 9 to 14) (size 15 to 20)
#    0.000    1.500    2.500    3.000    0.000    7.000 
#    0.000    0.000    0.000    0.750    0.000    1.750 
#    0.000    0.000    0.000    0.000    0.000    0.000 
#
# Total GULP energy -793490.117512 kJ/mol
# GULP energy per Si atom -12398.283086 kJ/mol
# Density = 1.916679 g / cm^3
# Si number density = 19.210510 Si / 1000 Ang^3
#
#
#
# Elastic Constant Matrix: (Units=GPa)
#
#
# Indices 1 2 3 4 5 6 
#
# 1 80.5258 26.5818 57.7329 0.0000 0.0000 0.0000
# 2 26.5818 63.4571 29.4312 0.0000 0.0000 0.0000
# 3 57.7329 29.4312 126.4720 0.0000 0.0000 0.0000
# 4 0.0000 0.0000 0.0000 33.4370 0.0000 0.0000
# 5 0.0000 0.0000 0.0000 0.0000 37.4489 0.0000
# 6 0.0000 0.0000 0.0000 0.0000 0.0000 29.3311
#
#
#
# Elastic Compliance Matrix: (Units=1/GPa)
#
#
# Indices 1 2 3 4 5 6 
#
# 1 0.019563 -0.004543 -0.007873 0.000000 0.000000 0.000000
# 2 -0.004543 0.018720 -0.002282 0.000000 0.000000 0.000000
# 3 -0.007873 -0.002282 0.012032 0.000000 0.000000 0.000000
# 4 0.000000 0.000000 0.000000 0.029907 0.000000 0.000000
# 5 0.000000 0.000000 0.000000 0.000000 0.026703 0.000000
# 6 0.000000 0.000000 0.000000 0.000000 0.000000 0.034094
#
#
# Mechanical properties :
#
#
# Convention : Reuss Voigt Hill
#
# Bulk Modulus (GPa) = 47.80621 55.32739 51.56680
# Shear Modulus (GPa) = 28.18680 30.49066 29.33873
#
# Velocity S-wave (km/s) = 3.83464 3.98827 3.91221
# Velocity P-wave (km/s) = 6.67423 7.07612 6.87811
#
# Compressibility (1/GPa) = 0.02091779
#
# Stress axis : x y z
#
# Youngs Moduli (GPa) = 51.11817 53.41764 83.11253
#
# Poissons Ratio (x) = 0.24269 0.65433
# Poissons Ratio (y) = 0.23224 0.18970
# Poissons Ratio (z) = 0.40244 0.12192
#
# Static dielectric constant tensor:
#      x y z
#    x 3.622400 0.000000 0.000000 
#    y 0.000000 3.367380 0.000000 
#    z 0.000000 0.000000 3.280690 
# 
# 
# High freq. dielectric constant tensor:
#      x y z
#    x 1.757310 0.000000 0.000000 
#    y 0.000000 1.720780 0.000000 
#    z 0.000000 0.000000 1.743370 
# 
# From -- ./inp_files/38114.got.cif
#   From: 2010.03.12/outbox.cif.g09.slc.cpg/sg53_20_cif.got.tgz:38114.got - 2010.04.16 14:36:59.
