data_PCOD8219731
_publ_section_title
;
Structure prediction by ZEFSAII (Michael W. Deem and Ramdas Pophale) SiO2 
 PCOD8219731
Probable space group: P M N A
;
_chemical_formula_sum "Si O2"
_cell_formula_units_Z 64
_cell_length_a 9.026343
_cell_length_b 16.289723
_cell_length_c 22.592526
_cell_angle_alpha 90.000000
_cell_angle_beta 90.000000
_cell_angle_gamma 90.000000
_cell_volume 3321.928822
_symmetry_space_group_name_H-M "P M N A"
_symmetry_group_IT_number 53
_symmetry_cell_setting 'orthorhombic'
loop_
_space_group_symop_operation_xyz
x,y,z
1/2-x,-y,1/2+z
x,-y,-z
1/2-x,y,1/2-z
-x,-y,-z
1/2+x,y,1/2-z
-x,y,z
1/2+x,-y,1/2+z
loop_
_atom_site_type_symbol
_atom_site_label
_atom_site_fract_x
_atom_site_fract_y
_atom_site_fract_z
Si Si1 0.336468 0.514531 0.912386
Si Si2 0.821825 0.020992 0.812323
Si Si3 0.827596 0.694623 0.190565
Si Si4 0.176457 0.167753 0.629883
Si Si5 0.830168 0.044225 0.059392
Si Si6 0.329382 0.807232 0.485137
Si Si7 0.334968 0.360614 0.983988
Si Si8 0.334126 0.502319 0.305802
O O1 0.500000 0.495392 0.886992
O O2 0.273239 0.428367 0.938157
O O3 0.226340 0.545593 0.862152
O O4 0.347242 0.590064 0.955691
O O5 0.750000 0.986184 0.750000
O O6 0.757035 0.112634 0.820346
O O7 0.000000 0.019430 0.805824
O O8 0.766405 0.974598 0.873796
O O9 0.750000 0.726531 0.250000
O O10 0.736588 0.738696 0.137789
O O11 0.805838 0.598269 0.183896
O O12 0.000000 0.719699 0.190095
O O13 0.233454 0.143619 0.564428
O O14 0.000000 0.161060 0.635260
O O15 0.812192 0.142084 0.046673
O O16 0.000000 0.015646 0.062451
O O17 0.760545 0.000000 0.000000
O O18 0.500000 0.805432 0.464569
O O19 0.275163 0.714539 0.493319
O O20 0.500000 0.328202 0.966499
O O21 0.250000 0.467461 0.250000
O O22 0.500000 0.478037 0.295282
#
# Coordination Sequence:
#
# PCOD8219731 Si02
#       8
#     8   8   8   8   8   8   8   8
#     4   9  18  34  54  74 107 146 180 217 269 330
#     4  11  22  39  60  82 111 145 185 228 277 336
#     4  10  20  33  47  68 100 140 181 223 269 324
#     4  12  23  34  50  76 109 144 180 222 272 328
#     4   9  18  37  61  82 109 148 186 226 276 331
#     4  11  21  35  57  83 108 141 184 229 277 327
#     4   9  19  35  54  80 110 144 178 220 276 329
#     4  10  20  32  49  72  99 134 179 224 269 321
#
# _framework density 19.265916000000001
#
# number of rings (size 3 to 8) (size 9 to 14) (size 15 to 20)
#    0.000    1.875    1.250    4.500    0.000    4.500 
#    0.000    4.375    0.000    0.750    0.000    3.500 
#    0.000    0.000    0.000    0.000    0.000    0.000 
#
# Total GULP energy -792932.061224 kJ/mol
# GULP energy per Si atom -12389.563457 kJ/mol
# Density = 1.922207 g / cm^3
# Si number density = 19.265916 Si / 1000 Ang^3
#
#
#
# Elastic Constant Matrix: (Units=GPa)
#
#
# Indices 1 2 3 4 5 6 
#
# 1 98.0477 17.1444 40.6570 0.0000 0.0000 0.0000
# 2 17.1444 45.7117 14.4519 0.0000 0.0000 0.0000
# 3 40.6570 14.4519 106.9962 0.0000 0.0000 0.0000
# 4 0.0000 0.0000 0.0000 13.2340 0.0000 0.0000
# 5 0.0000 0.0000 0.0000 0.0000 33.6104 0.0000
# 6 0.0000 0.0000 0.0000 0.0000 0.0000 158.5849
#
#
#
# Elastic Compliance Matrix: (Units=1/GPa)
#
#
# Indices 1 2 3 4 5 6 
#
# 1 0.012579 -0.003350 -0.004327 0.000000 0.000000 0.000000
# 2 -0.003350 0.023744 -0.001934 0.000000 0.000000 0.000000
# 3 -0.004327 -0.001934 0.011252 0.000000 0.000000 0.000000
# 4 0.000000 0.000000 0.000000 0.075563 0.000000 0.000000
# 5 0.000000 0.000000 0.000000 0.000000 0.029753 0.000000
# 6 0.000000 0.000000 0.000000 0.000000 0.000000 0.006306
#
#
# Mechanical properties :
#
#
# Convention : Reuss Voigt Hill
#
# Bulk Modulus (GPa) = 35.27069 43.91801 39.59435
# Shear Modulus (GPa) = 26.61413 52.98601 39.80007
#
# Velocity S-wave (km/s) = 3.72076 5.24997 4.55007
# Velocity P-wave (km/s) = 6.06678 7.71976 6.94264
#
# Compressibility (1/GPa) = 0.02835215
#
# Stress axis : x y z
#
# Youngs Moduli (GPa) = 79.49559 42.11572 88.87489
#
# Poissons Ratio (x) = 0.14108 0.38461
# Poissons Ratio (y) = 0.26629 0.17190
# Poissons Ratio (z) = 0.34402 0.08146
#
# Static dielectric constant tensor:
#      x y z
#    x 3.583290 0.000000 0.000000 
#    y 0.000000 3.234720 0.000000 
#    z 0.000000 0.000000 3.762400 
# 
# 
# High freq. dielectric constant tensor:
#      x y z
#    x 1.743800 0.000000 0.000000 
#    y 0.000000 1.717830 0.000000 
#    z 0.000000 0.000000 1.755450 
# 
# From -- ./inp_files/31257.got.cif
#   From: 2010.03.12/outbox.cif.g09.slc.cpg/sg53_16_cif.got.tgz:31257.got - 2010.04.16 14:36:59.
