data_PCOD8219581
_publ_section_title
;
Structure prediction by ZEFSAII (Michael W. Deem and Ramdas Pophale) SiO2 
 PCOD8219581
Probable space group: P M N A
;
_chemical_formula_sum "Si O2"
_cell_formula_units_Z 48
_cell_length_a 17.344456
_cell_length_b 14.245285
_cell_length_c 9.723357
_cell_angle_alpha 90.000000
_cell_angle_beta 90.000000
_cell_angle_gamma 90.000000
_cell_volume 2402.415144
_symmetry_space_group_name_H-M "P M N A"
_symmetry_group_IT_number 53
_symmetry_cell_setting 'orthorhombic'
loop_
_space_group_symop_operation_xyz
x,y,z
1/2-x,-y,1/2+z
x,-y,-z
1/2-x,y,1/2-z
-x,-y,-z
1/2+x,y,1/2-z
-x,y,z
1/2+x,-y,1/2+z
loop_
_atom_site_type_symbol
_atom_site_label
_atom_site_fract_x
_atom_site_fract_y
_atom_site_fract_z
Si Si1 0.173481 0.107597 0.340191
Si Si2 0.913096 0.711779 0.736510
Si Si3 0.324915 0.392462 0.468216
Si Si4 0.659049 0.714706 0.268026
Si Si5 0.674324 0.098798 0.840251
Si Si6 0.355721 0.605626 0.007988
O O1 0.250000 0.114686 0.250000
O O2 0.114793 0.180931 0.272312
O O3 0.192768 0.129129 0.501222
O O4 0.133977 0.003701 0.333803
O O5 0.859343 0.642917 0.825573
O O6 0.910216 0.669982 0.584065
O O7 0.000000 0.711003 0.793573
O O8 0.348728 0.500000 0.500000
O O9 0.361666 0.322037 0.581061
O O10 0.233009 0.383546 0.461100
O O11 0.750000 0.727326 0.250000
O O12 0.623257 0.817769 0.230650
O O13 0.629928 0.635637 0.164298
O O14 0.750000 0.085387 0.750000
O O15 0.384415 0.500000 0.000000
#
# Coordination Sequence:
#
# PCOD8219581 Si02
#       6
#     8   8   8   8   8   8
#     4  10  20  36  61  87 114 148 193 245 295 345
#     4  12  25  38  54  83 123 163 194 225 285 354
#     4  10  21  38  62  87 113 148 193 246 291 338
#     4   9  17  31  56  87 112 136 181 245 299 338
#     4   9  18  33  58  94 112 138 191 250 305 334
#     4  10  19  36  62  87 110 142 194 248 293 333
#
# _framework density 19.979896
#
# number of rings (size 3 to 8) (size 9 to 14) (size 15 to 20)
#    0.000    2.000    1.667    2.500    4.667    3.333 
#    0.000    2.500    0.000    1.000    0.000    0.000 
#    0.000    0.000    0.000    0.000    0.000    0.000 
#
# Total GULP energy -594857.395661 kJ/mol
# GULP energy per Si atom -12392.862410 kJ/mol
# Density = 1.993442 g / cm^3
# Si number density = 19.979896 Si / 1000 Ang^3
#
#
#
# Elastic Constant Matrix: (Units=GPa)
#
#
# Indices 1 2 3 4 5 6 
#
# 1 38.9968 17.6502 7.6334 0.0000 0.0000 0.0000
# 2 17.6502 158.3474 28.7045 0.0000 0.0000 0.0000
# 3 7.6334 28.7045 75.9229 0.0000 0.0000 0.0000
# 4 0.0000 0.0000 0.0000 38.7508 0.0000 0.0000
# 5 0.0000 0.0000 0.0000 0.0000 7.5636 0.0000
# 6 0.0000 0.0000 0.0000 0.0000 0.0000 3.8016
#
#
#
# Elastic Compliance Matrix: (Units=1/GPa)
#
#
# Indices 1 2 3 4 5 6 
#
# 1 0.027210 -0.002724 -0.001706 0.000000 0.000000 0.000000
# 2 -0.002724 0.007053 -0.002393 0.000000 0.000000 0.000000
# 3 -0.001706 -0.002393 0.014247 0.000000 0.000000 0.000000
# 4 0.000000 0.000000 0.000000 0.025806 0.000000 0.000000
# 5 0.000000 0.000000 0.000000 0.000000 0.132212 0.000000
# 6 0.000000 0.000000 0.000000 0.000000 0.000000 0.263046
#
#
# Mechanical properties :
#
#
# Convention : Reuss Voigt Hill
#
# Bulk Modulus (GPa) = 28.68183 42.36038 35.52111
# Shear Modulus (GPa) = 10.10428 24.64182 17.37305
#
# Velocity S-wave (km/s) = 2.25127 3.51569 2.95197
# Velocity P-wave (km/s) = 4.59827 6.14228 5.42548
#
# Compressibility (1/GPa) = 0.03486528
#
# Stress axis : x y z
#
# Youngs Moduli (GPa) = 36.75145 141.79309 70.18859
#
# Poissons Ratio (x) = 0.38620 0.11974
# Poissons Ratio (y) = 0.10010 0.16793
# Poissons Ratio (z) = 0.06270 0.33925
#
# Static dielectric constant tensor:
#      x y z
#    x 3.001800 0.000000 0.000000 
#    y 0.000000 4.304410 0.000000 
#    z 0.000000 0.000000 3.762730 
# 
# 
# High freq. dielectric constant tensor:
#      x y z
#    x 1.707900 0.000000 0.000000 
#    y 0.000000 1.810250 0.000000 
#    z 0.000000 0.000000 1.790870 
# 
# From -- ./inp_files/10004.got.cif
#   From: 2010.03.12/outbox.cif.g09.slc.cpg/sg53_6_cif.got.tgz:10004.got - 2010.04.16 14:36:59.
