data_PCOD8219776
_publ_section_title
;
Structure prediction by ZEFSAII (Michael W. Deem and Ramdas Pophale) SiO2 
 PCOD8219776
Probable space group: P M N A
;
_chemical_formula_sum "Si O2"
_cell_formula_units_Z 64
_cell_length_a 9.483765
_cell_length_b 20.282180
_cell_length_c 20.258103
_cell_angle_alpha 90.000000
_cell_angle_beta 90.000000
_cell_angle_gamma 90.000000
_cell_volume 3896.675057
_symmetry_space_group_name_H-M "P M N A"
_symmetry_group_IT_number 53
_symmetry_cell_setting 'orthorhombic'
loop_
_space_group_symop_operation_xyz
x,y,z
1/2-x,-y,1/2+z
x,-y,-z
1/2-x,y,1/2-z
-x,-y,-z
1/2+x,y,1/2-z
-x,y,z
1/2+x,-y,1/2+z
loop_
_atom_site_type_symbol
_atom_site_label
_atom_site_fract_x
_atom_site_fract_y
_atom_site_fract_z
Si Si1 0.833288 0.530543 0.066753
Si Si2 0.837439 0.323412 0.959376
Si Si3 0.158267 0.918621 0.069704
Si Si4 0.661302 0.305709 0.387974
Si Si5 0.658208 0.063875 0.413663
Si Si6 0.334502 0.439469 0.315824
Si Si7 0.841140 0.817132 0.600134
Si Si8 0.341044 0.799583 0.056282
O O1 0.792746 0.607361 0.073263
O O2 0.776485 0.491206 0.130086
O O3 0.000000 0.521501 0.062637
O O4 0.766108 0.500000 0.000000
O O5 0.741731 0.267262 0.926137
O O6 0.000000 0.305943 0.944986
O O7 0.810986 0.329295 0.037487
O O8 0.264792 0.861116 0.092406
O O9 0.000000 0.901104 0.093454
O O10 0.206723 0.988618 0.101074
O O11 0.158984 0.924063 0.991311
O O12 0.500000 0.282732 0.379881
O O13 0.698536 0.365696 0.339986
O O14 0.760114 0.244619 0.367778
O O15 0.500000 0.075556 0.386569
O O16 0.764253 0.114960 0.378487
O O17 0.250000 0.454481 0.250000
O O18 0.500000 0.449059 0.302828
O O19 0.839475 0.810219 0.521712
O O20 0.000000 0.818667 0.627706
O O21 0.500000 0.794547 0.083361
#
# Coordination Sequence:
#
# PCOD8219776 Si02
#       8
#     8   8   8   8   8   8   8   8
#     4   9  15  28  50  71  86 108 150 194 224 260
#     4   9  15  25  44  63  78 102 142 187 220 251
#     4   8  13  21  32  45  65  98 139 175 206 246
#     4   9  16  27  43  60  79 107 142 179 216 256
#     4   8  13  21  32  46  66  96 136 177 210 245
#     4  10  20  33  49  69  92 117 146 183 229 277
#     4   9  16  23  33  51  75 102 134 173 214 255
#     4   9  16  23  31  49  78 106 132 168 216 264
#
# _framework density 16.424258999999999
#
# number of rings (size 3 to 8) (size 9 to 14) (size 15 to 20)
#    0.000    3.125    1.250    1.500    0.000    4.000 
#    0.000    3.125    0.000    0.750    0.000    0.000 
#    0.000    0.000    0.000    1.125    0.000   16.250 
#
# Total GULP energy -793313.697760 kJ/mol
# GULP energy per Si atom -12395.526527 kJ/mol
# Density = 1.638688 g / cm^3
# Si number density = 16.424259 Si / 1000 Ang^3
#
#
#
# Elastic Constant Matrix: (Units=GPa)
#
#
# Indices 1 2 3 4 5 6 
#
# 1 99.2796 79.3019 28.3019 0.0000 0.0000 0.0000
# 2 79.3019 145.0768 44.4689 0.0000 0.0000 0.0000
# 3 28.3019 44.4689 42.5627 0.0000 0.0000 0.0000
# 4 0.0000 0.0000 0.0000 9.4851 0.0000 0.0000
# 5 0.0000 0.0000 0.0000 0.0000 13.0286 0.0000
# 6 0.0000 0.0000 0.0000 0.0000 0.0000 17.0352
#
#
#
# Elastic Compliance Matrix: (Units=1/GPa)
#
#
# Indices 1 2 3 4 5 6 
#
# 1 0.018057 -0.009106 -0.002493 0.000000 0.000000 0.000000
# 2 -0.009106 0.014733 -0.009337 0.000000 0.000000 0.000000
# 3 -0.002493 -0.009337 0.034908 0.000000 0.000000 0.000000
# 4 0.000000 0.000000 0.000000 0.105429 0.000000 0.000000
# 5 0.000000 0.000000 0.000000 0.000000 0.076754 0.000000
# 6 0.000000 0.000000 0.000000 0.000000 0.000000 0.058702
#
#
# Mechanical properties :
#
#
# Convention : Reuss Voigt Hill
#
# Bulk Modulus (GPa) = 38.72266 65.67384 52.19825
# Shear Modulus (GPa) = 13.92513 16.89955 15.41234
#
# Velocity S-wave (km/s) = 2.91493 3.21119 3.06664
# Velocity P-wave (km/s) = 5.91242 7.33632 6.66252
#
# Compressibility (1/GPa) = 0.02582467
#
# Stress axis : x y z
#
# Youngs Moduli (GPa) = 55.38017 67.87678 28.64689
#
# Poissons Ratio (x) = 0.61810 0.07141
# Poissons Ratio (y) = 0.50430 0.26748
# Poissons Ratio (z) = 0.13806 0.63378
#
# Static dielectric constant tensor:
#      x y z
#    x 3.108340 0.000000 0.000000 
#    y 0.000000 3.365550 0.000000 
#    z 0.000000 0.000000 2.473070 
# 
# 
# High freq. dielectric constant tensor:
#      x y z
#    x 1.622130 0.000000 0.000000 
#    y 0.000000 1.649160 0.000000 
#    z 0.000000 0.000000 1.553340 
# 
# From -- ./inp_files/27013.got.cif
#   From: 2010.03.12/outbox.cif.g09.slc.cpg/sg53_14_cif.got.tgz:27013.got - 2010.04.16 14:36:59.
