data_PCOD8219648
_publ_section_title
;
Structure prediction by ZEFSAII (Michael W. Deem and Ramdas Pophale) SiO2 
 PCOD8219648
Probable space group: P M N A
;
_chemical_formula_sum "Si O2"
_cell_formula_units_Z 48
_cell_length_a 13.852603
_cell_length_b 17.658894
_cell_length_c 9.916246
_cell_angle_alpha 90.000000
_cell_angle_beta 90.000000
_cell_angle_gamma 90.000000
_cell_volume 2425.728439
_symmetry_space_group_name_H-M "P M N A"
_symmetry_group_IT_number 53
_symmetry_cell_setting 'orthorhombic'
loop_
_space_group_symop_operation_xyz
x,y,z
1/2-x,-y,1/2+z
x,-y,-z
1/2-x,y,1/2-z
-x,-y,-z
1/2+x,y,1/2-z
-x,y,z
1/2+x,-y,1/2+z
loop_
_atom_site_type_symbol
_atom_site_label
_atom_site_fract_x
_atom_site_fract_y
_atom_site_fract_z
Si Si1 0.692397 0.833965 0.890501
Si Si2 0.245945 0.431666 0.905447
Si Si3 0.387422 0.689173 0.033697
Si Si4 0.820938 0.857403 0.125676
Si Si5 0.500000 0.036944 0.642766
Si Si6 0.500000 0.932974 0.889024
Si Si7 0.108207 0.299871 0.843255
O O1 0.750000 0.831995 0.750000
O O2 0.593131 0.879797 0.894880
O O3 0.668899 0.747668 0.936809
O O4 0.760718 0.880272 0.993603
O O5 0.250000 0.459992 0.750000
O O6 0.344847 0.396762 0.969052
O O7 0.169727 0.364309 0.913970
O O8 0.212040 0.500000 0.000000
O O9 0.500000 0.686054 0.994491
O O10 0.368421 0.716225 0.186468
O O11 0.750000 0.848902 0.250000
O O12 0.871517 0.778764 0.083209
O O13 0.903379 0.915750 0.166104
O O14 0.500000 0.000000 0.500000
O O15 0.500000 0.968292 0.743465
O O16 0.500000 0.000000 0.000000
O O17 0.000000 0.327218 0.863115
#
# Coordination Sequence:
#
# PCOD8219648 Si02
#       7
#     8   8   8   8   4   4   8
#     4  12  25  41  66  94 134 167 213 273 330 381
#     4  10  21  39  63  96 133 164 212 270 317 376
#     4  10  20  39  67  92 121 172 221 253 305 387
#     4  12  22  41  71  92 118 174 226 259 313 391
#     4  12  28  44  62  94 137 164 208 279 336 376
#     4  12  28  46  64  96 131 172 217 270 328 394
#     4  10  19  37  67  97 120 163 226 265 299 380
#
# _framework density 19.787870999999999
#
# number of rings (size 3 to 8) (size 9 to 14) (size 15 to 20)
#    0.000    1.000    5.000    2.500    0.000    5.333 
#    0.000    0.000    0.000    0.000    0.000    0.000 
#    0.000    0.000    0.000    0.000    0.000    0.000 
#
# Total GULP energy -595060.382504 kJ/mol
# GULP energy per Si atom -12397.091302 kJ/mol
# Density = 1.974283 g / cm^3
# Si number density = 19.787871 Si / 1000 Ang^3
#
#
#
# Elastic Constant Matrix: (Units=GPa)
#
#
# Indices 1 2 3 4 5 6 
#
# 1 86.0573 29.7777 34.9341 0.0000 0.0000 0.0000
# 2 29.7777 92.6488 35.4093 0.0000 0.0000 0.0000
# 3 34.9341 35.4093 94.8160 0.0000 0.0000 0.0000
# 4 0.0000 0.0000 0.0000 28.4183 0.0000 0.0000
# 5 0.0000 0.0000 0.0000 0.0000 26.4864 0.0000
# 6 0.0000 0.0000 0.0000 0.0000 0.0000 35.9990
#
#
#
# Elastic Compliance Matrix: (Units=1/GPa)
#
#
# Indices 1 2 3 4 5 6 
#
# 1 0.014355 -0.003024 -0.004160 0.000000 0.000000 0.000000
# 2 -0.003024 0.013228 -0.003826 0.000000 0.000000 0.000000
# 3 -0.004160 -0.003826 0.013508 0.000000 0.000000 0.000000
# 4 0.000000 0.000000 0.000000 0.035189 0.000000 0.000000
# 5 0.000000 0.000000 0.000000 0.000000 0.037755 0.000000
# 6 0.000000 0.000000 0.000000 0.000000 0.000000 0.027779
#
#
# Mechanical properties :
#
#
# Convention : Reuss Voigt Hill
#
# Bulk Modulus (GPa) = 52.43309 52.64047 52.53678
# Shear Modulus (GPa) = 29.37909 29.74082 29.55995
#
# Velocity S-wave (km/s) = 3.85736 3.88104 3.86922
# Velocity P-wave (km/s) = 6.81132 6.83692 6.82413
#
# Compressibility (1/GPa) = 0.01907193
#
# Stress axis : x y z
#
# Youngs Moduli (GPa) = 69.66155 75.60004 74.02990
#
# Poissons Ratio (x) = 0.22861 0.30794
# Poissons Ratio (y) = 0.21066 0.28321
# Poissons Ratio (z) = 0.28977 0.28922
#
# Static dielectric constant tensor:
#      x y z
#    x 3.843790 0.000000 0.000000 
#    y 0.000000 3.565190 0.000000 
#    z 0.000000 0.000000 3.579370 
# 
# 
# High freq. dielectric constant tensor:
#      x y z
#    x 1.793120 0.000000 0.000000 
#    y 0.000000 1.767210 0.000000 
#    z 0.000000 0.000000 1.759660 
# 
# From -- ./inp_files/8708.got.cif
#   From: 2010.03.12/outbox.cif.g09.slc.cpg/sg53_5_cif.got.tgz:8708.got - 2010.04.16 14:36:59.
