data_PCOD8219341
_publ_section_title
;
Structure prediction by ZEFSAII (Michael W. Deem and Ramdas Pophale) SiO2 
 PCOD8219341
Probable space group: P M N A
;
_chemical_formula_sum "Si O2"
_cell_formula_units_Z 48
_cell_length_a 9.829641
_cell_length_b 14.655320
_cell_length_c 18.170590
_cell_angle_alpha 90.000000
_cell_angle_beta 90.000000
_cell_angle_gamma 90.000000
_cell_volume 2617.592222
_symmetry_space_group_name_H-M "P M N A"
_symmetry_group_IT_number 53
_symmetry_cell_setting 'orthorhombic'
loop_
_space_group_symop_operation_xyz
x,y,z
1/2-x,-y,1/2+z
x,-y,-z
1/2-x,y,1/2-z
-x,-y,-z
1/2+x,y,1/2-z
-x,y,z
1/2+x,-y,1/2+z
loop_
_atom_site_type_symbol
_atom_site_label
_atom_site_fract_x
_atom_site_fract_y
_atom_site_fract_z
Si Si1 0.152803 0.637160 0.440321
Si Si2 0.848284 0.318656 0.184273
Si Si3 0.269729 0.456101 0.431295
Si Si4 0.660916 0.855341 0.594984
Si Si5 0.842105 0.803698 0.065569
Si Si6 0.658424 0.034433 0.678347
O O1 0.185729 0.541858 0.396473
O O2 0.168838 0.617240 0.528420
O O3 0.255561 0.715157 0.412951
O O4 0.000000 0.669164 0.422812
O O5 0.750000 0.345880 0.250000
O O6 0.858211 0.404562 0.129016
O O7 0.788323 0.229702 0.143877
O O8 0.000000 0.300370 0.214364
O O9 0.359026 0.500000 0.500000
O O10 0.500000 0.856922 0.592202
O O11 0.713913 0.845698 0.511347
O O12 0.714162 0.948288 0.631717
O O13 0.821324 0.876533 0.129417
O O14 0.000000 0.775064 0.057787
O O15 0.750000 0.045021 0.750000
O O16 0.500000 0.021556 0.700369
#
# Coordination Sequence:
#
# PCOD8219341 Si02
#       6
#     8   8   8   8   8   8
#     4   9  18  33  57  83 106 136 177 227 273 314
#     4  11  22  35  55  85 116 146 178 225 277 329
#     4   8  18  35  56  80 106 142 184 218 264 321
#     4   9  17  35  57  80 107 144 188 224 267 326
#     4  10  19  34  57  84 108 141 190 231 268 324
#     4  10  21  36  56  78 110 148 182 228 279 326
#
# _framework density 18.337463
#
# number of rings (size 3 to 8) (size 9 to 14) (size 15 to 20)
#    1.000    1.333    1.667    2.000    0.000    5.000 
#    0.000    1.667    0.000    2.000    0.000    0.000 
#    0.000    0.000    0.000    0.000    0.000    0.000 
#
# Total GULP energy -594648.727489 kJ/mol
# GULP energy per Si atom -12388.515156 kJ/mol
# Density = 1.829573 g / cm^3
# Si number density = 18.337463 Si / 1000 Ang^3
#
#
#
# Elastic Constant Matrix: (Units=GPa)
#
#
# Indices 1 2 3 4 5 6 
#
# 1 75.9025 49.0965 27.6144 0.0000 0.0000 0.0000
# 2 49.0965 125.2252 38.5184 0.0000 0.0000 0.0000
# 3 27.6144 38.5184 58.9371 0.0000 0.0000 0.0000
# 4 0.0000 0.0000 0.0000 17.2528 0.0000 0.0000
# 5 0.0000 0.0000 0.0000 0.0000 23.6960 0.0000
# 6 0.0000 0.0000 0.0000 0.0000 0.0000 22.6111
#
#
#
# Elastic Compliance Matrix: (Units=1/GPa)
#
#
# Indices 1 2 3 4 5 6 
#
# 1 0.018752 -0.005819 -0.004983 0.000000 0.000000 0.000000
# 2 -0.005819 0.011801 -0.004986 0.000000 0.000000 0.000000
# 3 -0.004983 -0.004986 0.022560 0.000000 0.000000 0.000000
# 4 0.000000 0.000000 0.000000 0.057962 0.000000 0.000000
# 5 0.000000 0.000000 0.000000 0.000000 0.042201 0.000000
# 6 0.000000 0.000000 0.000000 0.000000 0.000000 0.044226
#
#
# Mechanical properties :
#
#
# Convention : Reuss Voigt Hill
#
# Bulk Modulus (GPa) = 46.43144 54.50261 50.46703
# Shear Modulus (GPa) = 21.16343 22.36767 21.76555
#
# Velocity S-wave (km/s) = 3.40090 3.49632 3.44894
# Velocity P-wave (km/s) = 6.38726 6.78863 6.59100
#
# Compressibility (1/GPa) = 0.02153713
#
# Stress axis : x y z
#
# Youngs Moduli (GPa) = 53.32853 84.74041 44.32549
#
# Poissons Ratio (x) = 0.49312 0.22086
# Poissons Ratio (y) = 0.31033 0.22100
# Poissons Ratio (z) = 0.26572 0.42250
#
# Static dielectric constant tensor:
#      x y z
#    x 3.031680 0.000000 0.000000 
#    y 0.000000 3.505900 0.000000 
#    z 0.000000 0.000000 3.152870 
# 
# 
# High freq. dielectric constant tensor:
#      x y z
#    x 1.680330 0.000000 0.000000 
#    y 0.000000 1.722710 0.000000 
#    z 0.000000 0.000000 1.686760 
# 
# From -- ./inp_files/27574.got.cif
#   From: 2010.03.12/outbox.cif.g09.slc.cpg/sg53_14_cif.got.tgz:27574.got - 2010.04.16 14:36:59.
