data_PCOD8219036
_publ_section_title
;
Structure prediction by ZEFSAII (Michael W. Deem and Ramdas Pophale) SiO2 
 PCOD8219036
Probable space group: P M N A
;
_chemical_formula_sum "Si O2"
_cell_formula_units_Z 48
_cell_length_a 8.536175
_cell_length_b 11.766638
_cell_length_c 25.803211
_cell_angle_alpha 90.000000
_cell_angle_beta 90.000000
_cell_angle_gamma 90.000000
_cell_volume 2591.728213
_symmetry_space_group_name_H-M "P M N A"
_symmetry_group_IT_number 53
_symmetry_cell_setting 'orthorhombic'
loop_
_space_group_symop_operation_xyz
x,y,z
1/2-x,-y,1/2+z
x,-y,-z
1/2-x,y,1/2-z
-x,-y,-z
1/2+x,y,1/2-z
-x,y,z
1/2+x,-y,1/2+z
loop_
_atom_site_type_symbol
_atom_site_label
_atom_site_fract_x
_atom_site_fract_y
_atom_site_fract_z
Si Si1 0.821181 0.977616 0.116357
Si Si2 0.678475 0.228348 0.929223
Si Si3 0.182741 0.324759 0.389538
Si Si4 0.177671 0.845115 0.969488
Si Si5 0.682299 0.530204 0.441658
Si Si6 0.186296 0.173991 0.192883
O O1 0.724074 0.859952 0.116613
O O2 0.000000 0.946996 0.128101
O O3 0.804223 0.034760 0.059548
O O4 0.757768 0.063596 0.160183
O O5 0.500000 0.266150 0.922738
O O6 0.786782 0.339004 0.928105
O O7 0.702674 0.162332 0.983191
O O8 0.287845 0.255816 0.429848
O O9 0.220193 0.456818 0.399813
O O10 0.235683 0.286874 0.331901
O O11 0.000000 0.299783 0.397493
O O12 0.000000 0.829494 0.989965
O O13 0.739260 0.500000 0.500000
O O14 0.500000 0.503523 0.435352
O O15 0.250000 0.157829 0.250000
O O16 0.000000 0.186851 0.191853
#
# Coordination Sequence:
#
# PCOD8219036 Si02
#       6
#     8   8   8   8   8   8
#     4   9  20  36  53  75 107 144 181 221 270 329
#     4  12  23  32  49  77 110 146 185 227 270 321
#     4  11  21  34  55  83 113 142 183 233 277 323
#     4  10  19  33  51  73 106 148 186 221 266 321
#     4  11  22  36  55  75 107 154 193 225 270 330
#     4  10  21  39  63  87 111 141 180 227 281 331
#
# _framework density 18.520461999999998
#
# number of rings (size 3 to 8) (size 9 to 14) (size 15 to 20)
#    0.000    1.500    1.667    6.000    0.000    6.667 
#    0.000    0.000    0.000    1.000    0.000    4.667 
#    0.000    0.000    0.000    0.000    0.000    0.000 
#
# Total GULP energy -595301.243781 kJ/mol
# GULP energy per Si atom -12402.109245 kJ/mol
# Density = 1.847831 g / cm^3
# Si number density = 18.520462 Si / 1000 Ang^3
#
#
#
# Elastic Constant Matrix: (Units=GPa)
#
#
# Indices 1 2 3 4 5 6 
#
# 1 72.7394 30.0144 15.5729 0.0000 0.0000 0.0000
# 2 30.0144 107.5458 38.5572 0.0000 0.0000 0.0000
# 3 15.5729 38.5572 76.5581 0.0000 0.0000 0.0000
# 4 0.0000 0.0000 0.0000 14.7605 0.0000 0.0000
# 5 0.0000 0.0000 0.0000 0.0000 26.2934 0.0000
# 6 0.0000 0.0000 0.0000 0.0000 0.0000 26.6343
#
#
#
# Elastic Compliance Matrix: (Units=1/GPa)
#
#
# Indices 1 2 3 4 5 6 
#
# 1 0.015627 -0.003931 -0.001199 0.000000 0.000000 0.000000
# 2 -0.003931 0.012336 -0.005413 0.000000 0.000000 0.000000
# 3 -0.001199 -0.005413 0.016032 0.000000 0.000000 0.000000
# 4 0.000000 0.000000 0.000000 0.067748 0.000000 0.000000
# 5 0.000000 0.000000 0.000000 0.000000 0.038032 0.000000
# 6 0.000000 0.000000 0.000000 0.000000 0.000000 0.037546
#
#
# Mechanical properties :
#
#
# Convention : Reuss Voigt Hill
#
# Bulk Modulus (GPa) = 43.65230 47.23692 45.44461
# Shear Modulus (GPa) = 23.14344 25.05089 24.09717
#
# Velocity S-wave (km/s) = 3.53882 3.68177 3.61100
# Velocity P-wave (km/s) = 6.34970 6.60564 6.47893
#
# Compressibility (1/GPa) = 0.02290830
#
# Stress axis : x y z
#
# Youngs Moduli (GPa) = 63.99371 81.06137 62.37480
#
# Poissons Ratio (x) = 0.31868 0.07477
# Poissons Ratio (y) = 0.25158 0.33765
# Poissons Ratio (z) = 0.07671 0.43881
#
# Static dielectric constant tensor:
#      x y z
#    x 3.334890 0.000000 0.000000 
#    y 0.000000 3.461840 0.000000 
#    z 0.000000 0.000000 3.245490 
# 
# 
# High freq. dielectric constant tensor:
#      x y z
#    x 1.725650 0.000000 0.000000 
#    y 0.000000 1.721980 0.000000 
#    z 0.000000 0.000000 1.679180 
# 
# From -- ./inp_files/33887.got.cif
#   From: 2010.03.12/outbox.cif.g09.slc.cpg/sg53_17_cif.got.tgz:33887.got - 2010.04.16 14:36:59.
