data_PCOD8219790
_publ_section_title
;
Structure prediction by ZEFSAII (Michael W. Deem and Ramdas Pophale) SiO2 
 PCOD8219790
Probable space group: P M N A
;
_chemical_formula_sum "Si O2"
_cell_formula_units_Z 48
_cell_length_a 9.269780
_cell_length_b 16.518435
_cell_length_c 17.778439
_cell_angle_alpha 90.000000
_cell_angle_beta 90.000000
_cell_angle_gamma 90.000000
_cell_volume 2722.274730
_symmetry_space_group_name_H-M "P M N A"
_symmetry_group_IT_number 53
_symmetry_cell_setting 'orthorhombic'
loop_
_space_group_symop_operation_xyz
x,y,z
1/2-x,-y,1/2+z
x,-y,-z
1/2-x,y,1/2-z
-x,-y,-z
1/2+x,y,1/2-z
-x,y,z
1/2+x,-y,1/2+z
loop_
_atom_site_type_symbol
_atom_site_label
_atom_site_fract_x
_atom_site_fract_y
_atom_site_fract_z
Si Si1 0.170260 0.146223 0.672970
Si Si2 0.170169 0.667847 0.823244
Si Si3 0.669112 0.411186 0.479530
Si Si4 0.165253 0.812696 0.611833
Si Si5 0.663647 0.269090 0.954757
Si Si6 0.829117 0.008383 0.416355
O O1 0.250000 0.163056 0.750000
O O2 0.210866 0.220870 0.619177
O O3 0.230099 0.063006 0.636705
O O4 0.000000 0.140948 0.686538
O O5 0.250000 0.631398 0.750000
O O6 0.210097 0.610215 0.893483
O O7 0.229791 0.758216 0.837601
O O8 0.000000 0.671950 0.809202
O O9 0.728147 0.500000 0.500000
O O10 0.500000 0.405653 0.492288
O O11 0.738871 0.348291 0.537266
O O12 0.182740 0.791529 0.524369
O O13 0.000000 0.798875 0.638132
O O14 0.213552 0.905880 0.621083
O O15 0.500000 0.299353 0.948822
O O16 0.000000 0.000968 0.423630
O O17 0.761597 0.000000 0.500000
#
# Coordination Sequence:
#
# PCOD8219790 Si02
#       6
#     8   8   8   8   8   8
#     4  10  20  33  49  72 102 136 174 212 253 296
#     4  10  20  34  52  75 105 135 164 203 253 304
#     4   9  19  36  57  79 102 130 163 202 253 307
#     4   9  16  29  52  76  97 129 171 210 248 294
#     4   9  17  31  52  75  98 128 168 207 245 296
#     4   9  15  28  51  74  97 133 177 215 249 292
#
# _framework density 17.632313
#
# number of rings (size 3 to 8) (size 9 to 14) (size 15 to 20)
#    0.000    2.667    1.667    0.500    0.000    2.333 
#    0.000    3.333    0.000    5.000    0.000    0.000 
#    0.000    0.000    0.000    0.000    0.000    0.000 
#
# Total GULP energy -595199.537519 kJ/mol
# GULP energy per Si atom -12399.990365 kJ/mol
# Density = 1.759218 g / cm^3
# Si number density = 17.632313 Si / 1000 Ang^3
#
#
#
# Elastic Constant Matrix: (Units=GPa)
#
#
# Indices 1 2 3 4 5 6 
#
# 1 50.9183 47.4569 43.6299 0.0000 0.0000 0.0000
# 2 47.4569 140.8558 64.6389 0.0000 0.0000 0.0000
# 3 43.6299 64.6389 113.0393 0.0000 0.0000 0.0000
# 4 0.0000 0.0000 0.0000 20.1927 0.0000 0.0000
# 5 0.0000 0.0000 0.0000 0.0000 29.5760 0.0000
# 6 0.0000 0.0000 0.0000 0.0000 0.0000 22.0736
#
#
#
# Elastic Compliance Matrix: (Units=1/GPa)
#
#
# Indices 1 2 3 4 5 6 
#
# 1 0.034244 -0.007419 -0.008975 0.000000 0.000000 0.000000
# 2 -0.007419 0.011232 -0.003560 0.000000 0.000000 0.000000
# 3 -0.008975 -0.003560 0.014346 0.000000 0.000000 0.000000
# 4 0.000000 0.000000 0.000000 0.049523 0.000000 0.000000
# 5 0.000000 0.000000 0.000000 0.000000 0.033811 0.000000
# 6 0.000000 0.000000 0.000000 0.000000 0.000000 0.045303
#
#
# Mechanical properties :
#
#
# Convention : Reuss Voigt Hill
#
# Bulk Modulus (GPa) = 50.21119 68.47387 59.34253
# Shear Modulus (GPa) = 21.27612 24.30763 22.79188
#
# Velocity S-wave (km/s) = 3.47746 3.71696 3.59920
# Velocity P-wave (km/s) = 6.68298 7.57229 7.14150
#
# Compressibility (1/GPa) = 0.01991588
#
# Stress axis : x y z
#
# Youngs Moduli (GPa) = 29.20207 89.02739 69.70576
#
# Poissons Ratio (x) = 0.66048 0.62561
# Poissons Ratio (y) = 0.21665 0.24812
# Poissons Ratio (z) = 0.26209 0.31690
#
# Static dielectric constant tensor:
#      x y z
#    x 3.051290 0.000000 0.000000 
#    y 0.000000 3.326090 0.000000 
#    z 0.000000 0.000000 3.240270 
# 
# 
# High freq. dielectric constant tensor:
#      x y z
#    x 1.660510 0.000000 0.000000 
#    y 0.000000 1.677800 0.000000 
#    z 0.000000 0.000000 1.677990 
# 
# From -- ./inp_files/26282.got.cif
#   From: 2010.03.12/outbox.cif.g09.slc.cpg/sg53_14_cif.got.tgz:26282.got - 2010.04.16 14:36:59.
