data_PCOD8219137
_publ_section_title
;
Structure prediction by ZEFSAII (Michael W. Deem and Ramdas Pophale) SiO2 
 PCOD8219137
Probable space group: P M N A
;
_chemical_formula_sum "Si O2"
_cell_formula_units_Z 64
_cell_length_a 8.988527
_cell_length_b 18.372384
_cell_length_c 20.668156
_cell_angle_alpha 90.000000
_cell_angle_beta 90.000000
_cell_angle_gamma 90.000000
_cell_volume 3413.153122
_symmetry_space_group_name_H-M "P M N A"
_symmetry_group_IT_number 53
_symmetry_cell_setting 'orthorhombic'
loop_
_space_group_symop_operation_xyz
x,y,z
1/2-x,-y,1/2+z
x,-y,-z
1/2-x,y,1/2-z
-x,-y,-z
1/2+x,y,1/2-z
-x,y,z
1/2+x,-y,1/2+z
loop_
_atom_site_type_symbol
_atom_site_label
_atom_site_fract_x
_atom_site_fract_y
_atom_site_fract_z
Si Si1 0.176479 0.788896 0.435313
Si Si2 0.323608 0.044398 0.939528
Si Si3 0.323860 0.705407 0.938448
Si Si4 0.674580 0.711194 0.316321
Si Si5 0.824947 0.793099 0.684317
Si Si6 0.825177 0.039707 0.315349
Si Si7 0.325672 0.456945 0.683571
Si Si8 0.674993 0.539054 0.933533
O O1 0.225111 0.872161 0.444950
O O2 0.236600 0.744588 0.497230
O O3 0.257569 0.759127 0.372701
O O4 0.000000 0.780548 0.426232
O O5 0.500000 0.036799 0.940048
O O6 0.261257 0.009028 0.873647
O O7 0.255921 0.000000 0.000000
O O8 0.500000 0.711924 0.938232
O O9 0.260400 0.745581 0.874897
O O10 0.271653 0.622177 0.938778
O O11 0.750000 0.736979 0.250000
O O12 0.500000 0.725002 0.311104
O O13 0.712305 0.627073 0.330139
O O14 0.750000 0.764544 0.750000
O O15 0.782248 0.876686 0.670662
O O16 0.000000 0.782772 0.691832
O O17 0.750000 0.011123 0.250000
O O18 0.000000 0.030291 0.307340
O O19 0.250000 0.483282 0.750000
O O20 0.500000 0.470724 0.689998
O O21 0.262315 0.503118 0.624878
O O22 0.500000 0.532333 0.919875
O O23 0.719448 0.500000 0.000000
#
# Coordination Sequence:
#
# PCOD8219137 Si02
#       8
#     8   8   8   8   8   8   8   8
#     4  10  19  33  55  79 104 137 175 215 258 305
#     4   9  17  30  51  78 103 131 172 215 252 296
#     4   9  18  32  51  75 102 134 171 209 252 303
#     4  10  21  37  56  78 105 136 171 212 257 309
#     4   9  17  31  50  71  98 132 169 208 250 299
#     4   9  17  30  49  72  98 129 164 204 248 294
#     4  10  21  37  57  79 104 136 173 214 261 313
#     4  10  20  34  53  77 106 138 172 212 257 308
#
# _framework density 18.750988
#
# number of rings (size 3 to 8) (size 9 to 14) (size 15 to 20)
#    0.000    2.500    0.000    2.250    0.000    6.750 
#    0.000    5.000    0.000    3.000    0.000    0.000 
#    0.000    0.000    0.000    0.000    0.000    0.000 
#
# Total GULP energy -793738.553277 kJ/mol
# GULP energy per Si atom -12402.164895 kJ/mol
# Density = 1.870831 g / cm^3
# Si number density = 18.750988 Si / 1000 Ang^3
#
#
#
# Elastic Constant Matrix: (Units=GPa)
#
#
# Indices 1 2 3 4 5 6 
#
# 1 43.0079 41.9476 51.0379 0.0000 0.0000 0.0000
# 2 41.9476 127.4774 101.7249 0.0000 0.0000 0.0000
# 3 51.0379 101.7249 194.6983 0.0000 0.0000 0.0000
# 4 0.0000 0.0000 0.0000 41.5843 0.0000 0.0000
# 5 0.0000 0.0000 0.0000 0.0000 33.8476 0.0000
# 6 0.0000 0.0000 0.0000 0.0000 0.0000 19.0249
#
#
#
# Elastic Compliance Matrix: (Units=1/GPa)
#
#
# Indices 1 2 3 4 5 6 
#
# 1 0.037754 -0.007762 -0.005841 0.000000 0.000000 0.000000
# 2 -0.007762 0.015050 -0.005828 0.000000 0.000000 0.000000
# 3 -0.005841 -0.005828 0.009713 0.000000 0.000000 0.000000
# 4 0.000000 0.000000 0.000000 0.024048 0.000000 0.000000
# 5 0.000000 0.000000 0.000000 0.000000 0.029544 0.000000
# 6 0.000000 0.000000 0.000000 0.000000 0.000000 0.052563
#
#
# Mechanical properties :
#
#
# Convention : Reuss Voigt Hill
#
# Bulk Modulus (GPa) = 42.27804 83.84493 63.06149
# Shear Modulus (GPa) = 23.21065 30.25625 26.73345
#
# Velocity S-wave (km/s) = 3.52211 4.02130 3.77995
# Velocity P-wave (km/s) = 6.25591 8.14697 7.26325
#
# Compressibility (1/GPa) = 0.02365294
#
# Stress axis : x y z
#
# Youngs Moduli (GPa) = 26.48710 66.44708 102.95973
#
# Poissons Ratio (x) = 0.51576 0.60143
# Poissons Ratio (y) = 0.20559 0.60008
# Poissons Ratio (z) = 0.15472 0.38727
#
# Static dielectric constant tensor:
#      x y z
#    x 3.150280 0.000000 0.000000 
#    y 0.000000 3.551370 0.000000 
#    z 0.000000 0.000000 3.630200 
# 
# 
# High freq. dielectric constant tensor:
#      x y z
#    x 1.695940 0.000000 0.000000 
#    y 0.000000 1.731280 0.000000 
#    z 0.000000 0.000000 1.745910 
# 
# From -- ./inp_files/31104.got.cif
#   From: 2010.03.12/outbox.cif.g09.slc.cpg/sg53_16_cif.got.tgz:31104.got - 2010.04.16 14:36:59.
