data_PCOD8219354
_publ_section_title
;
Structure prediction by ZEFSAII (Michael W. Deem and Ramdas Pophale) SiO2 
 PCOD8219354
Probable space group: P M N A
;
_chemical_formula_sum "Si O2"
_cell_formula_units_Z 64
_cell_length_a 14.430674
_cell_length_b 11.643176
_cell_length_c 19.036371
_cell_angle_alpha 90.000000
_cell_angle_beta 90.000000
_cell_angle_gamma 90.000000
_cell_volume 3198.469681
_symmetry_space_group_name_H-M "P M N A"
_symmetry_group_IT_number 53
_symmetry_cell_setting 'orthorhombic'
loop_
_space_group_symop_operation_xyz
x,y,z
1/2-x,-y,1/2+z
x,-y,-z
1/2-x,y,1/2-z
-x,-y,-z
1/2+x,y,1/2-z
-x,y,z
1/2+x,-y,1/2+z
loop_
_atom_site_type_symbol
_atom_site_label
_atom_site_fract_x
_atom_site_fract_y
_atom_site_fract_z
Si Si1 0.100989 0.269058 0.904355
Si Si2 0.774117 0.383747 0.536477
Si Si3 0.783796 0.035031 0.417863
Si Si4 0.897230 0.503038 0.644365
Si Si5 0.604714 0.984174 0.348459
Si Si6 0.391965 0.734674 0.922038
Si Si7 0.858318 0.663197 0.246368
Si Si8 0.396690 0.095221 0.805634
O O1 0.183381 0.305445 0.955893
O O2 0.105715 0.340060 0.832604
O O3 0.000000 0.292599 0.939199
O O4 0.111915 0.136227 0.887848
O O5 0.740990 0.500000 0.500000
O O6 0.822732 0.418870 0.608672
O O7 0.850827 0.313693 0.494032
O O8 0.679331 0.062168 0.390240
O O9 0.842677 0.147926 0.401085
O O10 0.786608 0.000000 0.500000
O O11 0.826501 0.933338 0.369315
O O12 0.872558 0.638316 0.638169
O O13 0.894227 0.459678 0.724361
O O14 0.000000 0.486711 0.611182
O O15 0.500000 0.034495 0.355601
O O16 0.632077 0.970462 0.266442
O O17 0.500000 0.760236 0.932533
O O18 0.750000 0.677090 0.250000
O O19 0.899733 0.768802 0.291138
O O20 0.500000 0.056769 0.828077
#
# Coordination Sequence:
#
# PCOD8219354 Si02
#       8
#     8   8   8   8   8   8   8   8
#     4  10  19  34  57  88 117 142 184 245 294 334
#     4  10  20  36  57  80 112 154 190 225 279 350
#     4  12  24  37  58  89 124 154 194 249 307 354
#     4  10  20  36  58  80 108 148 186 227 281 344
#     4   9  20  40  62  83 112 155 203 247 292 351
#     4  10  23  40  55  80 116 153 193 231 285 355
#     4  11  19  33  58  88 114 142 189 244 292 339
#     4  10  21  37  59  88 118 152 195 244 304 357
#
# _framework density 20.009568000000002
#
# number of rings (size 3 to 8) (size 9 to 14) (size 15 to 20)
#    0.000    1.750    1.250    5.250    1.750    3.000 
#    0.000    1.875    0.000    0.750    0.000    0.000 
#    0.000    0.000    0.000    0.000    0.000    0.000 
#
# Total GULP energy -793341.857410 kJ/mol
# GULP energy per Si atom -12395.966522 kJ/mol
# Density = 1.996403 g / cm^3
# Si number density = 20.009568 Si / 1000 Ang^3
#
#
#
# Elastic Constant Matrix: (Units=GPa)
#
#
# Indices 1 2 3 4 5 6 
#
# 1 146.9257 37.8863 36.5002 0.0000 0.0000 0.0000
# 2 37.8863 67.2455 31.1209 0.0000 0.0000 0.0000
# 3 36.5002 31.1209 72.5528 0.0000 0.0000 0.0000
# 4 0.0000 0.0000 0.0000 23.0488 0.0000 0.0000
# 5 0.0000 0.0000 0.0000 0.0000 228.9302 0.0000
# 6 0.0000 0.0000 0.0000 0.0000 0.0000 35.2027
#
#
#
# Elastic Compliance Matrix: (Units=1/GPa)
#
#
# Indices 1 2 3 4 5 6 
#
# 1 0.008376 -0.003455 -0.002732 0.000000 0.000000 0.000000
# 2 -0.003455 0.019979 -0.006832 0.000000 0.000000 0.000000
# 3 -0.002732 -0.006832 0.018088 0.000000 0.000000 0.000000
# 4 0.000000 0.000000 0.000000 0.043386 0.000000 0.000000
# 5 0.000000 0.000000 0.000000 0.000000 0.004368 0.000000
# 6 0.000000 0.000000 0.000000 0.000000 0.000000 0.028407
#
#
# Mechanical properties :
#
#
# Convention : Reuss Voigt Hill
#
# Bulk Modulus (GPa) = 49.00540 55.30431 52.15485
# Shear Modulus (GPa) = 32.16630 69.51745 50.84187
#
# Velocity S-wave (km/s) = 4.01377 5.90064 5.04618
# Velocity P-wave (km/s) = 6.78415 8.60943 7.75071
#
# Compressibility (1/GPa) = 0.02040592
#
# Stress axis : x y z
#
# Youngs Moduli (GPa) = 119.39420 50.05262 55.28563
#
# Poissons Ratio (x) = 0.17291 0.15103
# Poissons Ratio (y) = 0.41246 0.37770
# Poissons Ratio (z) = 0.32617 0.34195
#
# Static dielectric constant tensor:
#      x y z
#    x 3.914250 0.000000 0.000000 
#    y 0.000000 3.523890 0.000000 
#    z 0.000000 0.000000 3.526740 
# 
# 
# High freq. dielectric constant tensor:
#      x y z
#    x 1.801600 0.000000 0.000000 
#    y 0.000000 1.757120 0.000000 
#    z 0.000000 0.000000 1.762190 
# 
# From -- ./inp_files/28546.got.cif
#   From: 2010.03.12/outbox.cif.g09.slc.cpg/sg53_15_cif.got.tgz:28546.got - 2010.04.16 14:36:59.
