data_PCOD8219028
_publ_section_title
;
Structure prediction by ZEFSAII (Michael W. Deem and Ramdas Pophale) SiO2 
 PCOD8219028
Probable space group: P M N A
;
_chemical_formula_sum "Si O2"
_cell_formula_units_Z 64
_cell_length_a 25.471138
_cell_length_b 9.729150
_cell_length_c 16.638669
_cell_angle_alpha 90.000000
_cell_angle_beta 90.000000
_cell_angle_gamma 90.000000
_cell_volume 4123.270532
_symmetry_space_group_name_H-M "P M N A"
_symmetry_group_IT_number 53
_symmetry_cell_setting 'orthorhombic'
loop_
_space_group_symop_operation_xyz
x,y,z
1/2-x,-y,1/2+z
x,-y,-z
1/2-x,y,1/2-z
-x,-y,-z
1/2+x,y,1/2-z
-x,y,z
1/2+x,-y,1/2+z
loop_
_atom_site_type_symbol
_atom_site_label
_atom_site_fract_x
_atom_site_fract_y
_atom_site_fract_z
Si Si1 0.353312 0.710604 0.667496
Si Si2 0.939593 0.635339 0.956281
Si Si3 0.195806 0.229587 0.704980
Si Si4 0.440661 0.108516 0.565912
Si Si5 0.759360 0.623188 0.940394
Si Si6 0.251808 0.878078 0.054153
Si Si7 0.695140 0.538876 0.796768
Si Si8 0.154795 0.036456 0.835489
O O1 0.408722 0.679116 0.624409
O O2 0.309647 0.636386 0.615217
O O3 0.348548 0.637440 0.755017
O O4 0.343282 0.872983 0.678485
O O5 0.000000 0.618104 0.929150
O O6 0.917414 0.500000 0.000000
O O7 0.933464 0.743988 0.027162
O O8 0.250000 0.248438 0.750000
O O9 0.203883 0.166956 0.616830
O O10 0.171340 0.383301 0.699409
O O11 0.161867 0.117566 0.752303
O O12 0.500000 0.082414 0.595686
O O13 0.402708 0.087560 0.640537
O O14 0.422985 0.000000 0.500000
O O15 0.707111 0.595751 0.886741
O O16 0.769664 0.500000 0.000000
O O17 0.757382 0.757901 0.992519
O O18 0.197680 0.921395 0.097920
O O19 0.274486 0.000000 0.000000
O O20 0.750000 0.542519 0.750000
#
# Coordination Sequence:
#
# PCOD8219028 Si02
#       8
#     8   8   8   8   8   8   8   8
#     4  11  21  31  47  68  94 128 159 191 231 278
#     4  10  21  34  48  70  96 124 160 199 232 267
#     4   9  20  33  45  64  93 123 154 194 232 274
#     4  10  19  33  50  67  94 126 158 194 228 268
#     4  11  20  32  48  66  90 123 162 193 227 276
#     4  11  20  31  48  68  93 124 157 197 234 272
#     4   9  20  33  45  64  91 123 158 193 231 275
#     4  11  21  31  46  69  96 125 160 189 234 279
#
# _framework density 15.521659
#
# number of rings (size 3 to 8) (size 9 to 14) (size 15 to 20)
#    0.000    1.750    3.750    1.500    5.250    1.500 
#    0.000    0.000    0.000    0.000    0.000    0.000 
#    0.000    2.000    0.000    0.125    0.000    0.000 
#
# Total GULP energy -793317.505941 kJ/mol
# GULP energy per Si atom -12395.586030 kJ/mol
# Density = 1.548633 g / cm^3
# Si number density = 15.521659 Si / 1000 Ang^3
#
#
#
# Elastic Constant Matrix: (Units=GPa)
#
#
# Indices 1 2 3 4 5 6 
#
# 1 49.6106 18.0052 26.0568 0.0000 0.0000 0.0000
# 2 18.0052 112.7772 33.7507 0.0000 0.0000 0.0000
# 3 26.0568 33.7507 65.6431 0.0000 0.0000 0.0000
# 4 0.0000 0.0000 0.0000 22.8930 0.0000 0.0000
# 5 0.0000 0.0000 0.0000 0.0000 25.9484 0.0000
# 6 0.0000 0.0000 0.0000 0.0000 0.0000 20.6972
#
#
#
# Elastic Compliance Matrix: (Units=1/GPa)
#
#
# Indices 1 2 3 4 5 6 
#
# 1 0.025612 -0.001237 -0.009531 0.000000 0.000000 0.000000
# 2 -0.001237 0.010539 -0.004928 0.000000 0.000000 0.000000
# 3 -0.009531 -0.004928 0.021551 0.000000 0.000000 0.000000
# 4 0.000000 0.000000 0.000000 0.043681 0.000000 0.000000
# 5 0.000000 0.000000 0.000000 0.000000 0.038538 0.000000
# 6 0.000000 0.000000 0.000000 0.000000 0.000000 0.048316
#
#
# Mechanical properties :
#
#
# Convention : Reuss Voigt Hill
#
# Bulk Modulus (GPa) = 38.00669 42.62847 40.31758
# Shear Modulus (GPa) = 21.89166 23.92226 22.90696
#
# Velocity S-wave (km/s) = 3.75960 3.93009 3.84579
# Velocity P-wave (km/s) = 6.58676 6.93669 6.76399
#
# Compressibility (1/GPa) = 0.02631116
#
# Stress axis : x y z
#
# Youngs Moduli (GPa) = 39.04490 94.88335 46.40222
#
# Poissons Ratio (x) = 0.11735 0.44224
# Poissons Ratio (y) = 0.04829 0.22866
# Poissons Ratio (z) = 0.37212 0.46757
#
# Static dielectric constant tensor:
#      x y z
#    x 2.762280 0.000000 0.000000 
#    y 0.000000 3.236190 0.000000 
#    z 0.000000 0.000000 3.132730 
# 
# 
# High freq. dielectric constant tensor:
#      x y z
#    x 1.552020 0.000000 0.000000 
#    y 0.000000 1.623610 0.000000 
#    z 0.000000 0.000000 1.584410 
# 
# From -- ./inp_files/29734.got.cif
#   From: 2010.03.12/outbox.cif.g09.slc.cpg/sg53_15_cif.got.tgz:29734.got - 2010.04.16 14:36:59.
