data_PCOD8219441
_publ_section_title
;
Structure prediction by ZEFSAII (Michael W. Deem and Ramdas Pophale) SiO2 
 PCOD8219441
Probable space group: P M N A
;
_chemical_formula_sum "Si O2"
_cell_formula_units_Z 48
_cell_length_a 8.902423
_cell_length_b 10.066501
_cell_length_c 28.068397
_cell_angle_alpha 90.000000
_cell_angle_beta 90.000000
_cell_angle_gamma 90.000000
_cell_volume 2515.384484
_symmetry_space_group_name_H-M "P M N A"
_symmetry_group_IT_number 53
_symmetry_cell_setting 'orthorhombic'
loop_
_space_group_symop_operation_xyz
x,y,z
1/2-x,-y,1/2+z
x,-y,-z
1/2-x,y,1/2-z
-x,-y,-z
1/2+x,y,1/2-z
-x,y,z
1/2+x,-y,1/2+z
loop_
_atom_site_type_symbol
_atom_site_label
_atom_site_fract_x
_atom_site_fract_y
_atom_site_fract_z
Si Si1 0.678089 0.371110 0.058744
Si Si2 0.327293 0.560916 0.201765
Si Si3 0.177623 0.977124 0.799790
Si Si4 0.821642 0.717921 0.659669
Si Si5 0.325373 0.191232 0.863942
Si Si6 0.821884 0.334057 0.545017
O O1 0.500000 0.382319 0.061278
O O2 0.731872 0.285836 0.104279
O O3 0.743923 0.521326 0.059809
O O4 0.728414 0.299472 0.009278
O O5 0.250000 0.606335 0.250000
O O6 0.500000 0.548631 0.213613
O O7 0.268485 0.419716 0.183117
O O8 0.294978 0.671031 0.162479
O O9 0.250000 0.024574 0.750000
O O10 0.233308 0.830725 0.812438
O O11 0.000000 0.978246 0.793950
O O12 0.225558 0.075152 0.842063
O O13 0.000000 0.741791 0.664178
O O14 0.500000 0.148631 0.861107
O O15 0.270663 0.218225 0.918448
O O16 0.000000 0.344460 0.548234
#
# Coordination Sequence:
#
# PCOD8219441 Si02
#       6
#     8   8   8   8   8   8
#     4   8  13  25  51  86 117 142 173 219 271 319
#     4  10  20  32  51  79 107 135 174 224 275 324
#     4  12  26  42  57  76 105 147 190 229 275 328
#     4  10  19  35  57  83 112 143 180 224 273 325
#     4  10  19  35  57  83 112 143 180 224 273 325
#     4   8  13  25  51  86 117 142 173 219 271 319
#
# _framework density 19.08257
#
# number of rings (size 3 to 8) (size 9 to 14) (size 15 to 20)
#    0.000    2.333    1.667    3.500    0.000    4.000 
#    0.000    0.833    0.000    6.000    0.000    2.333 
#    0.000    0.000    0.000    0.000    0.000    0.000 
#
# Total GULP energy -594974.098907 kJ/mol
# GULP energy per Si atom -12395.293727 kJ/mol
# Density = 1.903914 g / cm^3
# Si number density = 19.082570 Si / 1000 Ang^3
#
#
#
# Elastic Constant Matrix: (Units=GPa)
#
#
# Indices 1 2 3 4 5 6 
#
# 1 49.3302 21.1858 17.2857 0.0000 0.0000 0.0000
# 2 21.1858 51.7320 -4.8974 0.0000 0.0000 0.0000
# 3 17.2857 -4.8974 89.1931 0.0000 0.0000 0.0000
# 4 0.0000 0.0000 0.0000 33.4980 0.0000 0.0000
# 5 0.0000 0.0000 0.0000 0.0000 17.2573 0.0000
# 6 0.0000 0.0000 0.0000 0.0000 0.0000 19.8730
#
#
#
# Elastic Compliance Matrix: (Units=1/GPa)
#
#
# Indices 1 2 3 4 5 6 
#
# 1 0.027428 -0.011797 -0.005963 0.000000 0.000000 0.000000
# 2 -0.011797 0.024505 0.003632 0.000000 0.000000 0.000000
# 3 -0.005963 0.003632 0.012567 0.000000 0.000000 0.000000
# 4 0.000000 0.000000 0.000000 0.029853 0.000000 0.000000
# 5 0.000000 0.000000 0.000000 0.000000 0.057946 0.000000
# 6 0.000000 0.000000 0.000000 0.000000 0.000000 0.050319
#
#
# Mechanical properties :
#
#
# Convention : Reuss Voigt Hill
#
# Bulk Modulus (GPa) = 27.59158 28.60040 28.09599
# Shear Modulus (GPa) = 20.57989 24.57109 22.57549
#
# Velocity S-wave (km/s) = 3.28756 3.59223 3.44327
# Velocity P-wave (km/s) = 5.37598 5.67678 5.52842
#
# Compressibility (1/GPa) = 0.03624294
#
# Stress axis : x y z
#
# Youngs Moduli (GPa) = 36.45971 40.80733 79.57528
#
# Poissons Ratio (x) = 0.48140 0.47453
# Poissons Ratio (y) = 0.43011 -0.28900
# Poissons Ratio (z) = 0.21742 -0.14820
#
# Static dielectric constant tensor:
#      x y z
#    x 3.037280 0.000000 0.000000 
#    y 0.000000 3.416020 0.000000 
#    z 0.000000 0.000000 3.955970 
# 
# 
# High freq. dielectric constant tensor:
#      x y z
#    x 1.691830 0.000000 0.000000 
#    y 0.000000 1.727840 0.000000 
#    z 0.000000 0.000000 1.763380 
# 
# From -- ./inp_files/37772.got.cif
#   From: 2010.03.12/outbox.cif.g09.slc.cpg/sg53_19_cif.got.tgz:37772.got - 2010.04.16 14:36:59.
