data_PCOD8219336
_publ_section_title
;
Structure prediction by ZEFSAII (Michael W. Deem and Ramdas Pophale) SiO2 
 PCOD8219336
Probable space group: P M N A
;
_chemical_formula_sum "Si O2"
_cell_formula_units_Z 48
_cell_length_a 9.314620
_cell_length_b 14.718888
_cell_length_c 18.889985
_cell_angle_alpha 90.000000
_cell_angle_beta 90.000000
_cell_angle_gamma 90.000000
_cell_volume 2589.832972
_symmetry_space_group_name_H-M "P M N A"
_symmetry_group_IT_number 53
_symmetry_cell_setting 'orthorhombic'
loop_
_space_group_symop_operation_xyz
x,y,z
1/2-x,-y,1/2+z
x,-y,-z
1/2-x,y,1/2-z
-x,-y,-z
1/2+x,y,1/2-z
-x,y,z
1/2+x,-y,1/2+z
loop_
_atom_site_type_symbol
_atom_site_label
_atom_site_fract_x
_atom_site_fract_y
_atom_site_fract_z
Si Si1 0.331437 0.531713 0.176164
Si Si2 0.665290 0.867648 0.446794
Si Si3 0.165877 0.936335 0.898605
Si Si4 0.333871 0.796016 0.817585
Si Si5 0.334481 0.630481 0.918924
Si Si6 0.332217 0.688823 0.069158
O O1 0.250000 0.532136 0.250000
O O2 0.500000 0.516533 0.190914
O O3 0.265743 0.451315 0.126785
O O4 0.301955 0.626543 0.136890
O O5 0.500000 0.838621 0.443512
O O6 0.709406 0.892853 0.526438
O O7 0.758441 0.785226 0.416876
O O8 0.693432 0.955759 0.398078
O O9 0.266502 0.892834 0.838877
O O10 0.000000 0.915110 0.881709
O O11 0.250000 0.756930 0.750000
O O12 0.500000 0.808935 0.798692
O O13 0.309679 0.725915 0.880790
O O14 0.500000 0.604611 0.926661
O O15 0.269054 0.640128 0.998047
O O16 0.500000 0.707216 0.057908
#
# Coordination Sequence:
#
# PCOD8219336 Si02
#       6
#     8   8   8   8   8   8
#     4  10  21  37  56  77 108 145 179 221 270 323
#     4   9  18  33  55  80 107 137 172 220 271 315
#     4   9  18  34  53  76 107 142 176 214 267 322
#     4  11  21  33  52  79 111 145 181 224 272 324
#     4   9  18  34  55  80 106 139 181 222 268 319
#     4  10  19  34  57  83 107 138 183 227 266 316
#
# _framework density 18.534013000000002
#
# number of rings (size 3 to 8) (size 9 to 14) (size 15 to 20)
#    0.000    2.333    1.667    2.500    0.000    3.333 
#    0.000    4.167    0.000    4.000    0.000    0.000 
#    0.000    0.000    0.000    0.000    0.000    0.000 
#
# Total GULP energy -595176.654550 kJ/mol
# GULP energy per Si atom -12399.513636 kJ/mol
# Density = 1.849183 g / cm^3
# Si number density = 18.534013 Si / 1000 Ang^3
#
#
#
# Elastic Constant Matrix: (Units=GPa)
#
#
# Indices 1 2 3 4 5 6 
#
# 1 60.4923 43.2117 28.4993 0.0000 0.0000 0.0000
# 2 43.2117 111.7529 30.9587 0.0000 0.0000 0.0000
# 3 28.4993 30.9587 68.9696 0.0000 0.0000 0.0000
# 4 0.0000 0.0000 0.0000 19.0257 0.0000 0.0000
# 5 0.0000 0.0000 0.0000 0.0000 30.3185 0.0000
# 6 0.0000 0.0000 0.0000 0.0000 0.0000 28.0233
#
#
#
# Elastic Compliance Matrix: (Units=1/GPa)
#
#
# Indices 1 2 3 4 5 6 
#
# 1 0.025471 -0.007918 -0.006971 0.000000 0.000000 0.000000
# 2 -0.007918 0.012680 -0.002420 0.000000 0.000000 0.000000
# 3 -0.006971 -0.002420 0.018466 0.000000 0.000000 0.000000
# 4 0.000000 0.000000 0.000000 0.052560 0.000000 0.000000
# 5 0.000000 0.000000 0.000000 0.000000 0.032983 0.000000
# 6 0.000000 0.000000 0.000000 0.000000 0.000000 0.035685
#
#
# Mechanical properties :
#
#
# Convention : Reuss Voigt Hill
#
# Bulk Modulus (GPa) = 45.45522 49.61714 47.53618
# Shear Modulus (GPa) = 22.74827 24.70983 23.72905
#
# Velocity S-wave (km/s) = 3.50720 3.65528 3.58201
# Velocity P-wave (km/s) = 6.40149 6.68160 6.54305
#
# Compressibility (1/GPa) = 0.02199968
#
# Stress axis : x y z
#
# Youngs Moduli (GPa) = 39.26004 78.86219 54.15363
#
# Poissons Ratio (x) = 0.62442 0.37750
# Poissons Ratio (y) = 0.31085 0.13106
# Poissons Ratio (z) = 0.27368 0.19086
#
# Static dielectric constant tensor:
#      x y z
#    x 3.183380 0.000000 0.000000 
#    y 0.000000 3.409030 0.000000 
#    z 0.000000 0.000000 3.317170 
# 
# 
# High freq. dielectric constant tensor:
#      x y z
#    x 1.696490 0.000000 0.000000 
#    y 0.000000 1.725350 0.000000 
#    z 0.000000 0.000000 1.711340 
# 
# From -- ./inp_files/26160.got.cif
#   From: 2010.03.12/outbox.cif.g09.slc.cpg/sg53_14_cif.got.tgz:26160.got - 2010.04.16 14:36:59.
