data_PCOD8219282
_publ_section_title
;
Structure prediction by ZEFSAII (Michael W. Deem and Ramdas Pophale) SiO2 
 PCOD8219282
Probable space group: P M N A
;
_chemical_formula_sum "Si O2"
_cell_formula_units_Z 64
_cell_length_a 9.152135
_cell_length_b 21.533234
_cell_length_c 17.869455
_cell_angle_alpha 90.000000
_cell_angle_beta 90.000000
_cell_angle_gamma 90.000000
_cell_volume 3521.623998
_symmetry_space_group_name_H-M "P M N A"
_symmetry_group_IT_number 53
_symmetry_cell_setting 'orthorhombic'
loop_
_space_group_symop_operation_xyz
x,y,z
1/2-x,-y,1/2+z
x,-y,-z
1/2-x,y,1/2-z
-x,-y,-z
1/2+x,y,1/2-z
-x,y,z
1/2+x,-y,1/2+z
loop_
_atom_site_type_symbol
_atom_site_label
_atom_site_fract_x
_atom_site_fract_y
_atom_site_fract_z
Si Si1 0.329883 0.064652 0.964290
Si Si2 0.831443 0.503482 0.173931
Si Si3 0.830679 0.620558 0.916162
Si Si4 0.329932 0.727127 0.827049
Si Si5 0.329810 0.243811 0.596729
Si Si6 0.673449 0.120364 0.673666
Si Si7 0.834134 0.809179 0.537316
Si Si8 0.671822 0.620168 0.414728
O O1 0.500000 0.063561 0.940924
O O2 0.232026 0.075399 0.891107
O O3 0.297304 0.118110 0.025797
O O4 0.280276 0.000000 0.000000
O O5 0.750000 0.487252 0.250000
O O6 0.810651 0.448064 0.115899
O O7 0.761175 0.565329 0.135995
O O8 0.000000 0.514137 0.193975
O O9 0.735925 0.667054 0.866804
O O10 0.000000 0.641671 0.913815
O O11 0.767443 0.619302 0.000556
O O12 0.250000 0.740961 0.750000
O O13 0.500000 0.714247 0.811822
O O14 0.305830 0.788816 0.877382
O O15 0.500000 0.236612 0.583763
O O16 0.277338 0.191513 0.655508
O O17 0.261938 0.234082 0.515442
O O18 0.289751 0.313394 0.624129
O O19 0.750000 0.099993 0.750000
O O20 0.500000 0.113211 0.681037
O O21 0.000000 0.796055 0.513764
O O22 0.500000 0.608702 0.420132
#
# Coordination Sequence:
#
# PCOD8219282 Si02
#       8
#     8   8   8   8   8   8   8   8
#     4   9  18  35  59  82 107 142 178 215 262 311
#     4  10  21  35  50  71  99 133 171 213 261 311
#     4  10  19  34  56  75  96 130 173 217 260 308
#     4  11  22  34  51  76 105 134 168 210 258 308
#     4   9  17  31  53  77 100 131 172 213 255 306
#     4  10  20  33  52  80 112 144 179 219 260 307
#     4   9  18  33  52  76 105 133 166 208 253 305
#     4   9  17  32  54  76  98 129 172 214 257 312
#
# _framework density 18.173434
#
# number of rings (size 3 to 8) (size 9 to 14) (size 15 to 20)
#    0.000    2.375    1.250    1.500    0.000    4.750 
#    0.000    1.875    0.000    3.000    0.000    0.000 
#    0.000    0.000    0.000    0.000    0.000    0.000 
#
# Total GULP energy -793531.406113 kJ/mol
# GULP energy per Si atom -12398.928221 kJ/mol
# Density = 1.813207 g / cm^3
# Si number density = 18.173434 Si / 1000 Ang^3
#
#
#
# Elastic Constant Matrix: (Units=GPa)
#
#
# Indices 1 2 3 4 5 6 
#
# 1 57.1138 34.7329 38.3917 0.0000 0.0000 0.0000
# 2 34.7329 108.0856 40.3236 0.0000 0.0000 0.0000
# 3 38.3917 40.3236 91.4404 0.0000 0.0000 0.0000
# 4 0.0000 0.0000 0.0000 21.5231 0.0000 0.0000
# 5 0.0000 0.0000 0.0000 0.0000 25.0473 0.0000
# 6 0.0000 0.0000 0.0000 0.0000 0.0000 1197.2107
#
#
#
# Elastic Compliance Matrix: (Units=1/GPa)
#
#
# Indices 1 2 3 4 5 6 
#
# 1 0.026677 -0.005259 -0.008881 0.000000 0.000000 0.000000
# 2 -0.005259 0.012111 -0.003132 0.000000 0.000000 0.000000
# 3 -0.008881 -0.003132 0.016046 0.000000 0.000000 0.000000
# 4 0.000000 0.000000 0.000000 0.046462 0.000000 0.000000
# 5 0.000000 0.000000 0.000000 0.000000 0.039925 0.000000
# 6 0.000000 0.000000 0.000000 0.000000 0.000000 0.000835
#
#
# Mechanical properties :
#
#
# Convention : Reuss Voigt Hill
#
# Bulk Modulus (GPa) = 49.29000 53.72624 51.50812
# Shear Modulus (GPa) = 27.26811 258.30232 142.78522
#
# Velocity S-wave (km/s) = 3.87775 11.93484 8.87348
# Velocity P-wave (km/s) = 6.87242 14.81714 11.54941
#
# Compressibility (1/GPa) = 0.02028809
#
# Stress axis : x y z
#
# Youngs Moduli (GPa) = 37.48517 82.57235 62.31966
#
# Poissons Ratio (x) = 0.43427 0.55348
# Poissons Ratio (y) = 0.19714 0.19521
# Poissons Ratio (z) = 0.33292 0.25865
#
# Static dielectric constant tensor:
#      x y z
#    x 3.255350 0.000000 0.000000 
#    y 0.000000 3.524160 0.000000 
#    z 0.000000 0.000000 3.333370 
# 
# 
# High freq. dielectric constant tensor:
#      x y z
#    x 1.691060 0.000000 0.000000 
#    y 0.000000 1.706440 0.000000 
#    z 0.000000 0.000000 1.698900 
# 
# From -- ./inp_files/26794.got.cif
#   From: 2010.03.12/outbox.cif.g09.slc.cpg/sg53_14_cif.got.tgz:26794.got - 2010.04.16 14:36:59.
