data_PCOD8219035
_publ_section_title
;
Structure prediction by ZEFSAII (Michael W. Deem and Ramdas Pophale) SiO2 
 PCOD8219035
Probable space group: P M N A
;
_chemical_formula_sum "Si O2"
_cell_formula_units_Z 64
_cell_length_a 8.969508
_cell_length_b 20.714635
_cell_length_c 19.322356
_cell_angle_alpha 90.000000
_cell_angle_beta 90.000000
_cell_angle_gamma 90.000000
_cell_volume 3590.095375
_symmetry_space_group_name_H-M "P M N A"
_symmetry_group_IT_number 53
_symmetry_cell_setting 'orthorhombic'
loop_
_space_group_symop_operation_xyz
x,y,z
1/2-x,-y,1/2+z
x,-y,-z
1/2-x,y,1/2-z
-x,-y,-z
1/2+x,y,1/2-z
-x,y,z
1/2+x,-y,1/2+z
loop_
_atom_site_type_symbol
_atom_site_label
_atom_site_fract_x
_atom_site_fract_y
_atom_site_fract_z
Si Si1 0.678504 0.571655 0.176985
Si Si2 0.174819 0.324348 0.918196
Si Si3 0.168197 0.929035 0.082223
Si Si4 0.672118 0.321361 0.421629
Si Si5 0.667211 0.070420 0.417631
Si Si6 0.322349 0.436980 0.322079
Si Si7 0.834534 0.805793 0.583232
Si Si8 0.332585 0.804648 0.081585
O O1 0.750000 0.592112 0.250000
O O2 0.500000 0.567485 0.183073
O O3 0.725404 0.623685 0.120663
O O4 0.746608 0.503323 0.153205
O O5 0.226373 0.253422 0.893319
O O6 0.000000 0.333279 0.902026
O O7 0.212313 0.334218 0.998737
O O8 0.271005 0.872035 0.113002
O O9 0.000000 0.919321 0.109555
O O10 0.229759 0.999774 0.105353
O O11 0.168348 0.925112 0.999905
O O12 0.500000 0.305968 0.413092
O O13 0.720077 0.384100 0.379013
O O14 0.753220 0.258644 0.390682
O O15 0.500000 0.078129 0.389735
O O16 0.762103 0.129028 0.385561
O O17 0.250000 0.414574 0.250000
O O18 0.500000 0.446353 0.314050
O O19 0.830783 0.808254 0.500763
O O20 0.000000 0.802913 0.612823
O O21 0.500000 0.793533 0.109374
#
# Coordination Sequence:
#
# PCOD8219035 Si02
#       8
#     8   8   8   8   8   8   8   8
#     4  11  22  37  55  75  98 125 156 193 236 283
#     4  10  19  33  51  71  96 128 162 197 235 281
#     4   8  13  21  33  50  74 112 155 191 227 275
#     4   9  19  33  50  70  96 129 162 194 235 286
#     4   8  13  21  33  49  75 112 154 191 228 276
#     4  10  20  36  55  75  97 125 159 195 236 283
#     4   9  16  24  37  58  86 117 152 193 237 278
#     4   9  16  25  37  58  87 118 151 192 237 280
#
# _framework density 17.826823999999998
#
# number of rings (size 3 to 8) (size 9 to 14) (size 15 to 20)
#    0.000    2.750    0.000    4.125    0.000    5.500 
#    0.000    5.000    0.000    0.000    0.000    0.000 
#    0.000    1.000    0.000    5.250    0.000    7.750 
#
# Total GULP energy -793301.224876 kJ/mol
# GULP energy per Si atom -12395.331639 kJ/mol
# Density = 1.778625 g / cm^3
# Si number density = 17.826824 Si / 1000 Ang^3
#
#
#
# Elastic Constant Matrix: (Units=GPa)
#
#
# Indices 1 2 3 4 5 6 
#
# 1 112.2376 77.6769 29.5540 0.0000 0.0000 0.0000
# 2 77.6769 164.4038 49.5436 0.0000 0.0000 0.0000
# 3 29.5540 49.5436 30.7681 0.0000 0.0000 0.0000
# 4 0.0000 0.0000 0.0000 -0.9725 0.0000 0.0000
# 5 0.0000 0.0000 0.0000 0.0000 16.1266 0.0000
# 6 0.0000 0.0000 0.0000 0.0000 0.0000 33.4469
#
#
#
# Elastic Compliance Matrix: (Units=1/GPa)
#
#
# Indices 1 2 3 4 5 6 
#
# 1 0.013670 -0.004860 -0.005305 0.000000 0.000000 0.000000
# 2 -0.004860 0.013545 -0.017141 0.000000 0.000000 0.000000
# 3 -0.005305 -0.017141 0.065198 0.000000 0.000000 0.000000
# 4 0.000000 0.000000 0.000000 -1.028287 0.000000 0.000000
# 5 0.000000 0.000000 0.000000 0.000000 0.062010 0.000000
# 6 0.000000 0.000000 0.000000 0.000000 0.000000 0.029898
#
#
# Mechanical properties :
#
#
# Convention : Reuss Voigt Hill
#
# Bulk Modulus (GPa) = 26.45489 68.99541 47.72515
# Shear Modulus (GPa) = -6.43704 19.76252 6.66274
#
# Velocity S-wave (km/s) = -1.90229 3.33315 1.93535
# Velocity P-wave (km/s) = 3.16973 7.32123 5.64126
#
# Compressibility (1/GPa) = 0.03780020
#
# Stress axis : x y z
#
# Youngs Moduli (GPa) = 73.15223 73.83063 15.33794
#
# Poissons Ratio (x) = 0.35884 0.08136
# Poissons Ratio (y) = 0.35554 0.26291
# Poissons Ratio (z) = 0.38804 1.26555
#
# Static dielectric constant tensor:
#      x y z
#    x 3.452690 0.000000 0.000000 
#    y 0.000000 3.632950 0.000000 
#    z 0.000000 0.000000 2.768980 
# 
# 
# High freq. dielectric constant tensor:
#      x y z
#    x 1.698700 0.000000 0.000000 
#    y 0.000000 1.709900 0.000000 
#    z 0.000000 0.000000 1.620260 
# 
# From -- ./inp_files/27015.got.cif
#   From: 2010.03.12/outbox.cif.g09.slc.cpg/sg53_14_cif.got.tgz:27015.got - 2010.04.16 14:36:59.
