data_PCOD8219481
_publ_section_title
;
Structure prediction by ZEFSAII (Michael W. Deem and Ramdas Pophale) SiO2 
 PCOD8219481
Probable space group: P M N A
;
_chemical_formula_sum "Si O2"
_cell_formula_units_Z 64
_cell_length_a 17.947683
_cell_length_b 20.111200
_cell_length_c 9.533299
_cell_angle_alpha 90.000000
_cell_angle_beta 90.000000
_cell_angle_gamma 90.000000
_cell_volume 3441.038958
_symmetry_space_group_name_H-M "P M N A"
_symmetry_group_IT_number 53
_symmetry_cell_setting 'orthorhombic'
loop_
_space_group_symop_operation_xyz
x,y,z
1/2-x,-y,1/2+z
x,-y,-z
1/2-x,y,1/2-z
-x,-y,-z
1/2+x,y,1/2-z
-x,y,z
1/2+x,-y,1/2+z
loop_
_atom_site_type_symbol
_atom_site_label
_atom_site_fract_x
_atom_site_fract_y
_atom_site_fract_z
Si Si1 0.584206 0.382099 0.188940
Si Si2 0.414144 0.753447 0.665002
Si Si3 0.197608 0.188648 0.948649
Si Si4 0.416201 0.851873 0.917578
Si Si5 0.914705 0.362177 0.634464
Si Si6 0.850694 0.224355 0.656904
Si Si7 0.771229 0.934366 0.590006
Si Si8 0.176691 0.508924 0.336685
O O1 0.500000 0.407526 0.210196
O O2 0.603471 0.321967 0.292009
O O3 0.638381 0.442842 0.223997
O O4 0.594064 0.355405 0.031937
O O5 0.500000 0.761485 0.618562
O O6 0.360531 0.768866 0.536971
O O7 0.395403 0.802490 0.792046
O O8 0.274520 0.229505 0.933527
O O9 0.162062 0.178590 0.794355
O O10 0.214194 0.118829 0.023797
O O11 0.500000 0.880511 0.900690
O O12 0.357176 0.911593 0.918981
O O13 0.413559 0.810839 0.062948
O O14 0.875205 0.298120 0.703166
O O15 0.877890 0.429469 0.689938
O O16 0.000000 0.363754 0.682517
O O17 0.750000 0.948907 0.750000
O O18 0.761453 0.000000 0.500000
O O19 0.195688 0.500000 0.500000
O O20 0.250000 0.523631 0.250000
#
# Coordination Sequence:
#
# PCOD8219481 Si02
#       8
#     8   8   8   8   8   8   8   8
#     4   9  18  35  57  83 108 146 199 244 288 350
#     4  10  19  35  60  86 118 152 193 246 298 345
#     4  10  23  39  57  91 120 155 192 240 296 349
#     4  10  20  38  63  91 120 153 197 245 288 340
#     4  10  19  35  59  83 111 153 198 242 295 349
#     4  10  21  35  59  87 121 153 196 248 290 352
#     4  11  24  41  66  89 121 160 195 238 287 352
#     4  10  22  37  55  79 112 153 192 247 295 348
#
# _framework density 18.599034
#
# number of rings (size 3 to 8) (size 9 to 14) (size 15 to 20)
#    0.000    2.000    2.500    0.750    5.250    4.750 
#    0.000    0.000    0.000    1.500    0.000    0.000 
#    0.000    0.000    0.000    0.000    0.000    0.000 
#
# Total GULP energy -793705.996295 kJ/mol
# GULP energy per Si atom -12401.656192 kJ/mol
# Density = 1.855670 g / cm^3
# Si number density = 18.599034 Si / 1000 Ang^3
#
#
#
# Elastic Constant Matrix: (Units=GPa)
#
#
# Indices 1 2 3 4 5 6 
#
# 1 103.4161 57.8131 53.2329 0.0000 0.0000 0.0000
# 2 57.8131 115.6352 49.5959 0.0000 0.0000 0.0000
# 3 53.2329 49.5959 94.0544 0.0000 0.0000 0.0000
# 4 0.0000 0.0000 0.0000 25.4976 0.0000 0.0000
# 5 0.0000 0.0000 0.0000 0.0000 31.1211 0.0000
# 6 0.0000 0.0000 0.0000 0.0000 0.0000 25.8767
#
#
#
# Elastic Compliance Matrix: (Units=1/GPa)
#
#
# Indices 1 2 3 4 5 6 
#
# 1 0.015773 -0.005243 -0.006162 0.000000 0.000000 0.000000
# 2 -0.005243 0.012918 -0.003845 0.000000 0.000000 0.000000
# 3 -0.006162 -0.003845 0.016147 0.000000 0.000000 0.000000
# 4 0.000000 0.000000 0.000000 0.039219 0.000000 0.000000
# 5 0.000000 0.000000 0.000000 0.000000 0.032133 0.000000
# 6 0.000000 0.000000 0.000000 0.000000 0.000000 0.038645
#
#
# Mechanical properties :
#
#
# Convention : Reuss Voigt Hill
#
# Bulk Modulus (GPa) = 69.74235 70.48771 70.11503
# Shear Modulus (GPa) = 26.30011 26.66332 26.48172
#
# Velocity S-wave (km/s) = 3.76448 3.79038 3.77745
# Velocity P-wave (km/s) = 7.51494 7.55889 7.53695
#
# Compressibility (1/GPa) = 0.01433849
#
# Stress axis : x y z
#
# Youngs Moduli (GPa) = 63.40128 77.41198 61.93002
#
# Poissons Ratio (x) = 0.40584 0.38164
# Poissons Ratio (y) = 0.33239 0.23809
# Poissons Ratio (z) = 0.39071 0.29761
#
# Static dielectric constant tensor:
#      x y z
#    x 3.496340 0.000000 0.000000 
#    y 0.000000 3.320630 0.000000 
#    z 0.000000 0.000000 3.350610 
# 
# 
# High freq. dielectric constant tensor:
#      x y z
#    x 1.728550 0.000000 0.000000 
#    y 0.000000 1.714180 0.000000 
#    z 0.000000 0.000000 1.714110 
# 
# From -- ./inp_files/10216.got.cif
#   From: 2010.03.12/outbox.cif.g09.slc.cpg/sg53_6_cif.got.tgz:10216.got - 2010.04.16 14:36:59.
