data_PCOD8219697
_publ_section_title
;
Structure prediction by ZEFSAII (Michael W. Deem and Ramdas Pophale) SiO2 
 PCOD8219697
Probable space group: P M N A
;
_chemical_formula_sum "Si O2"
_cell_formula_units_Z 64
_cell_length_a 9.180746
_cell_length_b 23.088395
_cell_length_c 17.504621
_cell_angle_alpha 90.000000
_cell_angle_beta 90.000000
_cell_angle_gamma 90.000000
_cell_volume 3710.431583
_symmetry_space_group_name_H-M "P M N A"
_symmetry_group_IT_number 53
_symmetry_cell_setting 'orthorhombic'
loop_
_space_group_symop_operation_xyz
x,y,z
1/2-x,-y,1/2+z
x,-y,-z
1/2-x,y,1/2-z
-x,-y,-z
1/2+x,y,1/2-z
-x,y,z
1/2+x,-y,1/2+z
loop_
_atom_site_type_symbol
_atom_site_label
_atom_site_fract_x
_atom_site_fract_y
_atom_site_fract_z
Si Si1 0.831405 0.182200 0.321494
Si Si2 0.841842 0.462237 0.925075
Si Si3 0.667945 0.135726 0.542642
Si Si4 0.830446 0.241259 0.480332
Si Si5 0.831903 0.077200 0.115266
Si Si6 0.674052 0.565782 0.670076
Si Si7 0.170570 0.047737 0.829032
Si Si8 0.325939 0.361428 0.476781
O O1 0.750000 0.212074 0.250000
O O2 0.801154 0.222390 0.393733
O O3 0.766161 0.118306 0.332447
O O4 0.000000 0.176021 0.302865
O O5 0.765506 0.502743 0.860378
O O6 0.000000 0.445055 0.892075
O O7 0.865608 0.500000 0.000000
O O8 0.763479 0.403473 0.954833
O O9 0.500000 0.155319 0.544884
O O10 0.766562 0.192873 0.537015
O O11 0.695399 0.091640 0.473100
O O12 0.715210 0.101749 0.618305
O O13 0.747849 0.300736 0.493396
O O14 0.000000 0.249056 0.498128
O O15 0.000000 0.087020 0.137703
O O16 0.781214 0.011649 0.129908
O O17 0.750000 0.581395 0.750000
O O18 0.500000 0.563942 0.680566
O O19 0.717091 0.614388 0.607264
O O20 0.250000 0.056305 0.750000
O O21 0.000000 0.046962 0.813884
O O22 0.500000 0.356362 0.482515
#
# Coordination Sequence:
#
# PCOD8219697 Si02
#       8
#     8   8   8   8   8   8   8   8
#     4  10  20  32  45  64  93 127 159 192 233 281
#     4   7  12  26  47  68  90 120 157 189 216 256
#     4   9  18  34  53  70  92 126 164 196 232 285
#     4  10  21  34  48  69  95 122 158 204 244 274
#     4   9  17  31  51  72  94 121 155 194 235 284
#     4   9  17  29  47  73 103 129 153 187 231 276
#     4  10  20  32  49  74  99 122 151 192 242 292
#     4   9  17  31  51  70  90 124 166 197 224 270
#
# _framework density 17.248667000000001
#
# number of rings (size 3 to 8) (size 9 to 14) (size 15 to 20)
#    0.000    2.875    0.000    3.000    0.000    6.000 
#    0.000    3.125    0.000    6.750    0.000    1.750 
#    0.000    0.000    0.000    0.000    0.000    0.000 
#
# Total GULP energy -793157.825324 kJ/mol
# GULP energy per Si atom -12393.091021 kJ/mol
# Density = 1.720941 g / cm^3
# Si number density = 17.248667 Si / 1000 Ang^3
#
#
#
# Elastic Constant Matrix: (Units=GPa)
#
#
# Indices 1 2 3 4 5 6 
#
# 1 46.0363 40.4375 22.1794 0.0000 0.0000 0.0000
# 2 40.4375 122.6232 42.5667 0.0000 0.0000 0.0000
# 3 22.1794 42.5667 61.7661 0.0000 0.0000 0.0000
# 4 0.0000 0.0000 0.0000 14.4782 0.0000 0.0000
# 5 0.0000 0.0000 0.0000 0.0000 25.2145 0.0000
# 6 0.0000 0.0000 0.0000 0.0000 0.0000 16.2223
#
#
#
# Elastic Compliance Matrix: (Units=1/GPa)
#
#
# Indices 1 2 3 4 5 6 
#
# 1 0.031959 -0.008617 -0.005538 0.000000 0.000000 0.000000
# 2 -0.008617 0.013043 -0.005894 0.000000 0.000000 0.000000
# 3 -0.005538 -0.005894 0.022241 0.000000 0.000000 0.000000
# 4 0.000000 0.000000 0.000000 0.069070 0.000000 0.000000
# 5 0.000000 0.000000 0.000000 0.000000 0.039660 0.000000
# 6 0.000000 0.000000 0.000000 0.000000 0.000000 0.061644
#
#
# Mechanical properties :
#
#
# Convention : Reuss Voigt Hill
#
# Bulk Modulus (GPa) = 36.83957 48.97696 42.90826
# Shear Modulus (GPa) = 17.43613 19.53246 18.48430
#
# Velocity S-wave (km/s) = 3.18286 3.36877 3.27714
# Velocity P-wave (km/s) = 5.90862 6.60210 6.26496
#
# Compressibility (1/GPa) = 0.02714473
#
# Stress axis : x y z
#
# Youngs Moduli (GPa) = 31.29037 76.67098 44.96244
#
# Poissons Ratio (x) = 0.66065 0.24899
# Poissons Ratio (y) = 0.26962 0.26503
# Poissons Ratio (z) = 0.17328 0.45193
#
# Static dielectric constant tensor:
#      x y z
#    x 3.046370 0.000000 0.000000 
#    y 0.000000 3.267950 0.000000 
#    z 0.000000 0.000000 3.284880 
# 
# 
# High freq. dielectric constant tensor:
#      x y z
#    x 1.649250 0.000000 0.000000 
#    y 0.000000 1.662080 0.000000 
#    z 0.000000 0.000000 1.651930 
# 
# From -- ./inp_files/26857.got.cif
#   From: 2010.03.12/outbox.cif.g09.slc.cpg/sg53_14_cif.got.tgz:26857.got - 2010.04.16 14:36:59.
