data_PCOD8219879
_publ_section_title
;
Structure prediction by ZEFSAII (Michael W. Deem and Ramdas Pophale) SiO2 
 PCOD8219879
Probable space group: P M N A
;
_chemical_formula_sum "Si O2"
_cell_formula_units_Z 64
_cell_length_a 9.079188
_cell_length_b 15.073053
_cell_length_c 24.585250
_cell_angle_alpha 90.000000
_cell_angle_beta 90.000000
_cell_angle_gamma 90.000000
_cell_volume 3364.518062
_symmetry_space_group_name_H-M "P M N A"
_symmetry_group_IT_number 53
_symmetry_cell_setting 'orthorhombic'
loop_
_space_group_symop_operation_xyz
x,y,z
1/2-x,-y,1/2+z
x,-y,-z
1/2-x,y,1/2-z
-x,-y,-z
1/2+x,y,1/2-z
-x,y,z
1/2+x,-y,1/2+z
loop_
_atom_site_type_symbol
_atom_site_label
_atom_site_fract_x
_atom_site_fract_y
_atom_site_fract_z
Si Si1 0.673984 0.210126 0.390023
Si Si2 0.826775 0.434654 0.695581
Si Si3 0.328454 0.065582 0.304641
Si Si4 0.170421 0.257220 0.492853
Si Si5 0.327037 0.137511 0.694642
Si Si6 0.662445 0.578955 0.535579
Si Si7 0.837246 0.400984 0.153979
Si Si8 0.326780 0.272759 0.881922
O O1 0.500000 0.215715 0.398973
O O2 0.725222 0.126883 0.354158
O O3 0.743705 0.193074 0.450296
O O4 0.723203 0.300907 0.358368
O O5 0.750000 0.395610 0.750000
O O6 0.771596 0.536598 0.688439
O O7 0.788349 0.368926 0.644770
O O8 0.000000 0.437858 0.705269
O O9 0.250000 0.097873 0.250000
O O10 0.500000 0.077956 0.294383
O O11 0.287963 0.964471 0.318896
O O12 0.205612 0.352292 0.468034
O O13 0.224452 0.261988 0.555345
O O14 0.000000 0.233392 0.489489
O O15 0.250000 0.168008 0.750000
O O16 0.500000 0.152797 0.700876
O O17 0.264041 0.195749 0.646491
O O18 0.720845 0.500000 0.500000
O O19 0.500000 0.614013 0.515813
O O20 0.647755 0.547155 0.597200
O O21 0.000000 0.396209 0.181911
O O22 0.500000 0.254556 0.876151
#
# Coordination Sequence:
#
# PCOD8219879 Si02
#       8
#     8   8   8   8   8   8   8   8
#     4   9  19  37  57  79 111 145 177 216 261 315
#     4  11  23  37  52  72 102 139 177 220 268 316
#     4   9  19  36  58  84 110 136 172 217 265 320
#     4  10  20  33  51  77 107 139 179 223 265 311
#     4  10  20  35  58  84 107 136 174 219 271 322
#     4   9  17  30  49  72  98 131 171 212 255 305
#     4   9  18  32  50  73 101 134 170 208 251 300
#     4  10  22  38  54  76 107 142 180 222 267 316
#
# _framework density 19.022040000000001
#
# number of rings (size 3 to 8) (size 9 to 14) (size 15 to 20)
#    0.000    2.375    0.000    3.000    0.000    6.750 
#    0.000    1.875    0.000    3.750    0.000    0.000 
#    0.000    0.000    0.000    0.000    0.000    0.000 
#
# Total GULP energy -792945.353766 kJ/mol
# GULP energy per Si atom -12389.771153 kJ/mol
# Density = 1.897874 g / cm^3
# Si number density = 19.022040 Si / 1000 Ang^3
#
#
#
# Elastic Constant Matrix: (Units=GPa)
#
#
# Indices 1 2 3 4 5 6 
#
# 1 62.2564 35.1603 51.9317 0.0000 0.0000 0.0000
# 2 35.1603 69.4576 45.9905 0.0000 0.0000 0.0000
# 3 51.9317 45.9905 121.8683 0.0000 0.0000 0.0000
# 4 0.0000 0.0000 0.0000 33.1506 0.0000 0.0000
# 5 0.0000 0.0000 0.0000 0.0000 33.9322 0.0000
# 6 0.0000 0.0000 0.0000 0.0000 0.0000 22.3752
#
#
#
# Elastic Compliance Matrix: (Units=1/GPa)
#
#
# Indices 1 2 3 4 5 6 
#
# 1 0.028186 -0.008419 -0.008834 0.000000 0.000000 0.000000
# 2 -0.008419 0.021708 -0.004605 0.000000 0.000000 0.000000
# 3 -0.008834 -0.004605 0.013708 0.000000 0.000000 0.000000
# 4 0.000000 0.000000 0.000000 0.030165 0.000000 0.000000
# 5 0.000000 0.000000 0.000000 0.000000 0.029471 0.000000
# 6 0.000000 0.000000 0.000000 0.000000 0.000000 0.044692
#
#
# Mechanical properties :
#
#
# Convention : Reuss Voigt Hill
#
# Bulk Modulus (GPa) = 50.28412 57.74971 54.01691
# Shear Modulus (GPa) = 22.90702 25.92489 24.41596
#
# Velocity S-wave (km/s) = 3.47398 3.69574 3.58657
# Velocity P-wave (km/s) = 6.52559 6.97399 6.75352
#
# Compressibility (1/GPa) = 0.01988700
#
# Stress axis : x y z
#
# Youngs Moduli (GPa) = 35.47840 46.06622 72.95226
#
# Poissons Ratio (x) = 0.38783 0.64445
# Poissons Ratio (y) = 0.29869 0.33591
# Poissons Ratio (z) = 0.31341 0.21211
#
# Static dielectric constant tensor:
#      x y z
#    x 3.446170 0.000000 0.000000 
#    y 0.000000 3.555090 0.000000 
#    z 0.000000 0.000000 3.828850 
# 
# 
# High freq. dielectric constant tensor:
#      x y z
#    x 1.735550 0.000000 0.000000 
#    y 0.000000 1.723650 0.000000 
#    z 0.000000 0.000000 1.743330 
# 
# From -- ./inp_files/34348.got.cif
#   From: 2010.03.12/outbox.cif.g09.slc.cpg/sg53_18_cif.got.tgz:34348.got - 2010.04.16 14:36:59.
