data_PCOD8219039
_publ_section_title
;
Structure prediction by ZEFSAII (Michael W. Deem and Ramdas Pophale) SiO2 
 PCOD8219039
Probable space group: P M N A
;
_chemical_formula_sum "Si O2"
_cell_formula_units_Z 52
_cell_length_a 9.258227
_cell_length_b 13.649859
_cell_length_c 21.635675
_cell_angle_alpha 90.000000
_cell_angle_beta 90.000000
_cell_angle_gamma 90.000000
_cell_volume 2734.175826
_symmetry_space_group_name_H-M "P M N A"
_symmetry_group_IT_number 53
_symmetry_cell_setting 'orthorhombic'
loop_
_space_group_symop_operation_xyz
x,y,z
1/2-x,-y,1/2+z
x,-y,-z
1/2-x,y,1/2-z
-x,-y,-z
1/2+x,y,1/2-z
-x,y,z
1/2+x,-y,1/2+z
loop_
_atom_site_type_symbol
_atom_site_label
_atom_site_fract_x
_atom_site_fract_y
_atom_site_fract_z
Si Si1 0.327464 0.412178 0.686924
Si Si2 0.269203 0.500000 0.000000
Si Si3 0.329428 0.146859 0.533693
Si Si4 0.839726 0.324946 0.580455
Si Si5 0.834859 0.601228 0.881199
Si Si6 0.669298 0.047914 0.408396
Si Si7 0.327560 0.205595 0.315257
O O1 0.250000 0.385827 0.750000
O O2 0.500000 0.403757 0.692552
O O3 0.270122 0.334131 0.637441
O O4 0.270445 0.518275 0.664253
O O5 0.360862 0.574759 0.041394
O O6 0.179206 0.430050 0.046863
O O7 0.500000 0.173480 0.533326
O O8 0.231550 0.241994 0.538902
O O9 0.274086 0.100921 0.469784
O O10 0.293270 0.068110 0.588692
O O11 0.000000 0.294502 0.602885
O O12 0.771899 0.707284 0.861552
O O13 0.000000 0.607057 0.864975
O O14 0.500000 0.061420 0.410470
O O15 0.725898 0.103338 0.346805
O O16 0.250000 0.217228 0.250000
O O17 0.500000 0.207530 0.305256
#
# Coordination Sequence:
#
# PCOD8219039 Si02
#       7
#     8   4   8   8   8   8   8
#     4  10  20  35  53  74 100 135 174 212 252 302
#     4  10  20  34  52  76 107 142 179 218 265 314
#     4   9  17  34  58  80  99 130 173 219 269 319
#     4  11  22  35  51  76 108 139 170 212 261 311
#     4   9  18  31  52  79 106 135 173 217 261 309
#     4   8  16  32  56  79 101 130 171 218 264 314
#     4  10  19  33  51  77 109 141 174 213 260 318
#
# _framework density 19.018526999999999
#
# number of rings (size 3 to 8) (size 9 to 14) (size 15 to 20)
#    0.000    2.462    0.000    3.692    0.000    3.077 
#    0.000    9.231    0.000    1.846    0.000    0.000 
#    0.000    0.000    0.000    0.000    0.000    0.000 
#
# Total GULP energy -644185.285343 kJ/mol
# GULP energy per Si atom -12388.178564 kJ/mol
# Density = 1.897524 g / cm^3
# Si number density = 19.018527 Si / 1000 Ang^3
#
#
#
# Elastic Constant Matrix: (Units=GPa)
#
#
# Indices 1 2 3 4 5 6 
#
# 1 73.0918 30.7453 26.7341 0.0000 0.0000 0.0000
# 2 30.7453 88.2754 38.0284 0.0000 0.0000 0.0000
# 3 26.7341 38.0284 107.8070 0.0000 0.0000 0.0000
# 4 0.0000 0.0000 0.0000 29.4439 0.0000 0.0000
# 5 0.0000 0.0000 0.0000 0.0000 21.8264 0.0000
# 6 0.0000 0.0000 0.0000 0.0000 0.0000 13.3422
#
#
#
# Elastic Compliance Matrix: (Units=1/GPa)
#
#
# Indices 1 2 3 4 5 6 
#
# 1 0.016558 -0.004715 -0.002443 0.000000 0.000000 0.000000
# 2 -0.004715 0.014700 -0.004016 0.000000 0.000000 0.000000
# 3 -0.002443 -0.004016 0.011298 0.000000 0.000000 0.000000
# 4 0.000000 0.000000 0.000000 0.033963 0.000000 0.000000
# 5 0.000000 0.000000 0.000000 0.000000 0.045816 0.000000
# 6 0.000000 0.000000 0.000000 0.000000 0.000000 0.074950
#
#
# Mechanical properties :
#
#
# Convention : Reuss Voigt Hill
#
# Bulk Modulus (GPa) = 49.48296 51.13221 50.30759
# Shear Modulus (GPa) = 22.08768 24.50025 23.29396
#
# Velocity S-wave (km/s) = 3.41160 3.59309 3.50352
# Velocity P-wave (km/s) = 6.44930 6.64511 6.54794
#
# Compressibility (1/GPa) = 0.02020898
#
# Stress axis : x y z
#
# Youngs Moduli (GPa) = 60.39331 68.02522 88.50783
#
# Poissons Ratio (x) = 0.32071 0.21623
# Poissons Ratio (y) = 0.28473 0.35548
# Poissons Ratio (z) = 0.14755 0.27322
#
# Static dielectric constant tensor:
#      x y z
#    x 3.104940 0.000000 0.000000 
#    y 0.000000 3.850860 0.000000 
#    z 0.000000 0.000000 3.579880 
# 
# 
# High freq. dielectric constant tensor:
#      x y z
#    x 1.706710 0.000000 0.000000 
#    y 0.000000 1.742510 0.000000 
#    z 0.000000 0.000000 1.733760 
# 
# From -- ./inp_files/30657.got.cif
#   From: 2010.03.12/outbox.cif.g09.slc.cpg/sg53_16_cif.got.tgz:30657.got - 2010.04.16 14:36:59.
