data_PCOD8219366
_publ_section_title
;
Structure prediction by ZEFSAII (Michael W. Deem and Ramdas Pophale) SiO2 
 PCOD8219366
Probable space group: P M N A
;
_chemical_formula_sum "Si O2"
_cell_formula_units_Z 56
_cell_length_a 9.009407
_cell_length_b 17.473334
_cell_length_c 19.312174
_cell_angle_alpha 90.000000
_cell_angle_beta 90.000000
_cell_angle_gamma 90.000000
_cell_volume 3040.206973
_symmetry_space_group_name_H-M "P M N A"
_symmetry_group_IT_number 53
_symmetry_cell_setting 'orthorhombic'
loop_
_space_group_symop_operation_xyz
x,y,z
1/2-x,-y,1/2+z
x,-y,-z
1/2-x,y,1/2-z
-x,-y,-z
1/2+x,y,1/2-z
-x,y,z
1/2+x,-y,1/2+z
loop_
_atom_site_type_symbol
_atom_site_label
_atom_site_fract_x
_atom_site_fract_y
_atom_site_fract_z
Si Si1 0.175719 0.811714 0.678808
Si Si2 0.324790 0.600500 0.323956
Si Si3 0.175999 0.939506 0.901853
Si Si4 0.830329 0.690138 0.564847
Si Si5 0.175439 0.101501 0.945319
Si Si6 0.324708 0.268596 0.574583
Si Si7 0.329950 0.516304 0.921853
O O1 0.250000 0.785559 0.750000
O O2 0.236872 0.895285 0.658128
O O3 0.226924 0.750084 0.621739
O O4 0.000000 0.814803 0.687772
O O5 0.250000 0.597396 0.250000
O O6 0.500000 0.596213 0.314601
O O7 0.274281 0.679362 0.361070
O O8 0.274077 0.528681 0.369222
O O9 0.000000 0.930157 0.890603
O O10 0.227109 0.028872 0.899380
O O11 0.229733 0.905444 0.975477
O O12 0.736047 0.695854 0.495638
O O13 0.812318 0.605530 0.596144
O O14 0.000000 0.707130 0.545039
O O15 0.235000 0.181620 0.913765
O O16 0.000000 0.099151 0.947347
O O17 0.500000 0.268219 0.567115
O O18 0.500000 0.488854 0.912676
O O19 0.276758 0.500000 0.000000
#
# Coordination Sequence:
#
# PCOD8219366 Si02
#       7
#     8   8   8   8   8   8   8
#     4  11  23  37  53  77 112 149 187 229 280 334
#     4  11  24  39  58  84 115 150 187 229 278 333
#     4   9  16  31  55  80 108 143 181 223 273 327
#     4  10  21  36  56  84 112 143 184 230 280 331
#     4   8  15  29  54  84 109 139 179 223 271 324
#     4  10  19  34  58  85 112 145 187 229 271 328
#     4  10  20  37  61  85 114 148 182 227 281 334
#
# _framework density 18.419799999999999
#
# number of rings (size 3 to 8) (size 9 to 14) (size 15 to 20)
#    0.000    2.143    2.857    1.714    0.000    2.571 
#    0.000    4.286    0.000    1.714    0.000    0.000 
#    0.000    0.000    0.000    0.000    0.000    0.000 
#
# Total GULP energy -694375.183412 kJ/mol
# GULP energy per Si atom -12399.556847 kJ/mol
# Density = 1.837788 g / cm^3
# Si number density = 18.419800 Si / 1000 Ang^3
#
#
#
# Elastic Constant Matrix: (Units=GPa)
#
#
# Indices 1 2 3 4 5 6 
#
# 1 47.6958 34.0938 42.8826 0.0000 0.0000 0.0000
# 2 34.0938 125.8885 56.1914 0.0000 0.0000 0.0000
# 3 42.8826 56.1914 120.2311 0.0000 0.0000 0.0000
# 4 0.0000 0.0000 0.0000 26.9312 0.0000 0.0000
# 5 0.0000 0.0000 0.0000 0.0000 25.8266 0.0000
# 6 0.0000 0.0000 0.0000 0.0000 0.0000 -31.3388
#
#
#
# Elastic Compliance Matrix: (Units=1/GPa)
#
#
# Indices 1 2 3 4 5 6 
#
# 1 0.032874 -0.004637 -0.009558 0.000000 0.000000 0.000000
# 2 -0.004637 0.010691 -0.003343 0.000000 0.000000 0.000000
# 3 -0.009558 -0.003343 0.013289 0.000000 0.000000 0.000000
# 4 0.000000 0.000000 0.000000 0.037132 0.000000 0.000000
# 5 0.000000 0.000000 0.000000 0.000000 0.038720 0.000000
# 6 0.000000 0.000000 0.000000 0.000000 0.000000 -0.031909
#
#
# Mechanical properties :
#
#
# Convention : Reuss Voigt Hill
#
# Bulk Modulus (GPa) = 45.91657 62.23902 54.07779
# Shear Modulus (GPa) = 34.93280 14.99365 24.96322
#
# Velocity S-wave (km/s) = 4.35958 2.85616 3.68535
# Velocity P-wave (km/s) = 7.09389 6.68875 6.89430
#
# Compressibility (1/GPa) = 0.02177863
#
# Stress axis : x y z
#
# Youngs Moduli (GPa) = 30.41893 93.53241 75.25142
#
# Poissons Ratio (x) = 0.43369 0.71926
# Poissons Ratio (y) = 0.14105 0.25156
# Poissons Ratio (z) = 0.29075 0.31268
#
# Static dielectric constant tensor:
#      x y z
#    x 3.206820 0.000000 0.000000 
#    y 0.000000 3.858230 0.000000 
#    z 0.000000 0.000000 3.241310 
# 
# 
# High freq. dielectric constant tensor:
#      x y z
#    x 1.698430 0.000000 0.000000 
#    y 0.000000 1.731460 0.000000 
#    z 0.000000 0.000000 1.696620 
# 
# From -- ./inp_files/31047.got.cif
#   From: 2010.03.12/outbox.cif.g09.slc.cpg/sg53_16_cif.got.tgz:31047.got - 2010.04.16 14:36:59.
