data_PCOD8219265
_publ_section_title
;
Structure prediction by ZEFSAII (Michael W. Deem and Ramdas Pophale) SiO2 
 PCOD8219265
Probable space group: P M N A
;
_chemical_formula_sum "Si O2"
_cell_formula_units_Z 64
_cell_length_a 9.213905
_cell_length_b 11.869871
_cell_length_c 31.263713
_cell_angle_alpha 90.000000
_cell_angle_beta 90.000000
_cell_angle_gamma 90.000000
_cell_volume 3419.245504
_symmetry_space_group_name_H-M "P M N A"
_symmetry_group_IT_number 53
_symmetry_cell_setting 'orthorhombic'
loop_
_space_group_symop_operation_xyz
x,y,z
1/2-x,-y,1/2+z
x,-y,-z
1/2-x,y,1/2-z
-x,-y,-z
1/2+x,y,1/2-z
-x,y,z
1/2+x,-y,1/2+z
loop_
_atom_site_type_symbol
_atom_site_label
_atom_site_fract_x
_atom_site_fract_y
_atom_site_fract_z
Si Si1 0.333107 0.882419 0.869891
Si Si2 0.831365 0.258596 0.791349
Si Si3 0.832711 0.624827 0.516255
Si Si4 0.828306 0.252020 0.945715
Si Si5 0.170668 0.410592 0.868976
Si Si6 0.667623 0.628246 0.886972
Si Si7 0.168935 0.027957 0.548500
Si Si8 0.670701 0.998376 0.706950
O O1 0.500000 0.909794 0.858351
O O2 0.302655 0.749454 0.866464
O O3 0.228850 0.937117 0.835078
O O4 0.300626 0.925484 0.918364
O O5 0.750000 0.305199 0.750000
O O6 0.775231 0.330650 0.831062
O O7 0.000000 0.275440 0.783313
O O8 0.793027 0.129061 0.800130
O O9 0.806068 0.500000 0.500000
O O10 0.732408 0.712936 0.491640
O O11 0.778867 0.631454 0.564466
O O12 0.000000 0.662498 0.511153
O O13 0.780514 0.348961 0.912511
O O14 0.758532 0.133085 0.932816
O O15 0.000000 0.237024 0.946842
O O16 0.243692 0.531948 0.862528
O O17 0.000000 0.428779 0.867909
O O18 0.500000 0.594397 0.884767
O O19 0.000000 0.060039 0.547609
O O20 0.221307 0.000000 0.500000
O O21 0.750000 0.954078 0.750000
O O22 0.500000 0.975247 0.711752
#
# Coordination Sequence:
#
# PCOD8219265 Si02
#       8
#     8   8   8   8   8   8   8   8
#     4  10  21  37  57  82 113 149 191 238 286 334
#     4   9  19  36  57  82 110 138 169 214 268 324
#     4  10  19  34  55  77 106 146 191 232 272 321
#     4  11  22  34  53  81 112 142 180 230 280 331
#     4  10  21  36  53  78 112 143 174 216 269 323
#     4  10  21  37  56  79 108 145 190 233 269 319
#     4  10  21  38  58  79 110 151 193 236 282 336
#     4  10  20  37  62  88 115 144 182 229 282 342
#
# _framework density 18.717580000000002
#
# number of rings (size 3 to 8) (size 9 to 14) (size 15 to 20)
#    0.000    2.000    1.250    2.250    0.000    6.500 
#    0.000    1.875    0.000    1.500    0.000    0.000 
#    0.000    0.000    0.000    0.000    0.000    0.000 
#
# Total GULP energy -793759.881586 kJ/mol
# GULP energy per Si atom -12402.498150 kJ/mol
# Density = 1.867498 g / cm^3
# Si number density = 18.717580 Si / 1000 Ang^3
#
#
#
# Elastic Constant Matrix: (Units=GPa)
#
#
# Indices 1 2 3 4 5 6 
#
# 1 62.2857 43.9524 45.0502 0.0000 0.0000 0.0000
# 2 43.9524 90.6416 42.0510 0.0000 0.0000 0.0000
# 3 45.0502 42.0510 114.3069 0.0000 0.0000 0.0000
# 4 0.0000 0.0000 0.0000 29.3175 0.0000 0.0000
# 5 0.0000 0.0000 0.0000 0.0000 29.3557 0.0000
# 6 0.0000 0.0000 0.0000 0.0000 0.0000 33.6432
#
#
#
# Elastic Compliance Matrix: (Units=1/GPa)
#
#
# Indices 1 2 3 4 5 6 
#
# 1 0.028936 -0.010539 -0.007527 0.000000 0.000000 0.000000
# 2 -0.010539 0.017142 -0.002152 0.000000 0.000000 0.000000
# 3 -0.007527 -0.002152 0.012507 0.000000 0.000000 0.000000
# 4 0.000000 0.000000 0.000000 0.034109 0.000000 0.000000
# 5 0.000000 0.000000 0.000000 0.000000 0.034065 0.000000
# 6 0.000000 0.000000 0.000000 0.000000 0.000000 0.029724
#
#
# Mechanical properties :
#
#
# Convention : Reuss Voigt Hill
#
# Bulk Modulus (GPa) = 55.10486 58.81568 56.96027
# Shear Modulus (GPa) = 24.63427 27.54199 26.08813
#
# Velocity S-wave (km/s) = 3.63175 3.84011 3.73738
# Velocity P-wave (km/s) = 6.86223 7.15212 7.00868
#
# Compressibility (1/GPa) = 0.01814722
#
# Stress axis : x y z
#
# Youngs Moduli (GPa) = 34.55843 58.33788 79.95709
#
# Poissons Ratio (x) = 0.61484 0.60185
# Poissons Ratio (y) = 0.36422 0.17209
# Poissons Ratio (z) = 0.26013 0.12556
#
# Static dielectric constant tensor:
#      x y z
#    x 3.325180 0.000000 0.000000 
#    y 0.000000 3.449310 0.000000 
#    z 0.000000 0.000000 3.561370 
# 
# 
# High freq. dielectric constant tensor:
#      x y z
#    x 1.721120 0.000000 0.000000 
#    y 0.000000 1.727850 0.000000 
#    z 0.000000 0.000000 1.724430 
# 
# From -- ./inp_files/38182.got.cif
#   From: 2010.03.12/outbox.cif.g09.slc.cpg/sg53_20_cif.got.tgz:38182.got - 2010.04.16 14:36:59.
