data_PCOD8219576
_publ_section_title
;
Structure prediction by ZEFSAII (Michael W. Deem and Ramdas Pophale) SiO2 
 PCOD8219576
Probable space group: P M N A
;
_chemical_formula_sum "Si O2"
_cell_formula_units_Z 48
_cell_length_a 8.597619
_cell_length_b 10.199083
_cell_length_c 27.741609
_cell_angle_alpha 90.000000
_cell_angle_beta 90.000000
_cell_angle_gamma 90.000000
_cell_volume 2432.601488
_symmetry_space_group_name_H-M "P M N A"
_symmetry_group_IT_number 53
_symmetry_cell_setting 'orthorhombic'
loop_
_space_group_symop_operation_xyz
x,y,z
1/2-x,-y,1/2+z
x,-y,-z
1/2-x,y,1/2-z
-x,-y,-z
1/2+x,y,1/2-z
-x,y,z
1/2+x,-y,1/2+z
loop_
_atom_site_type_symbol
_atom_site_label
_atom_site_fract_x
_atom_site_fract_y
_atom_site_fract_z
Si Si1 0.684319 0.727514 0.849721
Si Si2 0.682369 0.373348 0.442934
Si Si3 0.683029 0.538060 0.198166
Si Si4 0.819190 0.652331 0.457006
Si Si5 0.317421 0.017479 0.301703
Si Si6 0.180828 0.211336 0.638924
O O1 0.500000 0.729882 0.855355
O O2 0.760587 0.730059 0.902798
O O3 0.747539 0.597783 0.823057
O O4 0.738077 0.848533 0.817803
O O5 0.500000 0.396997 0.439061
O O6 0.769205 0.511710 0.435426
O O7 0.722443 0.312841 0.495205
O O8 0.750000 0.566111 0.250000
O O9 0.500000 0.530102 0.201410
O O10 0.737736 0.656737 0.164726
O O11 0.789364 0.767053 0.418021
O O12 0.000000 0.643240 0.470221
O O13 0.250000 0.973116 0.250000
O O14 0.500000 0.038739 0.297036
O O15 0.282606 0.908485 0.341945
O O16 0.000000 0.182079 0.649526
#
# Coordination Sequence:
#
# PCOD8219576 Si02
#       6
#     8   8   8   8   8   8
#     4  11  22  41  63  86 118 160 204 250 301 359
#     4  11  21  34  57  92 127 157 197 247 304 360
#     4  10  21  36  57  86 115 147 194 247 298 351
#     4  10  19  36  61  88 122 161 202 245 299 361
#     4  12  26  43  62  88 121 163 204 247 302 362
#     4  10  21  40  62  88 118 157 203 247 298 357
#
# _framework density 19.731961999999999
#
# number of rings (size 3 to 8) (size 9 to 14) (size 15 to 20)
#    0.000    1.333    1.667    6.000    0.000    6.000 
#    0.000    0.833    0.000    5.000    0.000    0.000 
#    0.000    0.000    0.000    0.000    0.000    0.000 
#
# Total GULP energy -595401.708628 kJ/mol
# GULP energy per Si atom -12404.202263 kJ/mol
# Density = 1.968705 g / cm^3
# Si number density = 19.731962 Si / 1000 Ang^3
#
#
#
# Elastic Constant Matrix: (Units=GPa)
#
#
# Indices 1 2 3 4 5 6 
#
# 1 73.4629 15.8717 19.6658 0.0000 0.0000 0.0000
# 2 15.8717 63.4443 5.6351 0.0000 0.0000 0.0000
# 3 19.6658 5.6351 80.5981 0.0000 0.0000 0.0000
# 4 0.0000 0.0000 0.0000 27.4217 0.0000 0.0000
# 5 0.0000 0.0000 0.0000 0.0000 33.6627 0.0000
# 6 0.0000 0.0000 0.0000 0.0000 0.0000 26.2695
#
#
#
# Elastic Compliance Matrix: (Units=1/GPa)
#
#
# Indices 1 2 3 4 5 6 
#
# 1 0.015307 -0.003519 -0.003489 0.000000 0.000000 0.000000
# 2 -0.003519 0.016670 -0.000307 0.000000 0.000000 0.000000
# 3 -0.003489 -0.000307 0.013280 0.000000 0.000000 0.000000
# 4 0.000000 0.000000 0.000000 0.036467 0.000000 0.000000
# 5 0.000000 0.000000 0.000000 0.000000 0.029706 0.000000
# 6 0.000000 0.000000 0.000000 0.000000 0.000000 0.038067
#
#
# Mechanical properties :
#
#
# Convention : Reuss Voigt Hill
#
# Bulk Modulus (GPa) = 32.65155 33.31671 32.98413
# Shear Modulus (GPa) = 28.68038 29.22632 28.95335
#
# Velocity S-wave (km/s) = 3.81661 3.85277 3.83473
# Velocity P-wave (km/s) = 6.00046 6.05913 6.02987
#
# Compressibility (1/GPa) = 0.03062642
#
# Stress axis : x y z
#
# Youngs Moduli (GPa) = 65.33139 59.98975 75.30161
#
# Poissons Ratio (x) = 0.21112 0.26271
# Poissons Ratio (y) = 0.22992 0.02310
# Poissons Ratio (z) = 0.22792 0.01840
#
# Static dielectric constant tensor:
#      x y z
#    x 3.554020 0.000000 0.000000 
#    y 0.000000 3.497900 0.000000 
#    z 0.000000 0.000000 3.993930 
# 
# 
# High freq. dielectric constant tensor:
#      x y z
#    x 1.773040 0.000000 0.000000 
#    y 0.000000 1.750720 0.000000 
#    z 0.000000 0.000000 1.784880 
# 
# From -- ./inp_files/37769.got.cif
#   From: 2010.03.12/outbox.cif.g09.slc.cpg/sg53_19_cif.got.tgz:37769.got - 2010.04.16 14:36:59.
