data_PCOD8219021
_publ_section_title
;
Structure prediction by ZEFSAII (Michael W. Deem and Ramdas Pophale) SiO2 
 PCOD8219021
Probable space group: P M N A
;
_chemical_formula_sum "Si O2"
_cell_formula_units_Z 56
_cell_length_a 8.768656
_cell_length_b 17.800710
_cell_length_c 22.472804
_cell_angle_alpha 90.000000
_cell_angle_beta 90.000000
_cell_angle_gamma 90.000000
_cell_volume 3507.741830
_symmetry_space_group_name_H-M "P M N A"
_symmetry_group_IT_number 53
_symmetry_cell_setting 'orthorhombic'
loop_
_space_group_symop_operation_xyz
x,y,z
1/2-x,-y,1/2+z
x,-y,-z
1/2-x,y,1/2-z
-x,-y,-z
1/2+x,y,1/2-z
-x,y,z
1/2+x,-y,1/2+z
loop_
_atom_site_type_symbol
_atom_site_label
_atom_site_fract_x
_atom_site_fract_y
_atom_site_fract_z
Si Si1 0.822120 0.168897 0.474317
Si Si2 0.668809 0.030216 0.433399
Si Si3 0.179998 0.129611 0.900655
Si Si4 0.681089 0.320390 0.469383
Si Si5 0.832713 0.475546 0.067810
Si Si6 0.681330 0.632005 0.398381
Si Si7 0.319871 0.247525 0.814747
O O1 0.783637 0.100730 0.428653
O O2 0.730628 0.159426 0.535268
O O3 0.767824 0.247058 0.444692
O O4 0.000000 0.169785 0.487816
O O5 0.500000 0.057723 0.414748
O O6 0.665208 0.000000 0.500000
O O7 0.719927 0.959228 0.392861
O O8 0.266966 0.173342 0.849273
O O9 0.000000 0.144219 0.895329
O O10 0.500000 0.313019 0.460421
O O11 0.746461 0.392957 0.432078
O O12 0.721529 0.329311 0.538955
O O13 0.753555 0.545354 0.102641
O O14 0.000000 0.465369 0.095877
O O15 0.851297 0.500000 0.000000
O O16 0.500000 0.632660 0.388253
O O17 0.764303 0.676735 0.346526
O O18 0.250000 0.244718 0.750000
O O19 0.500000 0.248224 0.810536
#
# Coordination Sequence:
#
# PCOD8219021 Si02
#       7
#     8   8   8   8   8   8   8
#     4  11  19  25  39  65  94 120 148 180 217 262
#     4   8  16  29  44  60  81 113 149 180 217 265
#     4  10  19  33  48  61  82 114 150 188 227 264
#     4   9  15  25  43  63  89 121 151 179 213 262
#     4   7  12  23  41  64  83 111 150 180 212 260
#     4   9  16  29  47  63  85 115 149 187 224 261
#     4  12  24  35  48  66  88 116 153 190 227 265
#
# _framework density 15.964688000000001
#
# number of rings (size 3 to 8) (size 9 to 14) (size 15 to 20)
#    0.000    2.571    1.429    5.571    0.000    3.143 
#    0.000    0.714    0.000    2.571    0.000    0.000 
#    0.000    1.143    0.000    5.429    0.000    4.714 
#
# Total GULP energy -693783.175562 kJ/mol
# GULP energy per Si atom -12388.985278 kJ/mol
# Density = 1.592835 g / cm^3
# Si number density = 15.964688 Si / 1000 Ang^3
#
#
#
# Elastic Constant Matrix: (Units=GPa)
#
#
# Indices 1 2 3 4 5 6 
#
# 1 64.6490 43.9890 19.9564 0.0000 0.0000 0.0000
# 2 43.9890 153.6519 39.2243 0.0000 0.0000 0.0000
# 3 19.9564 39.2243 46.9380 0.0000 0.0000 0.0000
# 4 0.0000 0.0000 0.0000 13.2524 0.0000 0.0000
# 5 0.0000 0.0000 0.0000 0.0000 15.1167 0.0000
# 6 0.0000 0.0000 0.0000 0.0000 0.0000 -0.3807
#
#
#
# Elastic Compliance Matrix: (Units=1/GPa)
#
#
# Indices 1 2 3 4 5 6 
#
# 1 0.020003 -0.004520 -0.004728 0.000000 0.000000 0.000000
# 2 -0.004520 0.009294 -0.005845 0.000000 0.000000 0.000000
# 3 -0.004728 -0.005845 0.028199 0.000000 0.000000 0.000000
# 4 0.000000 0.000000 0.000000 0.075458 0.000000 0.000000
# 5 0.000000 0.000000 0.000000 0.000000 0.066152 0.000000
# 6 0.000000 0.000000 0.000000 0.000000 0.000000 -2.626434
#
#
# Mechanical properties :
#
#
# Convention : Reuss Voigt Hill
#
# Bulk Modulus (GPa) = 36.61469 52.39758 44.50614
# Shear Modulus (GPa) = -2.09377 16.40229 7.15426
#
# Velocity S-wave (km/s) = -1.14645 3.20880 2.11921
# Velocity P-wave (km/s) = 4.60783 6.82794 5.82464
#
# Compressibility (1/GPa) = 0.02731144
#
# Stress axis : x y z
#
# Youngs Moduli (GPa) = 49.99286 107.59198 35.46178
#
# Poissons Ratio (x) = 0.48629 0.16765
# Poissons Ratio (y) = 0.22596 0.20728
# Poissons Ratio (z) = 0.23634 0.62891
#
# Static dielectric constant tensor:
#      x y z
#    x 2.875170 0.000000 0.000000 
#    y 0.000000 3.672590 0.000000 
#    z 0.000000 0.000000 2.562960 
# 
# 
# High freq. dielectric constant tensor:
#      x y z
#    x 1.601680 0.000000 0.000000 
#    y 0.000000 1.639030 0.000000 
#    z 0.000000 0.000000 1.538530 
# 
# From -- ./inp_files/30994.got.cif
#   From: 2010.03.12/outbox.cif.g09.slc.cpg/sg53_16_cif.got.tgz:30994.got - 2010.04.16 14:36:59.
