data_PCOD8219777
_publ_section_title
;
Structure prediction by ZEFSAII (Michael W. Deem and Ramdas Pophale) SiO2 
 PCOD8219777
Probable space group: P M N A
;
_chemical_formula_sum "Si O2"
_cell_formula_units_Z 64
_cell_length_a 9.237620
_cell_length_b 21.093907
_cell_length_c 19.306869
_cell_angle_alpha 90.000000
_cell_angle_beta 90.000000
_cell_angle_gamma 90.000000
_cell_volume 3762.088172
_symmetry_space_group_name_H-M "P M N A"
_symmetry_group_IT_number 53
_symmetry_cell_setting 'orthorhombic'
loop_
_space_group_symop_operation_xyz
x,y,z
1/2-x,-y,1/2+z
x,-y,-z
1/2-x,y,1/2-z
-x,-y,-z
1/2+x,y,1/2-z
-x,y,z
1/2+x,-y,1/2+z
loop_
_atom_site_type_symbol
_atom_site_label
_atom_site_fract_x
_atom_site_fract_y
_atom_site_fract_z
Si Si1 0.336962 0.585128 0.063480
Si Si2 0.660958 0.666432 0.625923
Si Si3 0.836676 0.298230 0.964775
Si Si4 0.337811 0.448960 0.096930
Si Si5 0.833182 0.936378 0.956673
Si Si6 0.842311 0.220310 0.346731
Si Si7 0.327199 0.080129 0.182729
Si Si8 0.162319 0.818070 0.496023
O O1 0.500000 0.602363 0.086886
O O2 0.232508 0.644272 0.079715
O O3 0.282159 0.521808 0.103719
O O4 0.336483 0.571160 0.982493
O O5 0.500000 0.659113 0.654005
O O6 0.664497 0.684457 0.545468
O O7 0.738644 0.599259 0.640231
O O8 0.733601 0.722602 0.670931
O O9 0.000000 0.287410 0.938662
O O10 0.745080 0.234351 0.949619
O O11 0.500000 0.443832 0.126383
O O12 0.745993 0.948908 0.885672
O O13 0.756395 0.882155 0.002372
O O14 0.000000 0.916775 0.940821
O O15 0.827297 0.000000 0.000000
O O16 0.789768 0.154787 0.313261
O O17 0.852558 0.210734 0.428380
O O18 0.000000 0.239238 0.317995
O O19 0.250000 0.048838 0.250000
O O20 0.500000 0.067402 0.181413
O O21 0.000000 0.831455 0.466497
#
# Coordination Sequence:
#
# PCOD8219777 Si02
#       8
#     8   8   8   8   8   8   8   8
#     4   8  13  20  28  38  54  81 117 154 194 239
#     4   9  15  20  29  45  63  86 118 158 200 239
#     4   9  15  21  30  45  65  89 119 159 204 245
#     4   8  13  20  28  37  54  82 115 153 195 239
#     4  10  20  33  49  69  93 119 148 185 227 272
#     4   8  15  26  38  53  73  99 130 164 205 249
#     4  10  20  33  50  70  92 119 150 186 226 270
#     4   9  16  26  40  56  75 101 134 171 209 253
#
# _framework density 17.011828000000001
#
# number of rings (size 3 to 8) (size 9 to 14) (size 15 to 20)
#    0.000    3.125    0.000    3.375    0.000    8.000 
#    0.000    2.500    0.000    0.000    0.000    0.000 
#    0.000    0.000    0.000    0.000    0.000    1.250 
#
# Total GULP energy -793093.207693 kJ/mol
# GULP energy per Si atom -12392.081370 kJ/mol
# Density = 1.697311 g / cm^3
# Si number density = 17.011828 Si / 1000 Ang^3
#
#
#
# Elastic Constant Matrix: (Units=GPa)
#
#
# Indices 1 2 3 4 5 6 
#
# 1 134.2719 60.2870 24.3507 0.0000 0.0000 0.0000
# 2 60.2870 89.0733 17.3726 0.0000 0.0000 0.0000
# 3 24.3507 17.3726 22.5982 0.0000 0.0000 0.0000
# 4 0.0000 0.0000 0.0000 4.9635 0.0000 0.0000
# 5 0.0000 0.0000 0.0000 0.0000 8.7897 0.0000
# 6 0.0000 0.0000 0.0000 0.0000 0.0000 29.8699
#
#
#
# Elastic Compliance Matrix: (Units=1/GPa)
#
#
# Indices 1 2 3 4 5 6 
#
# 1 0.011735 -0.006442 -0.007693 0.000000 0.000000 0.000000
# 2 -0.006442 0.016744 -0.005930 0.000000 0.000000 0.000000
# 3 -0.007693 -0.005930 0.057099 0.000000 0.000000 0.000000
# 4 0.000000 0.000000 0.000000 0.201469 0.000000 0.000000
# 5 0.000000 0.000000 0.000000 0.000000 0.113770 0.000000
# 6 0.000000 0.000000 0.000000 0.000000 0.000000 0.033479
#
#
# Mechanical properties :
#
#
# Convention : Reuss Voigt Hill
#
# Bulk Modulus (GPa) = 22.00308 49.99602 35.99955
# Shear Modulus (GPa) = 10.21295 18.32016 14.26656
#
# Velocity S-wave (km/s) = 2.45285 3.28519 2.89905
# Velocity P-wave (km/s) = 4.58083 6.62138 5.69327
#
# Compressibility (1/GPa) = 0.04544818
#
# Stress axis : x y z
#
# Youngs Moduli (GPa) = 85.21358 59.72444 17.51339
#
# Poissons Ratio (x) = 0.38476 0.13473
# Poissons Ratio (y) = 0.54897 0.10385
# Poissons Ratio (z) = 0.65552 0.35416
#
# Static dielectric constant tensor:
#      x y z
#    x 3.493550 0.000000 0.000000 
#    y 0.000000 3.254680 0.000000 
#    z 0.000000 0.000000 2.556230 
# 
# 
# High freq. dielectric constant tensor:
#      x y z
#    x 1.672190 0.000000 0.000000 
#    y 0.000000 1.651000 0.000000 
#    z 0.000000 0.000000 1.573100 
# 
# From -- ./inp_files/34583.got.cif
#   From: 2010.03.12/outbox.cif.g09.slc.cpg/sg53_18_cif.got.tgz:34583.got - 2010.04.16 14:36:59.
