data_PCOD8219621
_publ_section_title
;
Structure prediction by ZEFSAII (Michael W. Deem and Ramdas Pophale) SiO2 
 PCOD8219621
Probable space group: P M N A
;
_chemical_formula_sum "Si O2"
_cell_formula_units_Z 64
_cell_length_a 9.025293
_cell_length_b 25.981276
_cell_length_c 14.477313
_cell_angle_alpha 90.000000
_cell_angle_beta 90.000000
_cell_angle_gamma 90.000000
_cell_volume 3394.765268
_symmetry_space_group_name_H-M "P M N A"
_symmetry_group_IT_number 53
_symmetry_cell_setting 'orthorhombic'
loop_
_space_group_symop_operation_xyz
x,y,z
1/2-x,-y,1/2+z
x,-y,-z
1/2-x,y,1/2-z
-x,-y,-z
1/2+x,y,1/2-z
-x,y,z
1/2+x,-y,1/2+z
loop_
_atom_site_type_symbol
_atom_site_label
_atom_site_fract_x
_atom_site_fract_y
_atom_site_fract_z
Si Si1 0.825247 0.137426 0.149942
Si Si2 0.669693 0.325595 0.984662
Si Si3 0.166384 0.501853 0.391338
Si Si4 0.674024 0.395314 0.658888
Si Si5 0.327722 0.059224 0.509822
Si Si6 0.172424 0.791888 0.507848
Si Si7 0.330935 0.390951 0.162823
Si Si8 0.173804 0.129221 0.651052
O O1 0.750000 0.130992 0.250000
O O2 0.000000 0.143631 0.164988
O O3 0.786587 0.087943 0.086090
O O4 0.764333 0.187298 0.095529
O O5 0.500000 0.331822 0.950005
O O6 0.780871 0.356577 0.920975
O O7 0.718788 0.266571 0.988955
O O8 0.690417 0.349209 0.084671
O O9 0.158013 0.500000 0.500000
O O10 0.273797 0.546458 0.357490
O O11 0.235779 0.447321 0.360182
O O12 0.000000 0.511896 0.352552
O O13 0.750000 0.372946 0.750000
O O14 0.500000 0.395251 0.670233
O O15 0.500000 0.067094 0.532612
O O16 0.235904 0.079574 0.597467
O O17 0.284406 0.000000 0.500000
O O18 0.210120 0.821736 0.413260
O O19 0.000000 0.797051 0.533470
O O20 0.250000 0.366594 0.250000
O O21 0.500000 0.399743 0.187013
O O22 0.250000 0.136799 0.750000
O O23 0.000000 0.121987 0.667313
#
# Coordination Sequence:
#
# PCOD8219621 Si02
#       8
#     8   8   8   8   8   8   8   8
#     4  10  20  35  57  82 113 150 190 235 279 332
#     4  10  21  41  61  81 111 146 182 228 283 331
#     4  10  19  37  61  82 108 144 181 222 275 329
#     4  12  25  39  58  84 113 146 184 227 274 332
#     4   9  19  36  56  82 116 152 190 234 281 327
#     4   9  20  38  60  82 108 143 187 235 282 333
#     4  10  21  36  57  81 109 142 176 219 270 328
#     4  10  20  35  56  83 112 147 188 232 280 333
#
# _framework density 18.852556
#
# number of rings (size 3 to 8) (size 9 to 14) (size 15 to 20)
#    0.000    2.000    1.250    2.250    0.000    5.500 
#    0.000    3.750    0.000    0.000    0.000    0.000 
#    0.000    0.000    0.000    0.000    0.000    0.000 
#
# Total GULP energy -793644.210643 kJ/mol
# GULP energy per Si atom -12400.690791 kJ/mol
# Density = 1.880965 g / cm^3
# Si number density = 18.852556 Si / 1000 Ang^3
#
#
#
# Elastic Constant Matrix: (Units=GPa)
#
#
# Indices 1 2 3 4 5 6 
#
# 1 101.2096 47.1790 59.2234 0.0000 0.0000 0.0000
# 2 47.1790 115.4265 28.8879 0.0000 0.0000 0.0000
# 3 59.2234 28.8879 100.7484 0.0000 0.0000 0.0000
# 4 0.0000 0.0000 0.0000 -27.4405 0.0000 0.0000
# 5 0.0000 0.0000 0.0000 0.0000 38.1012 0.0000
# 6 0.0000 0.0000 0.0000 0.0000 0.0000 47.9409
#
#
#
# Elastic Compliance Matrix: (Units=1/GPa)
#
#
# Indices 1 2 3 4 5 6 
#
# 1 0.017276 -0.004869 -0.008759 0.000000 0.000000 0.000000
# 2 -0.004869 0.010706 -0.000207 0.000000 0.000000 0.000000
# 3 -0.008759 -0.000207 0.015134 0.000000 0.000000 0.000000
# 4 0.000000 0.000000 0.000000 -0.036442 0.000000 0.000000
# 5 0.000000 0.000000 0.000000 0.000000 0.026246 0.000000
# 6 0.000000 0.000000 0.000000 0.000000 0.000000 0.020859
#
#
# Mechanical properties :
#
#
# Convention : Reuss Voigt Hill
#
# Bulk Modulus (GPa) = 64.74950 65.32947 65.03949
# Shear Modulus (GPa) = 57.73876 23.85994 40.79935
#
# Velocity S-wave (km/s) = 5.54012 3.56140 4.65707
# Velocity P-wave (km/s) = 8.68008 7.18606 7.96816
#
# Compressibility (1/GPa) = 0.01544414
#
# Stress axis : x y z
#
# Youngs Moduli (GPa) = 57.88505 93.40916 66.07592
#
# Poissons Ratio (x) = 0.45481 0.57877
# Poissons Ratio (y) = 0.28184 0.01371
# Poissons Ratio (z) = 0.50702 0.01938
#
# Static dielectric constant tensor:
#      x y z
#    x 3.455330 0.000000 0.000000 
#    y 0.000000 3.518340 0.000000 
#    z 0.000000 0.000000 3.527430 
# 
# 
# High freq. dielectric constant tensor:
#      x y z
#    x 1.731580 0.000000 0.000000 
#    y 0.000000 1.731350 0.000000 
#    z 0.000000 0.000000 1.740260 
# 
# From -- ./inp_files/20989.got.cif
#   From: 2010.03.12/outbox.cif.g09.slc.cpg/sg53_11_cif.got.tgz:20989.got - 2010.04.16 14:36:59.
