data_PCOD8219656
_publ_section_title
;
Structure prediction by ZEFSAII (Michael W. Deem and Ramdas Pophale) SiO2 
 PCOD8219656
Probable space group: P M N A
;
_chemical_formula_sum "Si O2"
_cell_formula_units_Z 64
_cell_length_a 8.891367
_cell_length_b 25.762107
_cell_length_c 14.481860
_cell_angle_alpha 90.000000
_cell_angle_beta 90.000000
_cell_angle_gamma 90.000000
_cell_volume 3317.219892
_symmetry_space_group_name_H-M "P M N A"
_symmetry_group_IT_number 53
_symmetry_cell_setting 'orthorhombic'
loop_
_space_group_symop_operation_xyz
x,y,z
1/2-x,-y,1/2+z
x,-y,-z
1/2-x,y,1/2-z
-x,-y,-z
1/2+x,y,1/2-z
-x,y,z
1/2+x,-y,1/2+z
loop_
_atom_site_type_symbol
_atom_site_label
_atom_site_fract_x
_atom_site_fract_y
_atom_site_fract_z
Si Si1 0.822535 0.101675 0.157581
Si Si2 0.173095 0.821907 0.516589
Si Si3 0.829510 0.114019 0.661626
Si Si4 0.178123 0.640141 0.351527
Si Si5 0.675713 0.287009 0.504036
Si Si6 0.325375 0.370302 0.348763
Si Si7 0.829718 0.001997 0.608724
Si Si8 0.675670 0.440476 0.008099
O O1 0.750000 0.125049 0.250000
O O2 0.752468 0.133954 0.075175
O O3 0.000000 0.108642 0.158793
O O4 0.780322 0.041187 0.149743
O O5 0.186895 0.841405 0.412974
O O6 0.259693 0.768264 0.524435
O O7 0.000000 0.815179 0.547420
O O8 0.750000 0.138065 0.750000
O O9 0.759780 0.057956 0.635248
O O10 0.000000 0.102486 0.685230
O O11 0.250000 0.634375 0.250000
O O12 0.241334 0.690583 0.405122
O O13 0.221201 0.589874 0.413914
O O14 0.000000 0.646155 0.340011
O O15 0.500000 0.283329 0.527267
O O16 0.707213 0.321239 0.413739
O O17 0.250000 0.361230 0.250000
O O18 0.500000 0.379470 0.331671
O O19 0.260255 0.420244 0.401181
O O20 0.000000 0.992562 0.645892
O O21 0.832376 0.000000 0.500000
O O22 0.500000 0.433633 0.026549
O O23 0.723778 0.500000 0.000000
#
# Coordination Sequence:
#
# PCOD8219656 Si02
#       8
#     8   8   8   8   8   8   8   8
#     4  12  25  40  60  87 116 150 191 234 285 344
#     4  11  23  42  62  84 115 152 189 235 293 345
#     4  10  22  38  59  84 113 148 184 226 279 337
#     4  10  20  36  59  85 115 155 198 242 292 344
#     4  10  22  40  60  85 114 147 191 244 293 344
#     4  10  21  37  59  85 116 153 195 239 288 343
#     4  10  19  38  62  84 115 150 184 229 283 339
#     4   9  19  36  57  85 122 159 197 241 289 340
#
# _framework density 19.293264000000001
#
# number of rings (size 3 to 8) (size 9 to 14) (size 15 to 20)
#    0.000    1.750    1.250    3.000    0.000    6.500 
#    0.000    3.750    0.000    0.000    0.000    0.000 
#    0.000    0.000    0.000    0.000    0.000    0.000 
#
# Total GULP energy -793667.343083 kJ/mol
# GULP energy per Si atom -12401.052236 kJ/mol
# Density = 1.924935 g / cm^3
# Si number density = 19.293264 Si / 1000 Ang^3
#
#
#
# Elastic Constant Matrix: (Units=GPa)
#
#
# Indices 1 2 3 4 5 6 
#
# 1 97.3935 40.6735 60.0807 0.0000 0.0000 0.0000
# 2 40.6735 90.6316 17.3272 0.0000 0.0000 0.0000
# 3 60.0807 17.3272 104.3713 0.0000 0.0000 0.0000
# 4 0.0000 0.0000 0.0000 4.5243 0.0000 0.0000
# 5 0.0000 0.0000 0.0000 0.0000 37.5533 0.0000
# 6 0.0000 0.0000 0.0000 0.0000 0.0000 25.1100
#
#
#
# Elastic Compliance Matrix: (Units=1/GPa)
#
#
# Indices 1 2 3 4 5 6 
#
# 1 0.019205 -0.006719 -0.009940 0.000000 0.000000 0.000000
# 2 -0.006719 0.013746 0.001586 0.000000 0.000000 0.000000
# 3 -0.009940 0.001586 0.015040 0.000000 0.000000 0.000000
# 4 0.000000 0.000000 0.000000 0.221027 0.000000 0.000000
# 5 0.000000 0.000000 0.000000 0.000000 0.026629 0.000000
# 6 0.000000 0.000000 0.000000 0.000000 0.000000 0.039825
#
#
# Mechanical properties :
#
#
# Convention : Reuss Voigt Hill
#
# Bulk Modulus (GPa) = 56.03902 58.72880 57.38391
# Shear Modulus (GPa) = 13.45659 25.05856 19.25757
#
# Velocity S-wave (km/s) = 2.64384 3.60783 3.16278
# Velocity P-wave (km/s) = 6.19910 6.91819 6.56849
#
# Compressibility (1/GPa) = 0.01784471
#
# Stress axis : x y z
#
# Youngs Moduli (GPa) = 52.06901 72.75008 66.48992
#
# Poissons Ratio (x) = 0.48877 0.66091
# Poissons Ratio (y) = 0.34983 -0.10542
# Poissons Ratio (z) = 0.51757 -0.11535
#
# Static dielectric constant tensor:
#      x y z
#    x 3.616130 0.000000 0.000000 
#    y 0.000000 3.520410 0.000000 
#    z 0.000000 0.000000 3.581220 
# 
# 
# High freq. dielectric constant tensor:
#      x y z
#    x 1.757070 0.000000 0.000000 
#    y 0.000000 1.748690 0.000000 
#    z 0.000000 0.000000 1.759330 
# 
# From -- ./inp_files/20829.got.cif
#   From: 2010.03.12/outbox.cif.g09.slc.cpg/sg53_11_cif.got.tgz:20829.got - 2010.04.16 14:36:59.
