data_PCOD8219193
_publ_section_title
;
Structure prediction by ZEFSAII (Michael W. Deem and Ramdas Pophale) SiO2 
 PCOD8219193
Probable space group: P M N A
;
_chemical_formula_sum "Si O2"
_cell_formula_units_Z 40
_cell_length_a 16.782848
_cell_length_b 14.321252
_cell_length_c 8.516979
_cell_angle_alpha 90.000000
_cell_angle_beta 90.000000
_cell_angle_gamma 90.000000
_cell_volume 2047.067788
_symmetry_space_group_name_H-M "P M N A"
_symmetry_group_IT_number 53
_symmetry_cell_setting 'orthorhombic'
loop_
_space_group_symop_operation_xyz
x,y,z
1/2-x,-y,1/2+z
x,-y,-z
1/2-x,y,1/2-z
-x,-y,-z
1/2+x,y,1/2-z
-x,y,z
1/2+x,-y,1/2+z
loop_
_atom_site_type_symbol
_atom_site_label
_atom_site_fract_x
_atom_site_fract_y
_atom_site_fract_z
Si Si1 0.090502 0.396496 0.435929
Si Si2 0.267130 0.897376 0.567304
Si Si3 0.823259 0.245896 0.640066
Si Si4 0.408628 0.212480 0.561519
Si Si5 0.906318 0.590961 0.914492
O O1 0.091415 0.500000 0.500000
O O2 0.145793 0.334472 0.545783
O O3 0.127840 0.396134 0.261040
O O4 0.000000 0.356771 0.437152
O O5 0.250000 0.897524 0.750000
O O6 0.202034 0.833787 0.481241
O O7 0.356285 0.859748 0.538164
O O8 0.259071 0.000000 0.500000
O O9 0.750000 0.277301 0.750000
O O10 0.891982 0.203330 0.752410
O O11 0.500000 0.189338 0.524133
O O12 0.385322 0.318092 0.514966
O O13 0.000000 0.574584 0.898515
O O14 0.868277 0.500000 0.000000
#
# Coordination Sequence:
#
# PCOD8219193 Si02
#       5
#     8   8   8   8   8
#     4  10  19  33  56  84 114 149 189 232 276 325
#     4  11  23  42  63  83 112 149 187 231 288 346
#     4  10  21  37  56  82 114 149 188 229 280 337
#     4  10  20  36  60  87 115 149 190 236 282 332
#     4   9  17  30  51  81 114 146 180 222 274 327
#
# _framework density 19.540144000000002
#
# number of rings (size 3 to 8) (size 9 to 14) (size 15 to 20)
#    0.000    2.000    0.000    4.800    0.000    3.600 
#    0.000   10.000    0.000    4.200    0.000    0.000 
#    0.000    0.000    0.000    0.000    0.000    0.200 
#
# Total GULP energy -496067.384688 kJ/mol
# GULP energy per Si atom -12401.684617 kJ/mol
# Density = 1.949567 g / cm^3
# Si number density = 19.540144 Si / 1000 Ang^3
#
#
#
# Elastic Constant Matrix: (Units=GPa)
#
#
# Indices 1 2 3 4 5 6 
#
# 1 65.2218 56.1485 56.1112 0.0000 0.0000 0.0000
# 2 56.1485 117.9617 69.4935 0.0000 0.0000 0.0000
# 3 56.1112 69.4935 180.4906 0.0000 0.0000 0.0000
# 4 0.0000 0.0000 0.0000 39.5248 0.0000 0.0000
# 5 0.0000 0.0000 0.0000 0.0000 27.5509 0.0000
# 6 0.0000 0.0000 0.0000 0.0000 0.0000 -1.0956
#
#
#
# Elastic Compliance Matrix: (Units=1/GPa)
#
#
# Indices 1 2 3 4 5 6 
#
# 1 0.028823 -0.010917 -0.004757 0.000000 0.000000 0.000000
# 2 -0.010917 0.015099 -0.002420 0.000000 0.000000 0.000000
# 3 -0.004757 -0.002420 0.007951 0.000000 0.000000 0.000000
# 4 0.000000 0.000000 0.000000 0.025301 0.000000 0.000000
# 5 0.000000 0.000000 0.000000 0.000000 0.036296 0.000000
# 6 0.000000 0.000000 0.000000 0.000000 0.000000 -0.912716
#
#
# Mechanical properties :
#
#
# Convention : Reuss Voigt Hill
#
# Bulk Modulus (GPa) = 63.75267 80.79783 72.27525
# Shear Modulus (GPa) = -6.59780 25.32408 9.36314
#
# Velocity S-wave (km/s) = -1.83953 3.60391 2.19138
# Velocity P-wave (km/s) = 5.30900 7.66531 6.59327
#
# Compressibility (1/GPa) = 0.01568562
#
# Stress axis : x y z
#
# Youngs Moduli (GPa) = 34.69401 66.22874 125.76942
#
# Poissons Ratio (x) = 0.72302 0.59833
# Poissons Ratio (y) = 0.37875 0.30432
# Poissons Ratio (z) = 0.16505 0.16025
#
# Static dielectric constant tensor:
#      x y z
#    x 3.506900 0.000000 0.000000 
#    y 0.000000 3.466640 0.000000 
#    z 0.000000 0.000000 3.855550 
# 
# 
# High freq. dielectric constant tensor:
#      x y z
#    x 1.746310 0.000000 0.000000 
#    y 0.000000 1.755370 0.000000 
#    z 0.000000 0.000000 1.782010 
# 
# From -- ./inp_files/8412.got.cif
#   From: 2010.03.12/outbox.cif.g09.slc.cpg/sg53_5_cif.got.tgz:8412.got - 2010.04.16 14:36:59.
