data_PCOD8219467
_publ_section_title
;
Structure prediction by ZEFSAII (Michael W. Deem and Ramdas Pophale) SiO2 
 PCOD8219467
Probable space group: P M N A
;
_chemical_formula_sum "Si O2"
_cell_formula_units_Z 56
_cell_length_a 9.111617
_cell_length_b 21.291524
_cell_length_c 14.353019
_cell_angle_alpha 90.000000
_cell_angle_beta 90.000000
_cell_angle_gamma 90.000000
_cell_volume 2784.488729
_symmetry_space_group_name_H-M "P M N A"
_symmetry_group_IT_number 53
_symmetry_cell_setting 'orthorhombic'
loop_
_space_group_symop_operation_xyz
x,y,z
1/2-x,-y,1/2+z
x,-y,-z
1/2-x,y,1/2-z
-x,-y,-z
1/2+x,y,1/2-z
-x,y,z
1/2+x,-y,1/2+z
loop_
_atom_site_type_symbol
_atom_site_label
_atom_site_fract_x
_atom_site_fract_y
_atom_site_fract_z
Si Si1 0.840145 0.737623 0.833632
Si Si2 0.171718 0.073233 0.513015
Si Si3 0.325149 0.158923 0.651766
Si Si4 0.326130 0.718223 0.462417
Si Si5 0.172516 0.593566 0.461966
Si Si6 0.662839 0.883819 0.664418
Si Si7 0.172558 0.470993 0.348977
O O1 0.750000 0.705287 0.750000
O O2 0.857286 0.811067 0.813893
O O3 0.000000 0.705686 0.832946
O O4 0.763728 0.726679 0.932961
O O5 0.256625 0.097042 0.604327
O O6 0.240735 0.109715 0.426983
O O7 0.000000 0.088929 0.520879
O O8 0.200713 0.000000 0.500000
O O9 0.250000 0.166432 0.750000
O O10 0.500000 0.151049 0.659398
O O11 0.278606 0.221110 0.595706
O O12 0.500000 0.711634 0.461217
O O13 0.253666 0.655189 0.422597
O O14 0.217148 0.538924 0.389925
O O15 0.219720 0.578188 0.569344
O O16 0.000000 0.604703 0.458903
O O17 0.750000 0.916593 0.750000
O O18 0.500000 0.914397 0.653209
O O19 0.250000 0.457198 0.250000
O O20 0.000000 0.467249 0.331393
#
# Coordination Sequence:
#
# PCOD8219467 Si02
#       7
#     8   8   8   8   8   8   8
#     4   9  18  33  52  79 111 144 181 225 279 339
#     4  11  24  41  62  89 118 152 197 245 296 354
#     4  11  24  44  65  88 120 158 200 247 298 353
#     4  10  21  38  58  84 120 154 192 242 291 346
#     4   9  20  37  56  82 115 153 195 238 288 346
#     4  10  19  35  58  84 114 148 186 231 285 344
#     4   9  19  37  58  81 114 152 194 242 288 341
#
# _framework density 20.111412000000001
#
# number of rings (size 3 to 8) (size 9 to 14) (size 15 to 20)
#    0.000    2.143    1.429    2.143    0.000    6.286 
#    0.000    7.143    0.000    0.000    0.000    0.000 
#    0.000    0.000    0.000    0.000    0.000    0.000 
#
# Total GULP energy -694237.587129 kJ/mol
# GULP energy per Si atom -12397.099770 kJ/mol
# Density = 2.006564 g / cm^3
# Si number density = 20.111412 Si / 1000 Ang^3
#
#
#
# Elastic Constant Matrix: (Units=GPa)
#
#
# Indices 1 2 3 4 5 6 
#
# 1 82.9101 43.0377 44.0560 0.0000 0.0000 0.0000
# 2 43.0377 81.4048 23.9759 0.0000 0.0000 0.0000
# 3 44.0560 23.9759 112.7541 0.0000 0.0000 0.0000
# 4 0.0000 0.0000 0.0000 11.7898 0.0000 0.0000
# 5 0.0000 0.0000 0.0000 0.0000 28.9659 0.0000
# 6 0.0000 0.0000 0.0000 0.0000 0.0000 22.6808
#
#
#
# Elastic Compliance Matrix: (Units=1/GPa)
#
#
# Indices 1 2 3 4 5 6 
#
# 1 0.019670 -0.008679 -0.005840 0.000000 0.000000 0.000000
# 2 -0.008679 0.016935 -0.000210 0.000000 0.000000 0.000000
# 3 -0.005840 -0.000210 0.011195 0.000000 0.000000 0.000000
# 4 0.000000 0.000000 0.000000 0.084819 0.000000 0.000000
# 5 0.000000 0.000000 0.000000 0.000000 0.034523 0.000000
# 6 0.000000 0.000000 0.000000 0.000000 0.000000 0.044090
#
#
# Mechanical properties :
#
#
# Convention : Reuss Voigt Hill
#
# Bulk Modulus (GPa) = 54.52003 55.46757 54.99380
# Shear Modulus (GPa) = 20.25900 23.75393 22.00646
#
# Velocity S-wave (km/s) = 3.17730 3.44047 3.31150
# Velocity P-wave (km/s) = 6.37402 6.58957 6.48269
#
# Compressibility (1/GPa) = 0.01834188
#
# Stress axis : x y z
#
# Youngs Moduli (GPa) = 50.83977 59.05074 89.32321
#
# Poissons Ratio (x) = 0.51251 0.52164
# Poissons Ratio (y) = 0.44124 0.01874
# Poissons Ratio (z) = 0.29690 0.01239
#
# Static dielectric constant tensor:
#      x y z
#    x 3.793840 0.000000 0.000000 
#    y 0.000000 3.556990 0.000000 
#    z 0.000000 0.000000 3.942760 
# 
# 
# High freq. dielectric constant tensor:
#      x y z
#    x 1.785290 0.000000 0.000000 
#    y 0.000000 1.773370 0.000000 
#    z 0.000000 0.000000 1.789270 
# 
# From -- ./inp_files/20646.got.cif
#   From: 2010.03.12/outbox.cif.g09.slc.cpg/sg53_11_cif.got.tgz:20646.got - 2010.04.16 14:36:59.
