data_PCOD8219791
_publ_section_title
;
Structure prediction by ZEFSAII (Michael W. Deem and Ramdas Pophale) SiO2 
 PCOD8219791
Probable space group: P M N A
;
_chemical_formula_sum "Si O2"
_cell_formula_units_Z 48
_cell_length_a 8.819693
_cell_length_b 16.134525
_cell_length_c 18.360833
_cell_angle_alpha 90.000000
_cell_angle_beta 90.000000
_cell_angle_gamma 90.000000
_cell_volume 2612.775127
_symmetry_space_group_name_H-M "P M N A"
_symmetry_group_IT_number 53
_symmetry_cell_setting 'orthorhombic'
loop_
_space_group_symop_operation_xyz
x,y,z
1/2-x,-y,1/2+z
x,-y,-z
1/2-x,y,1/2-z
-x,-y,-z
1/2+x,y,1/2-z
-x,y,z
1/2+x,-y,1/2+z
loop_
_atom_site_type_symbol
_atom_site_label
_atom_site_fract_x
_atom_site_fract_y
_atom_site_fract_z
Si Si1 0.319677 0.832178 0.327386
Si Si2 0.321788 0.085187 0.962714
Si Si3 0.676515 0.335586 0.324456
Si Si4 0.179530 0.477089 0.826036
Si Si5 0.671182 0.246953 0.047245
Si Si6 0.174526 0.327617 0.604453
O O1 0.250000 0.858950 0.250000
O O2 0.500000 0.831570 0.322408
O O3 0.267322 0.899536 0.387524
O O4 0.261819 0.740797 0.348172
O O5 0.500000 0.086953 0.944148
O O6 0.280742 0.155903 0.020963
O O7 0.270060 0.000000 0.000000
O O8 0.750000 0.303683 0.250000
O O9 0.500000 0.334405 0.311643
O O10 0.730979 0.428924 0.343634
O O11 0.717989 0.273336 0.388637
O O12 0.250000 0.447723 0.750000
O O13 0.249428 0.417310 0.886824
O O14 0.000000 0.467558 0.823846
O O15 0.500000 0.247334 0.077235
O O16 0.688564 0.310141 0.980794
O O17 0.000000 0.327588 0.629952
#
# Coordination Sequence:
#
# PCOD8219791 Si02
#       6
#     8   8   8   8   8   8
#     4  11  21  34  54  80 111 143 177 216 259 311
#     4   9  19  38  61  83 109 139 171 212 263 317
#     4  10  21  36  54  74 101 137 177 220 261 304
#     4  10  20  33  49  72 102 138 178 219 261 303
#     4   9  19  35  55  78 103 133 169 209 258 312
#     4  10  20  34  52  76 106 140 175 213 261 313
#
# _framework density 18.371272000000001
#
# number of rings (size 3 to 8) (size 9 to 14) (size 15 to 20)
#    0.000    2.167    0.000    4.500    0.000    6.333 
#    0.000    4.167    0.000    0.000    0.000    0.000 
#    0.000    0.000    0.000    0.000    0.000    0.000 
#
# Total GULP energy -595334.991068 kJ/mol
# GULP energy per Si atom -12402.812314 kJ/mol
# Density = 1.832946 g / cm^3
# Si number density = 18.371272 Si / 1000 Ang^3
#
#
#
# Elastic Constant Matrix: (Units=GPa)
#
#
# Indices 1 2 3 4 5 6 
#
# 1 103.2095 39.2303 54.5291 0.0000 0.0000 0.0000
# 2 39.2303 92.5531 64.4777 0.0000 0.0000 0.0000
# 3 54.5291 64.4777 110.6060 0.0000 0.0000 0.0000
# 4 0.0000 0.0000 0.0000 33.7202 0.0000 0.0000
# 5 0.0000 0.0000 0.0000 0.0000 35.3112 0.0000
# 6 0.0000 0.0000 0.0000 0.0000 0.0000 23.7912
#
#
#
# Elastic Compliance Matrix: (Units=1/GPa)
#
#
# Indices 1 2 3 4 5 6 
#
# 1 0.013277 -0.001798 -0.005498 0.000000 0.000000 0.000000
# 2 -0.001798 0.018437 -0.009861 0.000000 0.000000 0.000000
# 3 -0.005498 -0.009861 0.017500 0.000000 0.000000 0.000000
# 4 0.000000 0.000000 0.000000 0.029656 0.000000 0.000000
# 5 0.000000 0.000000 0.000000 0.000000 0.028320 0.000000
# 6 0.000000 0.000000 0.000000 0.000000 0.000000 0.042032
#
#
# Mechanical properties :
#
#
# Convention : Reuss Voigt Hill
#
# Bulk Modulus (GPa) = 67.11265 69.20475 68.15870
# Shear Modulus (GPa) = 26.52504 28.43996 27.48250
#
# Velocity S-wave (km/s) = 3.80390 3.93882 3.87195
# Velocity P-wave (km/s) = 7.47686 7.64445 7.56112
#
# Compressibility (1/GPa) = 0.01490032
#
# Stress axis : x y z
#
# Youngs Moduli (GPa) = 75.31873 54.24013 57.14273
#
# Poissons Ratio (x) = 0.09751 0.31415
# Poissons Ratio (y) = 0.13540 0.56350
# Poissons Ratio (z) = 0.41407 0.53488
#
# Static dielectric constant tensor:
#      x y z
#    x 3.390220 0.000000 0.000000 
#    y 0.000000 3.364130 0.000000 
#    z 0.000000 0.000000 3.273120 
# 
# 
# High freq. dielectric constant tensor:
#      x y z
#    x 1.720280 0.000000 0.000000 
#    y 0.000000 1.701110 0.000000 
#    z 0.000000 0.000000 1.708810 
# 
# From -- ./inp_files/20140.got.cif
#   From: 2010.03.12/outbox.cif.g09.slc.cpg/sg53_11_cif.got.tgz:20140.got - 2010.04.16 14:36:59.
