data_PCOD8219781
_publ_section_title
;
Structure prediction by ZEFSAII (Michael W. Deem and Ramdas Pophale) SiO2 
 PCOD8219781
Probable space group: P M N A
;
_chemical_formula_sum "Si O2"
_cell_formula_units_Z 56
_cell_length_a 9.235049
_cell_length_b 19.100952
_cell_length_c 18.527623
_cell_angle_alpha 90.000000
_cell_angle_beta 90.000000
_cell_angle_gamma 90.000000
_cell_volume 3268.239860
_symmetry_space_group_name_H-M "P M N A"
_symmetry_group_IT_number 53
_symmetry_cell_setting 'orthorhombic'
loop_
_space_group_symop_operation_xyz
x,y,z
1/2-x,-y,1/2+z
x,-y,-z
1/2-x,y,1/2-z
-x,-y,-z
1/2+x,y,1/2-z
-x,y,z
1/2+x,-y,1/2+z
loop_
_atom_site_type_symbol
_atom_site_label
_atom_site_fract_x
_atom_site_fract_y
_atom_site_fract_z
Si Si1 0.830956 0.436191 0.825401
Si Si2 0.332066 0.969320 0.678742
Si Si3 0.332256 0.130940 0.679366
Si Si4 0.335633 0.066883 0.045850
Si Si5 0.666721 0.663490 0.463187
Si Si6 0.165585 0.199446 0.554424
Si Si7 0.331974 0.542697 0.564266
O O1 0.750000 0.419200 0.750000
O O2 0.796904 0.380179 0.889847
O O3 0.777906 0.513039 0.857401
O O4 0.000000 0.435085 0.806062
O O5 0.250000 0.945026 0.750000
O O6 0.500000 0.953542 0.689037
O O7 0.300158 0.050315 0.661172
O O8 0.269325 0.924042 0.613669
O O9 0.250000 0.154930 0.750000
O O10 0.500000 0.145475 0.690702
O O11 0.272421 0.180279 0.618186
O O12 0.500000 0.052680 0.071547
O O13 0.322237 0.139673 0.005143
O O14 0.281909 0.000000 0.000000
O O15 0.500000 0.688698 0.458801
O O16 0.777494 0.726883 0.474415
O O17 0.690190 0.623010 0.540397
O O18 0.000000 0.206164 0.581010
O O19 0.253999 0.500000 0.500000
O O20 0.500000 0.521380 0.564708
#
# Coordination Sequence:
#
# PCOD8219781 Si02
#       7
#     8   8   8   8   8   8   8
#     4   9  17  30  51  78 104 131 163 200 243 290
#     4  10  20  33  53  76  98 124 160 209 261 313
#     4  10  20  33  49  70  97 129 165 204 250 306
#     4  10  20  35  53  72  99 133 172 219 266 307
#     4   9  18  33  51  70  98 135 172 206 242 294
#     4  11  22  34  50  73 102 136 171 212 259 306
#     4   7  12  27  50  71  92 125 167 202 232 276
#
# _framework density 17.134605000000001
#
# number of rings (size 3 to 8) (size 9 to 14) (size 15 to 20)
#    0.000    2.571    1.429    3.000    0.000    3.714 
#    0.000    2.143    0.000    3.429    0.000    4.000 
#    0.000    0.000    0.000    0.000    0.000    0.000 
#
# Total GULP energy -693782.095272 kJ/mol
# GULP energy per Si atom -12388.965987 kJ/mol
# Density = 1.709561 g / cm^3
# Si number density = 17.134605 Si / 1000 Ang^3
#
#
#
# Elastic Constant Matrix: (Units=GPa)
#
#
# Indices 1 2 3 4 5 6 
#
# 1 71.4264 33.2858 45.3719 0.0000 0.0000 0.0000
# 2 33.2858 60.9802 42.7489 0.0000 0.0000 0.0000
# 3 45.3719 42.7489 74.4235 0.0000 0.0000 0.0000
# 4 0.0000 0.0000 0.0000 5.3956 0.0000 0.0000
# 5 0.0000 0.0000 0.0000 0.0000 28.2806 0.0000
# 6 0.0000 0.0000 0.0000 0.0000 0.0000 31.7516
#
#
#
# Elastic Compliance Matrix: (Units=1/GPa)
#
#
# Indices 1 2 3 4 5 6 
#
# 1 0.023622 -0.004685 -0.011710 0.000000 0.000000 0.000000
# 2 -0.004685 0.028383 -0.013447 0.000000 0.000000 0.000000
# 3 -0.011710 -0.013447 0.028300 0.000000 0.000000 0.000000
# 4 0.000000 0.000000 0.000000 0.185336 0.000000 0.000000
# 5 0.000000 0.000000 0.000000 0.000000 0.035360 0.000000
# 6 0.000000 0.000000 0.000000 0.000000 0.000000 0.031494
#
#
# Mechanical properties :
#
#
# Convention : Reuss Voigt Hill
#
# Bulk Modulus (GPa) = 48.49535 49.96037 49.22786
# Shear Modulus (GPa) = 12.52969 18.78048 15.65508
#
# Velocity S-wave (km/s) = 2.70710 3.31426 3.02595
# Velocity P-wave (km/s) = 6.17537 6.62319 6.40320
#
# Compressibility (1/GPa) = 0.02062053
#
# Stress axis : x y z
#
# Youngs Moduli (GPa) = 42.33296 35.23270 35.33629
#
# Poissons Ratio (x) = 0.16506 0.41379
# Poissons Ratio (y) = 0.19833 0.47516
# Poissons Ratio (z) = 0.49572 0.47377
#
# Static dielectric constant tensor:
#      x y z
#    x 3.121970 0.000000 0.000000 
#    y 0.000000 3.103730 0.000000 
#    z 0.000000 0.000000 3.074180 
# 
# 
# High freq. dielectric constant tensor:
#      x y z
#    x 1.654850 0.000000 0.000000 
#    y 0.000000 1.641810 0.000000 
#    z 0.000000 0.000000 1.654380 
# 
# From -- ./inp_files/26643.got.cif
#   From: 2010.03.12/outbox.cif.g09.slc.cpg/sg53_14_cif.got.tgz:26643.got - 2010.04.16 14:36:59.
