data_PCOD8219716
_publ_section_title
;
Structure prediction by ZEFSAII (Michael W. Deem and Ramdas Pophale) SiO2 
 PCOD8219716
Probable space group: P M N A
;
_chemical_formula_sum "Si O2"
_cell_formula_units_Z 48
_cell_length_a 9.087673
_cell_length_b 17.869501
_cell_length_c 17.545304
_cell_angle_alpha 90.000000
_cell_angle_beta 90.000000
_cell_angle_gamma 90.000000
_cell_volume 2849.220196
_symmetry_space_group_name_H-M "P M N A"
_symmetry_group_IT_number 53
_symmetry_cell_setting 'orthorhombic'
loop_
_space_group_symop_operation_xyz
x,y,z
1/2-x,-y,1/2+z
x,-y,-z
1/2-x,y,1/2-z
-x,-y,-z
1/2+x,y,1/2-z
-x,y,z
1/2+x,-y,1/2+z
loop_
_atom_site_type_symbol
_atom_site_label
_atom_site_fract_x
_atom_site_fract_y
_atom_site_fract_z
Si Si1 0.668860 0.061632 0.325910
Si Si2 0.671351 0.665495 0.961523
Si Si3 0.666344 0.559756 0.433001
Si Si4 0.325627 0.944853 0.437958
Si Si5 0.830074 0.818563 0.958550
Si Si6 0.827322 0.548877 0.671103
O O1 0.750000 0.085870 0.250000
O O2 0.500000 0.057298 0.303870
O O3 0.696566 0.123987 0.389913
O O4 0.723634 0.978741 0.355806
O O5 0.500000 0.665044 0.981059
O O6 0.725461 0.748661 0.944689
O O7 0.704441 0.616589 0.886693
O O8 0.756142 0.634467 0.035739
O O9 0.667409 0.500000 0.500000
O O10 0.500000 0.578335 0.407058
O O11 0.757075 0.527725 0.361352
O O12 0.500000 0.952330 0.443800
O O13 0.283820 0.859416 0.460888
O O14 0.253648 0.000000 0.500000
O O15 0.000000 0.792345 0.961173
O O16 0.750000 0.570500 0.750000
O O17 0.000000 0.536083 0.683885
#
# Coordination Sequence:
#
# PCOD8219716 Si02
#       6
#     8   8   8   8   8   8
#     4   9  17  29  46  68  93 120 151 189 233 279
#     4  10  20  32  47  70  99 126 154 193 237 278
#     4   9  17  31  51  71  91 120 159 196 231 277
#     4   7  12  26  46  64  83 114 156 193 223 264
#     4   9  17  30  48  67  89 121 159 193 226 272
#     4  10  20  33  49  70  97 127 157 191 232 277
#
# _framework density 16.846715
#
# number of rings (size 3 to 8) (size 9 to 14) (size 15 to 20)
#    0.000    3.000    0.000    3.500    0.000    5.333 
#    0.000    4.167    0.000    4.000    0.000    4.667 
#    0.000    0.000    0.000    0.000    0.000    0.000 
#
# Total GULP energy -594722.524798 kJ/mol
# GULP energy per Si atom -12390.052600 kJ/mol
# Density = 1.680837 g / cm^3
# Si number density = 16.846715 Si / 1000 Ang^3
#
#
#
# Elastic Constant Matrix: (Units=GPa)
#
#
# Indices 1 2 3 4 5 6 
#
# 1 89.1547 51.3537 38.8742 0.0000 0.0000 0.0000
# 2 51.3537 76.7918 52.2215 0.0000 0.0000 0.0000
# 3 38.8742 52.2215 47.3008 0.0000 0.0000 0.0000
# 4 0.0000 0.0000 0.0000 13.0370 0.0000 0.0000
# 5 0.0000 0.0000 0.0000 0.0000 27.1696 0.0000
# 6 0.0000 0.0000 0.0000 0.0000 0.0000 20.8659
#
#
#
# Elastic Compliance Matrix: (Units=1/GPa)
#
#
# Indices 1 2 3 4 5 6 
#
# 1 0.018696 -0.008241 -0.006267 0.000000 0.000000 0.000000
# 2 -0.008241 0.055885 -0.054926 0.000000 0.000000 0.000000
# 3 -0.006267 -0.054926 0.086932 0.000000 0.000000 0.000000
# 4 0.000000 0.000000 0.000000 0.076704 0.000000 0.000000
# 5 0.000000 0.000000 0.000000 0.000000 0.036806 0.000000
# 6 0.000000 0.000000 0.000000 0.000000 0.000000 0.047925
#
#
# Mechanical properties :
#
#
# Convention : Reuss Voigt Hill
#
# Bulk Modulus (GPa) = 44.16009 55.34956 49.75482
# Shear Modulus (GPa) = 10.65270 16.93437 13.79353
#
# Velocity S-wave (km/s) = 2.51735 3.17393 2.86451
# Velocity P-wave (km/s) = 5.89230 6.80867 6.36699
#
# Compressibility (1/GPa) = 0.02264488
#
# Stress axis : x y z
#
# Youngs Moduli (GPa) = 53.48778 17.89390 11.50323
#
# Poissons Ratio (x) = 0.14746 0.07209
# Poissons Ratio (y) = 0.44077 0.63183
# Poissons Ratio (z) = 0.33522 0.98284
#
# Static dielectric constant tensor:
#      x y z
#    x 3.076090 0.000000 0.000000 
#    y 0.000000 3.137760 0.000000 
#    z 0.000000 0.000000 3.125950 
# 
# 
# High freq. dielectric constant tensor:
#      x y z
#    x 1.642050 0.000000 0.000000 
#    y 0.000000 1.636620 0.000000 
#    z 0.000000 0.000000 1.632400 
# 
# From -- ./inp_files/26388.got.cif
#   From: 2010.03.12/outbox.cif.g09.slc.cpg/sg53_14_cif.got.tgz:26388.got - 2010.04.16 14:36:59.
