data_PCOD8219941
_publ_section_title
;
Structure prediction by ZEFSAII (Michael W. Deem and Ramdas Pophale) SiO2 
 PCOD8219941
Probable space group: P M N A
;
_chemical_formula_sum "Si O2"
_cell_formula_units_Z 64
_cell_length_a 9.023076
_cell_length_b 15.418684
_cell_length_c 23.233709
_cell_angle_alpha 90.000000
_cell_angle_beta 90.000000
_cell_angle_gamma 90.000000
_cell_volume 3232.365545
_symmetry_space_group_name_H-M "P M N A"
_symmetry_group_IT_number 53
_symmetry_cell_setting 'orthorhombic'
loop_
_space_group_symop_operation_xyz
x,y,z
1/2-x,-y,1/2+z
x,-y,-z
1/2-x,y,1/2-z
-x,-y,-z
1/2+x,y,1/2-z
-x,y,z
1/2+x,-y,1/2+z
loop_
_atom_site_type_symbol
_atom_site_label
_atom_site_fract_x
_atom_site_fract_y
_atom_site_fract_z
Si Si1 0.668326 0.849780 0.014544
Si Si2 0.675719 0.229783 0.809957
Si Si3 0.673080 0.612270 0.108938
Si Si4 0.170001 0.127752 0.383000
Si Si5 0.824877 0.694848 0.873498
Si Si6 0.675499 0.456184 0.190773
Si Si7 0.826764 0.324572 0.996405
Si Si8 0.174630 0.940087 0.372484
O O1 0.500000 0.817453 0.027120
O O2 0.777986 0.770119 0.023491
O O3 0.717527 0.921111 0.061181
O O4 0.680495 0.888943 0.951223
O O5 0.750000 0.254216 0.750000
O O6 0.500000 0.230200 0.801802
O O7 0.723579 0.302054 0.856368
O O8 0.736750 0.135645 0.830881
O O9 0.500000 0.613332 0.097689
O O10 0.721330 0.527318 0.143811
O O11 0.751071 0.606453 0.046449
O O12 0.273696 0.206243 0.362904
O O13 0.000000 0.148159 0.365353
O O14 0.230338 0.037097 0.355255
O O15 0.740679 0.636444 0.827430
O O16 0.000000 0.689650 0.863748
O O17 0.778237 0.661926 0.937189
O O18 0.750000 0.485622 0.250000
O O19 0.500000 0.449294 0.198826
O O20 0.000000 0.334834 0.989779
O O21 0.000000 0.941272 0.366547
#
# Coordination Sequence:
#
# PCOD8219941 Si02
#       8
#     8   8   8   8   8   8   8   8
#     4   9  15  28  50  77 111 146 184 228 276 333
#     4  10  20  35  53  76 110 148 184 227 276 332
#     4  10  21  38  60  85 114 146 183 229 283 342
#     4   9  17  30  54  83 108 143 190 233 277 332
#     4  10  22  40  58  82 119 155 188 234 287 338
#     4  11  24  42  65  89 111 143 189 238 286 339
#     4  10  20  33  54  85 119 153 188 227 281 339
#     4   9  16  29  51  78 108 143 186 232 277 328
#
# _framework density 19.79974
#
# number of rings (size 3 to 8) (size 9 to 14) (size 15 to 20)
#    0.000    2.250    1.250    1.875    0.000    5.000 
#    0.000    4.375    0.000    4.500    0.000    0.000 
#    0.000    0.000    0.000    0.000    0.000    0.000 
#
# Total GULP energy -793452.317723 kJ/mol
# GULP energy per Si atom -12397.692464 kJ/mol
# Density = 1.975468 g / cm^3
# Si number density = 19.799740 Si / 1000 Ang^3
#
#
#
# Elastic Constant Matrix: (Units=GPa)
#
#
# Indices 1 2 3 4 5 6 
#
# 1 46.3727 24.9549 18.0245 0.0000 0.0000 0.0000
# 2 24.9549 87.4705 13.9792 0.0000 0.0000 0.0000
# 3 18.0245 13.9792 33.9176 0.0000 0.0000 0.0000
# 4 0.0000 0.0000 0.0000 17.3565 0.0000 0.0000
# 5 0.0000 0.0000 0.0000 0.0000 28.3694 0.0000
# 6 0.0000 0.0000 0.0000 0.0000 0.0000 14.6665
#
#
#
# Elastic Compliance Matrix: (Units=1/GPa)
#
#
# Indices 1 2 3 4 5 6 
#
# 1 0.030271 -0.006493 -0.013411 0.000000 0.000000 0.000000
# 2 -0.006493 0.013631 -0.002168 0.000000 0.000000 0.000000
# 3 -0.013411 -0.002168 0.037503 0.000000 0.000000 0.000000
# 4 0.000000 0.000000 0.000000 0.057615 0.000000 0.000000
# 5 0.000000 0.000000 0.000000 0.000000 0.035249 0.000000
# 6 0.000000 0.000000 0.000000 0.000000 0.000000 0.068182
#
#
# Mechanical properties :
#
#
# Convention : Reuss Voigt Hill
#
# Bulk Modulus (GPa) = 26.83613 31.29757 29.06685
# Shear Modulus (GPa) = 16.72153 19.46532 18.09343
#
# Velocity S-wave (km/s) = 2.90924 3.13886 3.02623
# Velocity P-wave (km/s) = 4.98679 5.38312 5.18874
#
# Compressibility (1/GPa) = 0.03726320
#
# Stress axis : x y z
#
# Youngs Moduli (GPa) = 33.03492 73.36080 26.66438
#
# Poissons Ratio (x) = 0.47633 0.35758
# Poissons Ratio (y) = 0.21449 0.05780
# Poissons Ratio (z) = 0.44302 0.15902
#
# Static dielectric constant tensor:
#      x y z
#    x 3.365790 0.000000 0.000000 
#    y 0.000000 3.734080 0.000000 
#    z 0.000000 0.000000 3.588460 
# 
# 
# High freq. dielectric constant tensor:
#      x y z
#    x 1.749690 0.000000 0.000000 
#    y 0.000000 1.776150 0.000000 
#    z 0.000000 0.000000 1.762200 
# 
# From -- ./inp_files/34293.got.cif
#   From: 2010.03.12/outbox.cif.g09.slc.cpg/sg53_18_cif.got.tgz:34293.got - 2010.04.16 14:36:59.
