data_PCOD8219048
_publ_section_title
;
Structure prediction by ZEFSAII (Michael W. Deem and Ramdas Pophale) SiO2 
 PCOD8219048
Probable space group: P M N A
;
_chemical_formula_sum "Si O2"
_cell_formula_units_Z 56
_cell_length_a 8.758628
_cell_length_b 19.707888
_cell_length_c 15.963382
_cell_angle_alpha 90.000000
_cell_angle_beta 90.000000
_cell_angle_gamma 90.000000
_cell_volume 2755.504173
_symmetry_space_group_name_H-M "P M N A"
_symmetry_group_IT_number 53
_symmetry_cell_setting 'orthorhombic'
loop_
_space_group_symop_operation_xyz
x,y,z
1/2-x,-y,1/2+z
x,-y,-z
1/2-x,y,1/2-z
-x,-y,-z
1/2+x,y,1/2-z
-x,y,z
1/2+x,-y,1/2+z
loop_
_atom_site_type_symbol
_atom_site_label
_atom_site_fract_x
_atom_site_fract_y
_atom_site_fract_z
Si Si1 0.181640 0.077014 0.499769
Si Si2 0.182144 0.843512 0.336980
Si Si3 0.326185 0.701146 0.904580
Si Si4 0.817972 0.563790 0.341951
Si Si5 0.674248 0.295170 0.904851
Si Si6 0.320012 0.156200 0.162958
Si Si7 0.678874 0.571134 0.659393
O O1 0.242693 0.111782 0.585086
O O2 0.246141 0.113937 0.416132
O O3 0.000000 0.081072 0.498371
O O4 0.240848 0.000000 0.500000
O O5 0.250000 0.872004 0.250000
O O6 0.244421 0.766303 0.350298
O O7 0.000000 0.845906 0.333395
O O8 0.500000 0.678441 0.884922
O O9 0.276737 0.764382 0.847111
O O10 0.213989 0.637911 0.894095
O O11 0.310946 0.726945 0.999272
O O12 0.750000 0.564608 0.250000
O O13 0.751173 0.631002 0.387749
O O14 0.753101 0.495224 0.385479
O O15 0.000000 0.560019 0.341875
O O16 0.500000 0.303041 0.877661
O O17 0.250000 0.129035 0.250000
O O18 0.500000 0.146559 0.167198
O O19 0.750000 0.583372 0.750000
O O20 0.500000 0.559983 0.667347
#
# Coordination Sequence:
#
# PCOD8219048 Si02
#       7
#     8   8   8   8   8   8   8
#     4   9  18  35  59  85 115 152 190 225 270 336
#     4  10  19  35  58  85 115 149 191 232 277 330
#     4  10  19  35  56  77 104 141 186 231 275 326
#     4  10  19  33  52  74 101 137 181 227 276 329
#     4   9  18  33  55  78 104 142 186 228 272 332
#     4  10  20  35  58  84 112 148 189 233 277 327
#     4  11  22  36  52  74 104 139 179 226 280 333
#
# _framework density 20.322960999999999
#
# number of rings (size 3 to 8) (size 9 to 14) (size 15 to 20)
#    0.000    2.143    1.429    3.429    0.000    2.857 
#    0.000    6.429    0.000    0.857    0.000    0.000 
#    0.000    0.000    0.000    0.000    0.000    0.000 
#
# Total GULP energy -694194.118576 kJ/mol
# GULP energy per Si atom -12396.323546 kJ/mol
# Density = 2.027670 g / cm^3
# Si number density = 20.322961 Si / 1000 Ang^3
#
#
#
# Elastic Constant Matrix: (Units=GPa)
#
#
# Indices 1 2 3 4 5 6 
#
# 1 58.0165 33.1314 23.1145 0.0000 0.0000 0.0000
# 2 33.1314 143.8346 68.7384 0.0000 0.0000 0.0000
# 3 23.1145 68.7384 124.3104 0.0000 0.0000 0.0000
# 4 0.0000 0.0000 0.0000 30.4552 0.0000 0.0000
# 5 0.0000 0.0000 0.0000 0.0000 27.1619 0.0000
# 6 0.0000 0.0000 0.0000 0.0000 0.0000 12.9639
#
#
#
# Elastic Compliance Matrix: (Units=1/GPa)
#
#
# Indices 1 2 3 4 5 6 
#
# 1 0.020078 -0.003861 -0.001598 0.000000 0.000000 0.000000
# 2 -0.003861 0.010192 -0.004918 0.000000 0.000000 0.000000
# 3 -0.001598 -0.004918 0.011061 0.000000 0.000000 0.000000
# 4 0.000000 0.000000 0.000000 0.032835 0.000000 0.000000
# 5 0.000000 0.000000 0.000000 0.000000 0.036816 0.000000
# 6 0.000000 0.000000 0.000000 0.000000 0.000000 0.077137
#
#
# Mechanical properties :
#
#
# Convention : Reuss Voigt Hill
#
# Bulk Modulus (GPa) = 48.59873 64.01446 56.30659
# Shear Modulus (GPa) = 23.17676 27.52801 25.35239
#
# Velocity S-wave (km/s) = 3.38068 3.68438 3.53579
# Velocity P-wave (km/s) = 6.26129 7.04745 6.66597
#
# Compressibility (1/GPa) = 0.02057667
#
# Stress axis : x y z
#
# Youngs Moduli (GPa) = 49.80526 98.11607 90.40822
#
# Poissons Ratio (x) = 0.37883 0.14451
# Poissons Ratio (y) = 0.19230 0.44461
# Poissons Ratio (z) = 0.07961 0.48252
#
# Static dielectric constant tensor:
#      x y z
#    x 3.297970 0.000000 0.000000 
#    y 0.000000 4.084030 0.000000 
#    z 0.000000 0.000000 3.692810 
# 
# 
# High freq. dielectric constant tensor:
#      x y z
#    x 1.751910 0.000000 0.000000 
#    y 0.000000 1.805340 0.000000 
#    z 0.000000 0.000000 1.793150 
# 
# From -- ./inp_files/20446.got.cif
#   From: 2010.03.12/outbox.cif.g09.slc.cpg/sg53_11_cif.got.tgz:20446.got - 2010.04.16 14:36:59.
