data_PCOD8219647
_publ_section_title
;
Structure prediction by ZEFSAII (Michael W. Deem and Ramdas Pophale) SiO2 
 PCOD8219647
Probable space group: P M N A
;
_chemical_formula_sum "Si O2"
_cell_formula_units_Z 64
_cell_length_a 16.763906
_cell_length_b 20.418354
_cell_length_c 9.301846
_cell_angle_alpha 90.000000
_cell_angle_beta 90.000000
_cell_angle_gamma 90.000000
_cell_volume 3183.941584
_symmetry_space_group_name_H-M "P M N A"
_symmetry_group_IT_number 53
_symmetry_cell_setting 'orthorhombic'
loop_
_space_group_symop_operation_xyz
x,y,z
1/2-x,-y,1/2+z
x,-y,-z
1/2-x,y,1/2-z
-x,-y,-z
1/2+x,y,1/2-z
-x,y,z
1/2+x,-y,1/2+z
loop_
_atom_site_type_symbol
_atom_site_label
_atom_site_fract_x
_atom_site_fract_y
_atom_site_fract_z
Si Si1 0.366501 0.716052 0.509182
Si Si2 0.592374 0.484581 0.841660
Si Si3 0.733137 0.930851 0.423852
Si Si4 0.178905 0.285542 0.440357
Si Si5 0.589031 0.623445 0.738677
Si Si6 0.843047 0.346833 0.727101
Si Si7 0.326687 0.145995 0.152455
Si Si8 0.089720 0.138449 0.068383
O O1 0.273141 0.721445 0.543646
O O2 0.408205 0.652645 0.579541
O O3 0.383089 0.701121 0.342955
O O4 0.407891 0.782888 0.558966
O O5 0.500000 0.468928 0.859090
O O6 0.610010 0.546503 0.738587
O O7 0.630678 0.421986 0.766610
O O8 0.628781 0.500000 0.000000
O O9 0.750000 0.935071 0.250000
O O10 0.807197 0.898384 0.511860
O O11 0.651559 0.890416 0.450493
O O12 0.719649 0.000000 0.500000
O O13 0.158220 0.336829 0.317764
O O14 0.133785 0.313065 0.578680
O O15 0.140860 0.215119 0.404766
O O16 0.500000 0.632892 0.805553
O O17 0.750000 0.347157 0.750000
O O18 0.250000 0.159172 0.250000
O O19 0.390216 0.115438 0.266453
O O20 0.000000 0.114145 0.032895
#
# Coordination Sequence:
#
# PCOD8219647 Si02
#       8
#     8   8   8   8   8   8   8   8
#     4  11  22  37  57  91 123 157 203 262 317 375
#     4  10  21  40  57  76 110 155 203 257 318 386
#     4  11  24  44  74 103 135 178 223 258 305 377
#     4  11  19  36  61  86 116 160 203 254 311 379
#     4  11  22  36  59  83 111 157 207 254 317 383
#     4  10  24  37  57  85 115 152 206 264 319 373
#     4  10  19  37  65  94 128 167 213 255 309 374
#     4  11  23  40  65  99 140 175 214 269 326 377
#
# _framework density 20.100871999999999
#
# number of rings (size 3 to 8) (size 9 to 14) (size 15 to 20)
#    0.000    1.375    5.000    1.875    1.750    2.750 
#    0.000    1.875    0.000    1.500    0.000    0.000 
#    0.000    0.000    0.000    0.000    0.000    0.000 
#
# Total GULP energy -793162.424305 kJ/mol
# GULP energy per Si atom -12393.162880 kJ/mol
# Density = 2.005512 g / cm^3
# Si number density = 20.100872 Si / 1000 Ang^3
#
#
#
# Elastic Constant Matrix: (Units=GPa)
#
#
# Indices 1 2 3 4 5 6 
#
# 1 53.8404 14.8320 25.2558 0.0000 0.0000 0.0000
# 2 14.8320 88.5462 53.1900 0.0000 0.0000 0.0000
# 3 25.2558 53.1900 96.3114 0.0000 0.0000 0.0000
# 4 0.0000 0.0000 0.0000 36.8957 0.0000 0.0000
# 5 0.0000 0.0000 0.0000 0.0000 -0.1785 0.0000
# 6 0.0000 0.0000 0.0000 0.0000 0.0000 14.4542
#
#
#
# Elastic Compliance Matrix: (Units=1/GPa)
#
#
# Indices 1 2 3 4 5 6 
#
# 1 0.021184 -0.000316 -0.005380 0.000000 0.000000 0.000000
# 2 -0.000316 0.016905 -0.009253 0.000000 0.000000 0.000000
# 3 -0.005380 -0.009253 0.016904 0.000000 0.000000 0.000000
# 4 0.000000 0.000000 0.000000 0.027103 0.000000 0.000000
# 5 0.000000 0.000000 0.000000 0.000000 -5.601687 0.000000
# 6 0.000000 0.000000 0.000000 0.000000 0.000000 0.069184
#
#
# Mechanical properties :
#
#
# Convention : Reuss Voigt Hill
#
# Bulk Modulus (GPa) = 39.85099 47.25041 43.55070
# Shear Modulus (GPa) = -0.92385 19.92895 9.50255
#
# Velocity S-wave (km/s) = -0.67868 3.15214 2.17662
# Velocity P-wave (km/s) = 4.38798 6.06677 5.29434
#
# Compressibility (1/GPa) = 0.02509348
#
# Stress axis : x y z
#
# Youngs Moduli (GPa) = 47.20433 59.15433 59.15716
#
# Poissons Ratio (x) = 0.01872 0.31829
# Poissons Ratio (y) = 0.01494 0.54739
# Poissons Ratio (z) = 0.25398 0.54736
#
# Static dielectric constant tensor:
#      x y z
#    x 3.587480 0.000000 0.000000 
#    y 0.000000 3.692280 0.000000 
#    z 0.000000 0.000000 4.138270 
# 
# 
# High freq. dielectric constant tensor:
#      x y z
#    x 1.764040 0.000000 0.000000 
#    y 0.000000 1.784090 0.000000 
#    z 0.000000 0.000000 1.788430 
# 
# From -- ./inp_files/10258.got.cif
#   From: 2010.03.12/outbox.cif.g09.slc.cpg/sg53_6_cif.got.tgz:10258.got - 2010.04.16 14:36:59.
