data_PCOD8219075
_publ_section_title
;
Structure prediction by ZEFSAII (Michael W. Deem and Ramdas Pophale) SiO2 
 PCOD8219075
Probable space group: P M N A
;
_chemical_formula_sum "Si O2"
_cell_formula_units_Z 56
_cell_length_a 8.683250
_cell_length_b 18.886180
_cell_length_c 18.213381
_cell_angle_alpha 90.000000
_cell_angle_beta 90.000000
_cell_angle_gamma 90.000000
_cell_volume 2986.874685
_symmetry_space_group_name_H-M "P M N A"
_symmetry_group_IT_number 53
_symmetry_cell_setting 'orthorhombic'
loop_
_space_group_symop_operation_xyz
x,y,z
1/2-x,-y,1/2+z
x,-y,-z
1/2-x,y,1/2-z
-x,-y,-z
1/2+x,y,1/2-z
-x,y,z
1/2+x,-y,1/2+z
loop_
_atom_site_type_symbol
_atom_site_label
_atom_site_fract_x
_atom_site_fract_y
_atom_site_fract_z
Si Si1 0.680812 0.784031 0.098737
Si Si2 0.680366 0.073917 0.579102
Si Si3 0.319665 0.792558 0.829940
Si Si4 0.818818 0.358800 0.672427
Si Si5 0.321203 0.427974 0.535597
Si Si6 0.820577 0.069915 0.420983
Si Si7 0.821061 0.717163 0.960554
O O1 0.500000 0.796065 0.104825
O O2 0.766588 0.855933 0.123265
O O3 0.739385 0.719994 0.150426
O O4 0.721985 0.766229 0.014712
O O5 0.500000 0.062360 0.588693
O O6 0.721992 0.084365 0.493763
O O7 0.768966 0.005846 0.612346
O O8 0.250000 0.787188 0.750000
O O9 0.500000 0.776709 0.827832
O O10 0.283255 0.870407 0.861360
O O11 0.236770 0.732585 0.878650
O O12 0.750000 0.381390 0.750000
O O13 0.766776 0.415046 0.611644
O O14 0.000000 0.360024 0.677742
O O15 0.256875 0.500000 0.500000
O O16 0.500000 0.435128 0.555105
O O17 0.290630 0.365150 0.477787
O O18 0.000000 0.068625 0.442313
O O19 0.000000 0.736658 0.969954
#
# Coordination Sequence:
#
# PCOD8219075 Si02
#       7
#     8   8   8   8   8   8   8
#     4  10  19  33  53  78 108 142 180 223 272 325
#     4  11  20  30  51  79 104 135 178 229 274 325
#     4  11  23  37  55  76 106 145 185 231 280 330
#     4  10  21  36  57  84 115 149 185 226 274 330
#     4   9  19  37  61  88 117 148 182 222 269 324
#     4  10  20  34  51  72 103 140 178 226 280 330
#     4  10  19  33  56  82 108 138 178 224 267 320
#
# _framework density 18.748695000000001
#
# number of rings (size 3 to 8) (size 9 to 14) (size 15 to 20)
#    0.000    1.857    1.429    4.286    0.000    4.286 
#    0.000    1.429    0.000    0.000    0.000    0.000 
#    0.000    0.000    0.000    0.000    0.000    0.000 
#
# Total GULP energy -694562.585398 kJ/mol
# GULP energy per Si atom -12402.903311 kJ/mol
# Density = 1.870602 g / cm^3
# Si number density = 18.748695 Si / 1000 Ang^3
#
#
#
# Elastic Constant Matrix: (Units=GPa)
#
#
# Indices 1 2 3 4 5 6 
#
# 1 68.5933 32.3078 29.7277 0.0000 0.0000 0.0000
# 2 32.3078 118.6060 46.8030 0.0000 0.0000 0.0000
# 3 29.7277 46.8030 110.9877 0.0000 0.0000 0.0000
# 4 0.0000 0.0000 0.0000 2.6713 0.0000 0.0000
# 5 0.0000 0.0000 0.0000 0.0000 27.1808 0.0000
# 6 0.0000 0.0000 0.0000 0.0000 0.0000 27.2781
#
#
#
# Elastic Compliance Matrix: (Units=1/GPa)
#
#
# Indices 1 2 3 4 5 6 
#
# 1 0.017644 -0.003528 -0.003238 0.000000 0.000000 0.000000
# 2 -0.003528 0.010820 -0.003618 0.000000 0.000000 0.000000
# 3 -0.003238 -0.003618 0.011403 0.000000 0.000000 0.000000
# 4 0.000000 0.000000 0.000000 0.374351 0.000000 0.000000
# 5 0.000000 0.000000 0.000000 0.000000 0.036791 0.000000
# 6 0.000000 0.000000 0.000000 0.000000 0.000000 0.036659
#
#
# Mechanical properties :
#
#
# Convention : Reuss Voigt Hill
#
# Bulk Modulus (GPa) = 52.35969 57.31822 54.83895
# Shear Modulus (GPa) = 9.71247 24.04929 16.88088
#
# Velocity S-wave (km/s) = 2.27851 3.58539 3.00388
# Velocity P-wave (km/s) = 5.90846 6.91218 6.42993
#
# Compressibility (1/GPa) = 0.01909866
#
# Stress axis : x y z
#
# Youngs Moduli (GPa) = 56.67690 92.42181 87.69756
#
# Poissons Ratio (x) = 0.32610 0.28396
# Poissons Ratio (y) = 0.19998 0.31726
# Poissons Ratio (z) = 0.18352 0.33435
#
# Static dielectric constant tensor:
#      x y z
#    x 3.470100 0.000000 0.000000 
#    y 0.000000 3.718060 0.000000 
#    z 0.000000 0.000000 3.257030 
# 
# 
# High freq. dielectric constant tensor:
#      x y z
#    x 1.739200 0.000000 0.000000 
#    y 0.000000 1.730810 0.000000 
#    z 0.000000 0.000000 1.699870 
# 
# From -- ./inp_files/26682.got.cif
#   From: 2010.03.12/outbox.cif.g09.slc.cpg/sg53_14_cif.got.tgz:26682.got - 2010.04.16 14:36:59.
