data_PCOD8219223
_publ_section_title
;
Structure prediction by ZEFSAII (Michael W. Deem and Ramdas Pophale) SiO2 
 PCOD8219223
Probable space group: P M N A
;
_chemical_formula_sum "Si O2"
_cell_formula_units_Z 64
_cell_length_a 9.009088
_cell_length_b 12.929687
_cell_length_c 28.130228
_cell_angle_alpha 90.000000
_cell_angle_beta 90.000000
_cell_angle_gamma 90.000000
_cell_volume 3276.740832
_symmetry_space_group_name_H-M "P M N A"
_symmetry_group_IT_number 53
_symmetry_cell_setting 'orthorhombic'
loop_
_space_group_symop_operation_xyz
x,y,z
1/2-x,-y,1/2+z
x,-y,-z
1/2-x,y,1/2-z
-x,-y,-z
1/2+x,y,1/2-z
-x,y,z
1/2+x,-y,1/2+z
loop_
_atom_site_type_symbol
_atom_site_label
_atom_site_fract_x
_atom_site_fract_y
_atom_site_fract_z
Si Si1 0.675219 0.721119 0.199369
Si Si2 0.672216 0.532193 0.350932
Si Si3 0.675615 0.121424 0.356869
Si Si4 0.676070 0.542168 0.549059
Si Si5 0.828586 0.907618 0.033619
Si Si6 0.325094 0.913111 0.133844
Si Si7 0.827605 0.320611 0.200702
Si Si8 0.671432 0.232017 0.448658
O O1 0.750000 0.738877 0.250000
O O2 0.500000 0.715604 0.206593
O O3 0.727699 0.613817 0.176530
O O4 0.722988 0.815047 0.165260
O O5 0.500000 0.560486 0.342615
O O6 0.713831 0.533702 0.407009
O O7 0.708022 0.416733 0.333364
O O8 0.500000 0.103927 0.353842
O O9 0.729523 0.214088 0.322727
O O10 0.732388 0.149077 0.410384
O O11 0.755151 0.015132 0.342004
O O12 0.745273 0.500000 0.500000
O O13 0.500000 0.553403 0.543825
O O14 0.746805 0.655866 0.557573
O O15 0.732973 0.896279 0.080656
O O16 0.000000 0.926602 0.048172
O O17 0.807441 0.803606 0.002972
O O18 0.771974 0.000000 0.000000
O O19 0.500000 0.926047 0.132336
O O20 0.750000 0.341311 0.250000
O O21 0.000000 0.311655 0.210723
O O22 0.500000 0.243344 0.434996
#
# Coordination Sequence:
#
# PCOD8219223 Si02
#       8
#     8   8   8   8   8   8   8   8
#     4  11  26  46  64  84 115 156 204 258 307 356
#     4  10  20  37  63  92 121 154 193 239 294 352
#     4  10  19  37  60  83 115 153 193 240 290 347
#     4   9  17  29  51  88 125 153 187 234 282 335
#     4  10  19  33  58  88 114 150 199 240 278 338
#     4  11  25  41  58  85 122 157 196 248 303 356
#     4  10  21  36  58  87 117 147 184 238 296 352
#     4   9  16  30  52  81 117 150 190 237 279 329
#
# _framework density 19.531604000000002
#
# number of rings (size 3 to 8) (size 9 to 14) (size 15 to 20)
#    0.000    2.000    2.500    1.125    1.750    4.750 
#    0.000    2.500    0.000    1.125    0.000    0.000 
#    0.000    0.000    0.000    0.000    0.000    0.000 
#
# Total GULP energy -793522.721698 kJ/mol
# GULP energy per Si atom -12398.792527 kJ/mol
# Density = 1.948715 g / cm^3
# Si number density = 19.531604 Si / 1000 Ang^3
#
#
#
# Elastic Constant Matrix: (Units=GPa)
#
#
# Indices 1 2 3 4 5 6 
#
# 1 48.0594 39.7827 39.6529 0.0000 0.0000 0.0000
# 2 39.7827 103.4484 38.7333 0.0000 0.0000 0.0000
# 3 39.6529 38.7333 123.9253 0.0000 0.0000 0.0000
# 4 0.0000 0.0000 0.0000 6.7227 0.0000 0.0000
# 5 0.0000 0.0000 0.0000 0.0000 24.8631 0.0000
# 6 0.0000 0.0000 0.0000 0.0000 0.0000 10.0883
#
#
#
# Elastic Compliance Matrix: (Units=1/GPa)
#
#
# Indices 1 2 3 4 5 6 
#
# 1 0.036820 -0.011041 -0.008331 0.000000 0.000000 0.000000
# 2 -0.011041 0.014258 -0.000924 0.000000 0.000000 0.000000
# 3 -0.008331 -0.000924 0.011024 0.000000 0.000000 0.000000
# 4 0.000000 0.000000 0.000000 0.148750 0.000000 0.000000
# 5 0.000000 0.000000 0.000000 0.000000 0.040220 0.000000
# 6 0.000000 0.000000 0.000000 0.000000 0.000000 0.099125
#
#
# Mechanical properties :
#
#
# Convention : Reuss Voigt Hill
#
# Bulk Modulus (GPa) = 46.48543 56.86344 51.67444
# Shear Modulus (GPa) = 12.56409 18.81908 15.69158
#
# Velocity S-wave (km/s) = 2.53903 3.10743 2.83750
# Velocity P-wave (km/s) = 5.69626 6.48472 6.10323
#
# Compressibility (1/GPa) = 0.02151212
#
# Stress axis : x y z
#
# Youngs Moduli (GPa) = 27.15881 70.13405 90.71318
#
# Poissons Ratio (x) = 0.77433 0.75571
# Poissons Ratio (y) = 0.29985 0.08380
# Poissons Ratio (z) = 0.22625 0.06479
#
# Static dielectric constant tensor:
#      x y z
#    x 3.181900 0.000000 0.000000 
#    y 0.000000 3.741140 0.000000 
#    z 0.000000 0.000000 2.285450 
# 
# 
# High freq. dielectric constant tensor:
#      x y z
#    x 1.718490 0.000000 0.000000 
#    y 0.000000 1.774410 0.000000 
#    z 0.000000 0.000000 1.770350 
# 
# From -- ./inp_files/38123.got.cif
#   From: 2010.03.12/outbox.cif.g09.slc.cpg/sg53_20_cif.got.tgz:38123.got - 2010.04.16 14:36:59.
