data_PCOD8219200
_publ_section_title
;
Structure prediction by ZEFSAII (Michael W. Deem and Ramdas Pophale) SiO2 
 PCOD8219200
Probable space group: P M N A
;
_chemical_formula_sum "Si O2"
_cell_formula_units_Z 48
_cell_length_a 15.192998
_cell_length_b 9.998407
_cell_length_c 17.173023
_cell_angle_alpha 90.000000
_cell_angle_beta 90.000000
_cell_angle_gamma 90.000000
_cell_volume 2608.681412
_symmetry_space_group_name_H-M "P M N A"
_symmetry_group_IT_number 53
_symmetry_cell_setting 'orthorhombic'
loop_
_space_group_symop_operation_xyz
x,y,z
1/2-x,-y,1/2+z
x,-y,-z
1/2-x,y,1/2-z
-x,-y,-z
1/2+x,y,1/2-z
-x,y,z
1/2+x,-y,1/2+z
loop_
_atom_site_type_symbol
_atom_site_label
_atom_site_fract_x
_atom_site_fract_y
_atom_site_fract_z
Si Si1 0.500000 0.481525 0.818419
Si Si2 0.175451 0.861939 0.957472
Si Si3 0.169438 0.619556 0.059659
Si Si4 0.833049 0.491787 0.406493
Si Si5 0.805806 0.795771 0.669291
Si Si6 0.500000 0.204621 0.208835
Si Si7 0.000000 0.432845 0.856476
Si Si8 0.000000 0.749654 0.883120
O O1 0.584529 0.435500 0.867080
O O2 0.500000 0.640231 0.810851
O O3 0.500000 0.410499 0.735568
O O4 0.248081 0.886102 0.889689
O O5 0.085684 0.799340 0.926465
O O6 0.207731 0.752411 0.019333
O O7 0.156413 0.000000 0.000000
O O8 0.246429 0.573634 0.118195
O O9 0.082858 0.646851 0.109685
O O10 0.148454 0.500000 0.000000
O O11 0.844191 0.500000 0.500000
O O12 0.817768 0.345457 0.372398
O O13 0.750000 0.782388 0.750000
O O14 0.905822 0.857007 0.678710
O O15 0.500000 0.180987 0.300072
O O16 0.000000 0.588977 0.878924
#
# Coordination Sequence:
#
# PCOD8219200 Si02
#       8
#     4   8   8   8   8   4   4   4
#     4   9  21  30  53  89 118 152 185 248 295 344
#     4  12  24  38  60  88 118 157 197 247 300 349
#     4  11  20  35  58  84 119 151 188 239 299 357
#     4  10  19  33  56  86 116 148 191 240 290 345
#     4  11  20  37  61  89 120 153 204 244 288 355
#     4   9  20  31  58  90 113 149 199 246 280 332
#     4  11  20  33  58  87 122 146 194 241 304 349
#     4  11  18  35  58  93 113 145 190 249 296 352
#
# _framework density 18.400099999999998
#
# number of rings (size 3 to 8) (size 9 to 14) (size 15 to 20)
#    0.000    1.333    6.667    1.250    4.667    0.000 
#    0.000    0.417    3.667    0.000    0.000    0.000 
#    0.000    0.000    0.000    0.000    0.000    0.000 
#
# Total GULP energy -594761.368166 kJ/mol
# GULP energy per Si atom -12390.861837 kJ/mol
# Density = 1.835822 g / cm^3
# Si number density = 18.400100 Si / 1000 Ang^3
#
#
#
# Elastic Constant Matrix: (Units=GPa)
#
#
# Indices 1 2 3 4 5 6 
#
# 1 149.1885 1.3891 51.0439 0.0000 0.0000 0.0000
# 2 1.3891 42.9958 21.4877 0.0000 0.0000 0.0000
# 3 51.0439 21.4877 97.2018 0.0000 0.0000 0.0000
# 4 0.0000 0.0000 0.0000 17.3566 0.0000 0.0000
# 5 0.0000 0.0000 0.0000 0.0000 1.4621 0.0000
# 6 0.0000 0.0000 0.0000 0.0000 0.0000 -179.5827
#
#
#
# Elastic Compliance Matrix: (Units=1/GPa)
#
#
# Indices 1 2 3 4 5 6 
#
# 1 0.008346 0.002159 -0.004860 0.000000 0.000000 0.000000
# 2 0.002159 0.026705 -0.007037 0.000000 0.000000 0.000000
# 3 -0.004860 -0.007037 0.014396 0.000000 0.000000 0.000000
# 4 0.000000 0.000000 0.000000 0.057615 0.000000 0.000000
# 5 0.000000 0.000000 0.000000 0.000000 0.683946 0.000000
# 6 0.000000 0.000000 0.000000 0.000000 0.000000 -0.005568
#
#
# Mechanical properties :
#
#
# Convention : Reuss Voigt Hill
#
# Bulk Modulus (GPa) = 33.36628 48.58086 40.97357
# Shear Modulus (GPa) = 6.13568 -17.78845 -5.82638
#
# Velocity S-wave (km/s) = 1.82807 -3.11265 -1.78140
# Velocity P-wave (km/s) = 4.75698 3.67991 4.25268
#
# Compressibility (1/GPa) = 0.02997038
#
# Stress axis : x y z
#
# Youngs Moduli (GPa) = 119.82372 37.44564 69.46541
#
# Poissons Ratio (x) = -0.08085 0.33759
# Poissons Ratio (y) = -0.25872 0.48886
# Poissons Ratio (z) = 0.58233 0.26352
#
# Static dielectric constant tensor:
#      x y z
#    x 4.022020 0.000000 0.000000 
#    y 0.000000 2.918030 0.000000 
#    z 0.000000 0.000000 3.572090 
# 
# 
# High freq. dielectric constant tensor:
#      x y z
#    x 1.741230 0.000000 0.000000 
#    y 0.000000 1.654210 0.000000 
#    z 0.000000 0.000000 1.717800 
# 
# From -- ./inp_files/28346.got.cif
#   From: 2010.03.12/outbox.cif.g09.slc.cpg/sg53_15_cif.got.tgz:28346.got - 2010.04.16 14:36:59.
