data_PCOD8219796
_publ_section_title
;
Structure prediction by ZEFSAII (Michael W. Deem and Ramdas Pophale) SiO2 
 PCOD8219796
Probable space group: P M N A
;
_chemical_formula_sum "Si O2"
_cell_formula_units_Z 64
_cell_length_a 9.030177
_cell_length_b 15.051556
_cell_length_c 24.563926
_cell_angle_alpha 90.000000
_cell_angle_beta 90.000000
_cell_angle_gamma 90.000000
_cell_volume 3338.684971
_symmetry_space_group_name_H-M "P M N A"
_symmetry_group_IT_number 53
_symmetry_cell_setting 'orthorhombic'
loop_
_space_group_symop_operation_xyz
x,y,z
1/2-x,-y,1/2+z
x,-y,-z
1/2-x,y,1/2-z
-x,-y,-z
1/2+x,y,1/2-z
-x,y,z
1/2+x,-y,1/2+z
loop_
_atom_site_type_symbol
_atom_site_label
_atom_site_fract_x
_atom_site_fract_y
_atom_site_fract_z
Si Si1 0.824741 0.724482 0.614984
Si Si2 0.826791 0.430339 0.304529
Si Si3 0.161788 0.442225 0.952446
Si Si4 0.325449 0.859383 0.693962
Si Si5 0.827371 0.063292 0.804992
Si Si6 0.328948 0.610959 0.145577
Si Si7 0.324469 0.211763 0.613264
Si Si8 0.161855 0.746084 0.997485
O O1 0.777424 0.630745 0.643483
O O2 0.744740 0.804543 0.645337
O O3 0.773708 0.733230 0.552332
O O4 0.000000 0.737895 0.616802
O O5 0.750000 0.393491 0.250000
O O6 0.787375 0.535831 0.309605
O O7 0.000000 0.418041 0.296647
O O8 0.290728 0.443785 0.908498
O O9 0.000000 0.479504 0.931908
O O10 0.230558 0.500000 0.000000
O O11 0.130200 0.345910 0.974252
O O12 0.250000 0.828864 0.750000
O O13 0.500000 0.842093 0.698035
O O14 0.287481 0.961871 0.681309
O O15 0.750000 0.095859 0.750000
O O16 0.771040 0.124231 0.854774
O O17 0.000000 0.075882 0.795338
O O18 0.500000 0.636961 0.147717
O O19 0.236742 0.702170 0.146524
O O20 0.500000 0.222357 0.613991
O O21 0.270998 0.199106 0.549852
O O22 0.000000 0.784229 0.978038
#
# Coordination Sequence:
#
# PCOD8219796 Si02
#       8
#     8   8   8   8   8   8   8   8
#     4  11  22  36  54  77 106 141 180 222 269 318
#     4  10  23  38  51  72 103 139 178 219 265 317
#     4   9  17  30  49  72  97 130 173 215 255 303
#     4  10  20  36  58  83 108 136 173 218 269 321
#     4   9  19  36  59  84 109 137 171 215 265 319
#     4  10  20  33  49  73 103 134 170 212 258 304
#     4   9  19  37  57  79 109 144 180 216 259 315
#     4   9  18  32  51  75 103 137 178 219 259 310
#
# _framework density 19.169225000000001
#
# number of rings (size 3 to 8) (size 9 to 14) (size 15 to 20)
#    0.000    2.375    0.000    3.000    0.000    6.750 
#    0.000    3.125    0.000    3.750    0.000    0.000 
#    0.000    0.000    0.000    0.000    0.000    0.000 
#
# Total GULP energy -792891.559722 kJ/mol
# GULP energy per Si atom -12388.930621 kJ/mol
# Density = 1.912560 g / cm^3
# Si number density = 19.169225 Si / 1000 Ang^3
#
#
#
# Elastic Constant Matrix: (Units=GPa)
#
#
# Indices 1 2 3 4 5 6 
#
# 1 54.9017 33.7609 42.7034 0.0000 0.0000 0.0000
# 2 33.7609 54.8879 37.0476 0.0000 0.0000 0.0000
# 3 42.7034 37.0476 108.3855 0.0000 0.0000 0.0000
# 4 0.0000 0.0000 0.0000 4.9386 0.0000 0.0000
# 5 0.0000 0.0000 0.0000 0.0000 32.7381 0.0000
# 6 0.0000 0.0000 0.0000 0.0000 0.0000 25.2261
#
#
#
# Elastic Compliance Matrix: (Units=1/GPa)
#
#
# Indices 1 2 3 4 5 6 
#
# 1 0.034038 -0.015449 -0.008130 0.000000 0.000000 0.000000
# 2 -0.015449 0.030695 -0.004405 0.000000 0.000000 0.000000
# 3 -0.008130 -0.004405 0.013935 0.000000 0.000000 0.000000
# 4 0.000000 0.000000 0.000000 0.202488 0.000000 0.000000
# 5 0.000000 0.000000 0.000000 0.000000 0.030545 0.000000
# 6 0.000000 0.000000 0.000000 0.000000 0.000000 0.039642
#
#
# Mechanical properties :
#
#
# Convention : Reuss Voigt Hill
#
# Bulk Modulus (GPa) = 44.05320 49.46653 46.75986
# Shear Modulus (GPa) = 12.05174 19.55810 15.80492
#
# Velocity S-wave (km/s) = 2.51011 3.19766 2.87452
# Velocity P-wave (km/s) = 5.60642 6.28447 5.95510
#
# Compressibility (1/GPa) = 0.02269983
#
# Stress axis : x y z
#
# Youngs Moduli (GPa) = 29.37879 32.57903 71.76005
#
# Poissons Ratio (x) = 0.50331 0.58343
# Poissons Ratio (y) = 0.45387 0.31611
# Poissons Ratio (z) = 0.23886 0.14351
#
# Static dielectric constant tensor:
#      x y z
#    x 3.503420 0.000000 0.000000 
#    y 0.000000 3.517710 0.000000 
#    z 0.000000 0.000000 3.461310 
# 
# 
# High freq. dielectric constant tensor:
#      x y z
#    x 1.741010 0.000000 0.000000 
#    y 0.000000 1.737770 0.000000 
#    z 0.000000 0.000000 1.743460 
# 
# From -- ./inp_files/34307.got.cif
#   From: 2010.03.12/outbox.cif.g09.slc.cpg/sg53_18_cif.got.tgz:34307.got - 2010.04.16 14:36:59.
