data_PCOD8219436
_publ_section_title
;
Structure prediction by ZEFSAII (Michael W. Deem and Ramdas Pophale) SiO2 
 PCOD8219436
Probable space group: P M N A
;
_chemical_formula_sum "Si O2"
_cell_formula_units_Z 64
_cell_length_a 15.165309
_cell_length_b 17.627876
_cell_length_c 11.298502
_cell_angle_alpha 90.000000
_cell_angle_beta 90.000000
_cell_angle_gamma 90.000000
_cell_volume 3020.453244
_symmetry_space_group_name_H-M "P M N A"
_symmetry_group_IT_number 53
_symmetry_cell_setting 'orthorhombic'
loop_
_space_group_symop_operation_xyz
x,y,z
1/2-x,-y,1/2+z
x,-y,-z
1/2-x,y,1/2-z
-x,-y,-z
1/2+x,y,1/2-z
-x,y,z
1/2+x,-y,1/2+z
loop_
_atom_site_type_symbol
_atom_site_label
_atom_site_fract_x
_atom_site_fract_y
_atom_site_fract_z
Si Si1 0.399384 0.817956 0.172474
Si Si2 0.899705 0.477161 0.683662
Si Si3 0.598132 0.285446 0.433396
Si Si4 0.344410 0.353506 0.205258
Si Si5 0.900305 0.144016 0.937597
Si Si6 0.398753 0.426594 0.558279
Si Si7 0.895673 0.665721 0.449657
Si Si8 0.763004 0.950109 0.386394
O O1 0.500000 0.834459 0.127876
O O2 0.397683 0.811954 0.313336
O O3 0.363970 0.736181 0.129091
O O4 0.333511 0.882275 0.124365
O O5 0.848089 0.555381 0.697380
O O6 0.893055 0.427983 0.801992
O O7 0.858508 0.418143 0.588274
O O8 0.000000 0.500015 0.652943
O O9 0.500000 0.277677 0.486345
O O10 0.590552 0.312545 0.297670
O O11 0.637274 0.201949 0.460553
O O12 0.649624 0.351391 0.507439
O O13 0.250000 0.327471 0.250000
O O14 0.363703 0.315582 0.080583
O O15 0.833539 0.074394 0.931490
O O16 0.000000 0.114108 0.964649
O O17 0.352035 0.500000 0.500000
O O18 0.500000 0.424845 0.512517
O O19 0.000000 0.657942 0.441337
O O20 0.750000 0.985489 0.250000
O O21 0.797193 0.000000 0.500000
#
# Coordination Sequence:
#
# PCOD8219436 Si02
#       8
#     8   8   8   8   8   8   8   8
#     4   9  19  39  66  94 122 155 204 254 300 361
#     4  10  19  37  59  76 101 149 205 249 297 354
#     4  10  19  35  57  79 108 148 194 243 299 355
#     4  12  25  36  46  76 118 158 192 250 308 357
#     4   9  19  37  64  94 122 158 202 246 296 360
#     4   9  15  27  52  78  98 130 184 243 292 341
#     4  10  21  39  62  81 106 152 208 253 297 360
#     4  10  22  42  67  97 131 167 200 245 307 372
#
# _framework density 21.188873000000001
#
# number of rings (size 3 to 8) (size 9 to 14) (size 15 to 20)
#    0.000    2.125    1.250    2.250    1.750    4.500 
#    6.750    1.875    0.000    0.000    0.000    0.000 
#    0.000    0.000    0.000    0.000    0.000    0.000 
#
# Total GULP energy -792866.861234 kJ/mol
# GULP energy per Si atom -12388.544707 kJ/mol
# Density = 2.114065 g / cm^3
# Si number density = 21.188873 Si / 1000 Ang^3
#
#
#
# Elastic Constant Matrix: (Units=GPa)
#
#
# Indices 1 2 3 4 5 6 
#
# 1 43.8992 23.0975 5.3042 0.0000 0.0000 0.0000
# 2 23.0975 71.7766 34.5863 0.0000 0.0000 0.0000
# 3 5.3042 34.5863 99.6258 0.0000 0.0000 0.0000
# 4 0.0000 0.0000 0.0000 529.7225 0.0000 0.0000
# 5 0.0000 0.0000 0.0000 0.0000 20.2526 0.0000
# 6 0.0000 0.0000 0.0000 0.0000 0.0000 25.8056
#
#
#
# Elastic Compliance Matrix: (Units=1/GPa)
#
#
# Indices 1 2 3 4 5 6 
#
# 1 0.027734 -0.009863 0.001948 0.000000 0.000000 0.000000
# 2 -0.009863 0.020239 -0.006501 0.000000 0.000000 0.000000
# 3 0.001948 -0.006501 0.012191 0.000000 0.000000 0.000000
# 4 0.000000 0.000000 0.000000 0.001888 0.000000 0.000000
# 5 0.000000 0.000000 0.000000 0.000000 0.049376 0.000000
# 6 0.000000 0.000000 0.000000 0.000000 0.000000 0.038751
#
#
# Mechanical properties :
#
#
# Convention : Reuss Voigt Hill
#
# Bulk Modulus (GPa) = 31.91832 37.91973 34.91903
# Shear Modulus (GPa) = 26.39153 125.31038 75.85096
#
# Velocity S-wave (km/s) = 3.53305 7.69858 5.98960
# Velocity P-wave (km/s) = 5.63379 9.84678 8.02180
#
# Compressibility (1/GPa) = 0.03132997
#
# Stress axis : x y z
#
# Youngs Moduli (GPa) = 36.05738 49.41057 82.02930
#
# Poissons Ratio (x) = 0.48734 -0.15975
# Poissons Ratio (y) = 0.35564 0.53327
# Poissons Ratio (z) = -0.07022 0.32122
#
# Static dielectric constant tensor:
#      x y z
#    x 3.694220 0.000000 0.000000 
#    y 0.000000 3.650280 0.000000 
#    z 0.000000 0.000000 3.789060 
# 
# 
# High freq. dielectric constant tensor:
#      x y z
#    x 1.813520 0.000000 0.000000 
#    y 0.000000 1.806160 0.000000 
#    z 0.000000 0.000000 1.835320 
# 
# From -- ./inp_files/16203.got.cif
#   From: 2010.03.12/outbox.cif.g09.slc.cpg/sg53_9_cif.got.tgz:16203.got - 2010.04.16 14:36:59.
