data_PCOD8219661
_publ_section_title
;
Structure prediction by ZEFSAII (Michael W. Deem and Ramdas Pophale) SiO2 
 PCOD8219661
Probable space group: P M N A
;
_chemical_formula_sum "Si O2"
_cell_formula_units_Z 64
_cell_length_a 18.039193
_cell_length_b 12.590744
_cell_length_c 14.189852
_cell_angle_alpha 90.000000
_cell_angle_beta 90.000000
_cell_angle_gamma 90.000000
_cell_volume 3222.896543
_symmetry_space_group_name_H-M "P M N A"
_symmetry_group_IT_number 53
_symmetry_cell_setting 'orthorhombic'
loop_
_space_group_symop_operation_xyz
x,y,z
1/2-x,-y,1/2+z
x,-y,-z
1/2-x,y,1/2-z
-x,-y,-z
1/2+x,y,1/2-z
-x,y,z
1/2+x,-y,1/2+z
loop_
_atom_site_type_symbol
_atom_site_label
_atom_site_fract_x
_atom_site_fract_y
_atom_site_fract_z
Si Si1 0.824159 0.279015 0.193523
Si Si2 0.585261 0.896102 0.806507
Si Si3 0.826429 0.681476 0.198035
Si Si4 0.762548 0.277114 0.000580
Si Si5 0.384433 0.822112 0.005903
Si Si6 0.082027 0.867507 0.287256
Si Si7 0.628655 0.400676 0.056640
Si Si8 0.587821 0.469299 0.263479
O O1 0.750000 0.311567 0.250000
O O2 0.865132 0.191552 0.256200
O O3 0.874458 0.382401 0.168725
O O4 0.808104 0.232120 0.089762
O O5 0.500000 0.868068 0.787136
O O6 0.600784 0.901249 0.919001
O O7 0.605542 0.011543 0.764171
O O8 0.750000 0.653306 0.250000
O O9 0.815622 0.695263 0.086505
O O10 0.858709 0.789349 0.241412
O O11 0.884007 0.587408 0.216488
O O12 0.703809 0.185643 0.971137
O O13 0.716498 0.382128 0.034719
O O14 0.415351 0.705642 0.974077
O O15 0.425203 0.857477 0.099890
O O16 0.000000 0.843907 0.246004
O O17 0.614968 0.425474 0.164095
O O18 0.596690 0.500000 0.000000
O O19 0.500000 0.469242 0.274465
#
# Coordination Sequence:
#
# PCOD8219661 Si02
#       8
#     8   8   8   8   8   8   8   8
#     4  12  21  41  66  95 126 165 212 265 315 378
#     4  11  23  41  65  94 133 168 208 265 324 381
#     4  12  24  44  65  92 130 169 212 259 314 381
#     4  10  23  39  62  98 123 167 208 268 317 367
#     4  10  19  38  63  97 128 158 209 264 327 378
#     4  11  24  42  64  93 130 172 211 260 323 384
#     4  10  20  36  60  92 127 159 203 255 320 374
#     4  12  25  40  65  93 129 170 208 259 317 381
#
# _framework density 19.857913
#
# number of rings (size 3 to 8) (size 9 to 14) (size 15 to 20)
#    0.750    0.250    5.000    3.375    1.750    2.250 
#    0.000    3.750    0.000    1.500    0.000    0.000 
#    0.000    0.000    0.000    0.000    0.000    0.000 
#
# Total GULP energy -793339.306749 kJ/mol
# GULP energy per Si atom -12395.926668 kJ/mol
# Density = 1.981272 g / cm^3
# Si number density = 19.857913 Si / 1000 Ang^3
#
#
#
# Elastic Constant Matrix: (Units=GPa)
#
#
# Indices 1 2 3 4 5 6 
#
# 1 120.1473 52.3077 37.0638 0.0000 0.0000 0.0000
# 2 52.3077 96.7348 13.2893 0.0000 0.0000 0.0000
# 3 37.0638 13.2893 74.7635 0.0000 0.0000 0.0000
# 4 0.0000 0.0000 0.0000 15.8854 0.0000 0.0000
# 5 0.0000 0.0000 0.0000 0.0000 11.4763 0.0000
# 6 0.0000 0.0000 0.0000 0.0000 0.0000 35.5779
#
#
#
# Elastic Compliance Matrix: (Units=1/GPa)
#
#
# Indices 1 2 3 4 5 6 
#
# 1 0.012559 -0.006084 -0.005145 0.000000 0.000000 0.000000
# 2 -0.006084 0.013544 0.000609 0.000000 0.000000 0.000000
# 3 -0.005145 0.000609 0.015818 0.000000 0.000000 0.000000
# 4 0.000000 0.000000 0.000000 0.062951 0.000000 0.000000
# 5 0.000000 0.000000 0.000000 0.000000 0.087136 0.000000
# 6 0.000000 0.000000 0.000000 0.000000 0.000000 0.028107
#
#
# Mechanical properties :
#
#
# Convention : Reuss Voigt Hill
#
# Bulk Modulus (GPa) = 48.35485 55.21861 51.78673
# Shear Modulus (GPa) = 20.14111 25.18692 22.66401
#
# Velocity S-wave (km/s) = 3.18820 3.56526 3.38199
# Velocity P-wave (km/s) = 6.16085 6.69443 6.43317
#
# Compressibility (1/GPa) = 0.02068045
#
# Stress axis : x y z
#
# Youngs Moduli (GPa) = 79.62382 73.83399 63.22026
#
# Poissons Ratio (x) = 0.44923 0.32524
# Poissons Ratio (y) = 0.48446 -0.03849
# Poissons Ratio (z) = 0.40963 -0.04495
#
# Static dielectric constant tensor:
#      x y z
#    x 3.540230 0.000000 0.000000 
#    y 0.000000 1.818890 0.000000 
#    z 0.000000 0.000000 3.163060 
# 
# 
# High freq. dielectric constant tensor:
#      x y z
#    x 1.769740 0.000000 0.000000 
#    y 0.000000 1.774590 0.000000 
#    z 0.000000 0.000000 1.762400 
# 
# From -- ./inp_files/23913.got.cif
#   From: 2010.03.12/outbox.cif.g09.slc.cpg/sg53_12_cif.got.tgz:23913.got - 2010.04.16 14:36:59.
