data_PCOD8219586
_publ_section_title
;
Structure prediction by ZEFSAII (Michael W. Deem and Ramdas Pophale) SiO2 
 PCOD8219586
Probable space group: P M N A
;
_chemical_formula_sum "Si O2"
_cell_formula_units_Z 64
_cell_length_a 16.979790
_cell_length_b 12.231379
_cell_length_c 14.578442
_cell_angle_alpha 90.000000
_cell_angle_beta 90.000000
_cell_angle_gamma 90.000000
_cell_volume 3027.741904
_symmetry_space_group_name_H-M "P M N A"
_symmetry_group_IT_number 53
_symmetry_cell_setting 'orthorhombic'
loop_
_space_group_symop_operation_xyz
x,y,z
1/2-x,-y,1/2+z
x,-y,-z
1/2-x,y,1/2-z
-x,-y,-z
1/2+x,y,1/2-z
-x,y,z
1/2+x,-y,1/2+z
loop_
_atom_site_type_symbol
_atom_site_label
_atom_site_fract_x
_atom_site_fract_y
_atom_site_fract_z
Si Si1 0.589051 0.084587 0.177164
Si Si2 0.410353 0.842691 0.157135
Si Si3 0.337929 0.643675 0.241605
Si Si4 0.803945 0.312037 0.061341
Si Si5 0.157532 0.705815 0.746996
Si Si6 0.307153 0.881571 0.987832
Si Si7 0.590401 0.403437 0.573657
Si Si8 0.660438 0.540098 0.905429
O O1 0.500000 0.124466 0.185662
O O2 0.640645 0.166045 0.238052
O O3 0.615711 0.093867 0.072363
O O4 0.600040 0.958937 0.209240
O O5 0.500000 0.834735 0.118347
O O6 0.396587 0.745901 0.229684
O O7 0.342930 0.828576 0.079838
O O8 0.250000 0.690152 0.250000
O O9 0.369995 0.572250 0.327626
O O10 0.334635 0.568217 0.153209
O O11 0.865278 0.323450 0.147914
O O12 0.752054 0.201040 0.063174
O O13 0.744942 0.415561 0.060661
O O14 0.858374 0.305501 0.970885
O O15 0.250000 0.681307 0.750000
O O16 0.120263 0.633624 0.662227
O O17 0.264254 0.000000 0.000000
O O18 0.599685 0.500000 0.500000
O O19 0.500000 0.369856 0.587273
O O20 0.615192 0.500000 0.000000
#
# Coordination Sequence:
#
# PCOD8219586 Si02
#       8
#     8   8   8   8   8   8   8   8
#     4  10  20  37  60  86 120 164 206 248 312 382
#     4  10  22  38  58  86 125 166 201 253 317 380
#     4  12  23  38  63  95 122 161 214 259 314 370
#     4  11  21  39  63  91 120 160 211 259 307 366
#     4  10  20  36  60  88 122 159 202 260 312 365
#     4  10  19  36  62  91 121 157 207 256 306 372
#     4  11  24  42  63  89 125 169 213 258 307 374
#     4  11  21  36  63  93 125 155 201 258 315 369
#
# _framework density 21.137864
#
# number of rings (size 3 to 8) (size 9 to 14) (size 15 to 20)
#    0.000    1.375    2.500    6.000    0.000    2.500 
#    2.250    1.250    0.000    3.000    0.000    0.000 
#    0.000    0.000    0.000    0.000    0.000    0.000 
#
# Total GULP energy -792848.897456 kJ/mol
# GULP energy per Si atom -12388.264023 kJ/mol
# Density = 2.108975 g / cm^3
# Si number density = 21.137864 Si / 1000 Ang^3
#
#
#
# Elastic Constant Matrix: (Units=GPa)
#
#
# Indices 1 2 3 4 5 6 
#
# 1 69.8269 28.0249 25.3199 0.0000 0.0000 0.0000
# 2 28.0249 124.0423 41.9208 0.0000 0.0000 0.0000
# 3 25.3199 41.9208 121.2821 0.0000 0.0000 0.0000
# 4 0.0000 0.0000 0.0000 25.2494 0.0000 0.0000
# 5 0.0000 0.0000 0.0000 0.0000 17.8163 0.0000
# 6 0.0000 0.0000 0.0000 0.0000 0.0000 16.2726
#
#
#
# Elastic Compliance Matrix: (Units=1/GPa)
#
#
# Indices 1 2 3 4 5 6 
#
# 1 0.016353 -0.002877 -0.002420 0.000000 0.000000 0.000000
# 2 -0.002877 0.009634 -0.002729 0.000000 0.000000 0.000000
# 3 -0.002420 -0.002729 0.009694 0.000000 0.000000 0.000000
# 4 0.000000 0.000000 0.000000 0.039605 0.000000 0.000000
# 5 0.000000 0.000000 0.000000 0.000000 0.056128 0.000000
# 6 0.000000 0.000000 0.000000 0.000000 0.000000 0.061453
#
#
# Mechanical properties :
#
#
# Convention : Reuss Voigt Hill
#
# Bulk Modulus (GPa) = 50.94456 56.18694 53.56575
# Shear Modulus (GPa) = 23.20592 26.52671 24.86632
#
# Velocity S-wave (km/s) = 3.31696 3.54635 3.43357
# Velocity P-wave (km/s) = 6.23081 6.58845 6.41213
#
# Compressibility (1/GPa) = 0.01962918
#
# Stress axis : x y z
#
# Youngs Moduli (GPa) = 61.15027 103.79712 103.15875
#
# Poissons Ratio (x) = 0.29862 0.24961
# Poissons Ratio (y) = 0.17593 0.28156
# Poissons Ratio (z) = 0.14796 0.28331
#
# Static dielectric constant tensor:
#      x y z
#    x 3.521230 0.000000 0.000000 
#    y 0.000000 3.915370 0.000000 
#    z 0.000000 0.000000 4.315440 
# 
# 
# High freq. dielectric constant tensor:
#      x y z
#    x 1.793970 0.000000 0.000000 
#    y 0.000000 1.832580 0.000000 
#    z 0.000000 0.000000 1.834820 
# 
# From -- ./inp_files/23936.got.cif
#   From: 2010.03.12/outbox.cif.g09.slc.cpg/sg53_12_cif.got.tgz:23936.got - 2010.04.16 14:36:59.
