data_PCOD8219601
_publ_section_title
;
Structure prediction by ZEFSAII (Michael W. Deem and Ramdas Pophale) SiO2 
 PCOD8219601
Probable space group: P M N A
;
_chemical_formula_sum "Si O2"
_cell_formula_units_Z 48
_cell_length_a 15.096384
_cell_length_b 19.119193
_cell_length_c 8.803618
_cell_angle_alpha 90.000000
_cell_angle_beta 90.000000
_cell_angle_gamma 90.000000
_cell_volume 2540.994244
_symmetry_space_group_name_H-M "P M N A"
_symmetry_group_IT_number 53
_symmetry_cell_setting 'orthorhombic'
loop_
_space_group_symop_operation_xyz
x,y,z
1/2-x,-y,1/2+z
x,-y,-z
1/2-x,y,1/2-z
-x,-y,-z
1/2+x,y,1/2-z
-x,y,z
1/2+x,-y,1/2+z
loop_
_atom_site_type_symbol
_atom_site_label
_atom_site_fract_x
_atom_site_fract_y
_atom_site_fract_z
Si Si1 0.000000 0.424131 0.428887
Si Si2 0.851830 0.331639 0.926639
Si Si3 0.598790 0.822165 0.069603
Si Si4 0.351830 0.331639 0.926639
Si Si5 0.250000 0.923948 0.430641
Si Si6 0.901210 0.177835 0.930397
Si Si7 0.500000 0.424131 0.428887
O O1 0.000000 0.500000 0.500000
O O2 0.088351 0.384392 0.479348
O O3 0.000000 0.431486 0.250000
O O4 0.878170 0.336745 0.750000
O O5 0.750000 0.352300 0.952795
O O6 0.868524 0.253299 0.988403
O O7 0.911649 0.384392 0.020652
O O8 0.500000 0.837478 0.008219
O O9 0.631476 0.746701 0.011597
O O10 0.663654 0.882590 0.008631
O O11 0.601339 0.821793 0.250000
O O12 0.250000 0.929240 0.250000
O O13 0.336347 0.882591 0.491369
O O14 0.250000 0.000000 0.500000
O O15 0.000000 0.162522 0.991782
O O16 0.500000 0.500000 0.500000
#
# Coordination Sequence:
#
# PCOD8219601 Si02
#       7
#     4   8   8   8   8   8   4
#     4  12  26  42  60  86 123 160 191 236 291 348
#     4  10  19  36  65  93 114 146 196 247 292 346
#     4   9  16  30  57  84 107 143 192 234 278 344
#     4  10  19  36  65  93 114 146 196 247 292 346
#     4  10  20  34  52  80 113 150 189 234 287 340
#     4   9  16  30  57  84 107 143 192 234 278 344
#     4  12  26  42  60  86 123 160 191 236 291 348
#
# _framework density 18.890245
#
# number of rings (size 3 to 8) (size 9 to 14) (size 15 to 20)
#    0.000    2.000    3.333    1.500    0.000    2.000 
#    0.000    1.667    0.000    0.000    0.000    0.000 
#    0.000    0.000    0.000    0.000    0.000    0.000 
#
# Total GULP energy -595229.156473 kJ/mol
# GULP energy per Si atom -12400.607427 kJ/mol
# Density = 1.884725 g / cm^3
# Si number density = 18.890245 Si / 1000 Ang^3
#
#
#
# Elastic Constant Matrix: (Units=GPa)
#
#
# Indices 1 2 3 4 5 6 
#
# 1 163.2191 86.9852 48.4135 0.0000 0.0000 0.0000
# 2 86.9852 178.6999 54.5354 0.0000 0.0000 0.0000
# 3 48.4135 54.5354 65.7143 0.0000 0.0000 0.0000
# 4 0.0000 0.0000 0.0000 31.2749 0.0000 0.0000
# 5 0.0000 0.0000 0.0000 0.0000 20.1003 0.0000
# 6 0.0000 0.0000 0.0000 0.0000 0.0000 34.2094
#
#
#
# Elastic Compliance Matrix: (Units=1/GPa)
#
#
# Indices 1 2 3 4 5 6 
#
# 1 0.008998 -0.003156 -0.004010 0.000000 0.000000 0.000000
# 2 -0.003156 0.008601 -0.004813 0.000000 0.000000 0.000000
# 3 -0.004010 -0.004813 0.022165 0.000000 0.000000 0.000000
# 4 0.000000 0.000000 0.000000 0.031975 0.000000 0.000000
# 5 0.000000 0.000000 0.000000 0.000000 0.049751 0.000000
# 6 0.000000 0.000000 0.000000 0.000000 0.000000 0.029232
#
#
# Mechanical properties :
#
#
# Convention : Reuss Voigt Hill
#
# Bulk Modulus (GPa) = 63.26203 87.50017 75.38110
# Shear Modulus (GPa) = 27.78579 31.63019 29.70799
#
# Velocity S-wave (km/s) = 3.83940 4.09641 3.96998
# Velocity P-wave (km/s) = 7.29497 8.29427 7.81062
#
# Compressibility (1/GPa) = 0.01580727
#
# Stress axis : x y z
#
# Youngs Moduli (GPa) = 111.13287 116.26471 45.11526
#
# Poissons Ratio (x) = 0.36697 0.18091
# Poissons Ratio (y) = 0.35077 0.21712
# Poissons Ratio (z) = 0.44563 0.55953
#
# Static dielectric constant tensor:
#      x y z
#    x 2.212820 0.000000 0.000000 
#    y 0.000000 3.563830 0.000000 
#    z 0.000000 0.000000 3.027840 
# 
# 
# High freq. dielectric constant tensor:
#      x y z
#    x 1.754810 0.000000 0.000000 
#    y 0.000000 1.737260 0.000000 
#    z 0.000000 0.000000 1.689670 
# 
# From -- ./inp_files/8701.got.cif
#   From: 2010.03.12/outbox.cif.g09.slc.cpg/sg53_5_cif.got.tgz:8701.got - 2010.04.16 14:36:59.
