data_PCOD8219449
_publ_section_title
;
Structure prediction by ZEFSAII (Michael W. Deem and Ramdas Pophale) SiO2 
 PCOD8219449
Probable space group: P M N A
;
_chemical_formula_sum "Si O2"
_cell_formula_units_Z 48
_cell_length_a 8.898331
_cell_length_b 14.973269
_cell_length_c 19.051360
_cell_angle_alpha 90.000000
_cell_angle_beta 90.000000
_cell_angle_gamma 90.000000
_cell_volume 2538.348028
_symmetry_space_group_name_H-M "P M N A"
_symmetry_group_IT_number 53
_symmetry_cell_setting 'orthorhombic'
loop_
_space_group_symop_operation_xyz
x,y,z
1/2-x,-y,1/2+z
x,-y,-z
1/2-x,y,1/2-z
-x,-y,-z
1/2+x,y,1/2-z
-x,y,z
1/2+x,-y,1/2+z
loop_
_atom_site_type_symbol
_atom_site_label
_atom_site_fract_x
_atom_site_fract_y
_atom_site_fract_z
Si Si1 0.323079 0.791790 0.821467
Si Si2 0.177403 0.058034 0.102032
Si Si3 0.322378 0.873257 0.451645
Si Si4 0.323017 0.677355 0.432669
Si Si5 0.821903 0.468438 0.826140
Si Si6 0.824213 0.644073 0.910327
O O1 0.250000 0.755737 0.750000
O O2 0.500000 0.789760 0.813741
O O3 0.266635 0.892788 0.835901
O O4 0.269898 0.728269 0.884017
O O5 0.000000 0.071405 0.112977
O O6 0.220744 0.952555 0.102574
O O7 0.234300 0.101044 0.029067
O O8 0.500000 0.865197 0.456510
O O9 0.253506 0.777802 0.427690
O O10 0.500000 0.682701 0.422783
O O11 0.257653 0.616019 0.370173
O O12 0.285913 0.631800 0.507508
O O13 0.750000 0.468762 0.750000
O O14 0.773188 0.556587 0.868356
O O15 0.000000 0.464222 0.818265
O O16 0.000000 0.664741 0.899614
#
# Coordination Sequence:
#
# PCOD8219449 Si02
#       6
#     8   8   8   8   8   8
#     4  12  24  36  52  77 110 147 182 224 277 328
#     4   9  16  31  54  80 106 138 176 215 263 318
#     4   8  14  27  55  84 105 133 173 218 261 312
#     4   9  16  31  57  85 107 136 182 225 262 317
#     4  10  21  35  54  79 108 144 180 220 270 321
#     4  10  19  35  58  81 105 136 181 231 271 321
#
# _framework density 18.909936999999999
#
# number of rings (size 3 to 8) (size 9 to 14) (size 15 to 20)
#    0.000    2.333    1.667    3.500    0.000    4.000 
#    0.000    3.333    0.000    4.000    0.000    0.000 
#    0.000    0.000    0.000    0.000    0.000    0.000 
#
# Total GULP energy -595035.635131 kJ/mol
# GULP energy per Si atom -12396.575732 kJ/mol
# Density = 1.886690 g / cm^3
# Si number density = 18.909937 Si / 1000 Ang^3
#
#
#
# Elastic Constant Matrix: (Units=GPa)
#
#
# Indices 1 2 3 4 5 6 
#
# 1 53.6473 29.9212 27.1477 0.0000 0.0000 0.0000
# 2 29.9212 149.8887 66.2721 0.0000 0.0000 0.0000
# 3 27.1477 66.2721 92.5418 0.0000 0.0000 0.0000
# 4 0.0000 0.0000 0.0000 27.0343 0.0000 0.0000
# 5 0.0000 0.0000 0.0000 0.0000 25.3470 0.0000
# 6 0.0000 0.0000 0.0000 0.0000 0.0000 3.8106
#
#
#
# Elastic Compliance Matrix: (Units=1/GPa)
#
#
# Indices 1 2 3 4 5 6 
#
# 1 0.022416 -0.002293 -0.004933 0.000000 0.000000 0.000000
# 2 -0.002293 0.009997 -0.006487 0.000000 0.000000 0.000000
# 3 -0.004933 -0.006487 0.016899 0.000000 0.000000 0.000000
# 4 0.000000 0.000000 0.000000 0.036990 0.000000 0.000000
# 5 0.000000 0.000000 0.000000 0.000000 0.039452 0.000000
# 6 0.000000 0.000000 0.000000 0.000000 0.000000 0.262428
#
#
# Mechanical properties :
#
#
# Convention : Reuss Voigt Hill
#
# Bulk Modulus (GPa) = 45.69396 60.30664 53.00030
# Shear Modulus (GPa) = 11.82300 22.75416 17.28858
#
# Velocity S-wave (km/s) = 2.50317 3.47261 3.02695
# Velocity P-wave (km/s) = 5.70709 6.93105 6.34864
#
# Compressibility (1/GPa) = 0.02188473
#
# Stress axis : x y z
#
# Youngs Moduli (GPa) = 44.61117 100.02510 59.17679
#
# Poissons Ratio (x) = 0.22940 0.29194
# Poissons Ratio (y) = 0.10231 0.38386
# Poissons Ratio (z) = 0.22009 0.64883
#
# Static dielectric constant tensor:
#      x y z
#    x 2.994900 0.000000 0.000000 
#    y 0.000000 4.000990 0.000000 
#    z 0.000000 0.000000 3.434690 
# 
# 
# High freq. dielectric constant tensor:
#      x y z
#    x 1.687030 0.000000 0.000000 
#    y 0.000000 1.750610 0.000000 
#    z 0.000000 0.000000 1.723810 
# 
# From -- ./inp_files/26195.got.cif
#   From: 2010.03.12/outbox.cif.g09.slc.cpg/sg53_14_cif.got.tgz:26195.got - 2010.04.16 14:36:59.
