data_PCOD8219025
_publ_section_title
;
Structure prediction by ZEFSAII (Michael W. Deem and Ramdas Pophale) SiO2 
 PCOD8219025
Probable space group: P M N A
;
_chemical_formula_sum "Si O2"
_cell_formula_units_Z 64
_cell_length_a 9.045187
_cell_length_b 14.374809
_cell_length_c 30.360080
_cell_angle_alpha 90.000000
_cell_angle_beta 90.000000
_cell_angle_gamma 90.000000
_cell_volume 3947.503687
_symmetry_space_group_name_H-M "P M N A"
_symmetry_group_IT_number 53
_symmetry_cell_setting 'orthorhombic'
loop_
_space_group_symop_operation_xyz
x,y,z
1/2-x,-y,1/2+z
x,-y,-z
1/2-x,y,1/2-z
-x,-y,-z
1/2+x,y,1/2-z
-x,y,z
1/2+x,-y,1/2+z
loop_
_atom_site_type_symbol
_atom_site_label
_atom_site_fract_x
_atom_site_fract_y
_atom_site_fract_z
Si Si1 0.171018 0.948770 0.543819
Si Si2 0.673756 0.640382 0.294710
Si Si3 0.831442 0.258182 0.927967
Si Si4 0.174698 0.414952 0.621363
Si Si5 0.168757 0.256614 0.483286
Si Si6 0.670858 0.456527 0.044682
Si Si7 0.331500 0.938703 0.385454
Si Si8 0.173685 0.144223 0.794726
O O1 0.199849 0.838430 0.542551
O O2 0.000000 0.974607 0.546601
O O3 0.237286 0.000000 0.500000
O O4 0.242782 0.980924 0.589643
O O5 0.750000 0.607601 0.250000
O O6 0.500000 0.624208 0.291503
O O7 0.741414 0.574545 0.332395
O O8 0.712840 0.748274 0.304458
O O9 0.717958 0.315674 0.898632
O O10 0.816025 0.151623 0.915349
O O11 0.000000 0.293093 0.920776
O O12 0.786543 0.268182 0.978364
O O13 0.236423 0.495170 0.588461
O O14 0.000000 0.419948 0.629401
O O15 0.193711 0.345434 0.451519
O O16 0.000000 0.257026 0.501789
O O17 0.500000 0.484887 0.043704
O O18 0.743455 0.500000 0.000000
O O19 0.500000 0.971458 0.381800
O O20 0.269950 0.917455 0.336175
O O21 0.250000 0.108448 0.750000
O O22 0.000000 0.132890 0.788582
#
# Coordination Sequence:
#
# PCOD8219025 Si02
#       8
#     8   8   8   8   8   8   8   8
#     4  10  20  31  47  72  95 121 163 206 238 277
#     4  10  19  33  49  71 101 128 160 196 240 290
#     4  11  20  30  45  68  98 130 163 201 240 282
#     4  11  20  31  49  71  95 131 170 199 239 286
#     4  10  19  34  49  66  96 128 163 207 241 279
#     4   9  17  30  49  70  93 128 166 197 237 289
#     4  10  20  33  47  66  97 132 161 191 235 288
#     4   9  18  32  47  68  95 125 156 190 232 282
#
# _framework density 16.212778
#
# number of rings (size 3 to 8) (size 9 to 14) (size 15 to 20)
#    0.000    2.000    3.750    1.125    0.000    2.250 
#    0.000    1.875    0.000    0.000    0.000    0.875 
#    0.000    2.000    0.000    0.000    0.000    0.000 
#
# Total GULP energy -793438.017924 kJ/mol
# GULP energy per Si atom -12397.469030 kJ/mol
# Density = 1.617588 g / cm^3
# Si number density = 16.212778 Si / 1000 Ang^3
#
#
#
# Elastic Constant Matrix: (Units=GPa)
#
#
# Indices 1 2 3 4 5 6 
#
# 1 49.5039 26.3959 43.4495 0.0000 0.0000 0.0000
# 2 26.3959 81.1424 49.6356 0.0000 0.0000 0.0000
# 3 43.4495 49.6356 139.5619 0.0000 0.0000 0.0000
# 4 0.0000 0.0000 0.0000 26.1028 0.0000 0.0000
# 5 0.0000 0.0000 0.0000 0.0000 30.1304 0.0000
# 6 0.0000 0.0000 0.0000 0.0000 0.0000 13.0926
#
#
#
# Elastic Compliance Matrix: (Units=1/GPa)
#
#
# Indices 1 2 3 4 5 6 
#
# 1 0.029334 -0.005056 -0.007334 0.000000 0.000000 0.000000
# 2 -0.005056 0.016622 -0.004338 0.000000 0.000000 0.000000
# 3 -0.007334 -0.004338 0.010991 0.000000 0.000000 0.000000
# 4 0.000000 0.000000 0.000000 0.038310 0.000000 0.000000
# 5 0.000000 0.000000 0.000000 0.000000 0.033189 0.000000
# 6 0.000000 0.000000 0.000000 0.000000 0.000000 0.076379
#
#
# Mechanical properties :
#
#
# Convention : Reuss Voigt Hill
#
# Bulk Modulus (GPa) = 42.56870 56.57448 49.57159
# Shear Modulus (GPa) = 20.31605 23.91364 22.11484
#
# Velocity S-wave (km/s) = 3.54374 3.84472 3.69729
# Velocity P-wave (km/s) = 6.56181 7.39459 6.99061
#
# Compressibility (1/GPa) = 0.02349144
#
# Stress axis : x y z
#
# Youngs Moduli (GPa) = 34.09070 60.16085 90.98082
#
# Poissons Ratio (x) = 0.30417 0.66727
# Poissons Ratio (y) = 0.17236 0.39464
# Poissons Ratio (z) = 0.25003 0.26096
#
# Static dielectric constant tensor:
#      x y z
#    x 3.007760 0.000000 0.000000 
#    y 0.000000 2.922070 0.000000 
#    z 0.000000 0.000000 3.199920 
# 
# 
# High freq. dielectric constant tensor:
#      x y z
#    x 1.616750 0.000000 0.000000 
#    y 0.000000 1.594960 0.000000 
#    z 0.000000 0.000000 1.619080 
# 
# From -- ./inp_files/38449.got.cif
#   From: 2010.03.12/outbox.cif.g09.slc.cpg/sg53_20_cif.got.tgz:38449.got - 2010.04.16 14:36:59.
