data_PCOD8219913
_publ_section_title
;
Structure prediction by ZEFSAII (Michael W. Deem and Ramdas Pophale) SiO2 
 PCOD8219913
Probable space group: P M N A
;
_chemical_formula_sum "Si O2"
_cell_formula_units_Z 64
_cell_length_a 8.961426
_cell_length_b 21.969822
_cell_length_c 16.436013
_cell_angle_alpha 90.000000
_cell_angle_beta 90.000000
_cell_angle_gamma 90.000000
_cell_volume 3235.937592
_symmetry_space_group_name_H-M "P M N A"
_symmetry_group_IT_number 53
_symmetry_cell_setting 'orthorhombic'
loop_
_space_group_symop_operation_xyz
x,y,z
1/2-x,-y,1/2+z
x,-y,-z
1/2-x,y,1/2-z
-x,-y,-z
1/2+x,y,1/2-z
-x,y,z
1/2+x,-y,1/2+z
loop_
_atom_site_type_symbol
_atom_site_label
_atom_site_fract_x
_atom_site_fract_y
_atom_site_fract_z
Si Si1 0.676777 0.363042 0.836784
Si Si2 0.664509 0.890201 0.077960
Si Si3 0.670866 0.428186 0.003442
Si Si4 0.334762 0.870475 0.894275
Si Si5 0.177195 0.375373 0.163804
Si Si6 0.323367 0.774440 0.166699
Si Si7 0.673983 0.763264 0.668393
Si Si8 0.321618 0.004376 0.168431
O O1 0.750000 0.384591 0.750000
O O2 0.500000 0.370520 0.825528
O O3 0.730946 0.401533 0.916541
O O4 0.727905 0.293959 0.857158
O O5 0.500000 0.888969 0.118347
O O6 0.738186 0.825207 0.103211
O O7 0.741739 0.952887 0.106751
O O8 0.652577 0.896575 0.983253
O O9 0.500000 0.406938 0.016029
O O10 0.684731 0.500000 0.000000
O O11 0.763764 0.408905 0.083350
O O12 0.500000 0.852926 0.861324
O O13 0.231631 0.810507 0.898754
O O14 0.260340 0.927072 0.846548
O O15 0.250000 0.398061 0.250000
O O16 0.223365 0.305304 0.148966
O O17 0.000000 0.384857 0.171009
O O18 0.250000 0.794662 0.250000
O O19 0.500000 0.773264 0.174624
O O20 0.750000 0.787563 0.750000
O O21 0.500000 0.767842 0.678044
O O22 0.250000 0.980217 0.250000
O O23 0.500000 0.008231 0.168433
#
# Coordination Sequence:
#
# PCOD8219913 Si02
#       8
#     8   8   8   8   8   8   8   8
#     4   9  19  35  56  82 114 151 190 235 284 336
#     4   9  18  32  51  74 101 134 176 218 265 326
#     4  10  22  39  60  89 123 157 196 240 286 344
#     4  10  20  33  53  77 103 138 176 221 274 326
#     4  10  22  40  62  88 119 157 198 245 296 346
#     4   9  17  31  51  75 100 134 176 218 266 321
#     4  10  21  37  56  81 110 141 182 228 277 332
#     4  10  20  34  51  72  99 135 178 222 267 323
#
# _framework density 19.777885000000001
#
# number of rings (size 3 to 8) (size 9 to 14) (size 15 to 20)
#    0.000    2.375    0.000    1.875    1.750    5.750 
#    0.000    2.500    0.000    1.500    0.000    0.000 
#    0.000    0.000    0.000    0.000    0.000    0.000 
#
# Total GULP energy -792890.541058 kJ/mol
# GULP energy per Si atom -12388.914704 kJ/mol
# Density = 1.973287 g / cm^3
# Si number density = 19.777885 Si / 1000 Ang^3
#
#
#
# Elastic Constant Matrix: (Units=GPa)
#
#
# Indices 1 2 3 4 5 6 
#
# 1 41.9392 28.6327 31.9132 0.0000 0.0000 0.0000
# 2 28.6327 93.8013 43.7067 0.0000 0.0000 0.0000
# 3 31.9132 43.7067 112.0547 0.0000 0.0000 0.0000
# 4 0.0000 0.0000 0.0000 34.0162 0.0000 0.0000
# 5 0.0000 0.0000 0.0000 0.0000 31.1140 0.0000
# 6 0.0000 0.0000 0.0000 0.0000 0.0000 20.9049
#
#
#
# Elastic Compliance Matrix: (Units=1/GPa)
#
#
# Indices 1 2 3 4 5 6 
#
# 1 0.033970 -0.007163 -0.006881 0.000000 0.000000 0.000000
# 2 -0.007163 0.014539 -0.003631 0.000000 0.000000 0.000000
# 3 -0.006881 -0.003631 0.012300 0.000000 0.000000 0.000000
# 4 0.000000 0.000000 0.000000 0.029398 0.000000 0.000000
# 5 0.000000 0.000000 0.000000 0.000000 0.032140 0.000000
# 6 0.000000 0.000000 0.000000 0.000000 0.000000 0.047836
#
#
# Mechanical properties :
#
#
# Convention : Reuss Voigt Hill
#
# Bulk Modulus (GPa) = 39.27758 50.70003 44.98881
# Shear Modulus (GPa) = 23.36235 26.77652 25.06944
#
# Velocity S-wave (km/s) = 3.44064 3.68348 3.56413
# Velocity P-wave (km/s) = 5.97381 6.61672 6.30347
#
# Compressibility (1/GPa) = 0.02545982
#
# Stress axis : x y z
#
# Youngs Moduli (GPa) = 29.43741 68.77943 81.30042
#
# Poissons Ratio (x) = 0.49269 0.55941
# Poissons Ratio (y) = 0.21087 0.29519
# Poissons Ratio (z) = 0.20255 0.24973
#
# Static dielectric constant tensor:
#      x y z
#    x 3.508900 0.000000 0.000000 
#    y 0.000000 3.808610 0.000000 
#    z 0.000000 0.000000 3.592140 
# 
# 
# High freq. dielectric constant tensor:
#      x y z
#    x 1.743070 0.000000 0.000000 
#    y 0.000000 1.783660 0.000000 
#    z 0.000000 0.000000 1.772500 
# 
# From -- ./inp_files/20899.got.cif
#   From: 2010.03.12/outbox.cif.g09.slc.cpg/sg53_11_cif.got.tgz:20899.got - 2010.04.16 14:36:59.
