data_PCOD8219544
_publ_section_title
;
Structure prediction by ZEFSAII (Michael W. Deem and Ramdas Pophale) SiO2 
 PCOD8219544
Probable space group: P M N A
;
_chemical_formula_sum "Si O2"
_cell_formula_units_Z 64
_cell_length_a 8.865774
_cell_length_b 19.597479
_cell_length_c 19.840575
_cell_angle_alpha 90.000000
_cell_angle_beta 90.000000
_cell_angle_gamma 90.000000
_cell_volume 3447.236809
_symmetry_space_group_name_H-M "P M N A"
_symmetry_group_IT_number 53
_symmetry_cell_setting 'orthorhombic'
loop_
_space_group_symop_operation_xyz
x,y,z
1/2-x,-y,1/2+z
x,-y,-z
1/2-x,y,1/2-z
-x,-y,-z
1/2+x,y,1/2-z
-x,y,z
1/2+x,-y,1/2+z
loop_
_atom_site_type_symbol
_atom_site_label
_atom_site_fract_x
_atom_site_fract_y
_atom_site_fract_z
Si Si1 0.171805 0.823275 0.455869
Si Si2 0.173869 0.975772 0.426086
Si Si3 0.176983 0.665901 0.913339
Si Si4 0.323793 0.805653 0.890029
Si Si5 0.677573 0.559018 0.819648
Si Si6 0.174569 0.312045 0.931766
Si Si7 0.324056 0.401445 0.818812
Si Si8 0.322198 0.930185 0.680302
O O1 0.199228 0.894799 0.418752
O O2 0.208755 0.832640 0.534757
O O3 0.278850 0.766893 0.422152
O O4 0.000000 0.798436 0.447417
O O5 0.000000 0.996069 0.411714
O O6 0.220770 0.000000 0.500000
O O7 0.282587 0.012303 0.373913
O O8 0.253361 0.731265 0.878792
O O9 0.248814 0.598362 0.881966
O O10 0.000000 0.668368 0.899138
O O11 0.212895 0.664202 0.992664
O O12 0.500000 0.802596 0.873504
O O13 0.244468 0.856786 0.838815
O O14 0.750000 0.585453 0.750000
O O15 0.500000 0.572273 0.817410
O O16 0.718366 0.480099 0.831084
O O17 0.267361 0.359231 0.882089
O O18 0.000000 0.319610 0.914566
O O19 0.250000 0.374164 0.750000
O O20 0.500000 0.390583 0.811092
O O21 0.250000 0.954517 0.750000
O O22 0.500000 0.923982 0.687446
#
# Coordination Sequence:
#
# PCOD8219544 Si02
#       8
#     8   8   8   8   8   8   8   8
#     4   9  18  34  59  85 112 145 183 227 275 332
#     4  10  19  37  62  87 113 147 188 229 281 339
#     4  10  21  36  55  84 118 151 187 232 280 332
#     4  10  19  36  58  81 110 147 187 229 278 333
#     4  10  21  37  57  81 109 147 190 235 281 339
#     4  10  21  36  56  84 118 149 185 233 282 332
#     4  10  21  38  60  83 110 145 190 235 285 342
#     4  12  25  39  56  82 116 152 191 237 285 336
#
# _framework density 18.565594000000001
#
# number of rings (size 3 to 8) (size 9 to 14) (size 15 to 20)
#    0.000    1.875    1.250    3.000    0.000    5.250 
#    0.000    5.625    0.000    3.000    0.000    0.000 
#    0.000    0.000    0.000    0.000    0.000    0.000 
#
# Total GULP energy -793936.966618 kJ/mol
# GULP energy per Si atom -12405.265103 kJ/mol
# Density = 1.852334 g / cm^3
# Si number density = 18.565594 Si / 1000 Ang^3
#
#
#
# Elastic Constant Matrix: (Units=GPa)
#
#
# Indices 1 2 3 4 5 6 
#
# 1 108.4201 51.5699 53.2370 0.0000 0.0000 0.0000
# 2 51.5699 91.8367 57.1599 0.0000 0.0000 0.0000
# 3 53.2370 57.1599 90.8053 0.0000 0.0000 0.0000
# 4 0.0000 0.0000 0.0000 24.1172 0.0000 0.0000
# 5 0.0000 0.0000 0.0000 0.0000 33.8622 0.0000
# 6 0.0000 0.0000 0.0000 0.0000 0.0000 34.1850
#
#
#
# Elastic Compliance Matrix: (Units=1/GPa)
#
#
# Indices 1 2 3 4 5 6 
#
# 1 0.014011 -0.004530 -0.005363 0.000000 0.000000 0.000000
# 2 -0.004530 0.019368 -0.009536 0.000000 0.000000 0.000000
# 3 -0.005363 -0.009536 0.020159 0.000000 0.000000 0.000000
# 4 0.000000 0.000000 0.000000 0.041464 0.000000 0.000000
# 5 0.000000 0.000000 0.000000 0.000000 0.029531 0.000000
# 6 0.000000 0.000000 0.000000 0.000000 0.000000 0.029253
#
#
# Mechanical properties :
#
#
# Convention : Reuss Voigt Hill
#
# Bulk Modulus (GPa) = 68.11529 68.33284 68.22406
# Shear Modulus (GPa) = 25.31158 27.03925 26.17541
#
# Velocity S-wave (km/s) = 3.69638 3.82044 3.75892
# Velocity P-wave (km/s) = 7.41527 7.50647 7.46101
#
# Compressibility (1/GPa) = 0.01468099
#
# Stress axis : x y z
#
# Youngs Moduli (GPa) = 71.37022 51.63221 49.60476
#
# Poissons Ratio (x) = 0.23389 0.26603
# Poissons Ratio (y) = 0.32330 0.47302
# Poissons Ratio (z) = 0.38276 0.49235
#
# Static dielectric constant tensor:
#      x y z
#    x 3.484010 0.000000 0.000000 
#    y 0.000000 3.444170 0.000000 
#    z 0.000000 0.000000 3.296300 
# 
# 
# High freq. dielectric constant tensor:
#      x y z
#    x 1.731500 0.000000 0.000000 
#    y 0.000000 1.724200 0.000000 
#    z 0.000000 0.000000 1.709960 
# 
# From -- ./inp_files/26968.got.cif
#   From: 2010.03.12/outbox.cif.g09.slc.cpg/sg53_14_cif.got.tgz:26968.got - 2010.04.16 14:36:59.
