data_PCOD8219657
_publ_section_title
;
Structure prediction by ZEFSAII (Michael W. Deem and Ramdas Pophale) SiO2 
 PCOD8219657
Probable space group: P M N A
;
_chemical_formula_sum "Si O2"
_cell_formula_units_Z 64
_cell_length_a 16.165849
_cell_length_b 19.306279
_cell_length_c 9.651031
_cell_angle_alpha 90.000000
_cell_angle_beta 90.000000
_cell_angle_gamma 90.000000
_cell_volume 3012.109851
_symmetry_space_group_name_H-M "P M N A"
_symmetry_group_IT_number 53
_symmetry_cell_setting 'orthorhombic'
loop_
_space_group_symop_operation_xyz
x,y,z
1/2-x,-y,1/2+z
x,-y,-z
1/2-x,y,1/2-z
-x,-y,-z
1/2+x,y,1/2-z
-x,y,z
1/2+x,-y,1/2+z
loop_
_atom_site_type_symbol
_atom_site_label
_atom_site_fract_x
_atom_site_fract_y
_atom_site_fract_z
Si Si1 0.900810 0.805323 0.123552
Si Si2 0.652592 0.341513 0.227463
Si Si3 0.401925 0.078866 0.834871
Si Si4 0.630769 0.576812 0.514194
Si Si5 0.590440 0.340540 0.736346
Si Si6 0.825056 0.422061 0.531649
Si Si7 0.595314 0.073776 0.140407
Si Si8 0.158449 0.194545 0.186636
O O1 0.867735 0.869845 0.215627
O O2 0.876547 0.737639 0.214859
O O3 0.000000 0.806896 0.092859
O O4 0.848105 0.804932 0.980517
O O5 0.750000 0.337486 0.250000
O O6 0.613515 0.397521 0.330730
O O7 0.616519 0.264833 0.254040
O O8 0.632273 0.368364 0.074503
O O9 0.500000 0.085810 0.825626
O O10 0.368897 0.000435 0.807716
O O11 0.369217 0.098755 0.990400
O O12 0.594969 0.500000 0.500000
O O13 0.580647 0.627540 0.415759
O O14 0.727149 0.579006 0.477009
O O15 0.500000 0.338705 0.807577
O O16 0.650657 0.392287 0.819050
O O17 0.857548 0.500000 0.500000
O O18 0.500000 0.059508 0.114234
O O19 0.606959 0.129594 0.259767
O O20 0.250000 0.186260 0.250000
#
# Coordination Sequence:
#
# PCOD8219657 Si02
#       8
#     8   8   8   8   8   8   8   8
#     4  10  21  39  60  87 120 157 199 238 286 352
#     4   9  19  35  55  80 111 144 187 240 285 334
#     4   8  17  36  61  87 115 148 194 239 280 345
#     4  10  19  38  63  82 106 149 200 238 282 345
#     4  11  23  37  55  88 125 150 185 243 298 347
#     4  10  21  38  61  85 108 148 201 245 285 349
#     4   9  18  36  62  87 112 150 194 239 287 338
#     4  11  22  37  55  82 120 155 192 243 290 345
#
# _framework density 21.247564000000001
#
# number of rings (size 3 to 8) (size 9 to 14) (size 15 to 20)
#    0.000    2.250    1.250    2.250    1.750    3.000 
#    0.000    6.250    0.000    0.000    0.000    0.000 
#    0.000    0.000    0.000    0.000    0.000    0.000 
#
# Total GULP energy -793161.175989 kJ/mol
# GULP energy per Si atom -12393.143375 kJ/mol
# Density = 2.119920 g / cm^3
# Si number density = 21.247564 Si / 1000 Ang^3
#
#
#
# Elastic Constant Matrix: (Units=GPa)
#
#
# Indices 1 2 3 4 5 6 
#
# 1 30.4264 13.1025 17.3090 0.0000 0.0000 0.0000
# 2 13.1025 167.5022 60.7438 0.0000 0.0000 0.0000
# 3 17.3090 60.7438 102.2702 0.0000 0.0000 0.0000
# 4 0.0000 0.0000 0.0000 48.7212 0.0000 0.0000
# 5 0.0000 0.0000 0.0000 0.0000 24.1450 0.0000
# 6 0.0000 0.0000 0.0000 0.0000 0.0000 15.0015
#
#
#
# Elastic Compliance Matrix: (Units=1/GPa)
#
#
# Indices 1 2 3 4 5 6 
#
# 1 0.036448 -0.000783 -0.005704 0.000000 0.000000 0.000000
# 2 -0.000783 0.007626 -0.004397 0.000000 0.000000 0.000000
# 3 -0.005704 -0.004397 0.013355 0.000000 0.000000 0.000000
# 4 0.000000 0.000000 0.000000 0.020525 0.000000 0.000000
# 5 0.000000 0.000000 0.000000 0.000000 0.041416 0.000000
# 6 0.000000 0.000000 0.000000 0.000000 0.000000 0.066660
#
#
# Mechanical properties :
#
#
# Convention : Reuss Voigt Hill
#
# Bulk Modulus (GPa) = 28.04107 53.61214 40.82660
# Shear Modulus (GPa) = 22.75990 31.50976 27.13483
#
# Velocity S-wave (km/s) = 3.27643 3.85513 3.57750
# Velocity P-wave (km/s) = 5.24779 6.71587 6.02670
#
# Compressibility (1/GPa) = 0.03566198
#
# Stress axis : x y z
#
# Youngs Moduli (GPa) = 27.43627 131.13360 74.87842
#
# Poissons Ratio (x) = 0.10262 0.42710
# Poissons Ratio (y) = 0.02147 0.32924
# Poissons Ratio (z) = 0.15650 0.57659
#
# Static dielectric constant tensor:
#      x y z
#    x 3.348590 0.000000 0.000000 
#    y 0.000000 4.117960 0.000000 
#    z 0.000000 0.000000 3.845760 
# 
# 
# High freq. dielectric constant tensor:
#      x y z
#    x 1.791680 0.000000 0.000000 
#    y 0.000000 1.849340 0.000000 
#    z 0.000000 0.000000 1.835020 
# 
# From -- ./inp_files/10221.got.cif
#   From: 2010.03.12/outbox.cif.g09.slc.cpg/sg53_6_cif.got.tgz:10221.got - 2010.04.16 14:36:59.
