data_PCOD8219837
_publ_section_title
;
Structure prediction by ZEFSAII (Michael W. Deem and Ramdas Pophale) SiO2 
 PCOD8219837
Probable space group: P M N A
;
_chemical_formula_sum "Si O2"
_cell_formula_units_Z 56
_cell_length_a 9.165221
_cell_length_b 15.121821
_cell_length_c 20.507009
_cell_angle_alpha 90.000000
_cell_angle_beta 90.000000
_cell_angle_gamma 90.000000
_cell_volume 2842.165455
_symmetry_space_group_name_H-M "P M N A"
_symmetry_group_IT_number 53
_symmetry_cell_setting 'orthorhombic'
loop_
_space_group_symop_operation_xyz
x,y,z
1/2-x,-y,1/2+z
x,-y,-z
1/2-x,y,1/2-z
-x,-y,-z
1/2+x,y,1/2-z
-x,y,z
1/2+x,-y,1/2+z
loop_
_atom_site_type_symbol
_atom_site_label
_atom_site_fract_x
_atom_site_fract_y
_atom_site_fract_z
Si Si1 0.330588 0.939072 0.558589
Si Si2 0.334170 0.551890 0.685467
Si Si3 0.662376 0.775656 0.977743
Si Si4 0.671107 0.050473 0.685620
Si Si5 0.663388 0.343331 0.688061
Si Si6 0.835471 0.789991 0.375405
Si Si7 0.172173 0.422591 0.450119
O O1 0.500000 0.925800 0.545121
O O2 0.263238 0.840814 0.563903
O O3 0.265259 0.000000 0.500000
O O4 0.296687 0.982902 0.627590
O O5 0.250000 0.588386 0.750000
O O6 0.500000 0.589807 0.685014
O O7 0.338968 0.447431 0.687885
O O8 0.251004 0.576604 0.619568
O O9 0.500000 0.779500 0.948029
O O10 0.713447 0.673393 0.979406
O O11 0.664543 0.817382 0.049635
O O12 0.750000 0.012670 0.750000
O O13 0.500000 0.062134 0.698346
O O14 0.740342 0.144294 0.667924
O O15 0.750000 0.305534 0.750000
O O16 0.500000 0.305056 0.687241
O O17 0.756540 0.305957 0.627393
O O18 0.000000 0.785126 0.348085
O O19 0.227480 0.500000 0.500000
O O20 0.000000 0.434891 0.438697
#
# Coordination Sequence:
#
# PCOD8219837 Si02
#       7
#     8   8   8   8   8   8   8
#     4  10  21  40  63  86 115 154 196 242 294 346
#     4  10  21  37  58  83 112 154 203 251 305 361
#     4  10  22  37  59  89 116 152 198 243 295 353
#     4  11  23  39  59  85 118 154 193 240 298 351
#     4  10  20  33  50  75 109 148 191 238 291 352
#     4  11  21  34  54  82 115 151 191 235 291 355
#     4  10  21  39  61  88 125 162 200 251 305 359
#
# _framework density 19.703285000000001
#
# number of rings (size 3 to 8) (size 9 to 14) (size 15 to 20)
#    0.000    1.714    1.429    3.000    0.000    5.714 
#    0.000    0.714    0.000    1.714    0.000    0.000 
#    0.000    0.000    0.000    0.000    0.000    0.000 
#
# Total GULP energy -694219.188134 kJ/mol
# GULP energy per Si atom -12396.771217 kJ/mol
# Density = 1.965844 g / cm^3
# Si number density = 19.703285 Si / 1000 Ang^3
#
#
#
# Elastic Constant Matrix: (Units=GPa)
#
#
# Indices 1 2 3 4 5 6 
#
# 1 111.9756 47.4045 61.8132 0.0000 0.0000 0.0000
# 2 47.4045 88.1971 41.5960 0.0000 0.0000 0.0000
# 3 61.8132 41.5960 117.1571 0.0000 0.0000 0.0000
# 4 0.0000 0.0000 0.0000 27.8886 0.0000 0.0000
# 5 0.0000 0.0000 0.0000 0.0000 35.1025 0.0000
# 6 0.0000 0.0000 0.0000 0.0000 0.0000 32.3427
#
#
#
# Elastic Compliance Matrix: (Units=1/GPa)
#
#
# Indices 1 2 3 4 5 6 
#
# 1 0.014177 -0.004915 -0.005735 0.000000 0.000000 0.000000
# 2 -0.004915 0.015323 -0.002847 0.000000 0.000000 0.000000
# 3 -0.005735 -0.002847 0.012572 0.000000 0.000000 0.000000
# 4 0.000000 0.000000 0.000000 0.035857 0.000000 0.000000
# 5 0.000000 0.000000 0.000000 0.000000 0.028488 0.000000
# 6 0.000000 0.000000 0.000000 0.000000 0.000000 0.030919
#
#
# Mechanical properties :
#
#
# Convention : Reuss Voigt Hill
#
# Bulk Modulus (GPa) = 66.32213 68.77302 67.54758
# Shear Modulus (GPa) = 29.52361 30.16784 29.84572
#
# Velocity S-wave (km/s) = 3.87513 3.91718 3.89621
# Velocity P-wave (km/s) = 7.33183 7.44575 7.38901
#
# Compressibility (1/GPa) = 0.01507792
#
# Stress axis : x y z
#
# Youngs Moduli (GPa) = 70.53597 65.26210 79.54125
#
# Poissons Ratio (x) = 0.32078 0.45616
# Poissons Ratio (y) = 0.34671 0.22645
# Poissons Ratio (z) = 0.40451 0.18580
#
# Static dielectric constant tensor:
#      x y z
#    x 3.785860 0.000000 0.000000 
#    y 0.000000 3.434310 0.000000 
#    z 0.000000 0.000000 3.676100 
# 
# 
# High freq. dielectric constant tensor:
#      x y z
#    x 1.774430 0.000000 0.000000 
#    y 0.000000 1.753140 0.000000 
#    z 0.000000 0.000000 1.766450 
# 
# From -- ./inp_files/30839.got.cif
#   From: 2010.03.12/outbox.cif.g09.slc.cpg/sg53_16_cif.got.tgz:30839.got - 2010.04.16 14:36:59.
