data_PCOD8219723
_publ_section_title
;
Structure prediction by ZEFSAII (Michael W. Deem and Ramdas Pophale) SiO2 
 PCOD8219723
Probable space group: P M N A
;
_chemical_formula_sum "Si O2"
_cell_formula_units_Z 64
_cell_length_a 9.073713
_cell_length_b 29.838121
_cell_length_c 13.577612
_cell_angle_alpha 90.000000
_cell_angle_beta 90.000000
_cell_angle_gamma 90.000000
_cell_volume 3676.037247
_symmetry_space_group_name_H-M "P M N A"
_symmetry_group_IT_number 53
_symmetry_cell_setting 'orthorhombic'
loop_
_space_group_symop_operation_xyz
x,y,z
1/2-x,-y,1/2+z
x,-y,-z
1/2-x,y,1/2-z
-x,-y,-z
1/2+x,y,1/2-z
-x,y,z
1/2+x,-y,1/2+z
loop_
_atom_site_type_symbol
_atom_site_label
_atom_site_fract_x
_atom_site_fract_y
_atom_site_fract_z
Si Si1 0.171100 0.051029 0.487037
Si Si2 0.330147 0.356198 0.150627
Si Si3 0.174697 0.126188 0.644822
Si Si4 0.833216 0.811919 0.997801
Si Si5 0.662844 0.109105 0.343834
Si Si6 0.672066 0.748279 0.852180
Si Si7 0.672277 0.570608 0.539770
Si Si8 0.328311 0.517454 0.349459
O O1 0.210412 0.081341 0.582080
O O2 0.257311 0.066472 0.390450
O O3 0.000000 0.055139 0.462892
O O4 0.220682 0.000000 0.500000
O O5 0.250000 0.371306 0.250000
O O6 0.500000 0.368144 0.162925
O O7 0.305226 0.304131 0.128797
O O8 0.262520 0.384254 0.060687
O O9 0.250000 0.119369 0.750000
O O10 0.244535 0.170286 0.593194
O O11 0.000000 0.133531 0.656448
O O12 0.841737 0.851327 0.920495
O O13 0.745805 0.771280 0.947021
O O14 0.000000 0.797077 0.027491
O O15 0.750000 0.127090 0.250000
O O16 0.500000 0.094358 0.311630
O O17 0.750000 0.762933 0.750000
O O18 0.500000 0.761530 0.844752
O O19 0.500000 0.580201 0.553562
O O20 0.725915 0.531015 0.612547
O O21 0.707983 0.555844 0.428687
O O22 0.250000 0.531612 0.250000
O O23 0.500000 0.514865 0.329563
#
# Coordination Sequence:
#
# PCOD8219723 Si02
#       8
#     8   8   8   8   8   8   8   8
#     4   9  19  35  52  72  99 130 164 201 240 283
#     4  10  20  32  48  72 101 132 165 200 241 293
#     4  10  20  35  55  76 101 132 167 208 250 292
#     4  10  20  34  53  76 100 127 162 202 244 290
#     4  10  20  32  48  71  98 127 158 193 234 282
#     4  10  20  33  50  75 105 134 163 198 244 297
#     4   9  18  32  48  68  97 130 164 204 249 294
#     4   9  18  31  47  69  96 127 164 206 249 293
#
# _framework density 17.410052
#
# number of rings (size 3 to 8) (size 9 to 14) (size 15 to 20)
#    0.000    2.375    0.000    3.375    0.000    7.250 
#    0.000    2.500    0.000    0.750    0.000    1.750 
#    0.000    0.000    0.000    0.000    0.000    0.000 
#
# Total GULP energy -793622.064203 kJ/mol
# GULP energy per Si atom -12400.344753 kJ/mol
# Density = 1.737043 g / cm^3
# Si number density = 17.410052 Si / 1000 Ang^3
#
#
#
# Elastic Constant Matrix: (Units=GPa)
#
#
# Indices 1 2 3 4 5 6 
#
# 1 103.1269 43.6175 50.4692 0.0000 0.0000 0.0000
# 2 43.6175 71.9160 32.7619 0.0000 0.0000 0.0000
# 3 50.4692 32.7619 92.4722 0.0000 0.0000 0.0000
# 4 0.0000 0.0000 0.0000 20.5637 0.0000 0.0000
# 5 0.0000 0.0000 0.0000 0.0000 35.2294 0.0000
# 6 0.0000 0.0000 0.0000 0.0000 0.0000 27.6298
#
#
#
# Elastic Compliance Matrix: (Units=1/GPa)
#
#
# Indices 1 2 3 4 5 6 
#
# 1 0.015480 -0.006606 -0.006108 0.000000 0.000000 0.000000
# 2 -0.006606 0.019401 -0.003268 0.000000 0.000000 0.000000
# 3 -0.006108 -0.003268 0.015306 0.000000 0.000000 0.000000
# 4 0.000000 0.000000 0.000000 0.048629 0.000000 0.000000
# 5 0.000000 0.000000 0.000000 0.000000 0.028385 0.000000
# 6 0.000000 0.000000 0.000000 0.000000 0.000000 0.036193
#
#
# Mechanical properties :
#
#
# Convention : Reuss Voigt Hill
#
# Bulk Modulus (GPa) = 54.87970 57.91247 56.39609
# Shear Modulus (GPa) = 24.82224 26.06234 25.44229
#
# Velocity S-wave (km/s) = 3.78000 3.87327 3.82692
# Velocity P-wave (km/s) = 7.11628 7.30335 7.21042
#
# Compressibility (1/GPa) = 0.01822167
#
# Stress axis : x y z
#
# Youngs Moduli (GPa) = 64.59874 51.54501 65.33574
#
# Poissons Ratio (x) = 0.34052 0.39909
# Poissons Ratio (y) = 0.42675 0.21351
# Poissons Ratio (z) = 0.39458 0.16844
#
# Static dielectric constant tensor:
#      x y z
#    x 3.433680 0.000000 0.000000 
#    y 0.000000 3.170690 0.000000 
#    z 0.000000 0.000000 3.176220 
# 
# 
# High freq. dielectric constant tensor:
#      x y z
#    x 1.684900 0.000000 0.000000 
#    y 0.000000 1.661080 0.000000 
#    z 0.000000 0.000000 1.661940 
# 
# From -- ./inp_files/14246.got.cif
#   From: 2010.03.12/outbox.cif.g09.slc.cpg/sg53_8_cif.got.tgz:14246.got - 2010.04.16 14:36:59.
