data_PCOD8219577
_publ_section_title
;
Structure prediction by ZEFSAII (Michael W. Deem and Ramdas Pophale) SiO2 
 PCOD8219577
Probable space group: P M N A
;
_chemical_formula_sum "Si O2"
_cell_formula_units_Z 48
_cell_length_a 15.087572
_cell_length_b 15.310068
_cell_length_c 10.018126
_cell_angle_alpha 90.000000
_cell_angle_beta 90.000000
_cell_angle_gamma 90.000000
_cell_volume 2314.104489
_symmetry_space_group_name_H-M "P M N A"
_symmetry_group_IT_number 53
_symmetry_cell_setting 'orthorhombic'
loop_
_space_group_symop_operation_xyz
x,y,z
1/2-x,-y,1/2+z
x,-y,-z
1/2-x,y,1/2-z
-x,-y,-z
1/2+x,y,1/2-z
-x,y,z
1/2+x,-y,1/2+z
loop_
_atom_site_type_symbol
_atom_site_label
_atom_site_fract_x
_atom_site_fract_y
_atom_site_fract_z
Si Si1 0.851456 0.332010 0.757614
Si Si2 0.254456 0.918624 0.096849
Si Si3 0.104529 0.300436 0.246812
Si Si4 0.105437 0.485324 0.149588
Si Si5 0.100384 0.793756 0.017278
Si Si6 0.600506 0.220386 0.980163
O O1 0.750000 0.300976 0.750000
O O2 0.860287 0.436218 0.757680
O O3 0.902576 0.296923 0.628701
O O4 0.894995 0.292402 0.890765
O O5 0.250000 0.950472 0.250000
O O6 0.339722 0.858324 0.072704
O O7 0.162782 0.869815 0.069090
O O8 0.263548 0.000000 0.000000
O O9 0.144530 0.395949 0.212825
O O10 0.130550 0.233067 0.130727
O O11 0.142588 0.261190 0.384646
O O12 0.000000 0.310477 0.259354
O O13 0.000000 0.483110 0.147434
O O14 0.142437 0.500000 0.000000
O O15 0.000000 0.829479 0.017901
O O16 0.500000 0.186136 0.003592
#
# Coordination Sequence:
#
# PCOD8219577 Si02
#       6
#     8   8   8   8   8   8
#     4  12  22  40  61  94 129 175 222 260 316 377
#     4  12  28  47  68 101 129 160 209 262 329 399
#     4   9  21  38  63  97 127 171 223 261 314 372
#     4  10  19  36  61  90 127 171 223 273 309 359
#     4  11  21  43  71  92 126 172 215 259 312 385
#     4  11  23  44  68  93 132 172 208 262 324 383
#
# _framework density 20.742363999999998
#
# number of rings (size 3 to 8) (size 9 to 14) (size 15 to 20)
#    0.000    1.167    5.000    1.500    2.333    1.333 
#    6.000    2.500    0.000    0.000    0.000    0.000 
#    0.000    0.000    0.000    0.000    0.000    0.000 
#
# Total GULP energy -595377.578980 kJ/mol
# GULP energy per Si atom -12403.699562 kJ/mol
# Density = 2.069515 g / cm^3
# Si number density = 20.742364 Si / 1000 Ang^3
#
#
#
# Elastic Constant Matrix: (Units=GPa)
#
#
# Indices 1 2 3 4 5 6 
#
# 1 82.4731 34.4956 27.0509 0.0000 0.0000 0.0000
# 2 34.4956 113.5192 62.0597 0.0000 0.0000 0.0000
# 3 27.0509 62.0597 164.7760 0.0000 0.0000 0.0000
# 4 0.0000 0.0000 0.0000 37.0304 0.0000 0.0000
# 5 0.0000 0.0000 0.0000 0.0000 14.7409 0.0000
# 6 0.0000 0.0000 0.0000 0.0000 0.0000 15.8778
#
#
#
# Elastic Compliance Matrix: (Units=1/GPa)
#
#
# Indices 1 2 3 4 5 6 
#
# 1 0.013990 -0.003772 -0.000876 0.000000 0.000000 0.000000
# 2 -0.003772 0.012110 -0.003942 0.000000 0.000000 0.000000
# 3 -0.000876 -0.003942 0.007697 0.000000 0.000000 0.000000
# 4 0.000000 0.000000 0.000000 0.027005 0.000000 0.000000
# 5 0.000000 0.000000 0.000000 0.000000 0.067839 0.000000
# 6 0.000000 0.000000 0.000000 0.000000 0.000000 0.062981
#
#
# Mechanical properties :
#
#
# Convention : Reuss Voigt Hill
#
# Bulk Modulus (GPa) = 60.17729 67.55341 63.86535
# Shear Modulus (GPa) = 23.32721 29.34062 26.33391
#
# Velocity S-wave (km/s) = 3.35717 3.76510 3.56697
# Velocity P-wave (km/s) = 6.64095 7.17913 6.91527
#
# Compressibility (1/GPa) = 0.01661756
#
# Stress axis : x y z
#
# Youngs Moduli (GPa) = 71.47783 82.57371 129.91627
#
# Poissons Ratio (x) = 0.31150 0.11380
# Poissons Ratio (y) = 0.26965 0.51211
# Poissons Ratio (z) = 0.06261 0.32549
#
# Static dielectric constant tensor:
#      x y z
#    x 3.608530 0.000000 0.000000 
#    y 0.000000 3.721380 0.000000 
#    z 0.000000 0.000000 4.065380 
# 
# 
# High freq. dielectric constant tensor:
#      x y z
#    x 1.808630 0.000000 0.000000 
#    y 0.000000 1.797180 0.000000 
#    z 0.000000 0.000000 1.824450 
# 
# From -- ./inp_files/8621.got.cif
#   From: 2010.03.12/outbox.cif.g09.slc.cpg/sg53_5_cif.got.tgz:8621.got - 2010.04.16 14:36:59.
