data_PCOD8219906
_publ_section_title
;
Structure prediction by ZEFSAII (Michael W. Deem and Ramdas Pophale) SiO2 
 PCOD8219906
Probable space group: P M N A
;
_chemical_formula_sum "Si O2"
_cell_formula_units_Z 64
_cell_length_a 8.932076
_cell_length_b 19.966091
_cell_length_c 18.570216
_cell_angle_alpha 90.000000
_cell_angle_beta 90.000000
_cell_angle_gamma 90.000000
_cell_volume 3311.787107
_symmetry_space_group_name_H-M "P M N A"
_symmetry_group_IT_number 53
_symmetry_cell_setting 'orthorhombic'
loop_
_space_group_symop_operation_xyz
x,y,z
1/2-x,-y,1/2+z
x,-y,-z
1/2-x,y,1/2-z
-x,-y,-z
1/2+x,y,1/2-z
-x,y,z
1/2+x,-y,1/2+z
loop_
_atom_site_type_symbol
_atom_site_label
_atom_site_fract_x
_atom_site_fract_y
_atom_site_fract_z
Si Si1 0.324434 0.130024 0.921052
Si Si2 0.177609 0.719317 0.437106
Si Si3 0.827273 0.786101 0.677074
Si Si4 0.171819 0.912162 0.580805
Si Si5 0.821482 0.664337 0.587384
Si Si6 0.177394 0.607304 0.326883
Si Si7 0.676903 0.023283 0.673210
Si Si8 0.678147 0.515611 0.920625
O O1 0.500000 0.128828 0.902958
O O2 0.261944 0.205739 0.924367
O O3 0.235872 0.093885 0.856968
O O4 0.292834 0.092107 0.996158
O O5 0.244008 0.688981 0.510901
O O6 0.229688 0.671784 0.372187
O O7 0.000000 0.721492 0.443372
O O8 0.750000 0.809682 0.750000
O O9 0.797922 0.839504 0.614447
O O10 0.763546 0.714491 0.649670
O O11 0.000000 0.779894 0.695320
O O12 0.000000 0.934577 0.593601
O O13 0.280624 0.965512 0.616917
O O14 0.765179 0.589084 0.604182
O O15 0.000000 0.666682 0.583566
O O16 0.250000 0.613648 0.250000
O O17 0.238346 0.539823 0.365075
O O18 0.000000 0.604877 0.319429
O O19 0.750000 0.007151 0.750000
O O20 0.500000 0.025884 0.682730
O O21 0.500000 0.513119 0.923435
O O22 0.741928 0.500000 0.000000
#
# Coordination Sequence:
#
# PCOD8219906 Si02
#       8
#     8   8   8   8   8   8   8   8
#     4  10  20  37  62  88 112 143 186 232 279 334
#     4   9  16  31  56  82 107 141 185 230 271 320
#     4  10  20  33  52  80 112 144 178 219 269 322
#     4  10  20  37  61  86 112 146 184 225 274 334
#     4   9  15  28  51  79 106 136 183 231 266 311
#     4  10  20  33  52  81 113 145 184 231 280 326
#     4  12  26  42  59  82 114 149 185 229 280 333
#     4   9  15  26  50  80 105 135 183 233 268 308
#
# _framework density 19.324912000000001
#
# number of rings (size 3 to 8) (size 9 to 14) (size 15 to 20)
#    0.000    2.125    2.500    1.875    0.000    4.500 
#    0.000    1.875    0.000    1.125    0.000    0.000 
#    0.000    0.000    0.000    0.000    0.000    0.000 
#
# Total GULP energy -793608.481212 kJ/mol
# GULP energy per Si atom -12400.132519 kJ/mol
# Density = 1.928093 g / cm^3
# Si number density = 19.324912 Si / 1000 Ang^3
#
#
#
# Elastic Constant Matrix: (Units=GPa)
#
#
# Indices 1 2 3 4 5 6 
#
# 1 48.5705 31.7192 29.2489 0.0000 0.0000 0.0000
# 2 31.7192 122.5033 31.2630 0.0000 0.0000 0.0000
# 3 29.2489 31.2630 92.0561 0.0000 0.0000 0.0000
# 4 0.0000 0.0000 0.0000 26.6927 0.0000 0.0000
# 5 0.0000 0.0000 0.0000 0.0000 28.2457 0.0000
# 6 0.0000 0.0000 0.0000 0.0000 0.0000 12.4639
#
#
#
# Elastic Compliance Matrix: (Units=1/GPa)
#
#
# Indices 1 2 3 4 5 6 
#
# 1 0.028543 -0.005558 -0.007181 0.000000 0.000000 0.000000
# 2 -0.005558 0.010020 -0.001637 0.000000 0.000000 0.000000
# 3 -0.007181 -0.001637 0.013701 0.000000 0.000000 0.000000
# 4 0.000000 0.000000 0.000000 0.037463 0.000000 0.000000
# 5 0.000000 0.000000 0.000000 0.000000 0.035404 0.000000
# 6 0.000000 0.000000 0.000000 0.000000 0.000000 0.080232
#
#
# Mechanical properties :
#
#
# Convention : Reuss Voigt Hill
#
# Bulk Modulus (GPa) = 42.53329 49.73243 46.13286
# Shear Modulus (GPa) = 20.66531 24.87370 22.76950
#
# Velocity S-wave (km/s) = 3.27366 3.59155 3.43628
# Velocity P-wave (km/s) = 6.02880 6.55666 6.29826
#
# Compressibility (1/GPa) = 0.02351099
#
# Stress axis : x y z
#
# Youngs Moduli (GPa) = 35.03520 99.80201 72.98950
#
# Poissons Ratio (x) = 0.55467 0.52417
# Poissons Ratio (y) = 0.19472 0.11948
# Poissons Ratio (z) = 0.25160 0.16337
#
# Static dielectric constant tensor:
#      x y z
#    x 3.010750 0.000000 0.000000 
#    y 0.000000 3.896910 0.000000 
#    z 0.000000 0.000000 3.527470 
# 
# 
# High freq. dielectric constant tensor:
#      x y z
#    x 1.697390 0.000000 0.000000 
#    y 0.000000 1.771540 0.000000 
#    z 0.000000 0.000000 1.756080 
# 
# From -- ./inp_files/26806.got.cif
#   From: 2010.03.12/outbox.cif.g09.slc.cpg/sg53_14_cif.got.tgz:26806.got - 2010.04.16 14:36:59.
