data_PCOD8219671
_publ_section_title
;
Structure prediction by ZEFSAII (Michael W. Deem and Ramdas Pophale) SiO2 
 PCOD8219671
Probable space group: P M N A
;
_chemical_formula_sum "Si O2"
_cell_formula_units_Z 40
_cell_length_a 17.245404
_cell_length_b 11.597329
_cell_length_c 9.706829
_cell_angle_alpha 90.000000
_cell_angle_beta 90.000000
_cell_angle_gamma 90.000000
_cell_volume 1941.371856
_symmetry_space_group_name_H-M "P M N A"
_symmetry_group_IT_number 53
_symmetry_cell_setting 'orthorhombic'
loop_
_space_group_symop_operation_xyz
x,y,z
1/2-x,-y,1/2+z
x,-y,-z
1/2-x,y,1/2-z
-x,-y,-z
1/2+x,y,1/2-z
-x,y,z
1/2+x,-y,1/2+z
loop_
_atom_site_type_symbol
_atom_site_label
_atom_site_fract_x
_atom_site_fract_y
_atom_site_fract_z
Si Si1 0.143587 0.870394 0.008053
Si Si2 0.158830 0.264871 0.734620
Si Si3 0.829830 0.505772 0.832294
Si Si4 0.825537 0.866884 0.529954
Si Si5 0.587240 0.738636 0.735638
O O1 0.088254 0.793427 0.915015
O O2 0.127802 0.832688 0.163754
O O3 0.233077 0.854802 0.963483
O O4 0.115540 0.000000 0.000000
O O5 0.250000 0.275665 0.750000
O O6 0.126067 0.390613 0.777112
O O7 0.137494 0.220529 0.582573
O O8 0.750000 0.521809 0.750000
O O9 0.882976 0.609256 0.781079
O O10 0.817713 0.500000 0.000000
O O11 0.859473 0.822657 0.672979
O O12 0.848741 0.000000 0.500000
O O13 0.500000 0.735775 0.794048
#
# Coordination Sequence:
#
# PCOD8219671 Si02
#       5
#     8   8   8   8   8
#     4  10  19  38  66  93 118 158 214 267 310 363
#     4   9  19  35  61  93 118 149 204 269 319 353
#     4  11  23  41  68  93 120 163 215 272 313 364
#     4  10  21  40  67  95 123 158 212 267 311 365
#     4  12  26  40  59  91 135 174 203 249 319 388
#
# _framework density 20.603987
#
# number of rings (size 3 to 8) (size 9 to 14) (size 15 to 20)
#    0.000    1.600    2.000    3.000    5.600    4.400 
#    0.000    3.000    0.000    0.000    0.000    0.000 
#    0.000    0.000    0.000    0.000    0.000    0.000 
#
# Total GULP energy -495820.779803 kJ/mol
# GULP energy per Si atom -12395.519495 kJ/mol
# Density = 2.055709 g / cm^3
# Si number density = 20.603987 Si / 1000 Ang^3
#
#
#
# Elastic Constant Matrix: (Units=GPa)
#
#
# Indices 1 2 3 4 5 6 
#
# 1 45.6511 19.6290 9.7150 0.0000 0.0000 0.0000
# 2 19.6290 165.2857 31.2354 0.0000 0.0000 0.0000
# 3 9.7150 31.2354 75.8569 0.0000 0.0000 0.0000
# 4 0.0000 0.0000 0.0000 43.5260 0.0000 0.0000
# 5 0.0000 0.0000 0.0000 0.0000 5.6063 0.0000
# 6 0.0000 0.0000 0.0000 0.0000 0.0000 4.7676
#
#
#
# Elastic Compliance Matrix: (Units=1/GPa)
#
#
# Indices 1 2 3 4 5 6 
#
# 1 0.023362 -0.002395 -0.002006 0.000000 0.000000 0.000000
# 2 -0.002395 0.006806 -0.002496 0.000000 0.000000 0.000000
# 3 -0.002006 -0.002496 0.014467 0.000000 0.000000 0.000000
# 4 0.000000 0.000000 0.000000 0.022975 0.000000 0.000000
# 5 0.000000 0.000000 0.000000 0.000000 0.178371 0.000000
# 6 0.000000 0.000000 0.000000 0.000000 0.000000 0.209748
#
#
# Mechanical properties :
#
#
# Convention : Reuss Voigt Hill
#
# Bulk Modulus (GPa) = 32.42342 45.32804 38.87573
# Shear Modulus (GPa) = 10.42093 25.86094 18.14093
#
# Velocity S-wave (km/s) = 2.25138 3.54664 2.97047
# Velocity P-wave (km/s) = 4.74646 6.23049 5.53841
#
# Compressibility (1/GPa) = 0.03084191
#
# Stress axis : x y z
#
# Youngs Moduli (GPa) = 42.80441 146.92363 69.12156
#
# Poissons Ratio (x) = 0.35194 0.13863
# Poissons Ratio (y) = 0.10253 0.17251
# Poissons Ratio (z) = 0.08585 0.36669
#
# Static dielectric constant tensor:
#      x y z
#    x 3.290600 0.000000 0.000000 
#    y 0.000000 4.186610 0.000000 
#    z 0.000000 0.000000 3.977290 
# 
# 
# High freq. dielectric constant tensor:
#      x y z
#    x 1.758630 0.000000 0.000000 
#    y 0.000000 1.830920 0.000000 
#    z 0.000000 0.000000 1.816570 
# 
# From -- ./inp_files/9665.got.cif
#   From: 2010.03.12/outbox.cif.g09.slc.cpg/sg53_5_cif.got.tgz:9665.got - 2010.04.16 14:36:59.
