data_PCOD8219934
_publ_section_title
;
Structure prediction by ZEFSAII (Michael W. Deem and Ramdas Pophale) SiO2 
 PCOD8219934
Probable space group: P M N A
;
_chemical_formula_sum "Si O2"
_cell_formula_units_Z 64
_cell_length_a 9.142562
_cell_length_b 21.942948
_cell_length_c 15.849166
_cell_angle_alpha 90.000000
_cell_angle_beta 90.000000
_cell_angle_gamma 90.000000
_cell_volume 3179.576674
_symmetry_space_group_name_H-M "P M N A"
_symmetry_group_IT_number 53
_symmetry_cell_setting 'orthorhombic'
loop_
_space_group_symop_operation_xyz
x,y,z
1/2-x,-y,1/2+z
x,-y,-z
1/2-x,y,1/2-z
-x,-y,-z
1/2+x,y,1/2-z
-x,y,z
1/2+x,-y,1/2+z
loop_
_atom_site_type_symbol
_atom_site_label
_atom_site_fract_x
_atom_site_fract_y
_atom_site_fract_z
Si Si1 0.329121 0.807252 0.981690
Si Si2 0.833594 0.486575 0.404945
Si Si3 0.326752 0.690016 0.484556
Si Si4 0.331065 0.381587 0.836773
Si Si5 0.660636 0.011570 0.330011
Si Si6 0.661742 0.938995 0.055237
Si Si7 0.672896 0.371258 0.337303
Si Si8 0.833559 0.856235 0.836619
O O1 0.500000 0.791890 0.976162
O O2 0.253869 0.806588 0.890391
O O3 0.245331 0.755978 0.035351
O O4 0.298023 0.874937 0.014821
O O5 0.777594 0.500000 0.500000
O O6 0.826378 0.546044 0.346917
O O7 0.728684 0.438499 0.359902
O O8 0.000000 0.461185 0.409168
O O9 0.500000 0.691970 0.468782
O O10 0.252903 0.644934 0.417863
O O11 0.289880 0.671026 0.581358
O O12 0.250000 0.362366 0.750000
O O13 0.500000 0.358577 0.834295
O O14 0.750000 0.029289 0.250000
O O15 0.500000 0.994162 0.301487
O O16 0.665718 0.075992 0.381533
O O17 0.721223 0.950811 0.372555
O O18 0.500000 0.934297 0.094014
O O19 0.670804 0.000000 0.000000
O O20 0.750000 0.348089 0.250000
O O21 0.500000 0.373558 0.320899
O O22 0.750000 0.858748 0.750000
O O23 0.000000 0.833727 0.823775
#
# Coordination Sequence:
#
# PCOD8219934 Si02
#       8
#     8   8   8   8   8   8   8   8
#     4  11  23  39  61  86 115 155 197 246 304 366
#     4  10  20  37  64  98 133 168 207 256 310 366
#     4  11  25  44  63  88 124 166 214 265 312 370
#     4  11  23  41  67  96 128 167 212 260 314 369
#     4  10  20  33  54  82 114 148 183 229 287 350
#     4  10  20  36  58  84 114 145 184 234 293 357
#     4  11  24  40  63  93 129 171 212 257 310 366
#     4  10  20  34  54  82 115 150 190 236 289 355
#
# _framework density 20.128464999999998
#
# number of rings (size 3 to 8) (size 9 to 14) (size 15 to 20)
#    0.000    1.500    2.500    2.625    0.000    6.500 
#    0.000    1.875    0.000    3.000    0.000    0.000 
#    0.000    0.000    0.000    0.000    0.000    0.000 
#
# Total GULP energy -793064.297613 kJ/mol
# GULP energy per Si atom -12391.629650 kJ/mol
# Density = 2.008265 g / cm^3
# Si number density = 20.128465 Si / 1000 Ang^3
#
#
#
# Elastic Constant Matrix: (Units=GPa)
#
#
# Indices 1 2 3 4 5 6 
#
# 1 137.6991 49.2769 49.9558 0.0000 0.0000 0.0000
# 2 49.2769 83.6723 19.3874 0.0000 0.0000 0.0000
# 3 49.9558 19.3874 85.1362 0.0000 0.0000 0.0000
# 4 0.0000 0.0000 0.0000 26.7174 0.0000 0.0000
# 5 0.0000 0.0000 0.0000 0.0000 32.3046 0.0000
# 6 0.0000 0.0000 0.0000 0.0000 0.0000 30.1480
#
#
#
# Elastic Compliance Matrix: (Units=1/GPa)
#
#
# Indices 1 2 3 4 5 6 
#
# 1 0.011079 -0.005298 -0.005294 0.000000 0.000000 0.000000
# 2 -0.005298 0.015151 -0.000341 0.000000 0.000000 0.000000
# 3 -0.005294 -0.000341 0.014930 0.000000 0.000000 0.000000
# 4 0.000000 0.000000 0.000000 0.037429 0.000000 0.000000
# 5 0.000000 0.000000 0.000000 0.000000 0.030955 0.000000
# 6 0.000000 0.000000 0.000000 0.000000 0.000000 0.033170
#
#
# Mechanical properties :
#
#
# Convention : Reuss Voigt Hill
#
# Bulk Modulus (GPa) = 51.83423 60.41643 56.12533
# Shear Modulus (GPa) = 29.23778 30.35984 29.79881
#
# Velocity S-wave (km/s) = 3.81538 3.88790 3.85181
# Velocity P-wave (km/s) = 6.72437 7.08766 6.90840
#
# Compressibility (1/GPa) = 0.01929227
#
# Stress axis : x y z
#
# Youngs Moduli (GPa) = 90.26201 66.00410 66.97823
#
# Poissons Ratio (x) = 0.34968 0.35461
# Poissons Ratio (y) = 0.47820 0.02287
# Poissons Ratio (z) = 0.47788 0.02254
#
# Static dielectric constant tensor:
#      x y z
#    x 3.888620 0.000000 0.000000 
#    y 0.000000 3.694230 0.000000 
#    z 0.000000 0.000000 3.101320 
# 
# 
# High freq. dielectric constant tensor:
#      x y z
#    x 1.801180 0.000000 0.000000 
#    y 0.000000 1.778280 0.000000 
#    z 0.000000 0.000000 1.771940 
# 
# From -- ./inp_files/26997.got.cif
#   From: 2010.03.12/outbox.cif.g09.slc.cpg/sg53_14_cif.got.tgz:26997.got - 2010.04.16 14:36:59.
