data_PCOD8219079
_publ_section_title
;
Structure prediction by ZEFSAII (Michael W. Deem and Ramdas Pophale) SiO2 
 PCOD8219079
Probable space group: P M N A
;
_chemical_formula_sum "Si O2"
_cell_formula_units_Z 64
_cell_length_a 9.067760
_cell_length_b 18.353964
_cell_length_c 19.774929
_cell_angle_alpha 90.000000
_cell_angle_beta 90.000000
_cell_angle_gamma 90.000000
_cell_volume 3291.128394
_symmetry_space_group_name_H-M "P M N A"
_symmetry_group_IT_number 53
_symmetry_cell_setting 'orthorhombic'
loop_
_space_group_symop_operation_xyz
x,y,z
1/2-x,-y,1/2+z
x,-y,-z
1/2-x,y,1/2-z
-x,-y,-z
1/2+x,y,1/2-z
-x,y,z
1/2+x,-y,1/2+z
loop_
_atom_site_type_symbol
_atom_site_label
_atom_site_fract_x
_atom_site_fract_y
_atom_site_fract_z
Si Si1 0.673009 0.762649 0.182469
Si Si2 0.830632 0.702898 0.459176
Si Si3 0.167428 0.970620 0.925113
Si Si4 0.674582 0.573687 0.536895
Si Si5 0.825682 0.930102 0.318274
Si Si6 0.838328 0.582333 0.812940
Si Si7 0.836200 0.247815 0.187175
Si Si8 0.329808 0.818697 0.931436
O O1 0.750000 0.731696 0.250000
O O2 0.500000 0.756816 0.193575
O O3 0.723119 0.714418 0.118076
O O4 0.719427 0.846236 0.169552
O O5 0.735249 0.641565 0.495137
O O6 0.813171 0.781328 0.495423
O O7 0.000000 0.677578 0.461798
O O8 0.235395 0.890915 0.925483
O O9 0.000000 0.967510 0.897500
O O10 0.265728 0.023424 0.880142
O O11 0.171564 0.000000 0.000000
O O12 0.722388 0.500000 0.500000
O O13 0.500000 0.584404 0.540587
O O14 0.738309 0.569719 0.613668
O O15 0.750000 0.959315 0.250000
O O16 0.000000 0.940534 0.312817
O O17 0.750000 0.546444 0.750000
O O18 0.854471 0.667389 0.799053
O O19 0.000000 0.545547 0.813043
O O20 0.750000 0.210554 0.250000
O O21 0.736623 0.238570 0.121303
O O22 0.000000 0.212707 0.179503
O O23 0.500000 0.835657 0.914849
#
# Coordination Sequence:
#
# PCOD8219079 Si02
#       8
#     8   8   8   8   8   8   8   8
#     4   9  19  36  58  85 112 144 185 230 279 334
#     4  10  21  37  58  84 114 144 183 231 281 335
#     4  11  24  39  55  79 111 147 189 235 284 340
#     4  10  21  38  59  85 117 152 190 230 281 339
#     4  10  20  37  60  83 113 149 190 236 285 340
#     4   9  18  33  55  81 110 146 185 225 268 322
#     4  10  19  33  53  79 110 142 181 226 273 325
#     4  11  22  36  56  81 109 145 186 232 285 337
#
# _framework density 19.446218999999999
#
# number of rings (size 3 to 8) (size 9 to 14) (size 15 to 20)
#    0.000    2.000    1.250    2.250    0.000    5.250 
#    0.000    3.125    0.000    3.000    0.000    0.000 
#    0.000    0.000    0.000    0.000    0.000    0.000 
#
# Total GULP energy -793544.020069 kJ/mol
# GULP energy per Si atom -12399.125314 kJ/mol
# Density = 1.940196 g / cm^3
# Si number density = 19.446219 Si / 1000 Ang^3
#
#
#
# Elastic Constant Matrix: (Units=GPa)
#
#
# Indices 1 2 3 4 5 6 
#
# 1 82.0398 26.4849 51.5144 0.0000 0.0000 0.0000
# 2 26.4849 57.2896 39.8832 0.0000 0.0000 0.0000
# 3 51.5144 39.8832 154.7365 0.0000 0.0000 0.0000
# 4 0.0000 0.0000 0.0000 22.0406 0.0000 0.0000
# 5 0.0000 0.0000 0.0000 0.0000 36.1577 0.0000
# 6 0.0000 0.0000 0.0000 0.0000 0.0000 20.8263
#
#
#
# Elastic Compliance Matrix: (Units=1/GPa)
#
#
# Indices 1 2 3 4 5 6 
#
# 1 0.016345 -0.004592 -0.004258 0.000000 0.000000 0.000000
# 2 -0.004592 0.022562 -0.004287 0.000000 0.000000 0.000000
# 3 -0.004258 -0.004287 0.008985 0.000000 0.000000 0.000000
# 4 0.000000 0.000000 0.000000 0.045371 0.000000 0.000000
# 5 0.000000 0.000000 0.000000 0.000000 0.027657 0.000000
# 6 0.000000 0.000000 0.000000 0.000000 0.000000 0.048016
#
#
# Mechanical properties :
#
#
# Convention : Reuss Voigt Hill
#
# Bulk Modulus (GPa) = 46.25524 58.87010 52.56267
# Shear Modulus (GPa) = 24.70155 27.55048 26.12601
#
# Velocity S-wave (km/s) = 3.56792 3.76806 3.66936
# Velocity P-wave (km/s) = 6.38837 7.01926 6.71124
#
# Compressibility (1/GPa) = 0.02161917
#
# Stress axis : x y z
#
# Youngs Moduli (GPa) = 61.17927 44.32166 111.29609
#
# Poissons Ratio (x) = 0.20353 0.47390
# Poissons Ratio (y) = 0.28094 0.47708
# Poissons Ratio (z) = 0.26050 0.18999
#
# Static dielectric constant tensor:
#      x y z
#    x 3.731870 0.000000 0.000000 
#    y 0.000000 3.204870 0.000000 
#    z 0.000000 0.000000 3.797060 
# 
# 
# High freq. dielectric constant tensor:
#      x y z
#    x 1.760750 0.000000 0.000000 
#    y 0.000000 1.729280 0.000000 
#    z 0.000000 0.000000 1.772650 
# 
# From -- ./inp_files/26866.got.cif
#   From: 2010.03.12/outbox.cif.g09.slc.cpg/sg53_14_cif.got.tgz:26866.got - 2010.04.16 14:36:59.
