data_PCOD8219963
_publ_section_title
;
Structure prediction by ZEFSAII (Michael W. Deem and Ramdas Pophale) SiO2 
 PCOD8219963
Probable space group: P M N A
;
_chemical_formula_sum "Si O2"
_cell_formula_units_Z 56
_cell_length_a 9.421885
_cell_length_b 17.583341
_cell_length_c 19.986050
_cell_angle_alpha 90.000000
_cell_angle_beta 90.000000
_cell_angle_gamma 90.000000
_cell_volume 3311.053265
_symmetry_space_group_name_H-M "P M N A"
_symmetry_group_IT_number 53
_symmetry_cell_setting 'orthorhombic'
loop_
_space_group_symop_operation_xyz
x,y,z
1/2-x,-y,1/2+z
x,-y,-z
1/2-x,y,1/2-z
-x,-y,-z
1/2+x,y,1/2-z
-x,y,z
1/2+x,-y,1/2+z
loop_
_atom_site_type_symbol
_atom_site_label
_atom_site_fract_x
_atom_site_fract_y
_atom_site_fract_z
Si Si1 0.164254 0.540081 0.567288
Si Si2 0.659032 0.988552 0.920688
Si Si3 0.157827 0.850576 0.936526
Si Si4 0.166203 0.316681 0.041514
Si Si5 0.843062 0.873976 0.094353
Si Si6 0.666217 0.295372 0.612030
Si Si7 0.166701 0.578082 0.315317
O O1 0.221344 0.500000 0.500000
O O2 0.249149 0.617743 0.579923
O O3 0.193153 0.485469 0.629199
O O4 0.000000 0.561109 0.559288
O O5 0.500000 0.983885 0.892970
O O6 0.736955 0.909980 0.900898
O O7 0.734586 0.059793 0.884319
O O8 0.661389 0.000000 0.000000
O O9 0.209036 0.763876 0.924618
O O10 0.000000 0.862739 0.906939
O O11 0.153400 0.865023 0.015108
O O12 0.000000 0.331207 0.050052
O O13 0.208134 0.317087 0.963527
O O14 0.798816 0.793238 0.126304
O O15 0.000000 0.897444 0.119242
O O16 0.500000 0.312366 0.625072
O O17 0.765323 0.342393 0.661756
O O18 0.250000 0.549629 0.250000
O O19 0.000000 0.589931 0.300741
#
# Coordination Sequence:
#
# PCOD8219963 Si02
#       7
#     8   8   8   8   8   8   8
#     4  10  20  34  50  71  97 124 157 199 249 297
#     4   9  15  21  31  52  81 115 153 188 225 269
#     4   8  14  24  36  54  83 117 151 186 228 273
#     4   9  17  28  46  70  92 120 159 200 237 284
#     4   8  14  24  38  55  80 116 152 186 224 270
#     4   9  17  30  47  68  92 120 158 197 237 284
#     4  11  23  37  52  70  96 128 160 199 246 294
#
# _framework density 16.913046999999999
#
# number of rings (size 3 to 8) (size 9 to 14) (size 15 to 20)
#    0.000    2.857    1.429    2.571    0.000    4.286 
#    0.000    2.857    0.000    0.000    0.000    0.000 
#    0.000    1.143    0.000    8.000    0.000    8.286 
#
# Total GULP energy -694228.112049 kJ/mol
# GULP energy per Si atom -12396.930572 kJ/mol
# Density = 1.687455 g / cm^3
# Si number density = 16.913047 Si / 1000 Ang^3
#
#
#
# Elastic Constant Matrix: (Units=GPa)
#
#
# Indices 1 2 3 4 5 6 
#
# 1 107.9574 82.6805 33.3634 0.0000 0.0000 0.0000
# 2 82.6805 145.2301 30.9281 0.0000 0.0000 0.0000
# 3 33.3634 30.9281 43.9982 0.0000 0.0000 0.0000
# 4 0.0000 0.0000 0.0000 11.6960 0.0000 0.0000
# 5 0.0000 0.0000 0.0000 0.0000 16.2868 0.0000
# 6 0.0000 0.0000 0.0000 0.0000 0.0000 26.6302
#
#
#
# Elastic Compliance Matrix: (Units=1/GPa)
#
#
# Indices 1 2 3 4 5 6 
#
# 1 0.018433 -0.008841 -0.007763 0.000000 0.000000 0.000000
# 2 -0.008841 0.012338 -0.001969 0.000000 0.000000 0.000000
# 3 -0.007763 -0.001969 0.029999 0.000000 0.000000 0.000000
# 4 0.000000 0.000000 0.000000 0.085500 0.000000 0.000000
# 5 0.000000 0.000000 0.000000 0.000000 0.061400 0.000000
# 6 0.000000 0.000000 0.000000 0.000000 0.000000 0.037551
#
#
# Mechanical properties :
#
#
# Convention : Reuss Voigt Hill
#
# Bulk Modulus (GPa) = 42.32929 65.68107 54.00518
# Shear Modulus (GPa) = 17.22712 20.93684 19.08198
#
# Velocity S-wave (km/s) = 3.19497 3.52221 3.36257
# Velocity P-wave (km/s) = 6.22032 7.44716 6.86121
#
# Compressibility (1/GPa) = 0.02362431
#
# Stress axis : x y z
#
# Youngs Moduli (GPa) = 54.25127 81.05013 33.33463
#
# Poissons Ratio (x) = 0.71654 0.25877
# Poissons Ratio (y) = 0.47962 0.06564
# Poissons Ratio (z) = 0.42115 0.15959
#
# Static dielectric constant tensor:
#      x y z
#    x 3.269190 0.000000 0.000000 
#    y 0.000000 3.358590 0.000000 
#    z 0.000000 0.000000 2.609180 
# 
# 
# High freq. dielectric constant tensor:
#      x y z
#    x 1.656340 0.000000 0.000000 
#    y 0.000000 1.664810 0.000000 
#    z 0.000000 0.000000 1.581950 
# 
# From -- ./inp_files/31036.got.cif
#   From: 2010.03.12/outbox.cif.g09.slc.cpg/sg53_16_cif.got.tgz:31036.got - 2010.04.16 14:36:59.
