data_PCOD8219009
_publ_section_title
;
Structure prediction by ZEFSAII (Michael W. Deem and Ramdas Pophale) SiO2 
 PCOD8219009
Probable space group: P M N A
;
_chemical_formula_sum "Si O2"
_cell_formula_units_Z 56
_cell_length_a 9.342661
_cell_length_b 14.144310
_cell_length_c 20.679206
_cell_angle_alpha 90.000000
_cell_angle_beta 90.000000
_cell_angle_gamma 90.000000
_cell_volume 2732.663880
_symmetry_space_group_name_H-M "P M N A"
_symmetry_group_IT_number 53
_symmetry_cell_setting 'orthorhombic'
loop_
_space_group_symop_operation_xyz
x,y,z
1/2-x,-y,1/2+z
x,-y,-z
1/2-x,y,1/2-z
-x,-y,-z
1/2+x,y,1/2-z
-x,y,z
1/2+x,-y,1/2+z
loop_
_atom_site_type_symbol
_atom_site_label
_atom_site_fract_x
_atom_site_fract_y
_atom_site_fract_z
Si Si1 0.330020 0.635210 0.317988
Si Si2 0.842575 0.831841 0.804451
Si Si3 0.668997 0.490484 0.924305
Si Si4 0.658794 0.022118 0.418369
Si Si5 0.659440 0.834232 0.988466
Si Si6 0.657705 0.692403 0.870382
Si Si7 0.335023 0.187292 0.604094
O O1 0.250000 0.610882 0.250000
O O2 0.500000 0.610745 0.311859
O O3 0.261525 0.582001 0.380392
O O4 0.308134 0.747581 0.332733
O O5 0.750000 0.884446 0.750000
O O6 0.842784 0.899261 0.864494
O O7 0.770937 0.729956 0.818434
O O8 0.000000 0.811929 0.777855
O O9 0.500000 0.464506 0.919918
O O10 0.706697 0.590886 0.893850
O O11 0.715320 0.500000 0.000000
O O12 0.500000 0.008023 0.446362
O O13 0.755171 0.067035 0.475961
O O14 0.712591 0.923048 0.386574
O O15 0.500000 0.862458 0.010463
O O16 0.653898 0.765801 0.928469
O O17 0.738206 0.775139 0.044960
O O18 0.500000 0.686905 0.838892
O O19 0.500000 0.195400 0.583623
#
# Coordination Sequence:
#
# PCOD8219009 Si02
#       7
#     8   8   8   8   8   8   8
#     4  11  25  43  62  86 118 157 202 251 301 358
#     4  10  20  34  53  76 104 139 179 223 270 321
#     4  10  21  40  66  92 118 151 191 239 297 356
#     4   9  19  35  53  76 110 150 188 229 280 337
#     4  10  19  32  54  86 117 143 180 230 280 333
#     4   9  19  35  55  80 110 141 173 214 269 331
#     4  10  21  37  56  78 109 151 191 227 277 338
#
# _framework density 20.492825
#
# number of rings (size 3 to 8) (size 9 to 14) (size 15 to 20)
#    0.000    2.143    0.000    2.571    0.000    7.714 
#    0.000    0.000    0.000    0.000    0.000    0.000 
#    0.000    0.000    0.000    0.000    0.000    0.000 
#
# Total GULP energy -693814.538911 kJ/mol
# GULP energy per Si atom -12389.545338 kJ/mol
# Density = 2.044618 g / cm^3
# Si number density = 20.492825 Si / 1000 Ang^3
#
#
#
# Elastic Constant Matrix: (Units=GPa)
#
#
# Indices 1 2 3 4 5 6 
#
# 1 117.1630 32.3540 47.8836 0.0000 0.0000 0.0000
# 2 32.3540 93.3186 25.4579 0.0000 0.0000 0.0000
# 3 47.8836 25.4579 99.3040 0.0000 0.0000 0.0000
# 4 0.0000 0.0000 0.0000 22.0360 0.0000 0.0000
# 5 0.0000 0.0000 0.0000 0.0000 32.3935 0.0000
# 6 0.0000 0.0000 0.0000 0.0000 0.0000 20.2689
#
#
#
# Elastic Compliance Matrix: (Units=1/GPa)
#
#
# Indices 1 2 3 4 5 6 
#
# 1 0.011182 -0.002587 -0.004729 0.000000 0.000000 0.000000
# 2 -0.002587 0.012120 -0.001860 0.000000 0.000000 0.000000
# 3 -0.004729 -0.001860 0.012827 0.000000 0.000000 0.000000
# 4 0.000000 0.000000 0.000000 0.045380 0.000000 0.000000
# 5 0.000000 0.000000 0.000000 0.000000 0.030870 0.000000
# 6 0.000000 0.000000 0.000000 0.000000 0.000000 0.049337
#
#
# Mechanical properties :
#
#
# Convention : Reuss Voigt Hill
#
# Bulk Modulus (GPa) = 56.24763 57.90849 57.07806
# Shear Modulus (GPa) = 26.88264 28.54569 27.71417
#
# Velocity S-wave (km/s) = 3.62582 3.73629 3.68147
# Velocity P-wave (km/s) = 6.71087 6.85072 6.78116
#
# Compressibility (1/GPa) = 0.01777853
#
# Stress axis : x y z
#
# Youngs Moduli (GPa) = 89.42896 82.50674 77.96034
#
# Poissons Ratio (x) = 0.21343 0.36865
# Poissons Ratio (y) = 0.23134 0.14499
# Poissons Ratio (z) = 0.42289 0.15345
#
# Static dielectric constant tensor:
#      x y z
#    x 4.168400 0.000000 0.000000 
#    y 0.000000 4.177080 0.000000 
#    z 0.000000 0.000000 3.757110 
# 
# 
# High freq. dielectric constant tensor:
#      x y z
#    x 1.804370 0.000000 0.000000 
#    y 0.000000 1.804170 0.000000 
#    z 0.000000 0.000000 1.796990 
# 
# From -- ./inp_files/30763.got.cif
#   From: 2010.03.12/outbox.cif.g09.slc.cpg/sg53_16_cif.got.tgz:30763.got - 2010.04.16 14:36:59.
