data_PCOD8219224
_publ_section_title
;
Structure prediction by ZEFSAII (Michael W. Deem and Ramdas Pophale) SiO2 
 PCOD8219224
Probable space group: P M N A
;
_chemical_formula_sum "Si O2"
_cell_formula_units_Z 64
_cell_length_a 8.656599
_cell_length_b 17.123613
_cell_length_c 21.869383
_cell_angle_alpha 90.000000
_cell_angle_beta 90.000000
_cell_angle_gamma 90.000000
_cell_volume 3241.747874
_symmetry_space_group_name_H-M "P M N A"
_symmetry_group_IT_number 53
_symmetry_cell_setting 'orthorhombic'
loop_
_space_group_symop_operation_xyz
x,y,z
1/2-x,-y,1/2+z
x,-y,-z
1/2-x,y,1/2-z
-x,-y,-z
1/2+x,y,1/2-z
-x,y,z
1/2+x,-y,1/2+z
loop_
_atom_site_type_symbol
_atom_site_label
_atom_site_fract_x
_atom_site_fract_y
_atom_site_fract_z
Si Si1 0.820502 0.142898 0.119061
Si Si2 0.681838 0.424277 0.079912
Si Si3 0.817207 0.703329 0.681278
Si Si4 0.330657 0.850012 0.307737
Si Si5 0.322370 0.881370 0.010964
Si Si6 0.830099 0.749388 0.079405
Si Si7 0.180572 0.419700 0.946513
Si Si8 0.679333 0.014900 0.876130
O O1 0.732204 0.215048 0.150164
O O2 0.781719 0.126141 0.048517
O O3 0.000000 0.159620 0.127929
O O4 0.771942 0.060483 0.148726
O O5 0.500000 0.414443 0.069756
O O6 0.736130 0.367618 0.135911
O O7 0.725347 0.514865 0.091866
O O8 0.769906 0.406025 0.016899
O O9 0.750000 0.692989 0.750000
O O10 0.000000 0.703469 0.687977
O O11 0.250000 0.811532 0.250000
O O12 0.500000 0.886096 0.294820
O O13 0.346624 0.778479 0.352563
O O14 0.215817 0.917417 0.329225
O O15 0.500000 0.889833 0.991246
O O16 0.299524 0.799494 0.045318
O O17 0.273891 0.954375 0.055074
O O18 0.777443 0.660628 0.086174
O O19 0.000000 0.755618 0.046607
O O20 0.000000 0.441029 0.944676
O O21 0.500000 0.994337 0.875504
#
# Coordination Sequence:
#
# PCOD8219224 Si02
#       8
#     8   8   8   8   8   8   8   8
#     4  12  24  37  57  83 111 145 185 229 277 330
#     4  10  21  37  58  85 115 146 180 224 277 329
#     4  11  25  44  63  83 111 149 193 238 284 335
#     4  10  20  36  55  76 105 141 182 224 269 322
#     4  10  20  34  55  83 115 149 183 225 278 332
#     4   9  19  34  53  80 112 144 179 221 269 323
#     4  10  19  33  58  89 117 146 181 222 270 326
#     4  10  21  37  56  80 110 144 185 232 281 330
#
# _framework density 19.742435
#
# number of rings (size 3 to 8) (size 9 to 14) (size 15 to 20)
#    0.000    1.750    0.000    5.250    0.000    9.000 
#    0.000    3.125    0.000    3.000    0.000    0.000 
#    0.000    0.000    0.000    0.000    0.000    0.000 
#
# Total GULP energy -793058.911195 kJ/mol
# GULP energy per Si atom -12391.545487 kJ/mol
# Density = 1.969750 g / cm^3
# Si number density = 19.742435 Si / 1000 Ang^3
#
#
#
# Elastic Constant Matrix: (Units=GPa)
#
#
# Indices 1 2 3 4 5 6 
#
# 1 73.1876 33.5783 29.9252 0.0000 0.0000 0.0000
# 2 33.5783 135.1275 43.3857 0.0000 0.0000 0.0000
# 3 29.9252 43.3857 72.2669 0.0000 0.0000 0.0000
# 4 0.0000 0.0000 0.0000 12.4467 0.0000 0.0000
# 5 0.0000 0.0000 0.0000 0.0000 29.0929 0.0000
# 6 0.0000 0.0000 0.0000 0.0000 0.0000 30.1230
#
#
#
# Elastic Compliance Matrix: (Units=1/GPa)
#
#
# Indices 1 2 3 4 5 6 
#
# 1 0.017076 -0.002444 -0.005604 0.000000 0.000000 0.000000
# 2 -0.002444 0.009517 -0.004702 0.000000 0.000000 0.000000
# 3 -0.005604 -0.004702 0.018981 0.000000 0.000000 0.000000
# 4 0.000000 0.000000 0.000000 0.080342 0.000000 0.000000
# 5 0.000000 0.000000 0.000000 0.000000 0.034373 0.000000
# 6 0.000000 0.000000 0.000000 0.000000 0.000000 0.033197
#
#
# Mechanical properties :
#
#
# Convention : Reuss Voigt Hill
#
# Bulk Modulus (GPa) = 49.81293 54.92893 52.37093
# Shear Modulus (GPa) = 22.15550 25.91202 24.03376
#
# Velocity S-wave (km/s) = 3.35360 3.62678 3.49286
# Velocity P-wave (km/s) = 6.34679 6.73953 6.54610
#
# Compressibility (1/GPa) = 0.02007511
#
# Stress axis : x y z
#
# Youngs Moduli (GPa) = 58.56110 105.07131 52.68486
#
# Poissons Ratio (x) = 0.25680 0.29524
# Poissons Ratio (y) = 0.14313 0.24771
# Poissons Ratio (z) = 0.32817 0.49401
#
# Static dielectric constant tensor:
#      x y z
#    x 3.762710 0.000000 0.000000 
#    y 0.000000 3.896330 0.000000 
#    z 0.000000 0.000000 3.571120 
# 
# 
# High freq. dielectric constant tensor:
#      x y z
#    x 1.778670 0.000000 0.000000 
#    y 0.000000 1.777180 0.000000 
#    z 0.000000 0.000000 1.754510 
# 
# From -- ./inp_files/31212.got.cif
#   From: 2010.03.12/outbox.cif.g09.slc.cpg/sg53_16_cif.got.tgz:31212.got - 2010.04.16 14:36:59.
