data_PCOD8219822
_publ_section_title
;
Structure prediction by ZEFSAII (Michael W. Deem and Ramdas Pophale) SiO2 
 PCOD8219822
Probable space group: P M N A
;
_chemical_formula_sum "Si O2"
_cell_formula_units_Z 40
_cell_length_a 8.729428
_cell_length_b 25.868310
_cell_length_c 9.835836
_cell_angle_alpha 90.000000
_cell_angle_beta 90.000000
_cell_angle_gamma 90.000000
_cell_volume 2221.084712
_symmetry_space_group_name_H-M "P M N A"
_symmetry_group_IT_number 53
_symmetry_cell_setting 'orthorhombic'
loop_
_space_group_symop_operation_xyz
x,y,z
1/2-x,-y,1/2+z
x,-y,-z
1/2-x,y,1/2-z
-x,-y,-z
1/2+x,y,1/2-z
-x,y,z
1/2+x,-y,1/2+z
loop_
_atom_site_type_symbol
_atom_site_label
_atom_site_fract_x
_atom_site_fract_y
_atom_site_fract_z
Si Si1 0.320885 0.761246 0.602693
Si Si2 0.180429 0.044349 0.605906
Si Si3 0.182313 0.847442 0.103860
Si Si4 0.680896 0.454788 0.100039
Si Si5 0.820598 0.647830 0.897701
O O1 0.250000 0.769530 0.750000
O O2 0.500000 0.768204 0.622782
O O3 0.256231 0.804146 0.500062
O O4 0.285645 0.704292 0.537450
O O5 0.250000 0.027725 0.750000
O O6 0.256020 0.097305 0.552945
O O7 0.000000 0.052671 0.621661
O O8 0.222400 0.000000 0.500000
O O9 0.250000 0.833479 0.250000
O O10 0.000000 0.848755 0.112507
O O11 0.750000 0.463255 0.250000
O O12 0.500000 0.453579 0.113766
O O13 0.739077 0.400996 0.029835
O O14 0.736715 0.500000 0.000000
O O15 0.750000 0.650328 0.750000
O O16 0.000000 0.636495 0.890484
#
# Coordination Sequence:
#
# PCOD8219822 Si02
#       5
#     8   8   8   8   8
#     4   9  19  33  51  76 101 127 163 205 244 288
#     4  10  21  36  54  76 101 131 167 204 245 292
#     4  10  20  35  53  74 102 134 166 200 244 294
#     4  10  20  33  50  73  99 128 164 203 245 293
#     4   9  16  29  49  71  97 128 162 200 244 290
#
# _framework density 18.009219000000002
#
# number of rings (size 3 to 8) (size 9 to 14) (size 15 to 20)
#    0.000    2.400    0.000    4.800    0.000    6.400 
#    0.000    5.000    0.000    4.800    0.000    0.000 
#    0.000    0.000    0.000    0.000    0.000    0.000 
#
# Total GULP energy -495765.383548 kJ/mol
# GULP energy per Si atom -12394.134589 kJ/mol
# Density = 1.796823 g / cm^3
# Si number density = 18.009219 Si / 1000 Ang^3
#
#
#
# Elastic Constant Matrix: (Units=GPa)
#
#
# Indices 1 2 3 4 5 6 
#
# 1 76.4985 57.0259 36.5402 0.0000 0.0000 0.0000
# 2 57.0259 185.3096 92.8406 0.0000 0.0000 0.0000
# 3 36.5402 92.8406 83.1256 0.0000 0.0000 0.0000
# 4 0.0000 0.0000 0.0000 37.7093 0.0000 0.0000
# 5 0.0000 0.0000 0.0000 0.0000 14.9350 0.0000
# 6 0.0000 0.0000 0.0000 0.0000 0.0000 24.4271
#
#
#
# Elastic Compliance Matrix: (Units=1/GPa)
#
#
# Indices 1 2 3 4 5 6 
#
# 1 0.017478 -0.003472 -0.003805 0.000000 0.000000 0.000000
# 2 -0.003472 0.012942 -0.012928 0.000000 0.000000 0.000000
# 3 -0.003805 -0.012928 0.028142 0.000000 0.000000 0.000000
# 4 0.000000 0.000000 0.000000 0.026519 0.000000 0.000000
# 5 0.000000 0.000000 0.000000 0.000000 0.066957 0.000000
# 6 0.000000 0.000000 0.000000 0.000000 0.000000 0.040938
#
#
# Mechanical properties :
#
#
# Convention : Reuss Voigt Hill
#
# Bulk Modulus (GPa) = 55.09337 79.74967 67.42152
# Shear Modulus (GPa) = 20.88237 25.98273 23.43255
#
# Velocity S-wave (km/s) = 3.40889 3.80247 3.61105
# Velocity P-wave (km/s) = 6.79354 7.97855 7.40977
#
# Compressibility (1/GPa) = 0.01815101
#
# Stress axis : x y z
#
# Youngs Moduli (GPa) = 57.21470 77.26787 35.53461
#
# Poissons Ratio (x) = 0.26830 0.13520
# Poissons Ratio (y) = 0.19867 0.45940
# Poissons Ratio (z) = 0.21769 0.99893
#
# Static dielectric constant tensor:
#      x y z
#    x 3.417220 0.000000 0.000000 
#    y 0.000000 4.161190 0.000000 
#    z 0.000000 0.000000 3.134280 
# 
# 
# High freq. dielectric constant tensor:
#      x y z
#    x 1.710500 0.000000 0.000000 
#    y 0.000000 1.718950 0.000000 
#    z 0.000000 0.000000 1.665290 
# 
# From -- ./inp_files/13983.got.cif
#   From: 2010.03.12/outbox.cif.g09.slc.cpg/sg53_7_cif.got.tgz:13983.got - 2010.04.16 14:36:59.
