data_PCOD8219805
_publ_section_title
;
Structure prediction by ZEFSAII (Michael W. Deem and Ramdas Pophale) SiO2 
 PCOD8219805
Probable space group: P M N A
;
_chemical_formula_sum "Si O2"
_cell_formula_units_Z 64
_cell_length_a 8.735868
_cell_length_b 14.723359
_cell_length_c 29.405091
_cell_angle_alpha 90.000000
_cell_angle_beta 90.000000
_cell_angle_gamma 90.000000
_cell_volume 3782.121641
_symmetry_space_group_name_H-M "P M N A"
_symmetry_group_IT_number 53
_symmetry_cell_setting 'orthorhombic'
loop_
_space_group_symop_operation_xyz
x,y,z
1/2-x,-y,1/2+z
x,-y,-z
1/2-x,y,1/2-z
-x,-y,-z
1/2+x,y,1/2-z
-x,y,z
1/2+x,-y,1/2+z
loop_
_atom_site_type_symbol
_atom_site_label
_atom_site_fract_x
_atom_site_fract_y
_atom_site_fract_z
Si Si1 0.321052 0.131627 0.060040
Si Si2 0.677823 0.825760 0.466552
Si Si3 0.676310 0.553295 0.932784
Si Si4 0.324928 0.291361 0.388031
Si Si5 0.680755 0.004223 0.202652
Si Si6 0.178703 0.036207 0.888424
Si Si7 0.322512 0.199285 0.295138
Si Si8 0.176886 0.364458 0.530778
O O1 0.500000 0.112164 0.064342
O O2 0.282333 0.230507 0.079894
O O3 0.230565 0.057140 0.088499
O O4 0.274117 0.129521 0.007270
O O5 0.500000 0.835256 0.478895
O O6 0.718014 0.721039 0.457615
O O7 0.719325 0.879841 0.420877
O O8 0.500000 0.566456 0.919933
O O9 0.780134 0.603277 0.895169
O O10 0.716005 0.446125 0.934208
O O11 0.713351 0.599671 0.980775
O O12 0.500000 0.273680 0.401997
O O13 0.297125 0.270350 0.335323
O O14 0.750000 0.966388 0.250000
O O15 0.500000 0.999570 0.205950
O O16 0.737430 0.945443 0.159613
O O17 0.734297 0.106852 0.193504
O O18 0.000000 0.027785 0.878621
O O19 0.250000 0.243999 0.250000
O O20 0.500000 0.175809 0.287325
O O21 0.000000 0.335363 0.534746
#
# Coordination Sequence:
#
# PCOD8219805 Si02
#       8
#     8   8   8   8   8   8   8   8
#     4  12  23  34  50  72 101 139 179 212 247 301
#     4  11  23  36  52  73 102 138 174 216 260 298
#     4   9  18  32  51  74 100 132 166 207 251 296
#     4  11  21  32  50  75 104 135 169 210 254 302
#     4  11  21  34  54  76 100 132 169 211 257 303
#     4  11  23  38  52  72 103 137 174 214 256 305
#     4  10  20  33  50  72 102 134 167 210 253 301
#     4   9  18  33  51  73 101 130 168 211 250 296
#
# _framework density 16.921719
#
# number of rings (size 3 to 8) (size 9 to 14) (size 15 to 20)
#    0.000    1.500    2.500    5.625    0.000    5.500 
#    0.000    1.250    0.000    0.000    0.000    0.875 
#    0.000    4.000    0.000    0.000    0.000    0.000 
#
# Total GULP energy -793757.773531 kJ/mol
# GULP energy per Si atom -12402.465211 kJ/mol
# Density = 1.688320 g / cm^3
# Si number density = 16.921719 Si / 1000 Ang^3
#
#
#
# Elastic Constant Matrix: (Units=GPa)
#
#
# Indices 1 2 3 4 5 6 
#
# 1 90.0109 18.7870 51.8814 0.0000 0.0000 0.0000
# 2 18.7870 54.0244 36.6382 0.0000 0.0000 0.0000
# 3 51.8814 36.6382 111.6189 0.0000 0.0000 0.0000
# 4 0.0000 0.0000 0.0000 23.2016 0.0000 0.0000
# 5 0.0000 0.0000 0.0000 0.0000 29.4728 0.0000
# 6 0.0000 0.0000 0.0000 0.0000 0.0000 22.8074
#
#
#
# Elastic Compliance Matrix: (Units=1/GPa)
#
#
# Indices 1 2 3 4 5 6 
#
# 1 0.015192 -0.000636 -0.006853 0.000000 0.000000 0.000000
# 2 -0.000636 0.023837 -0.007529 0.000000 0.000000 0.000000
# 3 -0.006853 -0.007529 0.014616 0.000000 0.000000 0.000000
# 4 0.000000 0.000000 0.000000 0.043100 0.000000 0.000000
# 5 0.000000 0.000000 0.000000 0.000000 0.033930 0.000000
# 6 0.000000 0.000000 0.000000 0.000000 0.000000 0.043845
#
#
# Mechanical properties :
#
#
# Convention : Reuss Voigt Hill
#
# Bulk Modulus (GPa) = 42.35450 52.25193 47.30321
# Shear Modulus (GPa) = 23.53765 24.98622 24.26194
#
# Velocity S-wave (km/s) = 3.73362 3.84679 3.79063
# Velocity P-wave (km/s) = 6.60837 7.11871 6.86828
#
# Compressibility (1/GPa) = 0.02361024
#
# Stress axis : x y z
#
# Youngs Moduli (GPa) = 65.82242 41.95126 68.41973
#
# Poissons Ratio (x) = 0.02667 0.46887
# Poissons Ratio (y) = 0.04184 0.51513
# Poissons Ratio (z) = 0.45107 0.31585
#
# Static dielectric constant tensor:
#      x y z
#    x 3.241030 0.000000 0.000000 
#    y 0.000000 3.145730 0.000000 
#    z 0.000000 0.000000 3.338500 
# 
# 
# High freq. dielectric constant tensor:
#      x y z
#    x 1.666470 0.000000 0.000000 
#    y 0.000000 1.627810 0.000000 
#    z 0.000000 0.000000 1.642640 
# 
# From -- ./inp_files/38500.got.cif
#   From: 2010.03.12/outbox.cif.g09.slc.cpg/sg53_20_cif.got.tgz:38500.got - 2010.04.16 14:36:59.
