data_PCOD8219135
_publ_section_title
;
Structure prediction by ZEFSAII (Michael W. Deem and Ramdas Pophale) SiO2 
 PCOD8219135
Probable space group: P M N A
;
_chemical_formula_sum "Si O2"
_cell_formula_units_Z 64
_cell_length_a 8.986016
_cell_length_b 11.210527
_cell_length_c 33.876627
_cell_angle_alpha 90.000000
_cell_angle_beta 90.000000
_cell_angle_gamma 90.000000
_cell_volume 3412.662803
_symmetry_space_group_name_H-M "P M N A"
_symmetry_group_IT_number 53
_symmetry_cell_setting 'orthorhombic'
loop_
_space_group_symop_operation_xyz
x,y,z
1/2-x,-y,1/2+z
x,-y,-z
1/2-x,y,1/2-z
-x,-y,-z
1/2+x,y,1/2-z
-x,y,z
1/2+x,-y,1/2+z
loop_
_atom_site_type_symbol
_atom_site_label
_atom_site_fract_x
_atom_site_fract_y
_atom_site_fract_z
Si Si1 0.671329 0.291130 0.441006
Si Si2 0.331196 0.341966 0.862744
Si Si3 0.328043 0.768267 0.473574
Si Si4 0.324671 0.144536 0.126678
Si Si5 0.823247 0.111302 0.594427
Si Si6 0.176733 0.482267 0.710340
Si Si7 0.329634 0.536034 0.057482
Si Si8 0.325118 0.755192 0.790044
O O1 0.500000 0.313002 0.430459
O O2 0.687743 0.205433 0.479491
O O3 0.749295 0.235948 0.403052
O O4 0.745143 0.415645 0.452897
O O5 0.500000 0.311745 0.851899
O O6 0.258785 0.218027 0.877833
O O7 0.254897 0.398024 0.823975
O O8 0.321514 0.443812 0.895732
O O9 0.500000 0.758248 0.461250
O O10 0.251959 0.875528 0.448734
O O11 0.247372 0.644194 0.464973
O O12 0.500000 0.163676 0.122717
O O13 0.272847 0.169189 0.171682
O O14 0.276073 0.011434 0.114889
O O15 0.000000 0.122893 0.588611
O O16 0.250000 0.433170 0.750000
O O17 0.224778 0.618801 0.702612
O O18 0.000000 0.472973 0.712825
O O19 0.500000 0.527068 0.043165
O O20 0.250000 0.805735 0.750000
O O21 0.500000 0.766290 0.783927
#
# Coordination Sequence:
#
# PCOD8219135 Si02
#       8
#     8   8   8   8   8   8   8   8
#     4  11  23  35  50  76 109 141 172 212 266 321
#     4   8  15  30  51  72  96 127 162 204 255 302
#     4  10  21  36  52  74 107 141 171 211 266 321
#     4  10  21  37  56  77 102 135 181 228 262 302
#     4   9  19  36  56  75  96 132 181 224 260 303
#     4   9  16  28  47  71 100 129 157 195 248 309
#     4  10  19  33  55  79 102 133 175 218 261 313
#     4   9  18  33  53  77 104 134 167 209 263 316
#
# _framework density 18.753685000000001
#
# number of rings (size 3 to 8) (size 9 to 14) (size 15 to 20)
#    0.000    2.500    0.000    3.000    0.000    7.000 
#    0.000    8.750    0.000    0.000    0.000    0.000 
#    0.000    0.000    0.000    0.000    0.000    0.000 
#
# Total GULP energy -793418.370442 kJ/mol
# GULP energy per Si atom -12397.162038 kJ/mol
# Density = 1.871100 g / cm^3
# Si number density = 18.753685 Si / 1000 Ang^3
#
#
#
# Elastic Constant Matrix: (Units=GPa)
#
#
# Indices 1 2 3 4 5 6 
#
# 1 48.8751 24.4548 38.6280 0.0000 0.0000 0.0000
# 2 24.4548 54.0926 33.4799 0.0000 0.0000 0.0000
# 3 38.6280 33.4799 126.9185 0.0000 0.0000 0.0000
# 4 0.0000 0.0000 0.0000 23.4866 0.0000 0.0000
# 5 0.0000 0.0000 0.0000 0.0000 31.3301 0.0000
# 6 0.0000 0.0000 0.0000 0.0000 0.0000 10.6115
#
#
#
# Elastic Compliance Matrix: (Units=1/GPa)
#
#
# Indices 1 2 3 4 5 6 
#
# 1 0.030654 -0.009661 -0.006781 0.000000 0.000000 0.000000
# 2 -0.009661 0.025139 -0.003691 0.000000 0.000000 0.000000
# 3 -0.006781 -0.003691 0.010917 0.000000 0.000000 0.000000
# 4 0.000000 0.000000 0.000000 0.042577 0.000000 0.000000
# 5 0.000000 0.000000 0.000000 0.000000 0.031918 0.000000
# 6 0.000000 0.000000 0.000000 0.000000 0.000000 0.094238
#
#
# Mechanical properties :
#
#
# Convention : Reuss Voigt Hill
#
# Bulk Modulus (GPa) = 37.81752 47.00129 42.40940
# Shear Modulus (GPa) = 17.57324 21.97386 19.77355
#
# Velocity S-wave (km/s) = 3.06446 3.42674 3.25065
# Velocity P-wave (km/s) = 5.72104 6.38542 6.06234
#
# Compressibility (1/GPa) = 0.02644277
#
# Stress axis : x y z
#
# Youngs Moduli (GPa) = 32.62247 39.77866 91.60405
#
# Poissons Ratio (x) = 0.38431 0.62117
# Poissons Ratio (y) = 0.31518 0.33811
# Poissons Ratio (z) = 0.22121 0.14682
#
# Static dielectric constant tensor:
#      x y z
#    x 3.305310 0.000000 0.000000 
#    y 0.000000 3.412130 0.000000 
#    z 0.000000 0.000000 3.653070 
# 
# 
# High freq. dielectric constant tensor:
#      x y z
#    x 1.713400 0.000000 0.000000 
#    y 0.000000 1.712540 0.000000 
#    z 0.000000 0.000000 1.737900 
# 
# From -- ./inp_files/38158.got.cif
#   From: 2010.03.12/outbox.cif.g09.slc.cpg/sg53_20_cif.got.tgz:38158.got - 2010.04.16 14:36:59.
