data_PCOD8219915
_publ_section_title
;
Structure prediction by ZEFSAII (Michael W. Deem and Ramdas Pophale) SiO2 
 PCOD8219915
Probable space group: P M N A
;
_chemical_formula_sum "Si O2"
_cell_formula_units_Z 64
_cell_length_a 8.952221
_cell_length_b 19.965167
_cell_length_c 19.658203
_cell_angle_alpha 90.000000
_cell_angle_beta 90.000000
_cell_angle_gamma 90.000000
_cell_volume 3513.561484
_symmetry_space_group_name_H-M "P M N A"
_symmetry_group_IT_number 53
_symmetry_cell_setting 'orthorhombic'
loop_
_space_group_symop_operation_xyz
x,y,z
1/2-x,-y,1/2+z
x,-y,-z
1/2-x,y,1/2-z
-x,-y,-z
1/2+x,y,1/2-z
-x,y,z
1/2+x,-y,1/2+z
loop_
_atom_site_type_symbol
_atom_site_label
_atom_site_fract_x
_atom_site_fract_y
_atom_site_fract_z
Si Si1 0.675921 0.687615 0.452363
Si Si2 0.821098 0.801557 0.536375
Si Si3 0.824247 0.631814 0.319971
Si Si4 0.174626 0.561891 0.954486
Si Si5 0.166004 0.949612 0.685532
Si Si6 0.325349 0.523783 0.819639
Si Si7 0.663092 0.791236 0.813930
Si Si8 0.670364 0.060898 0.449157
O O1 0.500000 0.696022 0.441940
O O2 0.746870 0.755778 0.479584
O O3 0.750838 0.673450 0.380309
O O4 0.713412 0.629225 0.505506
O O5 0.765784 0.776759 0.611601
O O6 0.766742 0.877044 0.523007
O O7 0.000000 0.799885 0.531993
O O8 0.750000 0.656592 0.250000
O O9 0.787520 0.553946 0.331841
O O10 0.000000 0.645557 0.317266
O O11 0.260693 0.565110 0.883057
O O12 0.000000 0.553748 0.939069
O O13 0.232616 0.500000 0.000000
O O14 0.250000 0.981905 0.750000
O O15 0.152728 0.870422 0.695148
O O16 0.263426 0.967819 0.620432
O O17 0.000000 0.980656 0.678881
O O18 0.250000 0.549300 0.750000
O O19 0.500000 0.537253 0.813924
O O20 0.750000 0.758855 0.750000
O O21 0.500000 0.758360 0.811151
O O22 0.500000 0.084587 0.437963
O O23 0.681216 0.000000 0.500000
#
# Coordination Sequence:
#
# PCOD8219915 Si02
#       8
#     8   8   8   8   8   8   8   8
#     4  11  22  36  56  80 108 143 179 222 273 324
#     4  10  21  36  53  77 109 143 181 223 269 323
#     4  10  20  34  54  80 107 137 177 224 270 319
#     4  10  20  35  54  77 107 140 177 220 267 318
#     4   9  16  27  46  73 104 136 172 214 258 306
#     4  10  20  33  53  78 107 141 180 225 271 320
#     4   8  15  27  45  69  96 129 167 208 250 296
#     4  10  20  34  54  80 109 141 179 222 268 321
#
# _framework density 18.215135
#
# number of rings (size 3 to 8) (size 9 to 14) (size 15 to 20)
#    0.000    2.250    1.250    3.000    0.000    6.750 
#    0.000    0.625    0.000    2.250    0.000    1.750 
#    0.000    0.000    0.000    0.000    0.000    0.000 
#
# Total GULP energy -793592.863674 kJ/mol
# GULP energy per Si atom -12399.888495 kJ/mol
# Density = 1.817368 g / cm^3
# Si number density = 18.215135 Si / 1000 Ang^3
#
#
#
# Elastic Constant Matrix: (Units=GPa)
#
#
# Indices 1 2 3 4 5 6 
#
# 1 103.7256 35.1367 72.4163 0.0000 0.0000 0.0000
# 2 35.1367 47.6289 41.4882 0.0000 0.0000 0.0000
# 3 72.4163 41.4882 150.7740 0.0000 0.0000 0.0000
# 4 0.0000 0.0000 0.0000 23.5401 0.0000 0.0000
# 5 0.0000 0.0000 0.0000 0.0000 39.2629 0.0000
# 6 0.0000 0.0000 0.0000 0.0000 0.0000 3.6968
#
#
#
# Elastic Compliance Matrix: (Units=1/GPa)
#
#
# Indices 1 2 3 4 5 6 
#
# 1 0.015986 -0.006714 -0.005830 0.000000 0.000000 0.000000
# 2 -0.006714 0.030435 -0.005150 0.000000 0.000000 0.000000
# 3 -0.005830 -0.005150 0.010850 0.000000 0.000000 0.000000
# 4 0.000000 0.000000 0.000000 0.042481 0.000000 0.000000
# 5 0.000000 0.000000 0.000000 0.000000 0.025469 0.000000
# 6 0.000000 0.000000 0.000000 0.000000 0.000000 0.270505
#
#
# Mechanical properties :
#
#
# Convention : Reuss Voigt Hill
#
# Bulk Modulus (GPa) = 45.70096 66.69010 56.19553
# Shear Modulus (GPa) = 11.40489 23.50578 17.45533
#
# Velocity S-wave (km/s) = 2.50496 3.59618 3.09898
# Velocity P-wave (km/s) = 5.78882 7.34407 6.61233
#
# Compressibility (1/GPa) = 0.02188138
#
# Stress axis : x y z
#
# Youngs Moduli (GPa) = 62.55578 32.85715 92.16751
#
# Poissons Ratio (x) = 0.22061 0.53737
# Poissons Ratio (y) = 0.42002 0.47465
# Poissons Ratio (z) = 0.36472 0.16921
#
# Static dielectric constant tensor:
#      x y z
#    x 3.550970 0.000000 0.000000 
#    y 0.000000 2.927260 0.000000 
#    z 0.000000 0.000000 3.515940 
# 
# 
# High freq. dielectric constant tensor:
#      x y z
#    x 1.719620 0.000000 0.000000 
#    y 0.000000 1.659260 0.000000 
#    z 0.000000 0.000000 1.716690 
# 
# From -- ./inp_files/26907.got.cif
#   From: 2010.03.12/outbox.cif.g09.slc.cpg/sg53_14_cif.got.tgz:26907.got - 2010.04.16 14:36:59.
