data_PCOD8219756
_publ_section_title
;
Structure prediction by ZEFSAII (Michael W. Deem and Ramdas Pophale) SiO2 
 PCOD8219756
Probable space group: P M N A
;
_chemical_formula_sum "Si O2"
_cell_formula_units_Z 48
_cell_length_a 27.021327
_cell_length_b 5.175264
_cell_length_c 15.864295
_cell_angle_alpha 90.000000
_cell_angle_beta 90.000000
_cell_angle_gamma 90.000000
_cell_volume 2218.502687
_symmetry_space_group_name_H-M "P M N A"
_symmetry_group_IT_number 53
_symmetry_cell_setting 'orthorhombic'
loop_
_space_group_symop_operation_xyz
x,y,z
1/2-x,-y,1/2+z
x,-y,-z
1/2-x,y,1/2-z
-x,-y,-z
1/2+x,y,1/2-z
-x,y,z
1/2+x,-y,1/2+z
loop_
_atom_site_type_symbol
_atom_site_label
_atom_site_fract_x
_atom_site_fract_y
_atom_site_fract_z
Si Si1 0.153067 0.636590 0.778017
Si Si2 0.857273 0.748038 0.970014
Si Si3 0.184813 0.146291 0.690380
Si Si4 0.750392 0.752815 0.455658
Si Si5 0.087042 0.877894 0.408039
Si Si6 0.945062 0.380857 0.319892
O O1 0.157286 0.734632 0.873128
O O2 0.178538 0.358869 0.764239
O O3 0.095681 0.593211 0.753552
O O4 0.182466 0.854606 0.725230
O O5 0.888994 0.500000 0.000000
O O6 0.808646 0.749835 0.030941
O O7 0.887904 0.000000 0.000000
O O8 0.236638 0.216562 0.643939
O O9 0.143465 0.171049 0.618228
O O10 0.774272 0.500000 0.500000
O O11 0.774906 0.000000 0.500000
O O12 0.061581 0.596369 0.394305
O O13 0.083715 0.000000 0.500000
O O14 0.059339 0.088163 0.351491
O O15 0.000000 0.414657 0.281171
#
# Coordination Sequence:
#
# PCOD8219756 Si02
#       6
#     8   8   8   8   8   8
#     4  10  21  38  58  79 107 144 181 221 272 329
#     4  10  21  39  58  80 107 140 178 223 279 323
#     4  10  20  35  55  79 108 144 184 220 264 319
#     4  10  20  35  53  77 108 142 179 222 265 310
#     4  10  20  32  51  78 111 147 179 217 265 321
#     4  10  21  35  53  79 108 142 182 225 271 318
#
# _framework density 21.636213999999999
#
# number of rings (size 3 to 8) (size 9 to 14) (size 15 to 20)
#    0.000    2.000    0.000    3.500    0.000    4.667 
#    0.000   20.000    0.000    1.000    0.000    0.000 
#    0.000    0.000    0.000    0.000    0.000    0.000 
#
# Total GULP energy -594663.626742 kJ/mol
# GULP energy per Si atom -12388.825557 kJ/mol
# Density = 2.158697 g / cm^3
# Si number density = 21.636214 Si / 1000 Ang^3
#
#
#
# Elastic Constant Matrix: (Units=GPa)
#
#
# Indices 1 2 3 4 5 6 
#
# 1 65.8429 10.2248 13.2406 0.0000 0.0000 0.0000
# 2 10.2248 169.4972 20.7226 0.0000 0.0000 0.0000
# 3 13.2406 20.7226 74.9121 0.0000 0.0000 0.0000
# 4 0.0000 0.0000 0.0000 38.3057 0.0000 0.0000
# 5 0.0000 0.0000 0.0000 0.0000 8.7017 0.0000
# 6 0.0000 0.0000 0.0000 0.0000 0.0000 1.2613
#
#
#
# Elastic Compliance Matrix: (Units=1/GPa)
#
#
# Indices 1 2 3 4 5 6 
#
# 1 0.015813 -0.000634 -0.002620 0.000000 0.000000 0.000000
# 2 -0.000634 0.006132 -0.001584 0.000000 0.000000 0.000000
# 3 -0.002620 -0.001584 0.014250 0.000000 0.000000 0.000000
# 4 0.000000 0.000000 0.000000 0.026106 0.000000 0.000000
# 5 0.000000 0.000000 0.000000 0.000000 0.114920 0.000000
# 6 0.000000 0.000000 0.000000 0.000000 0.000000 0.792846
#
#
# Mechanical properties :
#
#
# Convention : Reuss Voigt Hill
#
# Bulk Modulus (GPa) = 37.70754 44.29201 40.99978
# Shear Modulus (GPa) = 5.05775 27.39136 16.22455
#
# Velocity S-wave (km/s) = 1.53059 3.56194 2.74136
# Velocity P-wave (km/s) = 4.53756 6.11819 5.38617
#
# Compressibility (1/GPa) = 0.02651990
#
# Stress axis : x y z
#
# Youngs Moduli (GPa) = 63.23974 163.08672 70.17437
#
# Poissons Ratio (x) = 0.10334 0.18383
# Poissons Ratio (y) = 0.04007 0.11117
# Poissons Ratio (z) = 0.16566 0.25836
#
# Static dielectric constant tensor:
#      x y z
#    x 3.618070 0.000000 0.000000 
#    y 0.000000 5.696750 0.000000 
#    z 0.000000 0.000000 3.640260 
# 
# 
# High freq. dielectric constant tensor:
#      x y z
#    x 1.804620 0.000000 0.000000 
#    y 0.000000 1.888620 0.000000 
#    z 0.000000 0.000000 1.833040 
# 
# From -- ./inp_files/24936.got.cif
#   From: 2010.03.12/outbox.cif.g09.slc.cpg/sg53_13_cif.got.tgz:24936.got - 2010.04.16 14:36:59.
