data_PCOD8219552
_publ_section_title
;
Structure prediction by ZEFSAII (Michael W. Deem and Ramdas Pophale) SiO2 
 PCOD8219552
Probable space group: P M N A
;
_chemical_formula_sum "Si O2"
_cell_formula_units_Z 56
_cell_length_a 15.224697
_cell_length_b 8.787513
_cell_length_c 20.323482
_cell_angle_alpha 90.000000
_cell_angle_beta 90.000000
_cell_angle_gamma 90.000000
_cell_volume 2719.022215
_symmetry_space_group_name_H-M "P M N A"
_symmetry_group_IT_number 53
_symmetry_cell_setting 'orthorhombic'
loop_
_space_group_symop_operation_xyz
x,y,z
1/2-x,-y,1/2+z
x,-y,-z
1/2-x,y,1/2-z
-x,-y,-z
1/2+x,y,1/2-z
-x,y,z
1/2+x,-y,1/2+z
loop_
_atom_site_type_symbol
_atom_site_label
_atom_site_fract_x
_atom_site_fract_y
_atom_site_fract_z
Si Si1 0.240447 0.163440 0.467836
Si Si2 0.099725 0.584424 0.294645
Si Si3 0.151430 0.262932 0.253906
Si Si4 0.192086 0.245556 0.603735
Si Si5 0.899811 0.921167 0.625155
Si Si6 0.674397 0.840230 0.297057
Si Si7 0.900890 0.871775 0.872498
O O1 0.223428 0.278587 0.528782
O O2 0.160371 0.193984 0.417568
O O3 0.335245 0.171760 0.432300
O O4 0.231528 0.000000 0.500000
O O5 0.155440 0.437213 0.276092
O O6 0.125027 0.626937 0.369895
O O7 0.113632 0.728036 0.245954
O O8 0.000000 0.533170 0.292714
O O9 0.250000 0.201138 0.250000
O O10 0.099279 0.145650 0.301212
O O11 0.105761 0.259550 0.182289
O O12 0.280180 0.260871 0.646784
O O13 0.145255 0.084500 0.618274
O O14 0.000000 0.929147 0.599009
O O15 0.750000 0.911889 0.250000
O O16 0.621256 0.971732 0.334363
O O17 0.000000 0.880142 0.901128
#
# Coordination Sequence:
#
# PCOD8219552 Si02
#       7
#     8   8   8   8   8   8   8
#     4  10  21  39  58  86 123 160 202 242 295 355
#     4  11  23  37  59  92 119 152 202 251 303 364
#     4  12  22  40  61  87 123 160 196 252 311 360
#     4  10  20  39  59  82 123 160 197 241 300 357
#     4  11  21  36  62  91 118 155 202 251 300 354
#     4  10  19  36  58  87 120 157 196 249 305 355
#     4  12  22  36  62  92 122 158 201 252 300 353
#
# _framework density 20.59564
#
# number of rings (size 3 to 8) (size 9 to 14) (size 15 to 20)
#    0.000    1.143    4.286    5.571    0.000    3.429 
#    0.000    0.714    0.000    1.714    0.000    3.000 
#    0.000    0.000    0.000    0.000    0.000    0.000 
#
# Total GULP energy -694005.146136 kJ/mol
# GULP energy per Si atom -12392.949038 kJ/mol
# Density = 2.054876 g / cm^3
# Si number density = 20.595640 Si / 1000 Ang^3
#
#
#
# Elastic Constant Matrix: (Units=GPa)
#
#
# Indices 1 2 3 4 5 6 
#
# 1 134.1119 6.2893 44.3950 0.0000 0.0000 0.0000
# 2 6.2893 65.9673 19.0036 0.0000 0.0000 0.0000
# 3 44.3950 19.0036 102.7583 0.0000 0.0000 0.0000
# 4 0.0000 0.0000 0.0000 17.2484 0.0000 0.0000
# 5 0.0000 0.0000 0.0000 0.0000 24.0364 0.0000
# 6 0.0000 0.0000 0.0000 0.0000 0.0000 16.0158
#
#
#
# Elastic Compliance Matrix: (Units=1/GPa)
#
#
# Indices 1 2 3 4 5 6 
#
# 1 0.008705 0.000268 -0.003810 0.000000 0.000000 0.000000
# 2 0.000268 0.016020 -0.003078 0.000000 0.000000 0.000000
# 3 -0.003810 -0.003078 0.011947 0.000000 0.000000 0.000000
# 4 0.000000 0.000000 0.000000 0.057976 0.000000 0.000000
# 5 0.000000 0.000000 0.000000 0.000000 0.041604 0.000000
# 6 0.000000 0.000000 0.000000 0.000000 0.000000 0.062438
#
#
# Mechanical properties :
#
#
# Convention : Reuss Voigt Hill
#
# Bulk Modulus (GPa) = 42.67947 49.13480 45.90714
# Shear Modulus (GPa) = 22.75382 27.00344 24.87863
#
# Velocity S-wave (km/s) = 3.32744 3.62487 3.47934
# Velocity P-wave (km/s) = 5.96071 6.43648 6.20316
#
# Compressibility (1/GPa) = 0.02343047
#
# Stress axis : x y z
#
# Youngs Moduli (GPa) = 114.87266 62.42079 83.70203
#
# Poissons Ratio (x) = -0.01671 0.31895
# Poissons Ratio (y) = -0.03076 0.25767
# Poissons Ratio (z) = 0.43772 0.19216
#
# Static dielectric constant tensor:
#      x y z
#    x 3.745670 0.000000 0.000000 
#    y 0.000000 3.367940 0.000000 
#    z 0.000000 0.000000 4.436840 
# 
# 
# High freq. dielectric constant tensor:
#      x y z
#    x 1.807810 0.000000 0.000000 
#    y 0.000000 1.777000 0.000000 
#    z 0.000000 0.000000 1.806380 
# 
# From -- ./inp_files/32474.got.cif
#   From: 2010.03.12/outbox.cif.g09.slc.cpg/sg53_17_cif.got.tgz:32474.got - 2010.04.16 14:36:59.
