data_PCOD8219962
_publ_section_title
;
Structure prediction by ZEFSAII (Michael W. Deem and Ramdas Pophale) SiO2 
 PCOD8219962
Probable space group: P M N A
;
_chemical_formula_sum "Si O2"
_cell_formula_units_Z 64
_cell_length_a 8.720396
_cell_length_b 16.667887
_cell_length_c 23.969279
_cell_angle_alpha 90.000000
_cell_angle_beta 90.000000
_cell_angle_gamma 90.000000
_cell_volume 3483.948488
_symmetry_space_group_name_H-M "P M N A"
_symmetry_group_IT_number 53
_symmetry_cell_setting 'orthorhombic'
loop_
_space_group_symop_operation_xyz
x,y,z
1/2-x,-y,1/2+z
x,-y,-z
1/2-x,y,1/2-z
-x,-y,-z
1/2+x,y,1/2-z
-x,y,z
1/2+x,-y,1/2+z
loop_
_atom_site_type_symbol
_atom_site_label
_atom_site_fract_x
_atom_site_fract_y
_atom_site_fract_z
Si Si1 0.824668 0.874844 0.693498
Si Si2 0.179613 0.818509 0.528072
Si Si3 0.679433 0.147495 0.584606
Si Si4 0.321441 0.754712 0.310436
Si Si5 0.819398 0.731379 0.870886
Si Si6 0.173020 0.019833 0.411638
Si Si7 0.818862 0.581918 0.688106
Si Si8 0.820726 0.422416 0.810401
O O1 0.750000 0.907198 0.750000
O O2 0.728358 0.799061 0.673021
O O3 0.814596 0.948297 0.651067
O O4 0.000000 0.847387 0.701969
O O5 0.232659 0.805876 0.464727
O O6 0.267918 0.755454 0.566941
O O7 0.220468 0.909722 0.545799
O O8 0.000000 0.802633 0.535687
O O9 0.500000 0.163649 0.577448
O O10 0.740579 0.182439 0.643578
O O11 0.710870 0.053031 0.581367
O O12 0.250000 0.771318 0.250000
O O13 0.500000 0.766481 0.300872
O O14 0.288269 0.665649 0.336224
O O15 0.737961 0.649376 0.854100
O O16 0.000000 0.719289 0.869142
O O17 0.000000 0.990075 0.424587
O O18 0.750000 0.593999 0.750000
O O19 0.764613 0.497193 0.660046
O O20 0.000000 0.584647 0.693072
O O21 0.750000 0.417187 0.750000
O O22 0.000000 0.442087 0.807806
#
# Coordination Sequence:
#
# PCOD8219962 Si02
#       8
#     8   8   8   8   8   8   8   8
#     4  10  20  34  50  71 103 140 175 212 258 308
#     4  10  21  38  56  75 101 134 172 214 260 306
#     4  11  22  35  54  80 104 131 170 214 258 307
#     4   9  20  36  54  78 108 137 168 208 255 306
#     4  11  21  34  52  75 103 136 173 212 255 301
#     4   9  20  36  52  72 100 134 172 216 261 303
#     4  11  20  31  49  77 109 139 173 210 250 299
#     4   9  16  30  50  73 102 135 169 207 251 297
#
# _framework density 18.369962000000001
#
# number of rings (size 3 to 8) (size 9 to 14) (size 15 to 20)
#    0.000    2.000    0.000    6.000    0.000    6.500 
#    0.000    2.500    0.000    0.750    0.000    5.250 
#    0.000    0.000    0.000    0.000    0.000    0.000 
#
# Total GULP energy -793495.994646 kJ/mol
# GULP energy per Si atom -12398.374916 kJ/mol
# Density = 1.832815 g / cm^3
# Si number density = 18.369962 Si / 1000 Ang^3
#
#
#
# Elastic Constant Matrix: (Units=GPa)
#
#
# Indices 1 2 3 4 5 6 
#
# 1 104.8857 37.4281 36.1897 0.0000 0.0000 0.0000
# 2 37.4281 81.5159 38.6829 0.0000 0.0000 0.0000
# 3 36.1897 38.6829 107.1141 0.0000 0.0000 0.0000
# 4 0.0000 0.0000 0.0000 15.5816 0.0000 0.0000
# 5 0.0000 0.0000 0.0000 0.0000 28.0826 0.0000
# 6 0.0000 0.0000 0.0000 0.0000 0.0000 19.1006
#
#
#
# Elastic Compliance Matrix: (Units=1/GPa)
#
#
# Indices 1 2 3 4 5 6 
#
# 1 0.011923 -0.004300 -0.002475 0.000000 0.000000 0.000000
# 2 -0.004300 0.016355 -0.004454 0.000000 0.000000 0.000000
# 3 -0.002475 -0.004454 0.011781 0.000000 0.000000 0.000000
# 4 0.000000 0.000000 0.000000 0.064178 0.000000 0.000000
# 5 0.000000 0.000000 0.000000 0.000000 0.035609 0.000000
# 6 0.000000 0.000000 0.000000 0.000000 0.000000 0.052354
#
#
# Mechanical properties :
#
#
# Convention : Reuss Voigt Hill
#
# Bulk Modulus (GPa) = 56.81566 57.56858 57.19212
# Shear Modulus (GPa) = 22.67315 24.63394 23.65355
#
# Velocity S-wave (km/s) = 3.51700 3.66593 3.59224
# Velocity P-wave (km/s) = 6.89116 7.02319 6.95749
#
# Compressibility (1/GPa) = 0.01760078
#
# Stress axis : x y z
#
# Youngs Moduli (GPa) = 83.87432 61.14254 84.88500
#
# Poissons Ratio (x) = 0.26289 0.21013
# Poissons Ratio (y) = 0.36062 0.37806
# Poissons Ratio (z) = 0.20763 0.27232
#
# Static dielectric constant tensor:
#      x y z
#    x 3.456490 0.000000 0.000000 
#    y 0.000000 3.910460 0.000000 
#    z 0.000000 0.000000 3.328690 
# 
# 
# High freq. dielectric constant tensor:
#      x y z
#    x 1.724070 0.000000 0.000000 
#    y 0.000000 1.708000 0.000000 
#    z 0.000000 0.000000 1.694460 
# 
# From -- ./inp_files/34484.got.cif
#   From: 2010.03.12/outbox.cif.g09.slc.cpg/sg53_18_cif.got.tgz:34484.got - 2010.04.16 14:36:59.
