data_PCOD8219713
_publ_section_title
;
Structure prediction by ZEFSAII (Michael W. Deem and Ramdas Pophale) SiO2 
 PCOD8219713
Probable space group: P M N A
;
_chemical_formula_sum "Si O2"
_cell_formula_units_Z 64
_cell_length_a 9.594934
_cell_length_b 11.367278
_cell_length_c 32.353144
_cell_angle_alpha 90.000000
_cell_angle_beta 90.000000
_cell_angle_gamma 90.000000
_cell_volume 3528.701839
_symmetry_space_group_name_H-M "P M N A"
_symmetry_group_IT_number 53
_symmetry_cell_setting 'orthorhombic'
loop_
_space_group_symop_operation_xyz
x,y,z
1/2-x,-y,1/2+z
x,-y,-z
1/2-x,y,1/2-z
-x,-y,-z
1/2+x,y,1/2-z
-x,y,z
1/2+x,-y,1/2+z
loop_
_atom_site_type_symbol
_atom_site_label
_atom_site_fract_x
_atom_site_fract_y
_atom_site_fract_z
Si Si1 0.659927 0.676800 0.474937
Si Si2 0.163040 0.549343 0.708697
Si Si3 0.334483 0.813386 0.086151
Si Si4 0.838651 0.688871 0.331597
Si Si5 0.664786 0.954670 0.870785
Si Si6 0.659871 0.423054 0.438579
Si Si7 0.338465 0.926318 0.211380
Si Si8 0.661829 0.307210 0.129209
O O1 0.500000 0.712717 0.467646
O O2 0.759313 0.776542 0.456054
O O3 0.693496 0.554196 0.452912
O O4 0.691755 0.666150 0.523680
O O5 0.250000 0.575639 0.750000
O O6 0.224972 0.432507 0.685956
O O7 0.183988 0.657879 0.677149
O O8 0.000000 0.533464 0.720313
O O9 0.500000 0.800932 0.081046
O O10 0.277660 0.731889 0.124099
O O11 0.292791 0.950069 0.094363
O O12 0.813476 0.788514 0.297311
O O13 0.000000 0.667358 0.339620
O O14 0.500000 0.949745 0.867353
O O15 0.720828 0.998735 0.826760
O O16 0.722487 0.823869 0.879320
O O17 0.500000 0.410877 0.424813
O O18 0.757032 0.396928 0.399870
O O19 0.250000 0.968219 0.250000
O O20 0.500000 0.951939 0.220061
O O21 0.500000 0.316111 0.117356
#
# Coordination Sequence:
#
# PCOD8219713 Si02
#       8
#     8   8   8   8   8   8   8   8
#     4   9  18  33  52  76 105 128 151 191 243 293
#     4  10  20  32  47  69  96 125 159 200 244 289
#     4   9  16  30  53  75  96 127 166 202 237 282
#     4   8  15  28  45  67  95 124 154 194 244 289
#     4   8  17  33  49  67  95 129 161 200 249 286
#     4   9  19  35  53  74 102 133 157 187 240 296
#     4   9  16  28  46  65  89 121 156 197 243 286
#     4  10  20  35  53  71  95 129 169 207 238 277
#
# _framework density 18.136980999999999
#
# number of rings (size 3 to 8) (size 9 to 14) (size 15 to 20)
#    0.000    3.000    0.000    3.375    0.000    3.000 
#    0.000    6.250    0.000    3.750    0.000    0.000 
#    0.000    0.000    0.000    0.000    0.000    0.000 
#
# Total GULP energy -793309.438064 kJ/mol
# GULP energy per Si atom -12395.459970 kJ/mol
# Density = 1.809570 g / cm^3
# Si number density = 18.136981 Si / 1000 Ang^3
#
#
#
# Elastic Constant Matrix: (Units=GPa)
#
#
# Indices 1 2 3 4 5 6 
#
# 1 47.2365 23.8772 33.8644 0.0000 0.0000 0.0000
# 2 23.8772 73.6563 20.4419 0.0000 0.0000 0.0000
# 3 33.8644 20.4419 67.8756 0.0000 0.0000 0.0000
# 4 0.0000 0.0000 0.0000 18.3631 0.0000 0.0000
# 5 0.0000 0.0000 0.0000 0.0000 34.6091 0.0000
# 6 0.0000 0.0000 0.0000 0.0000 0.0000 5.9275
#
#
#
# Elastic Compliance Matrix: (Units=1/GPa)
#
#
# Indices 1 2 3 4 5 6 
#
# 1 0.036273 -0.007350 -0.015883 0.000000 0.000000 0.000000
# 2 -0.007350 0.016304 -0.001243 0.000000 0.000000 0.000000
# 3 -0.015883 -0.001243 0.023032 0.000000 0.000000 0.000000
# 4 0.000000 0.000000 0.000000 0.054457 0.000000 0.000000
# 5 0.000000 0.000000 0.000000 0.000000 0.028894 0.000000
# 6 0.000000 0.000000 0.000000 0.000000 0.000000 0.168705
#
#
# Mechanical properties :
#
#
# Convention : Reuss Voigt Hill
#
# Bulk Modulus (GPa) = 37.51647 38.34837 37.93242
# Shear Modulus (GPa) = 12.97007 19.15227 16.06117
#
# Velocity S-wave (km/s) = 2.67707 3.25311 2.97904
# Velocity P-wave (km/s) = 5.50323 5.94137 5.72650
#
# Compressibility (1/GPa) = 0.02665496
#
# Stress axis : x y z
#
# Youngs Moduli (GPa) = 27.56907 61.33338 43.41844
#
# Poissons Ratio (x) = 0.45082 0.68963
# Poissons Ratio (y) = 0.20264 0.05397
# Poissons Ratio (z) = 0.43789 0.07624
#
# Static dielectric constant tensor:
#      x y z
#    x 2.985200 0.000000 0.000000 
#    y 0.000000 3.577320 0.000000 
#    z 0.000000 0.000000 3.281300 
# 
# 
# High freq. dielectric constant tensor:
#      x y z
#    x 1.670000 0.000000 0.000000 
#    y 0.000000 1.700160 0.000000 
#    z 0.000000 0.000000 1.697780 
# 
# From -- ./inp_files/36860.got.cif
#   From: 2010.03.12/outbox.cif.g09.slc.cpg/sg53_19_cif.got.tgz:36860.got - 2010.04.16 14:36:59.
