data_PCOD8219850
_publ_section_title
;
Structure prediction by ZEFSAII (Michael W. Deem and Ramdas Pophale) SiO2 
 PCOD8219850
Probable space group: P M N A
;
_chemical_formula_sum "Si O2"
_cell_formula_units_Z 64
_cell_length_a 8.874686
_cell_length_b 17.415790
_cell_length_c 21.647298
_cell_angle_alpha 90.000000
_cell_angle_beta 90.000000
_cell_angle_gamma 90.000000
_cell_volume 3345.799185
_symmetry_space_group_name_H-M "P M N A"
_symmetry_group_IT_number 53
_symmetry_cell_setting 'orthorhombic'
loop_
_space_group_symop_operation_xyz
x,y,z
1/2-x,-y,1/2+z
x,-y,-z
1/2-x,y,1/2-z
-x,-y,-z
1/2+x,y,1/2-z
-x,y,z
1/2+x,-y,1/2+z
loop_
_atom_site_type_symbol
_atom_site_label
_atom_site_fract_x
_atom_site_fract_y
_atom_site_fract_z
Si Si1 0.165448 0.361753 0.692394
Si Si2 0.324648 0.716962 0.974380
Si Si3 0.329967 0.277185 0.597558
Si Si4 0.677624 0.884034 0.967521
Si Si5 0.666230 0.537622 0.810411
Si Si6 0.330795 0.134452 0.687508
Si Si7 0.321705 0.961756 0.091016
Si Si8 0.821696 0.443069 0.056831
O O1 0.250000 0.321798 0.750000
O O2 0.272010 0.353102 0.632725
O O3 0.141066 0.450116 0.707003
O O4 0.000000 0.322910 0.683530
O O5 0.500000 0.697134 0.963244
O O6 0.274804 0.798589 0.942773
O O7 0.223008 0.645046 0.955719
O O8 0.292418 0.736713 0.045162
O O9 0.500000 0.291344 0.572506
O O10 0.321493 0.207291 0.643792
O O11 0.500000 0.884170 0.975828
O O12 0.726997 0.949232 0.918961
O O13 0.743067 0.908500 0.034994
O O14 0.750000 0.575751 0.750000
O O15 0.500000 0.576723 0.817786
O O16 0.752964 0.539421 0.875896
O O17 0.250000 0.156783 0.750000
O O18 0.500000 0.110051 0.702104
O O19 0.251108 0.062406 0.655324
O O20 0.500000 0.954286 0.095547
O O21 0.000000 0.449959 0.062057
O O22 0.766006 0.500000 0.000000
#
# Coordination Sequence:
#
# PCOD8219850 Si02
#       8
#     8   8   8   8   8   8   8   8
#     4  10  20  33  51  74 101 137 182 228 274 329
#     4  11  21  35  57  83 111 143 184 231 284 338
#     4  11  22  34  48  72 108 146 185 226 272 327
#     4   8  16  31  56  84 106 136 174 220 273 327
#     4  10  21  38  60  84 110 145 191 241 294 355
#     4  11  23  35  49  74 108 148 188 225 269 323
#     4   9  16  33  57  79 106 138 177 218 265 323
#     4  11  24  40  58  84 120 159 197 243 297 349
#
# _framework density 19.128464000000001
#
# number of rings (size 3 to 8) (size 9 to 14) (size 15 to 20)
#    0.000    1.875    1.250    4.125    0.000    7.000 
#    0.000    2.500    0.000    0.750    0.000    3.500 
#    0.000    0.000    0.000    0.000    0.000    0.000 
#
# Total GULP energy -792891.704469 kJ/mol
# GULP energy per Si atom -12388.932882 kJ/mol
# Density = 1.908493 g / cm^3
# Si number density = 19.128464 Si / 1000 Ang^3
#
#
#
# Elastic Constant Matrix: (Units=GPa)
#
#
# Indices 1 2 3 4 5 6 
#
# 1 84.8803 28.1747 40.3664 0.0000 0.0000 0.0000
# 2 28.1747 85.1535 20.8376 0.0000 0.0000 0.0000
# 3 40.3664 20.8376 90.4468 0.0000 0.0000 0.0000
# 4 0.0000 0.0000 0.0000 20.0220 0.0000 0.0000
# 5 0.0000 0.0000 0.0000 0.0000 32.5190 0.0000
# 6 0.0000 0.0000 0.0000 0.0000 0.0000 14.7425
#
#
#
# Elastic Compliance Matrix: (Units=1/GPa)
#
#
# Indices 1 2 3 4 5 6 
#
# 1 0.016018 -0.003763 -0.006282 0.000000 0.000000 0.000000
# 2 -0.003763 0.013329 -0.001392 0.000000 0.000000 0.000000
# 3 -0.006282 -0.001392 0.014180 0.000000 0.000000 0.000000
# 4 0.000000 0.000000 0.000000 0.049945 0.000000 0.000000
# 5 0.000000 0.000000 0.000000 0.000000 0.030751 0.000000
# 6 0.000000 0.000000 0.000000 0.000000 0.000000 0.067831
#
#
# Mechanical properties :
#
#
# Convention : Reuss Voigt Hill
#
# Bulk Modulus (GPa) = 48.41421 48.80421 48.60921
# Shear Modulus (GPa) = 22.54168 24.86350 23.70259
#
# Velocity S-wave (km/s) = 3.43656 3.60921 3.52394
# Velocity P-wave (km/s) = 6.41183 6.55270 6.48265
#
# Compressibility (1/GPa) = 0.02065509
#
# Stress axis : x y z
#
# Youngs Moduli (GPa) = 62.43106 75.02481 70.51979
#
# Poissons Ratio (x) = 0.28228 0.44300
# Poissons Ratio (y) = 0.23490 0.09813
# Poissons Ratio (z) = 0.39218 0.10440
#
# Static dielectric constant tensor:
#      x y z
#    x 3.677300 0.000000 0.000000 
#    y 0.000000 3.675340 0.000000 
#    z 0.000000 0.000000 3.468190 
# 
# 
# High freq. dielectric constant tensor:
#      x y z
#    x 1.743740 0.000000 0.000000 
#    y 0.000000 1.731460 0.000000 
#    z 0.000000 0.000000 1.726250 
# 
# From -- ./inp_files/31206.got.cif
#   From: 2010.03.12/outbox.cif.g09.slc.cpg/sg53_16_cif.got.tgz:31206.got - 2010.04.16 14:36:59.
