data_PCOD8219764
_publ_section_title
;
Structure prediction by ZEFSAII (Michael W. Deem and Ramdas Pophale) SiO2 
 PCOD8219764
Probable space group: P M N A
;
_chemical_formula_sum "Si O2"
_cell_formula_units_Z 32
_cell_length_a 10.594299
_cell_length_b 4.998588
_cell_length_c 25.854608
_cell_angle_alpha 90.000000
_cell_angle_beta 90.000000
_cell_angle_gamma 90.000000
_cell_volume 1369.170475
_symmetry_space_group_name_H-M "P M N A"
_symmetry_group_IT_number 53
_symmetry_cell_setting 'orthorhombic'
loop_
_space_group_symop_operation_xyz
x,y,z
1/2-x,-y,1/2+z
x,-y,-z
1/2-x,y,1/2-z
-x,-y,-z
1/2+x,y,1/2-z
-x,y,z
1/2+x,-y,1/2+z
loop_
_atom_site_type_symbol
_atom_site_label
_atom_site_fract_x
_atom_site_fract_y
_atom_site_fract_z
Si Si1 0.355686 0.807900 0.793532
Si Si2 0.500000 0.254036 0.036686
Si Si3 0.000000 0.750776 0.962669
Si Si4 0.357110 0.317447 0.861962
Si Si5 0.751001 0.061244 0.439382
O O1 0.250000 0.776490 0.750000
O O2 0.500000 0.742089 0.774182
O O3 0.351475 0.107294 0.814905
O O4 0.315215 0.602648 0.839082
O O5 0.625590 0.247930 0.072984
O O6 0.500000 0.500000 0.000000
O O7 0.500000 0.000000 0.000000
O O8 0.875803 0.770987 0.926050
O O9 0.000000 0.500000 0.000000
O O10 0.000000 0.000000 0.000000
O O11 0.500000 0.331053 0.885379
O O12 0.261905 0.214651 0.907049
O O13 0.749953 0.000000 0.500000
#
# Coordination Sequence:
#
# PCOD8219764 Si02
#       5
#     8   4   4   8   8
#     4  10  22  42  64  88 119 151 193 250 304 354
#     4  10  20  32  54  80 107 152 197 228 268 332
#     4  10  22  38  54  76 115 162 199 238 284 326
#     4  10  21  38  62  92 120 153 195 246 296 349
#     4  10  21  39  58  87 123 161 198 239 288 351
#
# _framework density 23.371817
#
# number of rings (size 3 to 8) (size 9 to 14) (size 15 to 20)
#    0.000    2.000    1.250    1.500    0.000    8.000 
#    4.500    0.000    0.000    0.000    0.000    0.000 
#    0.000    0.000    0.000    0.000    0.000    0.000 
#
# Total GULP energy -396670.643848 kJ/mol
# GULP energy per Si atom -12395.957620 kJ/mol
# Density = 2.331862 g / cm^3
# Si number density = 23.371817 Si / 1000 Ang^3
#
#
#
# Elastic Constant Matrix: (Units=GPa)
#
#
# Indices 1 2 3 4 5 6 
#
# 1 169.4634 -5.7412 16.5512 0.0000 0.0000 0.0000
# 2 -5.7412 62.5425 -21.3329 0.0000 0.0000 0.0000
# 3 16.5512 -21.3329 68.6443 0.0000 0.0000 0.0000
# 4 0.0000 0.0000 0.0000 25.9323 0.0000 0.0000
# 5 0.0000 0.0000 0.0000 0.0000 40.8873 0.0000
# 6 0.0000 0.0000 0.0000 0.0000 0.0000 27.1903
#
#
#
# Elastic Compliance Matrix: (Units=1/GPa)
#
#
# Indices 1 2 3 4 5 6 
#
# 1 0.006044 0.000065 -0.001437 0.000000 0.000000 0.000000
# 2 0.000065 0.017886 0.005543 0.000000 0.000000 0.000000
# 3 -0.001437 0.005543 0.016637 0.000000 0.000000 0.000000
# 4 0.000000 0.000000 0.000000 0.038562 0.000000 0.000000
# 5 0.000000 0.000000 0.000000 0.000000 0.024457 0.000000
# 6 0.000000 0.000000 0.000000 0.000000 0.000000 0.036778
#
#
# Mechanical properties :
#
#
# Convention : Reuss Voigt Hill
#
# Bulk Modulus (GPa) = 20.44705 31.06714 25.75709
# Shear Modulus (GPa) = 33.70977 39.54686 36.62831
#
# Velocity S-wave (km/s) = 3.80192 4.11795 3.96308
# Velocity P-wave (km/s) = 5.29531 5.99428 5.65560
#
# Compressibility (1/GPa) = 0.04890682
#
# Stress axis : x y z
#
# Youngs Moduli (GPa) = 165.46627 55.91060 60.10718
#
# Poissons Ratio (x) = -0.00361 0.08638
# Poissons Ratio (y) = -0.01069 -0.33317
# Poissons Ratio (z) = 0.23779 -0.30990
#
# Static dielectric constant tensor:
#      x y z
#    x 4.738330 0.000000 0.000000 
#    y 0.000000 4.372580 0.000000 
#    z 0.000000 0.000000 3.879670 
# 
# 
# High freq. dielectric constant tensor:
#      x y z
#    x 1.928450 0.000000 0.000000 
#    y 0.000000 1.942960 0.000000 
#    z 0.000000 0.000000 1.899580 
# 
# From -- ./inp_files/34657.got.cif
#   From: 2010.03.12/outbox.cif.g09.slc.cpg/sg53_18_cif.got.tgz:34657.got - 2010.04.16 14:36:59.
