data_PCOD8219819
_publ_section_title
;
Structure prediction by ZEFSAII (Michael W. Deem and Ramdas Pophale) SiO2 
 PCOD8219819
Probable space group: P M N A
;
_chemical_formula_sum "Si O2"
_cell_formula_units_Z 64
_cell_length_a 8.831073
_cell_length_b 27.580184
_cell_length_c 14.582605
_cell_angle_alpha 90.000000
_cell_angle_beta 90.000000
_cell_angle_gamma 90.000000
_cell_volume 3551.777455
_symmetry_space_group_name_H-M "P M N A"
_symmetry_group_IT_number 53
_symmetry_cell_setting 'orthorhombic'
loop_
_space_group_symop_operation_xyz
x,y,z
1/2-x,-y,1/2+z
x,-y,-z
1/2-x,y,1/2-z
-x,-y,-z
1/2+x,y,1/2-z
-x,y,z
1/2+x,-y,1/2+z
loop_
_atom_site_type_symbol
_atom_site_label
_atom_site_fract_x
_atom_site_fract_y
_atom_site_fract_z
Si Si1 0.679154 0.387835 0.961614
Si Si2 0.825502 0.109357 0.965816
Si Si3 0.324527 0.928015 0.658293
Si Si4 0.678197 0.424756 0.159868
Si Si5 0.323252 0.197050 0.656472
Si Si6 0.168884 0.518934 0.102128
Si Si7 0.679566 0.306839 0.653726
Si Si8 0.678903 0.030840 0.844542
O O1 0.500000 0.386234 0.950685
O O2 0.742748 0.430190 0.896091
O O3 0.752496 0.337606 0.929777
O O4 0.726747 0.396252 0.067747
O O5 0.775952 0.161761 0.926873
O O6 0.720620 0.067655 0.924806
O O7 0.000000 0.097915 0.940917
O O8 0.802051 0.110040 0.075560
O O9 0.250000 0.905570 0.750000
O O10 0.500000 0.938665 0.677471
O O11 0.245317 0.978330 0.631331
O O12 0.750000 0.398787 0.250000
O O13 0.500000 0.425902 0.169868
O O14 0.738757 0.479832 0.160399
O O15 0.250000 0.177507 0.750000
O O16 0.500000 0.196455 0.673577
O O17 0.269628 0.251531 0.633579
O O18 0.000000 0.525892 0.143172
O O19 0.157785 0.500000 0.000000
O O20 0.750000 0.324453 0.750000
O O21 0.500000 0.313229 0.657500
O O22 0.750000 0.050554 0.750000
O O23 0.500000 0.027063 0.834970
#
# Coordination Sequence:
#
# PCOD8219819 Si02
#       8
#     8   8   8   8   8   8   8   8
#     4  10  20  34  52  75 103 133 168 209 250 294
#     4  10  20  34  52  74 100 131 166 204 249 296
#     4  10  20  34  51  70  98 134 170 208 246 288
#     4  10  20  33  50  73 103 137 171 208 248 291
#     4   9  19  35  54  77 102 127 157 197 247 300
#     4   9  17  30  48  70  97 129 165 203 243 288
#     4  10  20  35  55  77 101 129 162 202 249 300
#     4  11  21  32  48  72 103 135 168 205 244 291
#
# _framework density 18.019145999999999
#
# number of rings (size 3 to 8) (size 9 to 14) (size 15 to 20)
#    0.000    2.125    0.000    4.500    0.000    8.000 
#    0.000    2.500    0.000    0.750    0.000    3.500 
#    0.000    0.000    0.000    0.000    0.000    0.000 
#
# Total GULP energy -793619.298326 kJ/mol
# GULP energy per Si atom -12400.301536 kJ/mol
# Density = 1.797813 g / cm^3
# Si number density = 18.019146 Si / 1000 Ang^3
#
#
#
# Elastic Constant Matrix: (Units=GPa)
#
#
# Indices 1 2 3 4 5 6 
#
# 1 100.9080 40.5636 51.5694 0.0000 0.0000 0.0000
# 2 40.5636 89.4149 65.6608 0.0000 0.0000 0.0000
# 3 51.5694 65.6608 121.6115 0.0000 0.0000 0.0000
# 4 0.0000 0.0000 0.0000 25.1311 0.0000 0.0000
# 5 0.0000 0.0000 0.0000 0.0000 30.0221 0.0000
# 6 0.0000 0.0000 0.0000 0.0000 0.0000 14.7356
#
#
#
# Elastic Compliance Matrix: (Units=1/GPa)
#
#
# Indices 1 2 3 4 5 6 
#
# 1 0.013151 -0.003100 -0.003903 0.000000 0.000000 0.000000
# 2 -0.003100 0.019262 -0.009085 0.000000 0.000000 0.000000
# 3 -0.003903 -0.009085 0.014783 0.000000 0.000000 0.000000
# 4 0.000000 0.000000 0.000000 0.039791 0.000000 0.000000
# 5 0.000000 0.000000 0.000000 0.000000 0.033309 0.000000
# 6 0.000000 0.000000 0.000000 0.000000 0.000000 0.067863
#
#
# Mechanical properties :
#
#
# Convention : Reuss Voigt Hill
#
# Bulk Modulus (GPa) = 66.57968 69.72468 68.15218
# Shear Modulus (GPa) = 22.18853 24.25380 23.22116
#
# Velocity S-wave (km/s) = 3.51292 3.67277 3.59373
# Velocity P-wave (km/s) = 7.31326 7.53422 7.42456
#
# Compressibility (1/GPa) = 0.01501960
#
# Stress axis : x y z
#
# Youngs Moduli (GPa) = 76.04164 51.91607 67.64367
#
# Poissons Ratio (x) = 0.16093 0.26401
# Poissons Ratio (y) = 0.23572 0.61457
# Poissons Ratio (z) = 0.29678 0.47168
#
# Static dielectric constant tensor:
#      x y z
#    x 3.430390 0.000000 0.000000 
#    y 0.000000 3.265590 0.000000 
#    z 0.000000 0.000000 3.436430 
# 
# 
# High freq. dielectric constant tensor:
#      x y z
#    x 1.710830 0.000000 0.000000 
#    y 0.000000 1.670920 0.000000 
#    z 0.000000 0.000000 1.696520 
# 
# From -- ./inp_files/20868.got.cif
#   From: 2010.03.12/outbox.cif.g09.slc.cpg/sg53_11_cif.got.tgz:20868.got - 2010.04.16 14:36:59.
