data_PCOD8219758
_publ_section_title
;
Structure prediction by ZEFSAII (Michael W. Deem and Ramdas Pophale) SiO2 
 PCOD8219758
Probable space group: P M N A
;
_chemical_formula_sum "Si O2"
_cell_formula_units_Z 64
_cell_length_a 9.071521
_cell_length_b 19.530127
_cell_length_c 20.609204
_cell_angle_alpha 90.000000
_cell_angle_beta 90.000000
_cell_angle_gamma 90.000000
_cell_volume 3651.290572
_symmetry_space_group_name_H-M "P M N A"
_symmetry_group_IT_number 53
_symmetry_cell_setting 'orthorhombic'
loop_
_space_group_symop_operation_xyz
x,y,z
1/2-x,-y,1/2+z
x,-y,-z
1/2-x,y,1/2-z
-x,-y,-z
1/2+x,y,1/2-z
-x,y,z
1/2+x,-y,1/2+z
loop_
_atom_site_type_symbol
_atom_site_label
_atom_site_fract_x
_atom_site_fract_y
_atom_site_fract_z
Si Si1 0.824726 0.540360 0.438314
Si Si2 0.327840 0.176135 0.520892
Si Si3 0.330827 0.312760 0.978443
Si Si4 0.826059 0.954326 0.685162
Si Si5 0.826170 0.543034 0.684219
Si Si6 0.327350 0.175383 0.370184
Si Si7 0.672752 0.044085 0.938891
Si Si8 0.168897 0.311772 0.370371
O O1 0.757485 0.500000 0.500000
O O2 0.776522 0.619912 0.439984
O O3 0.764858 0.506103 0.372554
O O4 0.000000 0.534706 0.441545
O O5 0.500000 0.174942 0.533637
O O6 0.266236 0.248856 0.545056
O O7 0.288002 0.164642 0.445603
O O8 0.254208 0.116548 0.562965
O O9 0.500000 0.295282 0.962859
O O10 0.309150 0.328502 0.054165
O O11 0.750000 0.983845 0.750000
O O12 0.761133 0.879657 0.671233
O O13 0.000000 0.948139 0.695170
O O14 0.785678 0.005141 0.626848
O O15 0.750000 0.518875 0.750000
O O16 0.782926 0.621339 0.669171
O O17 0.000000 0.535097 0.691237
O O18 0.500000 0.167750 0.356427
O O19 0.274043 0.250179 0.347526
O O20 0.500000 0.057775 0.945490
O O21 0.730227 0.000000 0.000000
O O22 0.000000 0.291232 0.356330
#
# Coordination Sequence:
#
# PCOD8219758 Si02
#       8
#     8   8   8   8   8   8   8   8
#     4   9  15  29  54  79  98 127 176 223 256 296
#     4  10  20  32  51  80 112 139 168 214 266 311
#     4   9  16  29  53  78 100 129 172 222 262 302
#     4  11  23  38  56  78 107 140 175 217 261 310
#     4  10  20  33  50  74 104 136 172 213 261 312
#     4  10  20  33  50  75 108 143 177 212 253 307
#     4  10  20  36  58  81 104 136 178 218 256 306
#     4   9  17  30  49  72 100 137 176 214 255 302
#
# _framework density 17.528047999999998
#
# number of rings (size 3 to 8) (size 9 to 14) (size 15 to 20)
#    0.000    2.250    2.500    1.125    0.000    3.250 
#    0.000    1.875    0.000    1.500    0.000    1.750 
#    0.000    0.000    0.000    0.000    0.000    0.000 
#
# Total GULP energy -793758.340530 kJ/mol
# GULP energy per Si atom -12402.474071 kJ/mol
# Density = 1.748815 g / cm^3
# Si number density = 17.528048 Si / 1000 Ang^3
#
#
#
# Elastic Constant Matrix: (Units=GPa)
#
#
# Indices 1 2 3 4 5 6 
#
# 1 55.7209 45.5911 43.2564 0.0000 0.0000 0.0000
# 2 45.5911 121.1597 69.8247 0.0000 0.0000 0.0000
# 3 43.2564 69.8247 109.2164 0.0000 0.0000 0.0000
# 4 0.0000 0.0000 0.0000 23.9814 0.0000 0.0000
# 5 0.0000 0.0000 0.0000 0.0000 25.9281 0.0000
# 6 0.0000 0.0000 0.0000 0.0000 0.0000 18.3118
#
#
#
# Elastic Compliance Matrix: (Units=1/GPa)
#
#
# Indices 1 2 3 4 5 6 
#
# 1 0.029083 -0.006817 -0.007160 0.000000 0.000000 0.000000
# 2 -0.006817 0.014667 -0.006677 0.000000 0.000000 0.000000
# 3 -0.007160 -0.006677 0.016261 0.000000 0.000000 0.000000
# 4 0.000000 0.000000 0.000000 0.041699 0.000000 0.000000
# 5 0.000000 0.000000 0.000000 0.000000 0.038568 0.000000
# 6 0.000000 0.000000 0.000000 0.000000 0.000000 0.054610
#
#
# Mechanical properties :
#
#
# Convention : Reuss Voigt Hill
#
# Bulk Modulus (GPa) = 53.47036 67.04905 60.25970
# Shear Modulus (GPa) = 20.62458 22.13924 21.38191
#
# Velocity S-wave (km/s) = 3.43397 3.55783 3.49645
# Velocity P-wave (km/s) = 6.80402 7.43055 7.12417
#
# Compressibility (1/GPa) = 0.01870195
#
# Stress axis : x y z
#
# Youngs Moduli (GPa) = 34.38436 68.18226 61.49819
#
# Poissons Ratio (x) = 0.46481 0.44035
# Poissons Ratio (y) = 0.23440 0.41060
# Poissons Ratio (z) = 0.24620 0.45523
#
# Static dielectric constant tensor:
#      x y z
#    x 3.086750 0.000000 0.000000 
#    y 0.000000 3.307130 0.000000 
#    z 0.000000 0.000000 3.170950 
# 
# 
# High freq. dielectric constant tensor:
#      x y z
#    x 1.665080 0.000000 0.000000 
#    y 0.000000 1.681120 0.000000 
#    z 0.000000 0.000000 1.656090 
# 
# From -- ./inp_files/31202.got.cif
#   From: 2010.03.12/outbox.cif.g09.slc.cpg/sg53_16_cif.got.tgz:31202.got - 2010.04.16 14:36:59.
