data_PCOD8219131
_publ_section_title
;
Structure prediction by ZEFSAII (Michael W. Deem and Ramdas Pophale) SiO2 
 PCOD8219131
Probable space group: P M N A
;
_chemical_formula_sum "Si O2"
_cell_formula_units_Z 56
_cell_length_a 8.669814
_cell_length_b 20.799321
_cell_length_c 15.347947
_cell_angle_alpha 90.000000
_cell_angle_beta 90.000000
_cell_angle_gamma 90.000000
_cell_volume 2767.637642
_symmetry_space_group_name_H-M "P M N A"
_symmetry_group_IT_number 53
_symmetry_cell_setting 'orthorhombic'
loop_
_space_group_symop_operation_xyz
x,y,z
1/2-x,-y,1/2+z
x,-y,-z
1/2-x,y,1/2-z
-x,-y,-z
1/2+x,y,1/2-z
-x,y,z
1/2+x,-y,1/2+z
loop_
_atom_site_type_symbol
_atom_site_label
_atom_site_fract_x
_atom_site_fract_y
_atom_site_fract_z
Si Si1 0.680632 0.794989 0.510818
Si Si2 0.820261 0.010541 0.898531
Si Si3 0.679528 0.352898 0.484682
Si Si4 0.180105 0.588230 0.162642
Si Si5 0.682651 0.143823 0.843533
Si Si6 0.327316 0.531603 0.905719
Si Si7 0.317355 0.119838 0.161386
O O1 0.500000 0.812261 0.516533
O O2 0.713581 0.721194 0.534241
O O3 0.740119 0.809235 0.414077
O O4 0.774276 0.836971 0.579273
O O5 0.762254 0.949288 0.845955
O O6 0.000000 0.022882 0.879250
O O7 0.722562 0.070523 0.865512
O O8 0.788642 0.000000 0.000000
O O9 0.500000 0.369236 0.481063
O O10 0.744804 0.371736 0.580217
O O11 0.761337 0.395891 0.410539
O O12 0.250000 0.619155 0.250000
O O13 0.226453 0.512982 0.157584
O O14 0.000000 0.594882 0.168726
O O15 0.750000 0.163552 0.750000
O O16 0.500000 0.153153 0.844140
O O17 0.500000 0.534559 0.868611
O O18 0.320562 0.500000 0.000000
O O19 0.250000 0.151597 0.250000
O O20 0.500000 0.112661 0.166392
#
# Coordination Sequence:
#
# PCOD8219131 Si02
#       7
#     8   8   8   8   8   8   8
#     4  11  23  42  63  88 122 160 204 250 300 358
#     4  11  22  39  65  92 122 156 194 247 307 361
#     4   9  20  37  58  81 112 153 191 234 287 345
#     4  10  19  33  54  83 116 149 187 233 286 340
#     4  12  25  41  62  89 123 161 203 249 302 361
#     4   9  17  31  53  80 108 140 180 225 271 326
#     4  12  25  42  65  91 120 156 200 249 305 362
#
# _framework density 20.233864000000001
#
# number of rings (size 3 to 8) (size 9 to 14) (size 15 to 20)
#    0.000    1.429    1.429    4.714    0.000    4.571 
#    0.000    2.143    0.000    3.429    0.000    0.000 
#    0.000    0.000    0.000    0.000    0.000    0.000 
#
# Total GULP energy -694584.611374 kJ/mol
# GULP energy per Si atom -12403.296632 kJ/mol
# Density = 2.018781 g / cm^3
# Si number density = 20.233864 Si / 1000 Ang^3
#
#
#
# Elastic Constant Matrix: (Units=GPa)
#
#
# Indices 1 2 3 4 5 6 
#
# 1 59.7766 15.6864 17.0545 0.0000 0.0000 0.0000
# 2 15.6864 63.2777 -5.4656 0.0000 0.0000 0.0000
# 3 17.0545 -5.4656 68.1192 0.0000 0.0000 0.0000
# 4 0.0000 0.0000 0.0000 9.3726 0.0000 0.0000
# 5 0.0000 0.0000 0.0000 0.0000 35.3526 0.0000
# 6 0.0000 0.0000 0.0000 0.0000 0.0000 20.5106
#
#
#
# Elastic Compliance Matrix: (Units=1/GPa)
#
#
# Indices 1 2 3 4 5 6 
#
# 1 0.019655 -0.005334 -0.005349 0.000000 0.000000 0.000000
# 2 -0.005334 0.017361 0.002729 0.000000 0.000000 0.000000
# 3 -0.005349 0.002729 0.016238 0.000000 0.000000 0.000000
# 4 0.000000 0.000000 0.000000 0.106694 0.000000 0.000000
# 5 0.000000 0.000000 0.000000 0.000000 0.028286 0.000000
# 6 0.000000 0.000000 0.000000 0.000000 0.000000 0.048755
#
#
# Mechanical properties :
#
#
# Convention : Reuss Voigt Hill
#
# Bulk Modulus (GPa) = 26.77728 27.30267 27.03997
# Shear Modulus (GPa) = 18.84319 23.97370 21.40844
#
# Velocity S-wave (km/s) = 3.05498 3.44587 3.25630
# Velocity P-wave (km/s) = 5.07016 5.41801 5.24697
#
# Compressibility (1/GPa) = 0.03734509
#
# Stress axis : x y z
#
# Youngs Moduli (GPa) = 50.87807 57.59902 61.58306
#
# Poissons Ratio (x) = 0.30726 0.32940
# Poissons Ratio (y) = 0.27140 -0.16803
# Poissons Ratio (z) = 0.27214 -0.15716
#
# Static dielectric constant tensor:
#      x y z
#    x 3.733510 0.000000 0.000000 
#    y 0.000000 3.638410 0.000000 
#    z 0.000000 0.000000 3.876560 
# 
# 
# High freq. dielectric constant tensor:
#      x y z
#    x 1.800430 0.000000 0.000000 
#    y 0.000000 1.781220 0.000000 
#    z 0.000000 0.000000 1.790490 
# 
# From -- ./inp_files/20494.got.cif
#   From: 2010.03.12/outbox.cif.g09.slc.cpg/sg53_11_cif.got.tgz:20494.got - 2010.04.16 14:36:59.
