data_PCOD8219527
_publ_section_title
;
Structure prediction by ZEFSAII (Michael W. Deem and Ramdas Pophale) SiO2 
 PCOD8219527
Probable space group: P M N A
;
_chemical_formula_sum "Si O2"
_cell_formula_units_Z 64
_cell_length_a 8.963454
_cell_length_b 11.973413
_cell_length_c 31.443806
_cell_angle_alpha 90.000000
_cell_angle_beta 90.000000
_cell_angle_gamma 90.000000
_cell_volume 3374.647888
_symmetry_space_group_name_H-M "P M N A"
_symmetry_group_IT_number 53
_symmetry_cell_setting 'orthorhombic'
loop_
_space_group_symop_operation_xyz
x,y,z
1/2-x,-y,1/2+z
x,-y,-z
1/2-x,y,1/2-z
-x,-y,-z
1/2+x,y,1/2-z
-x,y,z
1/2+x,-y,1/2+z
loop_
_atom_site_type_symbol
_atom_site_label
_atom_site_fract_x
_atom_site_fract_y
_atom_site_fract_z
Si Si1 0.674465 0.872477 0.609308
Si Si2 0.331650 0.744616 0.057783
Si Si3 0.324916 0.233683 0.706764
Si Si4 0.175448 0.490593 0.793479
Si Si5 0.823423 0.479803 0.952514
Si Si6 0.676162 0.623922 0.625432
Si Si7 0.174317 0.905484 0.366392
Si Si8 0.830444 0.886653 0.522874
O O1 0.500000 0.897588 0.614633
O O2 0.719752 0.753608 0.629664
O O3 0.713235 0.865110 0.559800
O O4 0.768612 0.967635 0.632740
O O5 0.500000 0.705072 0.067260
O O6 0.222550 0.641190 0.065277
O O7 0.289569 0.847384 0.088558
O O8 0.315448 0.784418 0.009458
O O9 0.250000 0.191389 0.750000
O O10 0.500000 0.216067 0.710586
O O11 0.282427 0.362066 0.697885
O O12 0.262850 0.160035 0.669103
O O13 0.250000 0.533916 0.750000
O O14 0.241106 0.560625 0.833198
O O15 0.000000 0.507523 0.788510
O O16 0.760737 0.571034 0.918733
O O17 0.000000 0.484919 0.954821
O O18 0.756026 0.500000 0.000000
O O19 0.500000 0.607523 0.624543
O O20 0.000000 0.904980 0.355761
O O21 0.000000 0.896714 0.540767
O O22 0.784159 0.000000 0.500000
#
# Coordination Sequence:
#
# PCOD8219527 Si02
#       8
#     8   8   8   8   8   8   8   8
#     4  11  22  36  56  81 108 144 192 236 275 331
#     4  10  21  35  54  78 107 143 183 227 277 329
#     4  10  20  36  60  89 115 143 177 221 275 333
#     4   9  18  35  59  84 112 142 177 224 277 332
#     4  10  20  35  55  79 110 144 181 227 279 335
#     4   9  19  36  55  78 112 149 180 226 287 333
#     4  11  22  38  56  79 112 147 182 225 277 328
#     4  10  19  36  54  72 107 150 184 226 282 330
#
# _framework density 18.964943000000002
#
# number of rings (size 3 to 8) (size 9 to 14) (size 15 to 20)
#    0.000    2.000    1.250    2.625    0.000    4.500 
#    0.000    3.750    0.000    1.500    0.000    0.000 
#    0.000    0.000    0.000    0.000    0.000    0.000 
#
# Total GULP energy -793723.645050 kJ/mol
# GULP energy per Si atom -12401.931954 kJ/mol
# Density = 1.892178 g / cm^3
# Si number density = 18.964943 Si / 1000 Ang^3
#
#
#
# Elastic Constant Matrix: (Units=GPa)
#
#
# Indices 1 2 3 4 5 6 
#
# 1 44.0369 30.6359 31.6036 0.0000 0.0000 0.0000
# 2 30.6359 106.7795 53.1445 0.0000 0.0000 0.0000
# 3 31.6036 53.1445 124.9152 0.0000 0.0000 0.0000
# 4 0.0000 0.0000 0.0000 26.4374 0.0000 0.0000
# 5 0.0000 0.0000 0.0000 0.0000 31.6719 0.0000
# 6 0.0000 0.0000 0.0000 0.0000 0.0000 26.5699
#
#
#
# Elastic Compliance Matrix: (Units=1/GPa)
#
#
# Indices 1 2 3 4 5 6 
#
# 1 0.030741 -0.006278 -0.005106 0.000000 0.000000 0.000000
# 2 -0.006278 0.013163 -0.004012 0.000000 0.000000 0.000000
# 3 -0.005106 -0.004012 0.011004 0.000000 0.000000 0.000000
# 4 0.000000 0.000000 0.000000 0.037825 0.000000 0.000000
# 5 0.000000 0.000000 0.000000 0.000000 0.031574 0.000000
# 6 0.000000 0.000000 0.000000 0.000000 0.000000 0.037637
#
#
# Mechanical properties :
#
#
# Convention : Reuss Voigt Hill
#
# Bulk Modulus (GPa) = 41.46789 56.27771 48.87280
# Shear Modulus (GPa) = 24.90359 27.62568 26.26464
#
# Velocity S-wave (km/s) = 3.62766 3.82078 3.72547
# Velocity P-wave (km/s) = 6.28168 7.01452 6.65819
#
# Compressibility (1/GPa) = 0.02411504
#
# Stress axis : x y z
#
# Youngs Moduli (GPa) = 32.53031 75.97031 90.87524
#
# Poissons Ratio (x) = 0.47696 0.46404
# Poissons Ratio (y) = 0.20423 0.36457
# Poissons Ratio (z) = 0.16611 0.30477
#
# Static dielectric constant tensor:
#      x y z
#    x 3.311250 0.000000 0.000000 
#    y 0.000000 3.543160 0.000000 
#    z 0.000000 0.000000 3.806620 
# 
# 
# High freq. dielectric constant tensor:
#      x y z
#    x 1.723240 0.000000 0.000000 
#    y 0.000000 1.739190 0.000000 
#    z 0.000000 0.000000 1.736230 
# 
# From -- ./inp_files/38117.got.cif
#   From: 2010.03.12/outbox.cif.g09.slc.cpg/sg53_20_cif.got.tgz:38117.got - 2010.04.16 14:36:59.
