data_PCOD8219171
_publ_section_title
;
Structure prediction by ZEFSAII (Michael W. Deem and Ramdas Pophale) SiO2 
 PCOD8219171
Probable space group: P M N A
;
_chemical_formula_sum "Si O2"
_cell_formula_units_Z 64
_cell_length_a 8.694887
_cell_length_b 11.413869
_cell_length_c 33.407515
_cell_angle_alpha 90.000000
_cell_angle_beta 90.000000
_cell_angle_gamma 90.000000
_cell_volume 3315.438666
_symmetry_space_group_name_H-M "P M N A"
_symmetry_group_IT_number 53
_symmetry_cell_setting 'orthorhombic'
loop_
_space_group_symop_operation_xyz
x,y,z
1/2-x,-y,1/2+z
x,-y,-z
1/2-x,y,1/2-z
-x,-y,-z
1/2+x,y,1/2-z
-x,y,z
1/2+x,-y,1/2+z
loop_
_atom_site_type_symbol
_atom_site_label
_atom_site_fract_x
_atom_site_fract_y
_atom_site_fract_z
Si Si1 0.182016 0.523819 0.707693
Si Si2 0.679388 0.128816 0.604971
Si Si3 0.325208 0.343407 0.858750
Si Si4 0.682039 0.735976 0.942574
Si Si5 0.180281 0.252109 0.976254
Si Si6 0.817755 0.228644 0.206621
Si Si7 0.681028 0.110613 0.131459
Si Si8 0.324616 0.527818 0.059426
O O1 0.250000 0.487591 0.750000
O O2 0.228493 0.416543 0.679510
O O3 0.257274 0.644507 0.692568
O O4 0.000000 0.543504 0.709528
O O5 0.500000 0.096636 0.606083
O O6 0.712565 0.233179 0.636295
O O7 0.733731 0.171104 0.560854
O O8 0.781873 0.019811 0.617399
O O9 0.500000 0.297783 0.854389
O O10 0.310211 0.432237 0.895221
O O11 0.500000 0.741559 0.943087
O O12 0.743254 0.802445 0.903184
O O13 0.743888 0.602895 0.942028
O O14 0.745667 0.797725 0.982880
O O15 0.231367 0.386660 0.969830
O O16 0.000000 0.247744 0.980623
O O17 0.750000 0.193812 0.250000
O O18 0.766116 0.135319 0.173292
O O19 0.000000 0.230131 0.210210
O O20 0.500000 0.125069 0.138161
O O21 0.500000 0.529970 0.044392
#
# Coordination Sequence:
#
# PCOD8219171 Si02
#       8
#     8   8   8   8   8   8   8   8
#     4  10  19  33  55  85 118 147 179 219 268 326
#     4  10  22  39  56  77 107 144 187 233 281 330
#     4   9  18  34  56  78 104 142 184 226 273 326
#     4  10  21  35  54  80 109 143 182 226 273 326
#     4  10  21  35  52  77 110 144 179 225 278 330
#     4  11  22  38  61  88 118 149 180 218 270 326
#     4  11  23  40  60  82 109 143 189 236 276 323
#     4   9  17  32  53  76 104 138 178 223 273 330
#
# _framework density 19.303629999999998
#
# number of rings (size 3 to 8) (size 9 to 14) (size 15 to 20)
#    0.000    2.000    0.000    4.500    0.000    8.000 
#    0.000    5.625    0.000    1.500    0.000    0.000 
#    0.000    0.000    0.000    0.000    0.000    0.000 
#
# Total GULP energy -793734.113918 kJ/mol
# GULP energy per Si atom -12402.095530 kJ/mol
# Density = 1.925969 g / cm^3
# Si number density = 19.303630 Si / 1000 Ang^3
#
#
#
# Elastic Constant Matrix: (Units=GPa)
#
#
# Indices 1 2 3 4 5 6 
#
# 1 70.4225 30.9328 39.9894 0.0000 0.0000 0.0000
# 2 30.9328 90.7183 63.9838 0.0000 0.0000 0.0000
# 3 39.9894 63.9838 117.0371 0.0000 0.0000 0.0000
# 4 0.0000 0.0000 0.0000 22.5013 0.0000 0.0000
# 5 0.0000 0.0000 0.0000 0.0000 30.8908 0.0000
# 6 0.0000 0.0000 0.0000 0.0000 0.0000 19.0168
#
#
#
# Elastic Compliance Matrix: (Units=1/GPa)
#
#
# Indices 1 2 3 4 5 6 
#
# 1 0.018089 -0.002944 -0.004571 0.000000 0.000000 0.000000
# 2 -0.002944 0.018420 -0.009064 0.000000 0.000000 0.000000
# 3 -0.004571 -0.009064 0.015062 0.000000 0.000000 0.000000
# 4 0.000000 0.000000 0.000000 0.044442 0.000000 0.000000
# 5 0.000000 0.000000 0.000000 0.000000 0.032372 0.000000
# 6 0.000000 0.000000 0.000000 0.000000 0.000000 0.052585
#
#
# Mechanical properties :
#
#
# Convention : Reuss Voigt Hill
#
# Bulk Modulus (GPa) = 54.31303 60.88775 57.60039
# Shear Modulus (GPa) = 22.69989 24.03324 23.36657
#
# Velocity S-wave (km/s) = 3.43292 3.53230 3.48296
# Velocity P-wave (km/s) = 6.62650 6.94599 6.78812
#
# Compressibility (1/GPa) = 0.01841179
#
# Stress axis : x y z
#
# Youngs Moduli (GPa) = 55.28268 54.28899 66.39379
#
# Poissons Ratio (x) = 0.15981 0.30351
# Poissons Ratio (y) = 0.16274 0.60181
# Poissons Ratio (z) = 0.25271 0.49209
#
# Static dielectric constant tensor:
#      x y z
#    x 3.442940 0.000000 0.000000 
#    y 0.000000 3.458470 0.000000 
#    z 0.000000 0.000000 3.711680 
# 
# 
# High freq. dielectric constant tensor:
#      x y z
#    x 1.749950 0.000000 0.000000 
#    y 0.000000 1.739970 0.000000 
#    z 0.000000 0.000000 1.759570 
# 
# From -- ./inp_files/38241.got.cif
#   From: 2010.03.12/outbox.cif.g09.slc.cpg/sg53_20_cif.got.tgz:38241.got - 2010.04.16 14:36:59.
