data_PCOD8219818
_publ_section_title
;
Structure prediction by ZEFSAII (Michael W. Deem and Ramdas Pophale) SiO2 
 PCOD8219818
Probable space group: P M N A
;
_chemical_formula_sum "Si O2"
_cell_formula_units_Z 48
_cell_length_a 9.714558
_cell_length_b 18.172566
_cell_length_c 15.240402
_cell_angle_alpha 90.000000
_cell_angle_beta 90.000000
_cell_angle_gamma 90.000000
_cell_volume 2690.516892
_symmetry_space_group_name_H-M "P M N A"
_symmetry_group_IT_number 53
_symmetry_cell_setting 'orthorhombic'
loop_
_space_group_symop_operation_xyz
x,y,z
1/2-x,-y,1/2+z
x,-y,-z
1/2-x,y,1/2-z
-x,-y,-z
1/2+x,y,1/2-z
-x,y,z
1/2+x,-y,1/2+z
loop_
_atom_site_type_symbol
_atom_site_label
_atom_site_fract_x
_atom_site_fract_y
_atom_site_fract_z
Si Si1 0.840257 0.182415 0.015062
Si Si2 0.662064 0.034792 0.414227
Si Si3 0.341694 0.430273 0.169342
Si Si4 0.840792 0.399616 0.668782
Si Si5 0.160405 0.676173 0.511503
Si Si6 0.158291 0.108091 0.827664
O O1 0.747322 0.252232 0.034262
O O2 0.811474 0.150278 0.918116
O O3 0.000000 0.204517 0.024753
O O4 0.795697 0.121201 0.089293
O O5 0.500000 0.033663 0.429332
O O6 0.733622 0.000000 0.500000
O O7 0.698360 0.979618 0.334433
O O8 0.250000 0.401544 0.250000
O O9 0.500000 0.418452 0.195769
O O10 0.310124 0.515222 0.148581
O O11 0.302663 0.385723 0.082461
O O12 0.750000 0.370982 0.750000
O O13 0.796869 0.353645 0.583736
O O14 0.000000 0.387178 0.692644
O O15 0.000000 0.696472 0.514493
O O16 0.250000 0.142725 0.750000
O O17 0.000000 0.117487 0.800671
#
# Coordination Sequence:
#
# PCOD8219818 Si02
#       6
#     8   8   8   8   8   8
#     4   9  18  32  49  68  93 126 160 193 233 285
#     4   7  12  27  48  64  81 112 152 186 217 260
#     4   9  18  34  54  73  94 125 166 208 248 290
#     4   9  18  33  52  73  98 129 165 204 244 289
#     4  10  20  33  50  73 102 133 162 198 248 298
#     4   9  17  30  49  71  93 120 156 196 237 282
#
# _framework density 17.840437000000001
#
# number of rings (size 3 to 8) (size 9 to 14) (size 15 to 20)
#    0.000    3.167    0.000    2.500    0.000    4.667 
#    0.000    5.000    0.000   12.000    0.000    0.000 
#    0.000    0.000    0.000    0.000    0.000    0.000 
#
# Total GULP energy -594745.503200 kJ/mol
# GULP energy per Si atom -12390.531317 kJ/mol
# Density = 1.779983 g / cm^3
# Si number density = 17.840437 Si / 1000 Ang^3
#
#
#
# Elastic Constant Matrix: (Units=GPa)
#
#
# Indices 1 2 3 4 5 6 
#
# 1 40.7152 20.3702 18.7370 0.0000 0.0000 0.0000
# 2 20.3702 59.6218 4.6464 0.0000 0.0000 0.0000
# 3 18.7370 4.6464 38.6381 0.0000 0.0000 0.0000
# 4 0.0000 0.0000 0.0000 14.6443 0.0000 0.0000
# 5 0.0000 0.0000 0.0000 0.0000 23.6982 0.0000
# 6 0.0000 0.0000 0.0000 0.0000 0.0000 22.7866
#
#
#
# Elastic Compliance Matrix: (Units=1/GPa)
#
#
# Indices 1 2 3 4 5 6 
#
# 1 0.038356 -0.011765 -0.017185 0.000000 0.000000 0.000000
# 2 -0.011765 0.020540 0.003235 0.000000 0.000000 0.000000
# 3 -0.017185 0.003235 0.033826 0.000000 0.000000 0.000000
# 4 0.000000 0.000000 0.000000 0.068286 0.000000 0.000000
# 5 0.000000 0.000000 0.000000 0.000000 0.042197 0.000000
# 6 0.000000 0.000000 0.000000 0.000000 0.000000 0.043885
#
#
# Mechanical properties :
#
#
# Convention : Reuss Voigt Hill
#
# Bulk Modulus (GPa) = 24.21817 25.16469 24.69143
# Shear Modulus (GPa) = 16.01104 18.57391 17.29248
#
# Velocity S-wave (km/s) = 2.99901 3.23013 3.11671
# Velocity P-wave (km/s) = 5.05929 5.29601 5.17900
#
# Compressibility (1/GPa) = 0.04129131
#
# Stress axis : x y z
#
# Youngs Moduli (GPa) = 26.07168 48.68568 29.56311
#
# Poissons Ratio (x) = 0.57280 0.50805
# Poissons Ratio (y) = 0.30674 -0.09565
# Poissons Ratio (z) = 0.44805 -0.15752
#
# Static dielectric constant tensor:
#      x y z
#    x 3.116330 0.000000 0.000000 
#    y 0.000000 3.386690 0.000000 
#    z 0.000000 0.000000 3.220370 
# 
# 
# High freq. dielectric constant tensor:
#      x y z
#    x 1.670330 0.000000 0.000000 
#    y 0.000000 1.690680 0.000000 
#    z 0.000000 0.000000 1.676870 
# 
# From -- ./inp_files/14898.got.cif
#   From: 2010.03.12/outbox.cif.g09.slc.cpg/sg53_8_cif.got.tgz:14898.got - 2010.04.16 14:36:59.
