data_PCOD8219800
_publ_section_title
;
Structure prediction by ZEFSAII (Michael W. Deem and Ramdas Pophale) SiO2 
 PCOD8219800
Probable space group: P M N A
;
_chemical_formula_sum "Si O2"
_cell_formula_units_Z 56
_cell_length_a 8.962463
_cell_length_b 20.800890
_cell_length_c 14.745575
_cell_angle_alpha 90.000000
_cell_angle_beta 90.000000
_cell_angle_gamma 90.000000
_cell_volume 2748.976363
_symmetry_space_group_name_H-M "P M N A"
_symmetry_group_IT_number 53
_symmetry_cell_setting 'orthorhombic'
loop_
_space_group_symop_operation_xyz
x,y,z
1/2-x,-y,1/2+z
x,-y,-z
1/2-x,y,1/2-z
-x,-y,-z
1/2+x,y,1/2-z
-x,y,z
1/2+x,-y,1/2+z
loop_
_atom_site_type_symbol
_atom_site_label
_atom_site_fract_x
_atom_site_fract_y
_atom_site_fract_z
Si Si1 0.324680 0.598722 0.979389
Si Si2 0.174598 0.267271 0.027560
Si Si3 0.666366 0.087077 0.904347
Si Si4 0.825580 0.793229 0.163386
Si Si5 0.174351 0.517285 0.348610
Si Si6 0.333847 0.850849 0.900905
Si Si7 0.323295 0.027450 0.339927
O O1 0.500000 0.613980 0.979934
O O2 0.276788 0.572446 0.079168
O O3 0.231294 0.661399 0.955013
O O4 0.285457 0.549525 0.898263
O O5 0.258191 0.219262 0.096678
O O6 0.000000 0.262451 0.047663
O O7 0.212903 0.248730 0.924443
O O8 0.500000 0.074252 0.865604
O O9 0.757297 0.135414 0.840577
O O10 0.756345 0.019898 0.916686
O O11 0.654131 0.119998 0.000496
O O12 0.750000 0.758080 0.250000
O O13 0.000000 0.799593 0.178863
O O14 0.250000 0.524692 0.250000
O O15 0.000000 0.521942 0.330349
O O16 0.500000 0.845546 0.857815
O O17 0.230133 0.898863 0.844339
O O18 0.250000 0.996916 0.250000
O O19 0.500000 0.025265 0.340860
#
# Coordination Sequence:
#
# PCOD8219800 Si02
#       7
#     8   8   8   8   8   8   8
#     4   9  19  37  58  82 116 154 187 224 274 328
#     4  10  21  36  55  80 108 142 184 226 267 317
#     4  10  20  35  55  77 102 134 173 218 272 330
#     4  10  20  33  49  73 106 140 178 224 274 328
#     4   9  19  36  59  87 118 151 187 227 272 322
#     4  10  21  38  58  78 103 137 176 218 267 323
#     4  12  24  37  54  76 104 135 172 221 273 323
#
# _framework density 20.371220000000001
#
# number of rings (size 3 to 8) (size 9 to 14) (size 15 to 20)
#    0.000    2.000    0.000    4.714    0.000    6.857 
#    0.000    5.000    0.000    1.714    0.000    0.000 
#    0.000    0.000    0.000    0.000    0.000    0.000 
#
# Total GULP energy -694209.327926 kJ/mol
# GULP energy per Si atom -12396.595142 kJ/mol
# Density = 2.032485 g / cm^3
# Si number density = 20.371220 Si / 1000 Ang^3
#
#
#
# Elastic Constant Matrix: (Units=GPa)
#
#
# Indices 1 2 3 4 5 6 
#
# 1 121.1594 42.9225 14.4324 0.0000 0.0000 0.0000
# 2 42.9225 117.3044 4.1671 0.0000 0.0000 0.0000
# 3 14.4324 4.1671 43.5306 0.0000 0.0000 0.0000
# 4 0.0000 0.0000 0.0000 15.6287 0.0000 0.0000
# 5 0.0000 0.0000 0.0000 0.0000 28.5532 0.0000
# 6 0.0000 0.0000 0.0000 0.0000 0.0000 33.6872
#
#
#
# Elastic Compliance Matrix: (Units=1/GPa)
#
#
# Indices 1 2 3 4 5 6 
#
# 1 0.009841 -0.003497 -0.002928 0.000000 0.000000 0.000000
# 2 -0.003497 0.009797 0.000222 0.000000 0.000000 0.000000
# 3 -0.002928 0.000222 0.023922 0.000000 0.000000 0.000000
# 4 0.000000 0.000000 0.000000 0.063985 0.000000 0.000000
# 5 0.000000 0.000000 0.000000 0.000000 0.035022 0.000000
# 6 0.000000 0.000000 0.000000 0.000000 0.000000 0.029685
#
#
# Mechanical properties :
#
#
# Convention : Reuss Voigt Hill
#
# Bulk Modulus (GPa) = 32.09981 45.00427 38.55204
# Shear Modulus (GPa) = 25.63538 30.27197 27.95367
#
# Velocity S-wave (km/s) = 3.55126 3.85907 3.70836
# Velocity P-wave (km/s) = 5.71024 6.48048 6.10752
#
# Compressibility (1/GPa) = 0.03115283
#
# Stress axis : x y z
#
# Youngs Moduli (GPa) = 101.61340 102.07709 41.80266
#
# Poissons Ratio (x) = 0.35696 0.12240
# Poissons Ratio (y) = 0.35534 -0.00926
# Poissons Ratio (z) = 0.29753 -0.02262
#
# Static dielectric constant tensor:
#      x y z
#    x 3.877680 0.000000 0.000000 
#    y 0.000000 3.642480 0.000000 
#    z 0.000000 0.000000 3.757520 
# 
# 
# High freq. dielectric constant tensor:
#      x y z
#    x 1.802690 0.000000 0.000000 
#    y 0.000000 1.788050 0.000000 
#    z 0.000000 0.000000 1.788900 
# 
# From -- ./inp_files/20508.got.cif
#   From: 2010.03.12/outbox.cif.g09.slc.cpg/sg53_11_cif.got.tgz:20508.got - 2010.04.16 14:36:59.
