data_PCOD8219011
_publ_section_title
;
Structure prediction by ZEFSAII (Michael W. Deem and Ramdas Pophale) SiO2 
 PCOD8219011
Probable space group: P M N A
;
_chemical_formula_sum "Si O2"
_cell_formula_units_Z 52
_cell_length_a 14.418058
_cell_length_b 8.897439
_cell_length_c 21.598715
_cell_angle_alpha 90.000000
_cell_angle_beta 90.000000
_cell_angle_gamma 90.000000
_cell_volume 2770.765053
_symmetry_space_group_name_H-M "P M N A"
_symmetry_group_IT_number 53
_symmetry_cell_setting 'orthorhombic'
loop_
_space_group_symop_operation_xyz
x,y,z
1/2-x,-y,1/2+z
x,-y,-z
1/2-x,y,1/2-z
-x,-y,-z
1/2+x,y,1/2-z
-x,y,z
1/2+x,-y,1/2+z
loop_
_atom_site_type_symbol
_atom_site_label
_atom_site_fract_x
_atom_site_fract_y
_atom_site_fract_z
Si Si1 0.223014 0.029069 0.352010
Si Si2 0.602899 0.654306 0.315048
Si Si3 0.832827 0.500000 0.500000
Si Si4 0.394680 0.533351 0.191275
Si Si5 0.263292 0.703083 0.102031
Si Si6 0.397377 0.721084 0.897778
Si Si7 0.606801 0.991848 0.270492
O O1 0.185540 0.157402 0.399272
O O2 0.144921 0.013691 0.298835
O O3 0.323162 0.069430 0.320843
O O4 0.232907 0.883797 0.396485
O O5 0.500000 0.615716 0.337460
O O6 0.639631 0.537967 0.262640
O O7 0.664670 0.640660 0.375588
O O8 0.610325 0.816197 0.283520
O O9 0.773638 0.629604 0.465598
O O10 0.893053 0.593605 0.549091
O O11 0.500000 0.591889 0.190132
O O12 0.341440 0.650318 0.148951
O O13 0.386069 0.362756 0.168073
O O14 0.500000 0.795727 0.902871
O O15 0.500000 0.052918 0.276413
#
# Coordination Sequence:
#
# PCOD8219011 Si02
#       7
#     8   8   4   8   8   8   8
#     4  10  19  32  55  82 108 143 177 218 274 323
#     4   9  16  30  55  82 105 140 178 213 266 330
#     4  10  23  40  53  72 106 152 189 230 271 306
#     4   9  17  30  52  79 108 138 169 212 270 330
#     4  10  19  34  54  76 107 143 185 224 264 320
#     4  10  21  37  54  79 110 141 182 225 270 322
#     4   9  17  31  52  84 118 137 165 213 271 335
#
# _framework density 18.767379999999999
#
# number of rings (size 3 to 8) (size 9 to 14) (size 15 to 20)
#    0.000    2.462    1.538    1.154    0.000    1.846 
#   11.077    1.154    0.000    0.923    0.000    4.308 
#    0.000    0.000    0.000    0.000    0.000    0.000 
#
# Total GULP energy -644347.983494 kJ/mol
# GULP energy per Si atom -12391.307375 kJ/mol
# Density = 1.872466 g / cm^3
# Si number density = 18.767380 Si / 1000 Ang^3
#
#
#
# Elastic Constant Matrix: (Units=GPa)
#
#
# Indices 1 2 3 4 5 6 
#
# 1 107.1588 34.6937 43.9944 0.0000 0.0000 0.0000
# 2 34.6937 65.6658 40.2909 0.0000 0.0000 0.0000
# 3 43.9944 40.2909 58.5203 0.0000 0.0000 0.0000
# 4 0.0000 0.0000 0.0000 30.5063 0.0000 0.0000
# 5 0.0000 0.0000 0.0000 0.0000 19.5351 0.0000
# 6 0.0000 0.0000 0.0000 0.0000 0.0000 21.0957
#
#
#
# Elastic Compliance Matrix: (Units=1/GPa)
#
#
# Indices 1 2 3 4 5 6 
#
# 1 0.013592 -0.001578 -0.009131 0.000000 0.000000 0.000000
# 2 -0.001578 0.026551 -0.017093 0.000000 0.000000 0.000000
# 3 -0.009131 -0.017093 0.035722 0.000000 0.000000 0.000000
# 4 0.000000 0.000000 0.000000 0.032780 0.000000 0.000000
# 5 0.000000 0.000000 0.000000 0.000000 0.051190 0.000000
# 6 0.000000 0.000000 0.000000 0.000000 0.000000 0.047403
#
#
# Mechanical properties :
#
#
# Convention : Reuss Voigt Hill
#
# Bulk Modulus (GPa) = 49.36369 52.14479 50.75424
# Shear Modulus (GPa) = 18.54626 21.71848 20.13237
#
# Velocity S-wave (km/s) = 3.14700 3.40552 3.27881
# Velocity P-wave (km/s) = 6.29006 6.58092 6.43714
#
# Compressibility (1/GPa) = 0.02025780
#
# Stress axis : x y z
#
# Youngs Moduli (GPa) = 73.57327 37.66393 27.99418
#
# Poissons Ratio (x) = 0.05944 0.25563
# Poissons Ratio (y) = 0.11612 0.47852
# Poissons Ratio (z) = 0.67183 0.64381
#
# Static dielectric constant tensor:
#      x y z
#    x 3.704430 0.000000 0.000000 
#    y 0.000000 3.305170 0.000000 
#    z 0.000000 0.000000 3.299300 
# 
# 
# High freq. dielectric constant tensor:
#      x y z
#    x 1.731610 0.000000 0.000000 
#    y 0.000000 1.713600 0.000000 
#    z 0.000000 0.000000 1.703800 
# 
# From -- ./inp_files/32376.got.cif
#   From: 2010.03.12/outbox.cif.g09.slc.cpg/sg53_17_cif.got.tgz:32376.got - 2010.04.16 14:36:59.
