data_PCOD8219042
_publ_section_title
;
Structure prediction by ZEFSAII (Michael W. Deem and Ramdas Pophale) SiO2 
 PCOD8219042
Probable space group: P M N A
;
_chemical_formula_sum "Si O2"
_cell_formula_units_Z 64
_cell_length_a 17.885616
_cell_length_b 12.969827
_cell_length_c 14.743830
_cell_angle_alpha 90.000000
_cell_angle_beta 90.000000
_cell_angle_gamma 90.000000
_cell_volume 3420.175568
_symmetry_space_group_name_H-M "P M N A"
_symmetry_group_IT_number 53
_symmetry_cell_setting 'orthorhombic'
loop_
_space_group_symop_operation_xyz
x,y,z
1/2-x,-y,1/2+z
x,-y,-z
1/2-x,y,1/2-z
-x,-y,-z
1/2+x,y,1/2-z
-x,y,z
1/2+x,-y,1/2+z
loop_
_atom_site_type_symbol
_atom_site_label
_atom_site_fract_x
_atom_site_fract_y
_atom_site_fract_z
Si Si1 0.417104 0.830546 0.681006
Si Si2 0.913873 0.485275 0.213260
Si Si3 0.794152 0.961272 0.903199
Si Si4 0.086664 0.314389 0.348450
Si Si5 0.728480 0.181178 0.652094
Si Si6 0.866253 0.345601 0.061615
Si Si7 0.085143 0.692004 0.130985
Si Si8 0.215609 0.761763 0.533374
O O1 0.500000 0.877982 0.687502
O O2 0.359869 0.922271 0.662057
O O3 0.396011 0.772277 0.773608
O O4 0.414672 0.749682 0.598956
O O5 0.890043 0.427013 0.306694
O O6 0.869442 0.443681 0.126496
O O7 0.901471 0.609191 0.213328
O O8 0.000000 0.456633 0.196547
O O9 0.731373 0.873723 0.920825
O O10 0.759260 0.058334 0.850938
O O11 0.826982 0.000000 0.000000
O O12 0.136430 0.285756 0.435779
O O13 0.000000 0.314065 0.378795
O O14 0.750000 0.225033 0.750000
O O15 0.641582 0.211529 0.635701
O O16 0.782808 0.230273 0.576097
O O17 0.779210 0.317156 0.062876
O O18 0.899244 0.369713 0.962455
O O19 0.000000 0.733441 0.135177
#
# Coordination Sequence:
#
# PCOD8219042 Si02
#       8
#     8   8   8   8   8   8   8   8
#     4   9  17  27  45  78 111 137 173 218 265 320
#     4   9  17  29  49  79 110 139 173 213 262 315
#     4   9  19  32  51  75 101 139 175 216 269 322
#     4   9  18  33  53  79 108 136 175 226 271 314
#     4  10  22  38  53  73 104 140 179 222 263 318
#     4   9  16  27  48  79 109 139 170 209 271 323
#     4  10  19  33  52  73 106 146 179 214 261 321
#     4   9  19  35  54  78 104 134 177 219 273 325
#
# _framework density 18.712489999999999
#
# number of rings (size 3 to 8) (size 9 to 14) (size 15 to 20)
#    0.000    2.750    0.000    3.000    1.750    5.750 
#    2.250    0.625    0.000    3.375    0.000    2.625 
#    0.000    0.000    0.000    0.000    0.000    0.000 
#
# Total GULP energy -793191.564130 kJ/mol
# GULP energy per Si atom -12393.618190 kJ/mol
# Density = 1.866990 g / cm^3
# Si number density = 18.712490 Si / 1000 Ang^3
#
#
#
# Elastic Constant Matrix: (Units=GPa)
#
#
# Indices 1 2 3 4 5 6 
#
# 1 78.8843 23.1383 48.4610 0.0000 0.0000 0.0000
# 2 23.1383 57.2236 25.5275 0.0000 0.0000 0.0000
# 3 48.4610 25.5275 92.9459 0.0000 0.0000 0.0000
# 4 0.0000 0.0000 0.0000 19.8201 0.0000 0.0000
# 5 0.0000 0.0000 0.0000 0.0000 25.9068 0.0000
# 6 0.0000 0.0000 0.0000 0.0000 0.0000 16.9758
#
#
#
# Elastic Compliance Matrix: (Units=1/GPa)
#
#
# Indices 1 2 3 4 5 6 
#
# 1 0.019345 -0.003787 -0.009046 0.000000 0.000000 0.000000
# 2 -0.003787 0.020657 -0.003699 0.000000 0.000000 0.000000
# 3 -0.009046 -0.003699 0.016491 0.000000 0.000000 0.000000
# 4 0.000000 0.000000 0.000000 0.050454 0.000000 0.000000
# 5 0.000000 0.000000 0.000000 0.000000 0.038600 0.000000
# 6 0.000000 0.000000 0.000000 0.000000 0.000000 0.058907
#
#
# Mechanical properties :
#
#
# Convention : Reuss Voigt Hill
#
# Bulk Modulus (GPa) = 42.68166 47.03414 44.85790
# Shear Modulus (GPa) = 20.38093 21.33567 20.85830
#
# Velocity S-wave (km/s) = 3.30383 3.38032 3.34229
# Velocity P-wave (km/s) = 6.11657 6.35808 6.23849
#
# Compressibility (1/GPa) = 0.02342927
#
# Stress axis : x y z
#
# Youngs Moduli (GPa) = 51.69341 48.41081 60.63737
#
# Poissons Ratio (x) = 0.18331 0.54854
# Poissons Ratio (y) = 0.19574 0.22430
# Poissons Ratio (z) = 0.46763 0.17907
#
# Static dielectric constant tensor:
#      x y z
#    x 3.168440 0.000000 0.000000 
#    y 0.000000 3.358780 0.000000 
#    z 0.000000 0.000000 3.309650 
# 
# 
# High freq. dielectric constant tensor:
#      x y z
#    x 1.705150 0.000000 0.000000 
#    y 0.000000 1.717740 0.000000 
#    z 0.000000 0.000000 1.709470 
# 
# From -- ./inp_files/23937.got.cif
#   From: 2010.03.12/outbox.cif.g09.slc.cpg/sg53_12_cif.got.tgz:23937.got - 2010.04.16 14:36:59.
