data_PCOD8219690
_publ_section_title
;
Structure prediction by ZEFSAII (Michael W. Deem and Ramdas Pophale) SiO2 
 PCOD8219690
Probable space group: P M N A
;
_chemical_formula_sum "Si O2"
_cell_formula_units_Z 64
_cell_length_a 25.072192
_cell_length_b 9.422571
_cell_length_c 15.515194
_cell_angle_alpha 90.000000
_cell_angle_beta 90.000000
_cell_angle_gamma 90.000000
_cell_volume 3665.379392
_symmetry_space_group_name_H-M "P M N A"
_symmetry_group_IT_number 53
_symmetry_cell_setting 'orthorhombic'
loop_
_space_group_symop_operation_xyz
x,y,z
1/2-x,-y,1/2+z
x,-y,-z
1/2-x,y,1/2-z
-x,-y,-z
1/2+x,y,1/2-z
-x,y,z
1/2+x,-y,1/2+z
loop_
_atom_site_type_symbol
_atom_site_label
_atom_site_fract_x
_atom_site_fract_y
_atom_site_fract_z
Si Si1 0.781548 0.985562 0.828998
Si Si2 0.769931 0.361522 0.548145
Si Si3 0.646835 0.779766 0.760125
Si Si4 0.939967 0.801819 0.059689
Si Si5 0.690807 0.525234 0.220806
Si Si6 0.686287 0.114859 0.063704
Si Si7 0.335292 0.740187 0.364417
Si Si8 0.940488 0.108913 0.132230
O O1 0.750000 0.060601 0.750000
O O2 0.803626 0.833773 0.797331
O O3 0.742493 0.956535 0.908626
O O4 0.831093 0.089243 0.850174
O O5 0.750094 0.500000 0.500000
O O6 0.808505 0.408833 0.625708
O O7 0.803933 0.261632 0.485589
O O8 0.715568 0.287641 0.576134
O O9 0.652101 0.610753 0.772105
O O10 0.648581 0.855440 0.854022
O O11 0.593737 0.825133 0.709933
O O12 0.892320 0.700290 0.092972
O O13 0.000000 0.735764 0.067376
O O14 0.937418 0.939901 0.120570
O O15 0.925035 0.827426 0.960497
O O16 0.750000 0.479841 0.250000
O O17 0.666997 0.650179 0.278157
O O18 0.658364 0.000000 0.000000
O O19 0.000000 0.154094 0.157023
#
# Coordination Sequence:
#
# PCOD8219690 Si02
#       8
#     8   8   8   8   8   8   8   8
#     4  10  20  31  48  76 107 136 179 224 258 312
#     4  11  22  35  50  75 117 147 180 214 270 330
#     4  11  21  35  55  76 108 144 181 222 275 321
#     4   9  19  35  54  83 110 138 183 232 274 315
#     4  10  22  36  50  76 115 153 180 214 267 336
#     4  11  22  33  52  82 107 139 183 229 264 320
#     4  11  21  33  54  77 108 152 180 220 271 320
#     4   9  19  35  58  81 108 139 180 232 279 321
#
# _framework density 17.460675999999999
#
# number of rings (size 3 to 8) (size 9 to 14) (size 15 to 20)
#    0.000    1.750    3.750    3.000    5.250    0.000 
#    0.000    0.625    0.000    2.250    0.000    2.625 
#    0.000    0.000    0.000    0.000    0.000    0.000 
#
# Total GULP energy -793214.654201 kJ/mol
# GULP energy per Si atom -12393.978972 kJ/mol
# Density = 1.742093 g / cm^3
# Si number density = 17.460676 Si / 1000 Ang^3
#
#
#
# Elastic Constant Matrix: (Units=GPa)
#
#
# Indices 1 2 3 4 5 6 
#
# 1 85.1721 23.7471 49.1171 0.0000 0.0000 0.0000
# 2 23.7471 78.7106 39.9115 0.0000 0.0000 0.0000
# 3 49.1171 39.9115 108.6426 0.0000 0.0000 0.0000
# 4 0.0000 0.0000 0.0000 24.1870 0.0000 0.0000
# 5 0.0000 0.0000 0.0000 0.0000 7.7172 0.0000
# 6 0.0000 0.0000 0.0000 0.0000 0.0000 12.3759
#
#
#
# Elastic Compliance Matrix: (Units=1/GPa)
#
#
# Indices 1 2 3 4 5 6 
#
# 1 0.016011 -0.001426 -0.006715 0.000000 0.000000 0.000000
# 2 -0.001426 0.015740 -0.005138 0.000000 0.000000 0.000000
# 3 -0.006715 -0.005138 0.014128 0.000000 0.000000 0.000000
# 4 0.000000 0.000000 0.000000 0.041345 0.000000 0.000000
# 5 0.000000 0.000000 0.000000 0.000000 0.129581 0.000000
# 6 0.000000 0.000000 0.000000 0.000000 0.000000 0.080802
#
#
# Mechanical properties :
#
#
# Convention : Reuss Voigt Hill
#
# Bulk Modulus (GPa) = 51.75419 55.34188 53.54804
# Shear Modulus (GPa) = 15.12388 19.50599 17.31494
#
# Velocity S-wave (km/s) = 2.94627 3.34599 3.15247
# Velocity P-wave (km/s) = 6.42485 6.83312 6.63213
#
# Compressibility (1/GPa) = 0.01932211
#
# Stress axis : x y z
#
# Youngs Moduli (GPa) = 62.45851 63.53192 70.78331
#
# Poissons Ratio (x) = 0.09058 0.47528
# Poissons Ratio (y) = 0.08905 0.36367
# Poissons Ratio (z) = 0.41939 0.32642
#
# Static dielectric constant tensor:
#      x y z
#    x 3.063720 0.000000 0.000000 
#    y 0.000000 3.171920 0.000000 
#    z 0.000000 0.000000 3.376360 
# 
# 
# High freq. dielectric constant tensor:
#      x y z
#    x 1.640330 0.000000 0.000000 
#    y 0.000000 1.671660 0.000000 
#    z 0.000000 0.000000 1.682030 
# 
# From -- ./inp_files/24734.got.cif
#   From: 2010.03.12/outbox.cif.g09.slc.cpg/sg53_13_cif.got.tgz:24734.got - 2010.04.16 14:36:59.
