data_PCOD8219595
_publ_section_title
;
Structure prediction by ZEFSAII (Michael W. Deem and Ramdas Pophale) SiO2 
 PCOD8219595
Probable space group: P M N A
;
_chemical_formula_sum "Si O2"
_cell_formula_units_Z 64
_cell_length_a 8.932954
_cell_length_b 11.906328
_cell_length_c 30.691397
_cell_angle_alpha 90.000000
_cell_angle_beta 90.000000
_cell_angle_gamma 90.000000
_cell_volume 3264.296482
_symmetry_space_group_name_H-M "P M N A"
_symmetry_group_IT_number 53
_symmetry_cell_setting 'orthorhombic'
loop_
_space_group_symop_operation_xyz
x,y,z
1/2-x,-y,1/2+z
x,-y,-z
1/2-x,y,1/2-z
-x,-y,-z
1/2+x,y,1/2-z
-x,y,z
1/2+x,-y,1/2+z
loop_
_atom_site_type_symbol
_atom_site_label
_atom_site_fract_x
_atom_site_fract_y
_atom_site_fract_z
Si Si1 0.676240 0.505769 0.049666
Si Si2 0.670161 0.274252 0.580216
Si Si3 0.177729 0.038557 0.954076
Si Si4 0.323228 0.499082 0.294508
Si Si5 0.175249 0.637919 0.878320
Si Si6 0.824303 0.101035 0.127990
Si Si7 0.669836 0.749035 0.317884
Si Si8 0.676395 0.028202 0.793624
O O1 0.500000 0.491158 0.051635
O O2 0.720373 0.624494 0.069954
O O3 0.747741 0.406123 0.077822
O O4 0.735044 0.500000 0.000000
O O5 0.500000 0.306816 0.567262
O O6 0.729248 0.166096 0.554049
O O7 0.678046 0.243186 0.630474
O O8 0.000000 0.033034 0.955371
O O9 0.235101 0.955106 0.916509
O O10 0.247753 0.000000 0.000000
O O11 0.250000 0.453325 0.250000
O O12 0.500000 0.486328 0.290580
O O13 0.263803 0.426389 0.335431
O O14 0.274465 0.627682 0.301872
O O15 0.213495 0.768074 0.873459
O O16 0.000000 0.615153 0.883629
O O17 0.734616 0.045812 0.166921
O O18 0.000000 0.078243 0.135069
O O19 0.500000 0.772736 0.302260
O O20 0.779066 0.841275 0.297847
O O21 0.750000 0.978070 0.750000
O O22 0.500000 0.017833 0.790569
#
# Coordination Sequence:
#
# PCOD8219595 Si02
#       8
#     8   8   8   8   8   8   8   8
#     4  11  25  41  58  86 126 163 199 247 301 355
#     4  10  19  36  64  90 119 154 197 249 295 351
#     4   9  18  33  58  93 121 147 189 244 298 347
#     4  10  21  37  57  86 117 148 191 241 294 351
#     4  10  22  41  64  88 115 156 205 247 292 353
#     4  10  21  40  63  87 120 155 197 251 299 350
#     4  10  19  37  61  88 122 152 192 249 299 349
#     4  12  25  40  61  88 121 159 203 246 297 360
#
# _framework density 19.606064
#
# number of rings (size 3 to 8) (size 9 to 14) (size 15 to 20)
#    0.000    1.750    2.500    1.875    1.750    4.500 
#    0.000    1.250    0.000    0.750    0.000    0.000 
#    0.000    0.000    0.000    0.000    0.000    0.000 
#
# Total GULP energy -793817.619536 kJ/mol
# GULP energy per Si atom -12403.400305 kJ/mol
# Density = 1.956144 g / cm^3
# Si number density = 19.606064 Si / 1000 Ang^3
#
#
#
# Elastic Constant Matrix: (Units=GPa)
#
#
# Indices 1 2 3 4 5 6 
#
# 1 66.1409 43.8841 51.3870 0.0000 0.0000 0.0000
# 2 43.8841 105.4496 52.5759 0.0000 0.0000 0.0000
# 3 51.3870 52.5759 139.0835 0.0000 0.0000 0.0000
# 4 0.0000 0.0000 0.0000 21.1331 0.0000 0.0000
# 5 0.0000 0.0000 0.0000 0.0000 28.6284 0.0000
# 6 0.0000 0.0000 0.0000 0.0000 0.0000 15.4971
#
#
#
# Elastic Compliance Matrix: (Units=1/GPa)
#
#
# Indices 1 2 3 4 5 6 
#
# 1 0.024898 -0.007116 -0.006509 0.000000 0.000000 0.000000
# 2 -0.007116 0.013720 -0.002557 0.000000 0.000000 0.000000
# 3 -0.006509 -0.002557 0.010561 0.000000 0.000000 0.000000
# 4 0.000000 0.000000 0.000000 0.047319 0.000000 0.000000
# 5 0.000000 0.000000 0.000000 0.000000 0.034930 0.000000
# 6 0.000000 0.000000 0.000000 0.000000 0.000000 0.064528
#
#
# Mechanical properties :
#
#
# Convention : Reuss Voigt Hill
#
# Bulk Modulus (GPa) = 59.47267 67.37421 63.42344
# Shear Modulus (GPa) = 21.37432 23.90686 22.64059
#
# Velocity S-wave (km/s) = 3.30538 3.49572 3.40188
# Velocity P-wave (km/s) = 6.70575 7.12264 6.91734
#
# Compressibility (1/GPa) = 0.01681445
#
# Stress axis : x y z
#
# Youngs Moduli (GPa) = 40.16416 72.88835 94.68485
#
# Poissons Ratio (x) = 0.51869 0.61629
# Poissons Ratio (y) = 0.28582 0.24211
# Poissons Ratio (z) = 0.26142 0.18638
#
# Static dielectric constant tensor:
#      x y z
#    x 3.314620 0.000000 0.000000 
#    y 0.000000 3.645810 0.000000 
#    z 0.000000 0.000000 3.823760 
# 
# 
# High freq. dielectric constant tensor:
#      x y z
#    x 1.737330 0.000000 0.000000 
#    y 0.000000 1.769060 0.000000 
#    z 0.000000 0.000000 1.781000 
# 
# From -- ./inp_files/38249.got.cif
#   From: 2010.03.12/outbox.cif.g09.slc.cpg/sg53_20_cif.got.tgz:38249.got - 2010.04.16 14:36:59.
