data_PCOD8219507
_publ_section_title
;
Structure prediction by ZEFSAII (Michael W. Deem and Ramdas Pophale) SiO2 
 PCOD8219507
Probable space group: P M N A
;
_chemical_formula_sum "Si O2"
_cell_formula_units_Z 48
_cell_length_a 17.099873
_cell_length_b 14.249331
_cell_length_c 9.713381
_cell_angle_alpha 90.000000
_cell_angle_beta 90.000000
_cell_angle_gamma 90.000000
_cell_volume 2366.779417
_symmetry_space_group_name_H-M "P M N A"
_symmetry_group_IT_number 53
_symmetry_cell_setting 'orthorhombic'
loop_
_space_group_symop_operation_xyz
x,y,z
1/2-x,-y,1/2+z
x,-y,-z
1/2-x,y,1/2-z
-x,-y,-z
1/2+x,y,1/2-z
-x,y,z
1/2+x,-y,1/2+z
loop_
_atom_site_type_symbol
_atom_site_label
_atom_site_fract_x
_atom_site_fract_y
_atom_site_fract_z
Si Si1 0.093118 0.441528 0.129963
Si Si2 0.093163 0.234396 0.197439
Si Si3 0.407948 0.057383 0.871173
Si Si4 0.914233 0.436945 0.630346
Si Si5 0.407180 0.749761 0.012308
Si Si6 0.678215 0.951796 0.645927
O O1 0.120866 0.332976 0.128712
O O2 0.130743 0.500310 0.256586
O O3 0.000000 0.439262 0.143885
O O4 0.122801 0.500000 0.000000
O O5 0.121557 0.234960 0.356239
O O6 0.137375 0.149295 0.120183
O O7 0.000000 0.218944 0.184514
O O8 0.500000 0.048024 0.875764
O O9 0.380815 0.164335 0.891968
O O10 0.381484 0.021123 0.723010
O O11 0.371945 0.000000 0.000000
O O12 0.926762 0.500000 0.500000
O O13 0.868978 0.342061 0.584528
O O14 0.000000 0.408818 0.690216
O O15 0.500000 0.736375 0.004730
O O16 0.750000 0.939577 0.750000
O O17 0.701149 0.000000 0.500000
#
# Coordination Sequence:
#
# PCOD8219507 Si02
#       6
#     8   8   8   8   8   8
#     4   9  17  28  47  81 123 152 178 227 285 339
#     4  10  19  35  60  88 117 154 191 235 297 354
#     4  10  19  35  60  88 118 152 190 239 292 348
#     4   9  14  23  41  72 110 146 181 215 261 329
#     4   9  16  27  52  85 117 150 185 226 279 345
#     4  12  27  43  60  83 113 153 200 250 299 356
#
# _framework density 20.280722999999998
#
# number of rings (size 3 to 8) (size 9 to 14) (size 15 to 20)
#    0.000    2.167    3.333    1.000    0.000    2.667 
#    0.000    3.333    0.000    0.000    4.333    0.000 
#    0.000    0.000    0.000    0.000    0.000    0.000 
#
# Total GULP energy -594765.183265 kJ/mol
# GULP energy per Si atom -12390.941318 kJ/mol
# Density = 2.023456 g / cm^3
# Si number density = 20.280723 Si / 1000 Ang^3
#
#
#
# Elastic Constant Matrix: (Units=GPa)
#
#
# Indices 1 2 3 4 5 6 
#
# 1 20.6415 43.7595 23.6434 0.0000 0.0000 0.0000
# 2 43.7595 173.3705 62.5610 0.0000 0.0000 0.0000
# 3 23.6434 62.5610 115.0959 0.0000 0.0000 0.0000
# 4 0.0000 0.0000 0.0000 40.0800 0.0000 0.0000
# 5 0.0000 0.0000 0.0000 0.0000 14.7660 0.0000
# 6 0.0000 0.0000 0.0000 0.0000 0.0000 6.5628
#
#
#
# Elastic Compliance Matrix: (Units=1/GPa)
#
#
# Indices 1 2 3 4 5 6 
#
# 1 0.111984 -0.024835 -0.009505 0.000000 0.000000 0.000000
# 2 -0.024835 0.012683 -0.001792 0.000000 0.000000 0.000000
# 3 -0.009505 -0.001792 0.011615 0.000000 0.000000 0.000000
# 4 0.000000 0.000000 0.000000 0.024950 0.000000 0.000000
# 5 0.000000 0.000000 0.000000 0.000000 0.067723 0.000000
# 6 0.000000 0.000000 0.000000 0.000000 0.000000 0.152375
#
#
# Mechanical properties :
#
#
# Convention : Reuss Voigt Hill
#
# Bulk Modulus (GPa) = 15.62078 63.22619 39.42348
# Shear Modulus (GPa) = 10.52778 24.22469 17.37623
#
# Velocity S-wave (km/s) = 2.28085 3.45986 2.93027
# Velocity P-wave (km/s) = 3.82824 6.87052 5.56145
#
# Compressibility (1/GPa) = 0.06401730
#
# Stress axis : x y z
#
# Youngs Moduli (GPa) = 8.92988 78.84362 86.09488
#
# Poissons Ratio (x) = 1.95812 0.81830
# Poissons Ratio (y) = 0.22178 0.15431
# Poissons Ratio (z) = 0.08487 0.14131
#
# Static dielectric constant tensor:
#      x y z
#    x 3.099660 0.000000 0.000000 
#    y 0.000000 3.987480 0.000000 
#    z 0.000000 0.000000 3.635400 
# 
# 
# High freq. dielectric constant tensor:
#      x y z
#    x 1.726520 0.000000 0.000000 
#    y 0.000000 1.815000 0.000000 
#    z 0.000000 0.000000 1.782810 
# 
# From -- ./inp_files/9901.got.cif
#   From: 2010.03.12/outbox.cif.g09.slc.cpg/sg53_5_cif.got.tgz:9901.got - 2010.04.16 14:36:59.
