data_PCOD8219253
_publ_section_title
;
Structure prediction by ZEFSAII (Michael W. Deem and Ramdas Pophale) SiO2 
 PCOD8219253
Probable space group: P M N A
;
_chemical_formula_sum "Si O2"
_cell_formula_units_Z 64
_cell_length_a 8.932034
_cell_length_b 19.970220
_cell_length_c 19.818346
_cell_angle_alpha 90.000000
_cell_angle_beta 90.000000
_cell_angle_gamma 90.000000
_cell_volume 3535.091206
_symmetry_space_group_name_H-M "P M N A"
_symmetry_group_IT_number 53
_symmetry_cell_setting 'orthorhombic'
loop_
_space_group_symop_operation_xyz
x,y,z
1/2-x,-y,1/2+z
x,-y,-z
1/2-x,y,1/2-z
-x,-y,-z
1/2+x,y,1/2-z
-x,y,z
1/2+x,-y,1/2+z
loop_
_atom_site_type_symbol
_atom_site_label
_atom_site_fract_x
_atom_site_fract_y
_atom_site_fract_z
Si Si1 0.177354 0.936102 0.044660
Si Si2 0.824775 0.446610 0.946746
Si Si3 0.165272 0.554368 0.313629
Si Si4 0.677519 0.978813 0.180594
Si Si5 0.825770 0.866974 0.682569
Si Si6 0.831266 0.713390 0.316462
Si Si7 0.177351 0.706542 0.045146
Si Si8 0.177825 0.817022 0.537759
O O1 0.253215 0.938818 0.117989
O O2 0.000000 0.930426 0.053577
O O3 0.239438 0.871345 0.007567
O O4 0.223311 0.000000 0.000000
O O5 0.750728 0.471115 0.878522
O O6 0.779168 0.371049 0.966096
O O7 0.000000 0.451366 0.936378
O O8 0.764450 0.500000 0.000000
O O9 0.250000 0.523529 0.250000
O O10 0.161939 0.634097 0.309768
O O11 0.000000 0.524190 0.314684
O O12 0.750000 0.951359 0.250000
O O13 0.500000 0.967961 0.182465
O O14 0.722825 0.056301 0.171200
O O15 0.750000 0.836990 0.750000
O O16 0.777036 0.825815 0.616243
O O17 0.000000 0.861572 0.695248
O O18 0.750000 0.743580 0.250000
O O19 0.737157 0.733378 0.382741
O O20 0.000000 0.742755 0.321678
O O21 0.000000 0.718576 0.042103
O O22 0.261909 0.744845 0.985140
O O23 0.000000 0.823420 0.527925
#
# Coordination Sequence:
#
# PCOD8219253 Si02
#       8
#     8   8   8   8   8   8   8   8
#     4  11  22  35  54  80 107 138 176 217 261 309
#     4   9  18  33  53  76 104 137 173 215 264 315
#     4   9  16  26  44  71 101 131 166 208 252 299
#     4  10  19  34  54  78 108 141 178 220 266 313
#     4   9  19  33  53  78 103 133 172 216 261 308
#     4   9  16  28  47  71  99 133 170 209 251 300
#     4  10  20  34  52  77 106 138 176 217 262 315
#     4  11  22  37  55  78 108 142 176 216 266 316
#
# _framework density 18.104199000000001
#
# number of rings (size 3 to 8) (size 9 to 14) (size 15 to 20)
#    0.000    2.250    1.250    2.250    0.000    5.750 
#    0.000    0.625    0.000    0.750    0.000    1.750 
#    0.000    0.000    0.000    0.000    0.000    0.000 
#
# Total GULP energy -793606.726222 kJ/mol
# GULP energy per Si atom -12400.105097 kJ/mol
# Density = 1.806299 g / cm^3
# Si number density = 18.104199 Si / 1000 Ang^3
#
#
#
# Elastic Constant Matrix: (Units=GPa)
#
#
# Indices 1 2 3 4 5 6 
#
# 1 56.4210 31.4634 56.4537 0.0000 0.0000 0.0000
# 2 31.4634 54.6630 52.9111 0.0000 0.0000 0.0000
# 3 56.4537 52.9111 167.2416 0.0000 0.0000 0.0000
# 4 0.0000 0.0000 0.0000 27.0365 0.0000 0.0000
# 5 0.0000 0.0000 0.0000 0.0000 37.5734 0.0000
# 6 0.0000 0.0000 0.0000 0.0000 0.0000 24.2367
#
#
#
# Elastic Compliance Matrix: (Units=1/GPa)
#
#
# Indices 1 2 3 4 5 6 
#
# 1 0.030783 -0.011042 -0.006898 0.000000 0.000000 0.000000
# 2 -0.011042 0.030330 -0.005868 0.000000 0.000000 0.000000
# 3 -0.006898 -0.005868 0.010164 0.000000 0.000000 0.000000
# 4 0.000000 0.000000 0.000000 0.036987 0.000000 0.000000
# 5 0.000000 0.000000 0.000000 0.000000 0.026615 0.000000
# 6 0.000000 0.000000 0.000000 0.000000 0.000000 0.041260
#
#
# Mechanical properties :
#
#
# Convention : Reuss Voigt Hill
#
# Bulk Modulus (GPa) = 42.26272 62.22021 52.24147
# Shear Modulus (GPa) = 21.58512 26.93583 24.26048
#
# Velocity S-wave (km/s) = 3.45667 3.86141 3.66464
# Velocity P-wave (km/s) = 6.27107 7.37042 6.84286
#
# Compressibility (1/GPa) = 0.02366152
#
# Stress axis : x y z
#
# Youngs Moduli (GPa) = 32.48543 32.97104 98.38309
#
# Poissons Ratio (x) = 0.36406 0.67862
# Poissons Ratio (y) = 0.35869 0.57735
# Poissons Ratio (z) = 0.22408 0.19349
#
# Static dielectric constant tensor:
#      x y z
#    x 3.457940 0.000000 0.000000 
#    y 0.000000 3.071610 0.000000 
#    z 0.000000 0.000000 3.688880 
# 
# 
# High freq. dielectric constant tensor:
#      x y z
#    x 1.714720 0.000000 0.000000 
#    y 0.000000 1.656970 0.000000 
#    z 0.000000 0.000000 1.712400 
# 
# From -- ./inp_files/27066.got.cif
#   From: 2010.03.12/outbox.cif.g09.slc.cpg/sg53_14_cif.got.tgz:27066.got - 2010.04.16 14:36:59.
