data_PCOD8219081
_publ_section_title
;
Structure prediction by ZEFSAII (Michael W. Deem and Ramdas Pophale) SiO2 
 PCOD8219081
Probable space group: P M N A
;
_chemical_formula_sum "Si O2"
_cell_formula_units_Z 64
_cell_length_a 8.910334
_cell_length_b 25.811937
_cell_length_c 14.029102
_cell_angle_alpha 90.000000
_cell_angle_beta 90.000000
_cell_angle_gamma 90.000000
_cell_volume 3226.594974
_symmetry_space_group_name_H-M "P M N A"
_symmetry_group_IT_number 53
_symmetry_cell_setting 'orthorhombic'
loop_
_space_group_symop_operation_xyz
x,y,z
1/2-x,-y,1/2+z
x,-y,-z
1/2-x,y,1/2-z
-x,-y,-z
1/2+x,y,1/2-z
-x,y,z
1/2+x,-y,1/2+z
loop_
_atom_site_type_symbol
_atom_site_label
_atom_site_fract_x
_atom_site_fract_y
_atom_site_fract_z
Si Si1 0.664087 0.014032 0.109114
Si Si2 0.177560 0.676509 0.531927
Si Si3 0.828297 0.527202 0.151184
Si Si4 0.176586 0.415171 0.146275
Si Si5 0.322769 0.120693 0.037596
Si Si6 0.822630 0.359586 0.853161
Si Si7 0.176227 0.085732 0.844724
Si Si8 0.176879 0.222440 0.352742
O O1 0.500000 0.007382 0.159071
O O2 0.784745 0.975828 0.156204
O O3 0.718935 0.073921 0.111092
O O4 0.644323 0.000000 0.000000
O O5 0.242454 0.625896 0.581019
O O6 0.248179 0.680891 0.426221
O O7 0.228570 0.726547 0.591072
O O8 0.000000 0.672559 0.523913
O O9 0.750000 0.519789 0.250000
O O10 0.799874 0.472490 0.095810
O O11 0.782029 0.582396 0.104812
O O12 0.000000 0.532174 0.177805
O O13 0.250000 0.412624 0.250000
O O14 0.000000 0.402244 0.153948
O O15 0.500000 0.120598 0.016749
O O16 0.239822 0.114877 0.936887
O O17 0.267013 0.173236 0.086744
O O18 0.750000 0.351276 0.750000
O O19 0.000000 0.349737 0.847109
O O20 0.250000 0.110819 0.750000
O O21 0.000000 0.093414 0.841457
O O22 0.250000 0.222442 0.250000
O O23 0.000000 0.220641 0.338784
#
# Coordination Sequence:
#
# PCOD8219081 Si02
#       8
#     8   8   8   8   8   8   8   8
#     4   8  15  30  52  77 109 146 182 223 270 318
#     4  11  23  38  56  81 110 144 185 228 275 326
#     4   8  16  30  50  76 107 141 177 217 266 323
#     4  10  19  33  53  79 111 146 182 224 273 326
#     4   9  19  38  59  81 111 147 187 233 281 326
#     4  10  20  37  59  82 109 142 179 223 273 329
#     4  11  21  33  53  83 119 156 190 226 270 324
#     4  10  23  42  63  84 110 142 180 229 279 326
#
# _framework density 19.835152000000001
#
# number of rings (size 3 to 8) (size 9 to 14) (size 15 to 20)
#    0.000    2.375    0.000    3.375    0.000    6.750 
#    0.000    4.375    0.000    0.000    0.000    0.000 
#    0.000    0.000    0.000    0.000    0.000    0.000 
#
# Total GULP energy -793072.122878 kJ/mol
# GULP energy per Si atom -12391.751920 kJ/mol
# Density = 1.979001 g / cm^3
# Si number density = 19.835152 Si / 1000 Ang^3
#
#
#
# Elastic Constant Matrix: (Units=GPa)
#
#
# Indices 1 2 3 4 5 6 
#
# 1 89.0990 45.2907 57.4852 0.0000 0.0000 0.0000
# 2 45.2907 110.9923 73.4778 0.0000 0.0000 0.0000
# 3 57.4852 73.4778 118.3395 0.0000 0.0000 0.0000
# 4 0.0000 0.0000 0.0000 26.2405 0.0000 0.0000
# 5 0.0000 0.0000 0.0000 0.0000 33.3229 0.0000
# 6 0.0000 0.0000 0.0000 0.0000 0.0000 19.5639
#
#
#
# Elastic Compliance Matrix: (Units=1/GPa)
#
#
# Indices 1 2 3 4 5 6 
#
# 1 0.016732 -0.002457 -0.006602 0.000000 0.000000 0.000000
# 2 -0.002457 0.015658 -0.008529 0.000000 0.000000 0.000000
# 3 -0.006602 -0.008529 0.016953 0.000000 0.000000 0.000000
# 4 0.000000 0.000000 0.000000 0.038109 0.000000 0.000000
# 5 0.000000 0.000000 0.000000 0.000000 0.030009 0.000000
# 6 0.000000 0.000000 0.000000 0.000000 0.000000 0.051115
#
#
# Mechanical properties :
#
#
# Convention : Reuss Voigt Hill
#
# Bulk Modulus (GPa) = 70.58497 74.54869 72.56683
# Shear Modulus (GPa) = 23.98362 25.30391 24.64376
#
# Velocity S-wave (km/s) = 3.48105 3.57558 3.52863
# Velocity P-wave (km/s) = 7.19861 7.39676 7.29836
#
# Compressibility (1/GPa) = 0.01416732
#
# Stress axis : x y z
#
# Youngs Moduli (GPa) = 59.76547 63.86361 58.98574
#
# Poissons Ratio (x) = 0.15689 0.38945
# Poissons Ratio (y) = 0.14682 0.50309
# Poissons Ratio (z) = 0.39460 0.54469
#
# Static dielectric constant tensor:
#      x y z
#    x 3.560660 0.000000 0.000000 
#    y 0.000000 4.000780 0.000000 
#    z 0.000000 0.000000 3.512250 
# 
# 
# High freq. dielectric constant tensor:
#      x y z
#    x 1.772650 0.000000 0.000000 
#    y 0.000000 1.767380 0.000000 
#    z 0.000000 0.000000 1.769830 
# 
# From -- ./inp_files/21005.got.cif
#   From: 2010.03.12/outbox.cif.g09.slc.cpg/sg53_11_cif.got.tgz:21005.got - 2010.04.16 14:36:59.
