data_PCOD8219199
_publ_section_title
;
Structure prediction by ZEFSAII (Michael W. Deem and Ramdas Pophale) SiO2 
 PCOD8219199
Probable space group: P M N A
;
_chemical_formula_sum "Si O2"
_cell_formula_units_Z 56
_cell_length_a 8.603459
_cell_length_b 14.566410
_cell_length_c 22.552575
_cell_angle_alpha 90.000000
_cell_angle_beta 90.000000
_cell_angle_gamma 90.000000
_cell_volume 2826.322781
_symmetry_space_group_name_H-M "P M N A"
_symmetry_group_IT_number 53
_symmetry_cell_setting 'orthorhombic'
loop_
_space_group_symop_operation_xyz
x,y,z
1/2-x,-y,1/2+z
x,-y,-z
1/2-x,y,1/2-z
-x,-y,-z
1/2+x,y,1/2-z
-x,y,z
1/2+x,-y,1/2+z
loop_
_atom_site_type_symbol
_atom_site_label
_atom_site_fract_x
_atom_site_fract_y
_atom_site_fract_z
Si Si1 0.822490 0.394795 0.483903
Si Si2 0.817956 0.890590 0.449462
Si Si3 0.319204 0.709293 0.412899
Si Si4 0.817860 0.575314 0.188888
Si Si5 0.180057 0.388033 0.349066
Si Si6 0.683034 0.083931 0.425911
Si Si7 0.182401 0.814920 0.687575
O O1 0.801813 0.500000 0.500000
O O2 0.706683 0.335229 0.523080
O O3 0.769186 0.377817 0.417016
O O4 0.000000 0.362160 0.494429
O O5 0.775405 0.804047 0.408441
O O6 0.768123 0.870376 0.517477
O O7 0.000000 0.911202 0.446944
O O8 0.726320 0.976909 0.422872
O O9 0.500000 0.729947 0.403558
O O10 0.251509 0.638990 0.363831
O O11 0.750000 0.613797 0.250000
O O12 0.775768 0.468890 0.181250
O O13 0.000000 0.584389 0.190652
O O14 0.218669 0.293311 0.316380
O O15 0.000000 0.414935 0.344618
O O16 0.500000 0.095290 0.434421
O O17 0.734925 0.132485 0.365736
O O18 0.250000 0.851168 0.750000
O O19 0.000000 0.835061 0.684098
#
# Coordination Sequence:
#
# PCOD8219199 Si02
#       7
#     8   8   8   8   8   8   8
#     4  10  19  33  56  85 117 155 194 237 292 350
#     4  11  22  39  65  93 121 155 193 239 296 361
#     4  11  23  38  57  86 119 153 194 244 294 346
#     4  11  24  39  57  79 111 153 198 243 288 340
#     4  10  21  37  58  84 117 155 197 241 288 347
#     4  11  22  40  65  93 123 154 191 243 299 358
#     4  11  23  39  59  87 122 162 206 250 299 356
#
# _framework density 19.813731000000001
#
# number of rings (size 3 to 8) (size 9 to 14) (size 15 to 20)
#    0.000    1.286    1.429    6.000    0.000    6.000 
#    0.000    0.714    0.000    1.714    0.000    0.000 
#    0.000    0.000    0.000    0.000    0.000    0.000 
#
# Total GULP energy -694689.088965 kJ/mol
# GULP energy per Si atom -12405.162303 kJ/mol
# Density = 1.976863 g / cm^3
# Si number density = 19.813731 Si / 1000 Ang^3
#
#
#
# Elastic Constant Matrix: (Units=GPa)
#
#
# Indices 1 2 3 4 5 6 
#
# 1 76.4002 24.4348 29.1324 0.0000 0.0000 0.0000
# 2 24.4348 80.1306 39.9505 0.0000 0.0000 0.0000
# 3 29.1324 39.9505 86.8820 0.0000 0.0000 0.0000
# 4 0.0000 0.0000 0.0000 26.1806 0.0000 0.0000
# 5 0.0000 0.0000 0.0000 0.0000 33.8954 0.0000
# 6 0.0000 0.0000 0.0000 0.0000 0.0000 36.6953
#
#
#
# Elastic Compliance Matrix: (Units=1/GPa)
#
#
# Indices 1 2 3 4 5 6 
#
# 1 0.015466 -0.002764 -0.003915 0.000000 0.000000 0.000000
# 2 -0.002764 0.016686 -0.006746 0.000000 0.000000 0.000000
# 3 -0.003915 -0.006746 0.015924 0.000000 0.000000 0.000000
# 4 0.000000 0.000000 0.000000 0.038196 0.000000 0.000000
# 5 0.000000 0.000000 0.000000 0.000000 0.029502 0.000000
# 6 0.000000 0.000000 0.000000 0.000000 0.000000 0.027251
#
#
# Mechanical properties :
#
#
# Convention : Reuss Voigt Hill
#
# Bulk Modulus (GPa) = 47.11092 47.82758 47.46925
# Shear Modulus (GPa) = 28.25644 29.34728 28.80186
#
# Velocity S-wave (km/s) = 3.78048 3.85276 3.81679
# Velocity P-wave (km/s) = 6.54863 6.63194 6.59042
#
# Compressibility (1/GPa) = 0.02122650
#
# Stress axis : x y z
#
# Youngs Moduli (GPa) = 64.65875 59.93155 62.79707
#
# Poissons Ratio (x) = 0.16567 0.24583
# Poissons Ratio (y) = 0.17874 0.42360
# Poissons Ratio (z) = 0.25312 0.40427
#
# Static dielectric constant tensor:
#      x y z
#    x 3.577090 0.000000 0.000000 
#    y 0.000000 3.699760 0.000000 
#    z 0.000000 0.000000 3.781630 
# 
# 
# High freq. dielectric constant tensor:
#      x y z
#    x 1.777360 0.000000 0.000000 
#    y 0.000000 1.773210 0.000000 
#    z 0.000000 0.000000 1.772670 
# 
# From -- ./inp_files/30761.got.cif
#   From: 2010.03.12/outbox.cif.g09.slc.cpg/sg53_16_cif.got.tgz:30761.got - 2010.04.16 14:36:59.
