data_PCOD8219286
_publ_section_title
;
Structure prediction by ZEFSAII (Michael W. Deem and Ramdas Pophale) SiO2 
 PCOD8219286
Probable space group: P M N A
;
_chemical_formula_sum "Si O2"
_cell_formula_units_Z 56
_cell_length_a 8.853342
_cell_length_b 15.414817
_cell_length_c 20.719181
_cell_angle_alpha 90.000000
_cell_angle_beta 90.000000
_cell_angle_gamma 90.000000
_cell_volume 2827.601470
_symmetry_space_group_name_H-M "P M N A"
_symmetry_group_IT_number 53
_symmetry_cell_setting 'orthorhombic'
loop_
_space_group_symop_operation_xyz
x,y,z
1/2-x,-y,1/2+z
x,-y,-z
1/2-x,y,1/2-z
-x,-y,-z
1/2+x,y,1/2-z
-x,y,z
1/2+x,-y,1/2+z
loop_
_atom_site_type_symbol
_atom_site_label
_atom_site_fract_x
_atom_site_fract_y
_atom_site_fract_z
Si Si1 0.829137 0.293950 0.870844
Si Si2 0.821591 0.540604 0.315358
Si Si3 0.178427 0.042413 0.184782
Si Si4 0.321310 0.082586 0.458741
Si Si5 0.321758 0.143920 0.813298
Si Si6 0.677161 0.439144 0.057346
Si Si7 0.169706 0.273933 0.015344
O O1 0.751142 0.366059 0.827403
O O2 0.727078 0.207215 0.870532
O O3 0.000000 0.277545 0.846027
O O4 0.829287 0.319244 0.945564
O O5 0.750000 0.501438 0.250000
O O6 0.776745 0.477939 0.373761
O O7 0.000000 0.551211 0.308190
O O8 0.250000 0.086191 0.250000
O O9 0.227243 0.085516 0.116949
O O10 0.000000 0.042976 0.194130
O O11 0.237453 0.945792 0.177826
O O12 0.500000 0.074951 0.465014
O O13 0.263019 0.175477 0.486095
O O14 0.252740 0.000000 0.500000
O O15 0.250000 0.189511 0.750000
O O16 0.500000 0.130017 0.809151
O O17 0.500000 0.434019 0.047667
O O18 0.737191 0.340551 0.059121
O O19 0.745037 0.500000 0.000000
O O20 0.000000 0.268166 0.043028
#
# Coordination Sequence:
#
# PCOD8219286 Si02
#       7
#     8   8   8   8   8   8   8
#     4  11  21  34  54  82 114 147 187 235 291 351
#     4  11  23  39  59  84 117 154 192 238 294 349
#     4  10  19  34  56  78 108 148 191 239 292 349
#     4   9  18  35  58  85 117 151 191 242 294 339
#     4  11  21  33  50  74 108 147 189 234 286 349
#     4  10  21  40  62  84 116 155 191 236 296 348
#     4  10  21  36  60  89 113 148 198 244 287 345
#
# _framework density 19.804770999999999
#
# number of rings (size 3 to 8) (size 9 to 14) (size 15 to 20)
#    0.000    1.714    1.429    4.714    0.000    4.286 
#    0.000    2.143    0.000    6.429    0.000    0.000 
#    0.000    0.000    0.000    0.000    0.000    0.000 
#
# Total GULP energy -694054.050053 kJ/mol
# GULP energy per Si atom -12393.822322 kJ/mol
# Density = 1.975969 g / cm^3
# Si number density = 19.804771 Si / 1000 Ang^3
#
#
#
# Elastic Constant Matrix: (Units=GPa)
#
#
# Indices 1 2 3 4 5 6 
#
# 1 46.3440 12.9766 47.8009 0.0000 0.0000 0.0000
# 2 12.9766 101.5871 50.0721 0.0000 0.0000 0.0000
# 3 47.8009 50.0721 126.1678 0.0000 0.0000 0.0000
# 4 0.0000 0.0000 0.0000 26.2445 0.0000 0.0000
# 5 0.0000 0.0000 0.0000 0.0000 25.1368 0.0000
# 6 0.0000 0.0000 0.0000 0.0000 0.0000 24.5509
#
#
#
# Elastic Compliance Matrix: (Units=1/GPa)
#
#
# Indices 1 2 3 4 5 6 
#
# 1 0.035979 0.002639 -0.014679 0.000000 0.000000 0.000000
# 2 0.002639 0.012431 -0.005933 0.000000 0.000000 0.000000
# 3 -0.014679 -0.005933 0.015842 0.000000 0.000000 0.000000
# 4 0.000000 0.000000 0.000000 0.038103 0.000000 0.000000
# 5 0.000000 0.000000 0.000000 0.000000 0.039782 0.000000
# 6 0.000000 0.000000 0.000000 0.000000 0.000000 0.040732
#
#
# Mechanical properties :
#
#
# Convention : Reuss Voigt Hill
#
# Bulk Modulus (GPa) = 35.32789 55.08869 45.20829
# Shear Modulus (GPa) = 21.90576 26.06974 23.98775
#
# Velocity S-wave (km/s) = 3.32939 3.63207 3.48402
# Velocity P-wave (km/s) = 5.71460 6.74281 6.24988
#
# Compressibility (1/GPa) = 0.02830625
#
# Stress axis : x y z
#
# Youngs Moduli (GPa) = 27.79413 80.44252 63.12337
#
# Poissons Ratio (x) = -0.21230 0.92656
# Poissons Ratio (y) = -0.07335 0.37454
# Poissons Ratio (z) = 0.40798 0.47730
#
# Static dielectric constant tensor:
#      x y z
#    x 3.489890 0.000000 0.000000 
#    y 0.000000 3.490820 0.000000 
#    z 0.000000 0.000000 3.899190 
# 
# 
# High freq. dielectric constant tensor:
#      x y z
#    x 1.759120 0.000000 0.000000 
#    y 0.000000 1.757780 0.000000 
#    z 0.000000 0.000000 1.778270 
# 
# From -- ./inp_files/30735.got.cif
#   From: 2010.03.12/outbox.cif.g09.slc.cpg/sg53_16_cif.got.tgz:30735.got - 2010.04.16 14:36:59.
