data_PCOD8219477
_publ_section_title
;
Structure prediction by ZEFSAII (Michael W. Deem and Ramdas Pophale) SiO2 
 PCOD8219477
Probable space group: P M N A
;
_chemical_formula_sum "Si O2"
_cell_formula_units_Z 40
_cell_length_a 13.301064
_cell_length_b 10.738320
_cell_length_c 13.964071
_cell_angle_alpha 90.000000
_cell_angle_beta 90.000000
_cell_angle_gamma 90.000000
_cell_volume 1994.503364
_symmetry_space_group_name_H-M "P M N A"
_symmetry_group_IT_number 53
_symmetry_cell_setting 'orthorhombic'
loop_
_space_group_symop_operation_xyz
x,y,z
1/2-x,-y,1/2+z
x,-y,-z
1/2-x,y,1/2-z
-x,-y,-z
1/2+x,y,1/2-z
-x,y,z
1/2+x,-y,1/2+z
loop_
_atom_site_type_symbol
_atom_site_label
_atom_site_fract_x
_atom_site_fract_y
_atom_site_fract_z
Si Si1 0.298170 0.060244 0.396356
Si Si2 0.384120 0.670207 0.578162
Si Si3 0.387180 0.312271 0.822422
Si Si4 0.887425 0.975130 0.296826
Si Si5 0.316078 0.409045 0.623179
O O1 0.331899 0.202253 0.392689
O O2 0.356809 0.982005 0.315090
O O3 0.180814 0.058675 0.367225
O O4 0.319429 0.000000 0.500000
O O5 0.500000 0.675333 0.609006
O O6 0.328623 0.557728 0.633193
O O7 0.376637 0.646227 0.465455
O O8 0.500000 0.356086 0.851308
O O9 0.365565 0.343739 0.713034
O O10 0.303163 0.379065 0.888124
O O11 0.376822 0.165009 0.834129
O O12 0.000000 0.025474 0.308195
#
# Coordination Sequence:
#
# PCOD8219477 Si02
#       5
#     8   8   8   8   8
#     4  11  22  38  59  85 114 151 194 235 281 337
#     4  11  22  36  56  81 110 143 183 232 282 330
#     4  10  19  35  59  81 108 147 184 222 274 332
#     4  10  22  38  57  86 119 149 188 235 282 337
#     4  10  20  36  55  81 110 140 184 232 275 327
#
# _framework density 20.055116999999999
#
# number of rings (size 3 to 8) (size 9 to 14) (size 15 to 20)
#    0.000    1.600    0.000    7.800    0.000    6.800 
#    0.000    6.000    0.000    0.000    0.000    0.000 
#    0.000    0.000    0.000    0.000    0.000    0.000 
#
# Total GULP energy -496008.008303 kJ/mol
# GULP energy per Si atom -12400.200208 kJ/mol
# Density = 2.000947 g / cm^3
# Si number density = 20.055117 Si / 1000 Ang^3
#
#
#
# Elastic Constant Matrix: (Units=GPa)
#
#
# Indices 1 2 3 4 5 6 
#
# 1 185.5021 76.4385 20.4539 0.0000 0.0000 0.0000
# 2 76.4385 100.2162 17.1443 0.0000 0.0000 0.0000
# 3 20.4539 17.1443 41.6717 0.0000 0.0000 0.0000
# 4 0.0000 0.0000 0.0000 12.3983 0.0000 0.0000
# 5 0.0000 0.0000 0.0000 0.0000 23.9438 0.0000
# 6 0.0000 0.0000 0.0000 0.0000 0.0000 33.9486
#
#
#
# Elastic Compliance Matrix: (Units=1/GPa)
#
#
# Indices 1 2 3 4 5 6 
#
# 1 0.007949 -0.005804 -0.001514 0.000000 0.000000 0.000000
# 2 -0.005804 0.014972 -0.003311 0.000000 0.000000 0.000000
# 3 -0.001514 -0.003311 0.026102 0.000000 0.000000 0.000000
# 4 0.000000 0.000000 0.000000 0.080656 0.000000 0.000000
# 5 0.000000 0.000000 0.000000 0.000000 0.041764 0.000000
# 6 0.000000 0.000000 0.000000 0.000000 0.000000 0.029456
#
#
# Mechanical properties :
#
#
# Convention : Reuss Voigt Hill
#
# Bulk Modulus (GPa) = 36.01552 61.71816 48.86684
# Shear Modulus (GPa) = 21.60632 28.28169 24.94401
#
# Velocity S-wave (km/s) = 3.28586 3.75933 3.53054
# Velocity P-wave (km/s) = 5.69149 7.04873 6.40615
#
# Compressibility (1/GPa) = 0.02776581
#
# Stress axis : x y z
#
# Youngs Moduli (GPa) = 125.79477 66.79138 38.31088
#
# Poissons Ratio (x) = 0.38768 0.05800
# Poissons Ratio (y) = 0.73016 0.12684
# Poissons Ratio (z) = 0.19044 0.22113
#
# Static dielectric constant tensor:
#      x y z
#    x 4.053830 0.000000 0.000000 
#    y 0.000000 3.713990 0.000000 
#    z 0.000000 0.000000 3.495750 
# 
# 
# High freq. dielectric constant tensor:
#      x y z
#    x 1.797030 0.000000 0.000000 
#    y 0.000000 1.784590 0.000000 
#    z 0.000000 0.000000 1.765560 
# 
# From -- ./inp_files/22426.got.cif
#   From: 2010.03.12/outbox.cif.g09.slc.cpg/sg53_12_cif.got.tgz:22426.got - 2010.04.16 14:36:59.
