data_PCOD8219866
_publ_section_title
;
Structure prediction by ZEFSAII (Michael W. Deem and Ramdas Pophale) SiO2 
 PCOD8219866
Probable space group: P M N A
;
_chemical_formula_sum "Si O2"
_cell_formula_units_Z 48
_cell_length_a 9.331382
_cell_length_b 11.659606
_cell_length_c 23.057981
_cell_angle_alpha 90.000000
_cell_angle_beta 90.000000
_cell_angle_gamma 90.000000
_cell_volume 2508.713810
_symmetry_space_group_name_H-M "P M N A"
_symmetry_group_IT_number 53
_symmetry_cell_setting 'orthorhombic'
loop_
_space_group_symop_operation_xyz
x,y,z
1/2-x,-y,1/2+z
x,-y,-z
1/2-x,y,1/2-z
-x,-y,-z
1/2+x,y,1/2-z
-x,y,z
1/2+x,-y,1/2+z
loop_
_atom_site_type_symbol
_atom_site_label
_atom_site_fract_x
_atom_site_fract_y
_atom_site_fract_z
Si Si1 0.163137 0.223153 0.530535
Si Si2 0.166156 0.633123 0.360414
Si Si3 0.167688 0.389703 0.310755
Si Si4 0.838248 0.971272 0.085235
Si Si5 0.160800 0.177737 0.801344
Si Si6 0.835278 0.798465 0.597707
O O1 0.206757 0.326963 0.573873
O O2 0.259191 0.108732 0.538149
O O3 0.181224 0.266562 0.464408
O O4 0.000000 0.185389 0.543111
O O5 0.203315 0.500561 0.350020
O O6 0.261741 0.702829 0.315319
O O7 0.000000 0.658313 0.347747
O O8 0.250000 0.389351 0.250000
O O9 0.217746 0.282962 0.350258
O O10 0.000000 0.383261 0.296528
O O11 0.837024 0.907410 0.145755
O O12 0.000000 0.993081 0.063526
O O13 0.760433 0.089694 0.096527
O O14 0.250000 0.117301 0.750000
O O15 0.000000 0.205112 0.780989
O O16 0.000000 0.834031 0.607650
#
# Coordination Sequence:
#
# PCOD8219866 Si02
#       6
#     8   8   8   8   8   8
#     4   9  18  34  57  82 106 134 170 214 263 312
#     4   9  18  34  56  80 105 134 170 214 264 313
#     4  10  22  38  55  77 106 141 178 215 256 305
#     4  10  21  35  52  77 108 140 174 215 263 312
#     4  10  20  33  51  76 104 135 174 220 266 310
#     4  10  21  36  54  77 106 140 176 213 255 307
#
# _framework density 19.133310000000002
#
# number of rings (size 3 to 8) (size 9 to 14) (size 15 to 20)
#    0.000    2.333    0.000    2.000    0.000    8.667 
#    0.000    6.667    0.000    0.000    0.000    7.000 
#    0.000    0.000    0.000    0.000    0.000    0.000 
#
# Total GULP energy -595115.586048 kJ/mol
# GULP energy per Si atom -12398.241376 kJ/mol
# Density = 1.908976 g / cm^3
# Si number density = 19.133310 Si / 1000 Ang^3
#
#
#
# Elastic Constant Matrix: (Units=GPa)
#
#
# Indices 1 2 3 4 5 6 
#
# 1 95.2949 50.8014 49.2150 0.0000 0.0000 0.0000
# 2 50.8014 115.2479 59.4870 0.0000 0.0000 0.0000
# 3 49.2150 59.4870 88.0631 0.0000 0.0000 0.0000
# 4 0.0000 0.0000 0.0000 -0.6864 0.0000 0.0000
# 5 0.0000 0.0000 0.0000 0.0000 26.8293 0.0000
# 6 0.0000 0.0000 0.0000 0.0000 0.0000 17.9107
#
#
#
# Elastic Compliance Matrix: (Units=1/GPa)
#
#
# Indices 1 2 3 4 5 6 
#
# 1 0.015702 -0.003673 -0.006295 0.000000 0.000000 0.000000
# 2 -0.003673 0.014181 -0.007527 0.000000 0.000000 0.000000
# 3 -0.006295 -0.007527 0.019958 0.000000 0.000000 0.000000
# 4 0.000000 0.000000 0.000000 -1.456842 0.000000 0.000000
# 5 0.000000 0.000000 0.000000 0.000000 0.037273 0.000000
# 6 0.000000 0.000000 0.000000 0.000000 0.000000 0.055832
#
#
# Mechanical properties :
#
#
# Convention : Reuss Voigt Hill
#
# Bulk Modulus (GPa) = 67.32638 68.62364 67.97501
# Shear Modulus (GPa) = -3.92478 18.08422 7.07972
#
# Velocity S-wave (km/s) = -1.43378 3.07770 1.92568
# Velocity P-wave (km/s) = 5.70293 6.96947 6.36777
#
# Compressibility (1/GPa) = 0.01485302
#
# Stress axis : x y z
#
# Youngs Moduli (GPa) = 63.68437 70.51736 50.10596
#
# Poissons Ratio (x) = 0.25898 0.31540
# Poissons Ratio (y) = 0.23389 0.37714
# Poissons Ratio (z) = 0.40087 0.53077
#
# Static dielectric constant tensor:
#      x y z
#    x 3.706120 0.000000 0.000000 
#    y 0.000000 3.361310 0.000000 
#    z 0.000000 0.000000 3.738960 
# 
# 
# High freq. dielectric constant tensor:
#      x y z
#    x 1.743740 0.000000 0.000000 
#    y 0.000000 1.728280 0.000000 
#    z 0.000000 0.000000 1.757880 
# 
# From -- ./inp_files/33893.got.cif
#   From: 2010.03.12/outbox.cif.g09.slc.cpg/sg53_17_cif.got.tgz:33893.got - 2010.04.16 14:36:59.
