data_PCOD8219640
_publ_section_title
;
Structure prediction by ZEFSAII (Michael W. Deem and Ramdas Pophale) SiO2 
 PCOD8219640
Probable space group: P M N A
;
_chemical_formula_sum "Si O2"
_cell_formula_units_Z 64
_cell_length_a 8.799558
_cell_length_b 15.241084
_cell_length_c 23.331025
_cell_angle_alpha 90.000000
_cell_angle_beta 90.000000
_cell_angle_gamma 90.000000
_cell_volume 3129.035813
_symmetry_space_group_name_H-M "P M N A"
_symmetry_group_IT_number 53
_symmetry_cell_setting 'orthorhombic'
loop_
_space_group_symop_operation_xyz
x,y,z
1/2-x,-y,1/2+z
x,-y,-z
1/2-x,y,1/2-z
-x,-y,-z
1/2+x,y,1/2-z
-x,y,z
1/2+x,-y,1/2+z
loop_
_atom_site_type_symbol
_atom_site_label
_atom_site_fract_x
_atom_site_fract_y
_atom_site_fract_z
Si Si1 0.321414 0.742712 0.189012
Si Si2 0.177917 0.416434 0.371781
Si Si3 0.820394 0.595777 0.111984
Si Si4 0.319646 0.746677 0.689184
Si Si5 0.677056 0.351595 0.001660
Si Si6 0.179111 0.848750 0.497425
Si Si7 0.677184 0.082981 0.874611
Si Si8 0.678716 0.093278 0.389290
O O1 0.250000 0.720612 0.250000
O O2 0.500000 0.723693 0.190022
O O3 0.246091 0.682266 0.141164
O O4 0.286719 0.843428 0.172810
O O5 0.249250 0.510726 0.357262
O O6 0.257214 0.346577 0.330866
O O7 0.211916 0.394989 0.437688
O O8 0.000000 0.416919 0.358200
O O9 0.000000 0.593358 0.118658
O O10 0.773791 0.596208 0.045310
O O11 0.250000 0.771687 0.750000
O O12 0.500000 0.742577 0.693598
O O13 0.263828 0.821705 0.645282
O O14 0.500000 0.358592 0.984878
O O15 0.732010 0.251414 0.004057
O O16 0.235574 0.883523 0.436290
O O17 0.254479 0.906771 0.546793
O O18 0.000000 0.857251 0.504157
O O19 0.500000 0.061793 0.877154
O O20 0.765074 0.994594 0.857189
O O21 0.500000 0.092212 0.392807
#
# Coordination Sequence:
#
# PCOD8219640 Si02
#       8
#     8   8   8   8   8   8   8   8
#     4  11  24  45  67  91 122 161 211 261 310 365
#     4  11  23  41  67  94 124 164 206 253 307 369
#     4  12  25  40  63  95 130 166 203 252 308 366
#     4  11  25  44  64  89 122 161 208 259 309 364
#     4  10  20  38  64  93 126 165 206 248 305 371
#     4  10  19  37  63  91 123 164 206 244 303 373
#     4  10  22  40  64  90 123 164 205 249 301 369
#     4  11  24  39  60  93 129 160 200 256 310 363
#
# _framework density 20.453585
#
# number of rings (size 3 to 8) (size 9 to 14) (size 15 to 20)
#    0.000    1.250    2.500    3.375    0.000    8.500 
#    0.000    5.000    0.000    0.000    0.000    0.000 
#    0.000    0.000    0.000    0.000    0.000    0.000 
#
# Total GULP energy -794040.209513 kJ/mol
# GULP energy per Si atom -12406.878274 kJ/mol
# Density = 2.040703 g / cm^3
# Si number density = 20.453585 Si / 1000 Ang^3
#
#
#
# Elastic Constant Matrix: (Units=GPa)
#
#
# Indices 1 2 3 4 5 6 
#
# 1 80.2729 28.8619 31.7666 0.0000 0.0000 0.0000
# 2 28.8619 93.9620 3.9323 0.0000 0.0000 0.0000
# 3 31.7666 3.9323 76.7328 0.0000 0.0000 0.0000
# 4 0.0000 0.0000 0.0000 11.8658 0.0000 0.0000
# 5 0.0000 0.0000 0.0000 0.0000 28.2405 0.0000
# 6 0.0000 0.0000 0.0000 0.0000 0.0000 34.8802
#
#
#
# Elastic Compliance Matrix: (Units=1/GPa)
#
#
# Indices 1 2 3 4 5 6 
#
# 1 0.016889 -0.004906 -0.006740 0.000000 0.000000 0.000000
# 2 -0.004906 0.012090 0.001411 0.000000 0.000000 0.000000
# 3 -0.006740 0.001411 0.015750 0.000000 0.000000 0.000000
# 4 0.000000 0.000000 0.000000 0.084276 0.000000 0.000000
# 5 0.000000 0.000000 0.000000 0.000000 0.035410 0.000000
# 6 0.000000 0.000000 0.000000 0.000000 0.000000 0.028670
#
#
# Mechanical properties :
#
#
# Convention : Reuss Voigt Hill
#
# Bulk Modulus (GPa) = 41.21993 42.23215 41.72604
# Shear Modulus (GPa) = 22.55903 27.42442 24.99173
#
# Velocity S-wave (km/s) = 3.32465 3.66568 3.49933
# Velocity P-wave (km/s) = 5.91054 6.21361 6.06397
#
# Compressibility (1/GPa) = 0.02426011
#
# Stress axis : x y z
#
# Youngs Moduli (GPa) = 59.21141 82.71062 63.49068
#
# Poissons Ratio (x) = 0.40574 0.42795
# Poissons Ratio (y) = 0.29046 -0.08960
# Poissons Ratio (z) = 0.39911 -0.11673
#
# Static dielectric constant tensor:
#      x y z
#    x 3.604960 0.000000 0.000000 
#    y 0.000000 3.889190 0.000000 
#    z 0.000000 0.000000 3.694990 
# 
# 
# High freq. dielectric constant tensor:
#      x y z
#    x 1.797190 0.000000 0.000000 
#    y 0.000000 1.816070 0.000000 
#    z 0.000000 0.000000 1.794870 
# 
# From -- ./inp_files/34180.got.cif
#   From: 2010.03.12/outbox.cif.g09.slc.cpg/sg53_18_cif.got.tgz:34180.got - 2010.04.16 14:36:59.
