data_PCOD8219314
_publ_section_title
;
Structure prediction by ZEFSAII (Michael W. Deem and Ramdas Pophale) SiO2 
 PCOD8219314
Probable space group: P M N A
;
_chemical_formula_sum "Si O2"
_cell_formula_units_Z 64
_cell_length_a 8.981345
_cell_length_b 20.524662
_cell_length_c 19.261891
_cell_angle_alpha 90.000000
_cell_angle_beta 90.000000
_cell_angle_gamma 90.000000
_cell_volume 3550.719082
_symmetry_space_group_name_H-M "P M N A"
_symmetry_group_IT_number 53
_symmetry_cell_setting 'orthorhombic'
loop_
_space_group_symop_operation_xyz
x,y,z
1/2-x,-y,1/2+z
x,-y,-z
1/2-x,y,1/2-z
-x,-y,-z
1/2+x,y,1/2-z
-x,y,z
1/2+x,-y,1/2+z
loop_
_atom_site_type_symbol
_atom_site_label
_atom_site_fract_x
_atom_site_fract_y
_atom_site_fract_z
Si Si1 0.676208 0.193041 0.532311
Si Si2 0.673981 0.141096 0.680443
Si Si3 0.824252 0.681462 0.530992
Si Si4 0.827101 0.363077 0.319282
Si Si5 0.325710 0.006919 0.318468
Si Si6 0.323781 0.487609 0.820727
Si Si7 0.175881 0.937885 0.960895
Si Si8 0.674758 0.437508 0.545777
O O1 0.500000 0.204528 0.521064
O O2 0.714411 0.185283 0.613941
O O3 0.771267 0.251108 0.500997
O O4 0.736063 0.129327 0.492001
O O5 0.750000 0.169642 0.750000
O O6 0.500000 0.142124 0.693950
O O7 0.728402 0.067007 0.665928
O O8 0.784807 0.679580 0.613185
O O9 0.735272 0.625181 0.492950
O O10 0.000000 0.671508 0.519670
O O11 0.750000 0.334570 0.250000
O O12 0.776540 0.437381 0.333626
O O13 0.000000 0.360561 0.303553
O O14 0.250000 0.035505 0.250000
O O15 0.500000 0.007091 0.306879
O O16 0.279652 0.055357 0.380378
O O17 0.250000 0.462111 0.750000
O O18 0.500000 0.478750 0.817220
O O19 0.258476 0.443137 0.881362
O O20 0.000000 0.939305 0.972472
O O21 0.246716 0.000000 0.000000
O O22 0.713221 0.500000 0.500000
O O23 0.500000 0.429859 0.559160
#
# Coordination Sequence:
#
# PCOD8219314 Si02
#       8
#     8   8   8   8   8   8   8   8
#     4  10  20  35  55  80 107 141 186 230 268 323
#     4   9  17  30  51  77 105 135 175 222 269 323
#     4  11  23  39  56  80 114 150 183 224 279 331
#     4   9  19  34  55  80 107 141 181 222 268 324
#     4   9  16  28  49  77 105 136 173 219 269 321
#     4  10  19  34  56  84 116 147 183 228 278 329
#     4   9  15  29  54  78 101 134 178 221 265 317
#     4  11  22  36  58  86 112 142 184 230 275 328
#
# _framework density 18.024519000000002
#
# number of rings (size 3 to 8) (size 9 to 14) (size 15 to 20)
#    0.000    2.250    2.500    1.125    0.000    2.500 
#    0.000    1.875    0.000    5.250    0.000    0.000 
#    0.000    0.000    0.000    0.000    0.000    0.000 
#
# Total GULP energy -793554.793591 kJ/mol
# GULP energy per Si atom -12399.293650 kJ/mol
# Density = 1.798349 g / cm^3
# Si number density = 18.024519 Si / 1000 Ang^3
#
#
#
# Elastic Constant Matrix: (Units=GPa)
#
#
# Indices 1 2 3 4 5 6 
#
# 1 45.7725 25.9435 48.4615 0.0000 0.0000 0.0000
# 2 25.9435 87.5687 54.6252 0.0000 0.0000 0.0000
# 3 48.4615 54.6252 150.1528 0.0000 0.0000 0.0000
# 4 0.0000 0.0000 0.0000 26.6140 0.0000 0.0000
# 5 0.0000 0.0000 0.0000 0.0000 34.6532 0.0000
# 6 0.0000 0.0000 0.0000 0.0000 0.0000 -6.0848
#
#
#
# Elastic Compliance Matrix: (Units=1/GPa)
#
#
# Indices 1 2 3 4 5 6 
#
# 1 0.034352 -0.004219 -0.009552 0.000000 0.000000 0.000000
# 2 -0.004219 0.015290 -0.004201 0.000000 0.000000 0.000000
# 3 -0.009552 -0.004201 0.011271 0.000000 0.000000 0.000000
# 4 0.000000 0.000000 0.000000 0.037574 0.000000 0.000000
# 5 0.000000 0.000000 0.000000 0.000000 0.028857 0.000000
# 6 0.000000 0.000000 0.000000 0.000000 0.000000 -0.164344
#
#
# Mechanical properties :
#
#
# Convention : Reuss Voigt Hill
#
# Bulk Modulus (GPa) = 40.04910 60.17272 50.11091
# Shear Modulus (GPa) = 688.07915 21.33407 354.70661
#
# Velocity S-wave (km/s) = 19.55952 3.44410 14.04345
# Velocity P-wave (km/s) = 23.07309 7.01941 17.05344
#
# Compressibility (1/GPa) = 0.02496935
#
# Stress axis : x y z
#
# Youngs Moduli (GPa) = 29.11071 65.40254 88.72227
#
# Poissons Ratio (x) = 0.27590 0.84750
# Poissons Ratio (y) = 0.12280 0.37272
# Poissons Ratio (z) = 0.27807 0.27475
#
# Static dielectric constant tensor:
#      x y z
#    x 3.177800 0.000000 0.000000 
#    y 0.000000 3.377740 0.000000 
#    z 0.000000 0.000000 3.551980 
# 
# 
# High freq. dielectric constant tensor:
#      x y z
#    x 1.685620 0.000000 0.000000 
#    y 0.000000 1.670470 0.000000 
#    z 0.000000 0.000000 1.714780 
# 
# From -- ./inp_files/26909.got.cif
#   From: 2010.03.12/outbox.cif.g09.slc.cpg/sg53_14_cif.got.tgz:26909.got - 2010.04.16 14:36:59.
