data_PCOD8219829
_publ_section_title
;
Structure prediction by ZEFSAII (Michael W. Deem and Ramdas Pophale) SiO2 
 PCOD8219829
Probable space group: P M N A
;
_chemical_formula_sum "Si O2"
_cell_formula_units_Z 48
_cell_length_a 8.993668
_cell_length_b 18.388901
_cell_length_c 16.429469
_cell_angle_alpha 90.000000
_cell_angle_beta 90.000000
_cell_angle_gamma 90.000000
_cell_volume 2717.165887
_symmetry_space_group_name_H-M "P M N A"
_symmetry_group_IT_number 53
_symmetry_cell_setting 'orthorhombic'
loop_
_space_group_symop_operation_xyz
x,y,z
1/2-x,-y,1/2+z
x,-y,-z
1/2-x,y,1/2-z
-x,-y,-z
1/2+x,y,1/2-z
-x,y,z
1/2+x,-y,1/2+z
loop_
_atom_site_type_symbol
_atom_site_label
_atom_site_fract_x
_atom_site_fract_y
_atom_site_fract_z
Si Si1 0.177010 0.596403 0.166739
Si Si2 0.826366 0.831581 0.511669
Si Si3 0.826512 0.926693 0.668954
Si Si4 0.338354 0.458040 0.416326
Si Si5 0.832487 0.048416 0.919950
Si Si6 0.177510 0.321750 0.995107
O O1 0.250000 0.624168 0.250000
O O2 0.242208 0.514909 0.145216
O O3 0.221050 0.653176 0.096047
O O4 0.000000 0.592556 0.175454
O O5 0.793790 0.869681 0.597602
O O6 0.748926 0.875596 0.438377
O O7 0.758295 0.752175 0.516440
O O8 0.000000 0.827897 0.492612
O O9 0.750000 0.895156 0.750000
O O10 0.000000 0.937565 0.683703
O O11 0.756309 0.005529 0.649676
O O12 0.362376 0.500000 0.500000
O O13 0.500000 0.439684 0.379198
O O14 0.260049 0.381057 0.438350
O O15 0.000000 0.064322 0.890070
O O16 0.832702 0.000000 0.000000
O O17 0.000000 0.313524 0.002791
#
# Coordination Sequence:
#
# PCOD8219829 Si02
#       6
#     8   8   8   8   8   8
#     4   9  17  30  49  72  96 124 160 203 249 294
#     4  10  20  33  50  74 103 131 162 203 247 290
#     4  10  20  34  52  74 100 129 162 203 248 291
#     4   7  12  26  47  67  87 117 158 196 230 278
#     4   9  17  31  52  74  95 124 162 198 236 288
#     4   9  17  31  51  71  94 129 169 202 239 295
#
# _framework density 17.665465000000001
#
# number of rings (size 3 to 8) (size 9 to 14) (size 15 to 20)
#    0.000    3.000    0.000    3.500    0.000    4.667 
#    0.000    2.500    0.000    9.000    0.000    0.000 
#    0.000    0.000    0.000    0.000    0.000    0.000 
#
# Total GULP energy -594751.521903 kJ/mol
# GULP energy per Si atom -12390.656706 kJ/mol
# Density = 1.762526 g / cm^3
# Si number density = 17.665465 Si / 1000 Ang^3
#
#
#
# Elastic Constant Matrix: (Units=GPa)
#
#
# Indices 1 2 3 4 5 6 
#
# 1 85.7786 53.8118 40.9316 0.0000 0.0000 0.0000
# 2 53.8118 124.6472 30.0374 0.0000 0.0000 0.0000
# 3 40.9316 30.0374 69.3030 0.0000 0.0000 0.0000
# 4 0.0000 0.0000 0.0000 16.6472 0.0000 0.0000
# 5 0.0000 0.0000 0.0000 0.0000 25.8243 0.0000
# 6 0.0000 0.0000 0.0000 0.0000 0.0000 19.5736
#
#
#
# Elastic Compliance Matrix: (Units=1/GPa)
#
#
# Indices 1 2 3 4 5 6 
#
# 1 0.020021 -0.006469 -0.009021 0.000000 0.000000 0.000000
# 2 -0.006469 0.011049 -0.000968 0.000000 0.000000 0.000000
# 3 -0.009021 -0.000968 0.020177 0.000000 0.000000 0.000000
# 4 0.000000 0.000000 0.000000 0.060070 0.000000 0.000000
# 5 0.000000 0.000000 0.000000 0.000000 0.038723 0.000000
# 6 0.000000 0.000000 0.000000 0.000000 0.000000 0.051089
#
#
# Mechanical properties :
#
#
# Convention : Reuss Voigt Hill
#
# Bulk Modulus (GPa) = 54.55416 58.81005 56.68211
# Shear Modulus (GPa) = 20.81987 22.73888 21.77937
#
# Velocity S-wave (km/s) = 3.43675 3.59164 3.51505
# Velocity P-wave (km/s) = 6.83353 7.11077 6.97353
#
# Compressibility (1/GPa) = 0.01833041
#
# Stress axis : x y z
#
# Youngs Moduli (GPa) = 49.94771 90.50734 49.56228
#
# Poissons Ratio (x) = 0.58554 0.44709
# Poissons Ratio (y) = 0.32314 0.04797
# Poissons Ratio (z) = 0.45056 0.08759
#
# Static dielectric constant tensor:
#      x y z
#    x 3.140510 0.000000 0.000000 
#    y 0.000000 3.363930 0.000000 
#    z 0.000000 0.000000 3.230680 
# 
# 
# High freq. dielectric constant tensor:
#      x y z
#    x 1.669750 0.000000 0.000000 
#    y 0.000000 1.679430 0.000000 
#    z 0.000000 0.000000 1.663920 
# 
# From -- ./inp_files/26393.got.cif
#   From: 2010.03.12/outbox.cif.g09.slc.cpg/sg53_14_cif.got.tgz:26393.got - 2010.04.16 14:36:59.
