data_PCOD8219948
_publ_section_title
;
Structure prediction by ZEFSAII (Michael W. Deem and Ramdas Pophale) SiO2 
 PCOD8219948
Probable space group: P M N A
;
_chemical_formula_sum "Si O2"
_cell_formula_units_Z 64
_cell_length_a 18.213847
_cell_length_b 17.559511
_cell_length_c 11.172177
_cell_angle_alpha 90.000000
_cell_angle_beta 90.000000
_cell_angle_gamma 90.000000
_cell_volume 3573.155438
_symmetry_space_group_name_H-M "P M N A"
_symmetry_group_IT_number 53
_symmetry_cell_setting 'orthorhombic'
loop_
_space_group_symop_operation_xyz
x,y,z
1/2-x,-y,1/2+z
x,-y,-z
1/2-x,y,1/2-z
-x,-y,-z
1/2+x,y,1/2-z
-x,y,z
1/2+x,-y,1/2+z
loop_
_atom_site_type_symbol
_atom_site_label
_atom_site_fract_x
_atom_site_fract_y
_atom_site_fract_z
Si Si1 0.917646 0.930235 0.304206
Si Si2 0.586534 0.200940 0.634923
Si Si3 0.587917 0.412788 0.979344
Si Si4 0.587839 0.806734 0.636583
Si Si5 0.829078 0.920085 0.703084
Si Si6 0.673053 0.696934 0.189614
Si Si7 0.633296 0.182234 0.993997
Si Si8 0.580828 0.699609 0.832057
O O1 0.891136 0.881635 0.188581
O O2 0.916556 0.873747 0.416711
O O3 0.000000 0.960654 0.285840
O O4 0.865748 0.000559 0.332277
O O5 0.500000 0.212384 0.644653
O O6 0.614241 0.203009 0.498690
O O7 0.622166 0.270972 0.704943
O O8 0.500000 0.400171 0.960191
O O9 0.632764 0.377143 0.867540
O O10 0.608190 0.500000 0.000000
O O11 0.617377 0.372937 0.102698
O O12 0.500000 0.813349 0.648005
O O13 0.622449 0.882477 0.692350
O O14 0.618823 0.733000 0.711702
O O15 0.750000 0.941104 0.750000
O O16 0.817914 0.866310 0.587100
O O17 0.750000 0.672737 0.250000
O O18 0.684618 0.763538 0.089622
O O19 0.576849 0.233647 0.068688
O O20 0.500000 0.674603 0.793990
#
# Coordination Sequence:
#
# PCOD8219948 Si02
#       8
#     8   8   8   8   8   8   8   8
#     4  10  20  35  52  72  96 131 176 222 271 316
#     4   9  19  35  55  77 101 133 178 222 260 314
#     4   9  17  32  58  86 113 139 171 213 254 302
#     4   9  18  34  54  73  98 136 177 217 256 306
#     4  11  23  34  46  69 103 134 171 218 271 319
#     4  10  20  33  57  80 107 138 173 212 259 311
#     4   9  19  34  49  71  94 129 173 217 261 303
#     4   8  14  28  53  80  99 123 165 213 252 292
#
# _framework density 17.911339000000002
#
# number of rings (size 3 to 8) (size 9 to 14) (size 15 to 20)
#    0.000    2.625    0.000    1.500    1.750    7.500 
#    2.250    1.875    2.750    0.000    0.000    4.375 
#    0.000    0.000    0.000    0.000    0.000    0.000 
#
# Total GULP energy -793044.231405 kJ/mol
# GULP energy per Si atom -12391.316116 kJ/mol
# Density = 1.787057 g / cm^3
# Si number density = 17.911339 Si / 1000 Ang^3
#
#
#
# Elastic Constant Matrix: (Units=GPa)
#
#
# Indices 1 2 3 4 5 6 
#
# 1 57.9458 35.1069 23.8746 0.0000 0.0000 0.0000
# 2 35.1069 120.7596 54.6037 0.0000 0.0000 0.0000
# 3 23.8746 54.6037 123.0219 0.0000 0.0000 0.0000
# 4 0.0000 0.0000 0.0000 19.5808 0.0000 0.0000
# 5 0.0000 0.0000 0.0000 0.0000 14.2976 0.0000
# 6 0.0000 0.0000 0.0000 0.0000 0.0000 15.0023
#
#
#
# Elastic Compliance Matrix: (Units=1/GPa)
#
#
# Indices 1 2 3 4 5 6 
#
# 1 0.021237 -0.005393 -0.001728 0.000000 0.000000 0.000000
# 2 -0.005393 0.011729 -0.004160 0.000000 0.000000 0.000000
# 3 -0.001728 -0.004160 0.010310 0.000000 0.000000 0.000000
# 4 0.000000 0.000000 0.000000 0.051070 0.000000 0.000000
# 5 0.000000 0.000000 0.000000 0.000000 0.069942 0.000000
# 6 0.000000 0.000000 0.000000 0.000000 0.000000 0.066656
#
#
# Mechanical properties :
#
#
# Convention : Reuss Voigt Hill
#
# Bulk Modulus (GPa) = 48.27147 58.76640 53.51894
# Shear Modulus (GPa) = 19.20049 22.31896 20.75972
#
# Velocity S-wave (km/s) = 3.27765 3.53382 3.40814
# Velocity P-wave (km/s) = 6.42905 7.03785 6.74033
#
# Compressibility (1/GPa) = 0.02071617
#
# Stress axis : x y z
#
# Youngs Moduli (GPa) = 47.08873 85.25516 96.99108
#
# Poissons Ratio (x) = 0.45974 0.16758
# Poissons Ratio (y) = 0.25393 0.40345
# Poissons Ratio (z) = 0.08136 0.35463
#
# Static dielectric constant tensor:
#      x y z
#    x 2.996460 0.000000 0.000000 
#    y 0.000000 3.233450 0.000000 
#    z 0.000000 0.000000 3.577260 
# 
# 
# High freq. dielectric constant tensor:
#      x y z
#    x 1.668540 0.000000 0.000000 
#    y 0.000000 1.676850 0.000000 
#    z 0.000000 0.000000 1.701350 
# 
# From -- ./inp_files/17177.got.cif
#   From: 2010.03.12/outbox.cif.g09.slc.cpg/sg53_9_cif.got.tgz:17177.got - 2010.04.16 14:36:59.
