data_PCOD8219110
_publ_section_title
;
Structure prediction by ZEFSAII (Michael W. Deem and Ramdas Pophale) SiO2 
 PCOD8219110
Probable space group: P M N A
;
_chemical_formula_sum "Si O2"
_cell_formula_units_Z 48
_cell_length_a 8.910796
_cell_length_b 16.373624
_cell_length_c 18.066718
_cell_angle_alpha 90.000000
_cell_angle_beta 90.000000
_cell_angle_gamma 90.000000
_cell_volume 2635.970710
_symmetry_space_group_name_H-M "P M N A"
_symmetry_group_IT_number 53
_symmetry_cell_setting 'orthorhombic'
loop_
_space_group_symop_operation_xyz
x,y,z
1/2-x,-y,1/2+z
x,-y,-z
1/2-x,y,1/2-z
-x,-y,-z
1/2+x,y,1/2-z
-x,y,z
1/2+x,-y,1/2+z
loop_
_atom_site_type_symbol
_atom_site_label
_atom_site_fract_x
_atom_site_fract_y
_atom_site_fract_z
Si Si1 0.174763 0.914977 0.465490
Si Si2 0.325361 0.499935 0.582499
Si Si3 0.674545 0.248164 0.047902
Si Si4 0.175265 0.160021 0.827020
Si Si5 0.826717 0.680298 0.090016
Si Si6 0.321888 0.654951 0.670583
O O1 0.209647 0.845056 0.525602
O O2 0.265280 0.900151 0.390292
O O3 0.000000 0.916594 0.444740
O O4 0.229273 0.000000 0.500000
O O5 0.253589 0.500000 0.500000
O O6 0.500000 0.519802 0.574408
O O7 0.297161 0.411304 0.620351
O O8 0.257085 0.571088 0.633929
O O9 0.500000 0.262192 0.063894
O O10 0.769173 0.268595 0.121044
O O11 0.724893 0.307631 0.981888
O O12 0.250000 0.136441 0.750000
O O13 0.215811 0.254118 0.847018
O O14 0.000000 0.146618 0.818836
O O15 0.000000 0.691119 0.065626
O O16 0.250000 0.665154 0.750000
O O17 0.500000 0.655084 0.678160
#
# Coordination Sequence:
#
# PCOD8219110 Si02
#       6
#     8   8   8   8   8   8
#     4   9  19  37  60  83 107 136 172 215 263 318
#     4   9  16  30  53  75  99 138 181 218 258 305
#     4  10  19  33  54  79 104 132 169 212 260 313
#     4  10  20  33  53  80 112 143 175 216 264 315
#     4   9  17  32  53  76 101 139 181 213 255 310
#     4  11  22  36  53  74 105 141 180 222 263 308
#
# _framework density 18.209610999999999
#
# number of rings (size 3 to 8) (size 9 to 14) (size 15 to 20)
#    0.000    2.333    1.667    1.500    0.000    2.333 
#    0.000    3.333    0.000    0.000    0.000    0.000 
#    0.000    0.000    0.000    0.000    0.000    0.000 
#
# Total GULP energy -595188.292979 kJ/mol
# GULP energy per Si atom -12399.756104 kJ/mol
# Density = 1.816816 g / cm^3
# Si number density = 18.209611 Si / 1000 Ang^3
#
#
#
# Elastic Constant Matrix: (Units=GPa)
#
#
# Indices 1 2 3 4 5 6 
#
# 1 69.6290 38.4004 58.1089 0.0000 0.0000 0.0000
# 2 38.4004 113.3935 65.0746 0.0000 0.0000 0.0000
# 3 58.1089 65.0746 140.0239 0.0000 0.0000 0.0000
# 4 0.0000 0.0000 0.0000 20.2322 0.0000 0.0000
# 5 0.0000 0.0000 0.0000 0.0000 31.1816 0.0000
# 6 0.0000 0.0000 0.0000 0.0000 0.0000 21.8400
#
#
#
# Elastic Compliance Matrix: (Units=1/GPa)
#
#
# Indices 1 2 3 4 5 6 
#
# 1 0.022752 -0.003118 -0.007993 0.000000 0.000000 0.000000
# 2 -0.003118 0.012454 -0.004494 0.000000 0.000000 0.000000
# 3 -0.007993 -0.004494 0.012547 0.000000 0.000000 0.000000
# 4 0.000000 0.000000 0.000000 0.049426 0.000000 0.000000
# 5 0.000000 0.000000 0.000000 0.000000 0.032070 0.000000
# 6 0.000000 0.000000 0.000000 0.000000 0.000000 0.045787
#
#
# Mechanical properties :
#
#
# Convention : Reuss Voigt Hill
#
# Bulk Modulus (GPa) = 60.44691 71.80158 66.12424
# Shear Modulus (GPa) = 23.61168 25.41494 24.51331
#
# Velocity S-wave (km/s) = 3.60482 3.73994 3.67301
# Velocity P-wave (km/s) = 7.11291 7.62665 7.37425
#
# Compressibility (1/GPa) = 0.01654344
#
# Stress axis : x y z
#
# Youngs Moduli (GPa) = 43.95269 80.29787 79.70014
#
# Poissons Ratio (x) = 0.25036 0.63703
# Poissons Ratio (y) = 0.13704 0.35816
# Poissons Ratio (z) = 0.35130 0.36084
#
# Static dielectric constant tensor:
#      x y z
#    x 3.256630 0.000000 0.000000 
#    y 0.000000 3.474050 0.000000 
#    z 0.000000 0.000000 3.253300 
# 
# 
# High freq. dielectric constant tensor:
#      x y z
#    x 1.695730 0.000000 0.000000 
#    y 0.000000 1.703440 0.000000 
#    z 0.000000 0.000000 1.694070 
# 
# From -- ./inp_files/20178.got.cif
#   From: 2010.03.12/outbox.cif.g09.slc.cpg/sg53_11_cif.got.tgz:20178.got - 2010.04.16 14:36:59.
