data_PCOD8219194
_publ_section_title
;
Structure prediction by ZEFSAII (Michael W. Deem and Ramdas Pophale) SiO2 
 PCOD8219194
Probable space group: P M N A
;
_chemical_formula_sum "Si O2"
_cell_formula_units_Z 64
_cell_length_a 17.940934
_cell_length_b 14.358774
_cell_length_c 12.137328
_cell_angle_alpha 90.000000
_cell_angle_beta 90.000000
_cell_angle_gamma 90.000000
_cell_volume 3126.694841
_symmetry_space_group_name_H-M "P M N A"
_symmetry_group_IT_number 53
_symmetry_cell_setting 'orthorhombic'
loop_
_space_group_symop_operation_xyz
x,y,z
1/2-x,-y,1/2+z
x,-y,-z
1/2-x,y,1/2-z
-x,-y,-z
1/2+x,y,1/2-z
-x,y,z
1/2+x,-y,1/2+z
loop_
_atom_site_type_symbol
_atom_site_label
_atom_site_fract_x
_atom_site_fract_y
_atom_site_fract_z
Si Si1 0.847451 0.603136 0.470994
Si Si2 0.657567 0.208680 0.479418
Si Si3 0.828616 0.208747 0.431166
Si Si4 0.917715 0.643880 0.255650
Si Si5 0.179903 0.408504 0.928674
Si Si6 0.414269 0.065959 0.647391
Si Si7 0.583465 0.829533 0.147201
Si Si8 0.586388 0.865292 0.718788
O O1 0.869891 0.500000 0.500000
O O2 0.845853 0.678741 0.571213
O O3 0.911751 0.629634 0.386644
O O4 0.767510 0.603083 0.410832
O O5 0.740720 0.190747 0.433477
O O6 0.646040 0.313058 0.524226
O O7 0.638009 0.129651 0.570259
O O8 0.603508 0.212088 0.373141
O O9 0.859158 0.169995 0.547167
O O10 0.865008 0.155365 0.328294
O O11 0.858934 0.580282 0.190116
O O12 0.902637 0.754618 0.252526
O O13 0.000000 0.617312 0.213685
O O14 0.161017 0.500000 0.000000
O O15 0.500000 0.080981 0.608740
O O16 0.405820 0.078829 0.779969
O O17 0.391132 0.957357 0.646905
O O18 0.500000 0.820088 0.098338
O O19 0.500000 0.865818 0.754430
#
# Coordination Sequence:
#
# PCOD8219194 Si02
#       8
#     8   8   8   8   8   8   8   8
#     4   9  20  38  60  82 113 159 199 234 292 371
#     4  11  22  40  61  87 122 155 200 253 301 354
#     4  10  22  39  59  89 122 152 197 253 303 343
#     4  10  19  33  56  84 115 146 189 249 296 341
#     4  10  21  37  59  85 115 155 198 242 299 362
#     4  10  21  40  64  86 113 159 204 236 293 369
#     4   9  18  36  61  85 113 153 194 237 292 355
#     4  11  24  42  62  84 120 166 204 240 297 373
#
# _framework density 20.468899
#
# number of rings (size 3 to 8) (size 9 to 14) (size 15 to 20)
#    0.000    2.000    1.250    1.875    0.000    4.500 
#    6.750    6.875    0.000    0.000    0.000    0.000 
#    0.000    0.000    0.000    0.000    0.000    0.000 
#
# Total GULP energy -792855.499392 kJ/mol
# GULP energy per Si atom -12388.367178 kJ/mol
# Density = 2.042231 g / cm^3
# Si number density = 20.468899 Si / 1000 Ang^3
#
#
#
# Elastic Constant Matrix: (Units=GPa)
#
#
# Indices 1 2 3 4 5 6 
#
# 1 66.9782 34.5578 35.6604 0.0000 0.0000 0.0000
# 2 34.5578 93.9809 34.0046 0.0000 0.0000 0.0000
# 3 35.6604 34.0046 80.8820 0.0000 0.0000 0.0000
# 4 0.0000 0.0000 0.0000 26.0037 0.0000 0.0000
# 5 0.0000 0.0000 0.0000 0.0000 31.4981 0.0000
# 6 0.0000 0.0000 0.0000 0.0000 0.0000 11.8139
#
#
#
# Elastic Compliance Matrix: (Units=1/GPa)
#
#
# Indices 1 2 3 4 5 6 
#
# 1 0.021528 -0.005286 -0.007269 0.000000 0.000000 0.000000
# 2 -0.005286 0.013847 -0.003491 0.000000 0.000000 0.000000
# 3 -0.007269 -0.003491 0.017036 0.000000 0.000000 0.000000
# 4 0.000000 0.000000 0.000000 0.038456 0.000000 0.000000
# 5 0.000000 0.000000 0.000000 0.000000 0.031748 0.000000
# 6 0.000000 0.000000 0.000000 0.000000 0.000000 0.084646
#
#
# Mechanical properties :
#
#
# Convention : Reuss Voigt Hill
#
# Bulk Modulus (GPa) = 49.21497 50.03185 49.62341
# Shear Modulus (GPa) = 20.31472 23.03768 21.67620
#
# Velocity S-wave (km/s) = 3.15376 3.35848 3.25773
# Velocity P-wave (km/s) = 6.11209 6.28770 6.20051
#
# Compressibility (1/GPa) = 0.02031902
#
# Stress axis : x y z
#
# Youngs Moduli (GPa) = 46.45172 72.21607 58.69771
#
# Poissons Ratio (x) = 0.38172 0.42668
# Poissons Ratio (y) = 0.24553 0.20493
# Poissons Ratio (z) = 0.33767 0.25212
#
# Static dielectric constant tensor:
#      x y z
#    x 3.611780 0.000000 0.000000 
#    y 0.000000 4.183960 0.000000 
#    z 0.000000 0.000000 3.535630 
# 
# 
# High freq. dielectric constant tensor:
#      x y z
#    x 1.797710 0.000000 0.000000 
#    y 0.000000 1.800340 0.000000 
#    z 0.000000 0.000000 1.795210 
# 
# From -- ./inp_files/17086.got.cif
#   From: 2010.03.12/outbox.cif.g09.slc.cpg/sg53_9_cif.got.tgz:17086.got - 2010.04.16 14:36:59.
