data_PCOD8219461
_publ_section_title
;
Structure prediction by ZEFSAII (Michael W. Deem and Ramdas Pophale) SiO2 
 PCOD8219461
Probable space group: P M N A
;
_chemical_formula_sum "Si O2"
_cell_formula_units_Z 48
_cell_length_a 16.609652
_cell_length_b 27.657841
_cell_length_c 5.031630
_cell_angle_alpha 90.000000
_cell_angle_beta 90.000000
_cell_angle_gamma 90.000000
_cell_volume 2311.465985
_symmetry_space_group_name_H-M "P M N A"
_symmetry_group_IT_number 53
_symmetry_cell_setting 'orthorhombic'
loop_
_space_group_symop_operation_xyz
x,y,z
1/2-x,-y,1/2+z
x,-y,-z
1/2-x,y,1/2-z
-x,-y,-z
1/2+x,y,1/2-z
-x,y,z
1/2+x,-y,1/2+z
loop_
_atom_site_type_symbol
_atom_site_label
_atom_site_fract_x
_atom_site_fract_y
_atom_site_fract_z
Si Si1 0.693037 0.604396 0.499132
Si Si2 0.159927 0.743535 0.343716
Si Si3 0.197142 0.000000 0.000000
Si Si4 0.593013 0.844763 0.028255
Si Si5 0.304972 0.500000 0.500000
Si Si6 0.907330 0.907292 0.967130
Si Si7 0.092643 0.694317 0.857643
O O1 0.750000 0.606325 0.750000
O O2 0.648173 0.551382 0.467925
O O3 0.622634 0.643298 0.526802
O O4 0.750000 0.616099 0.250000
O O5 0.250000 0.732592 0.250000
O O6 0.149816 0.799108 0.424984
O O7 0.142199 0.709746 0.597024
O O8 0.101434 0.733150 0.094802
O O9 0.143173 0.955028 0.912443
O O10 0.250000 0.015914 0.750000
O O11 0.500000 0.827819 0.036129
O O12 0.610128 0.886353 0.242413
O O13 0.617073 0.866290 0.743805
O O14 0.250000 0.508212 0.750000
O O15 0.000000 0.921841 0.929605
O O16 0.000000 0.690245 0.774562
#
# Coordination Sequence:
#
# PCOD8219461 Si02
#       7
#     8   8   4   8   4   8   8
#     4  10  19  35  58  83 114 150 197 245 293 353
#     4  12  25  41  62  89 120 158 200 246 296 353
#     4  12  25  40  61  90 122 152 190 240 285 328
#     4  10  21  39  63  89 116 151 192 238 287 343
#     4   8  16  30  53  82 109 146 190 240 294 350
#     4  10  22  41  64  87 117 155 192 229 284 349
#     4  12  24  39  59  86 121 160 199 245 297 351
#
# _framework density 20.766041999999999
#
# number of rings (size 3 to 8) (size 9 to 14) (size 15 to 20)
#    0.000    1.333    0.000    6.750    0.000    3.333 
#    0.000    3.750    0.000    0.000    0.000    9.333 
#    0.000    0.000    0.000    0.000    0.000    0.000 
#
# Total GULP energy -595234.872798 kJ/mol
# GULP energy per Si atom -12400.726517 kJ/mol
# Density = 2.071878 g / cm^3
# Si number density = 20.766042 Si / 1000 Ang^3
#
#
#
# Elastic Constant Matrix: (Units=GPa)
#
#
# Indices 1 2 3 4 5 6 
#
# 1 88.4638 61.8949 37.0408 0.0000 0.0000 0.0000
# 2 61.8949 126.8577 25.0238 0.0000 0.0000 0.0000
# 3 37.0408 25.0238 125.7807 0.0000 0.0000 0.0000
# 4 0.0000 0.0000 0.0000 28.1358 0.0000 0.0000
# 5 0.0000 0.0000 0.0000 0.0000 27.6513 0.0000
# 6 0.0000 0.0000 0.0000 0.0000 0.0000 -0.0014
#
#
#
# Elastic Compliance Matrix: (Units=1/GPa)
#
#
# Indices 1 2 3 4 5 6 
#
# 1 0.018810 -0.008415 -0.003865 0.000000 0.000000 0.000000
# 2 -0.008415 0.011970 0.000097 0.000000 0.000000 0.000000
# 3 -0.003865 0.000097 0.009069 0.000000 0.000000 0.000000
# 4 0.000000 0.000000 0.000000 0.035542 0.000000 0.000000
# 5 0.000000 0.000000 0.000000 0.000000 0.036165 0.000000
# 6 0.000000 0.000000 0.000000 0.000000 0.000000**********
#
#
# Mechanical properties :
#
#
# Convention : Reuss Voigt Hill
#
# Bulk Modulus (GPa) = 64.59089 65.44678 65.01883
# Shear Modulus (GPa) = -0.00710 25.63331 12.81311
#
# Velocity S-wave (km/s) = -0.05855 3.51719 2.48669
# Velocity P-wave (km/s) = 5.58275 6.93389 6.29468
#
# Compressibility (1/GPa) = 0.01548206
#
# Stress axis : x y z
#
# Youngs Moduli (GPa) = 53.16231 83.54485 110.26176
#
# Poissons Ratio (x) = 0.70305 0.42618
# Poissons Ratio (y) = 0.44737 -0.01068
# Poissons Ratio (z) = 0.20548 -0.00809
#
# Static dielectric constant tensor:
#      x y z
#    x 3.469820 0.000000 0.000000 
#    y 0.000000 4.059810 0.000000 
#    z 0.000000 0.000000 4.009070 
# 
# 
# High freq. dielectric constant tensor:
#      x y z
#    x 1.782060 0.000000 0.000000 
#    y 0.000000 1.829580 0.000000 
#    z 0.000000 0.000000 1.837210 
# 
# From -- ./inp_files/1441.got.cif
#   From: 2010.03.12/outbox.cif.g09.slc.cpg/sg53_1_cif.got.tgz:1441.got - 2010.04.16 14:36:59.
