data_PCOD8219886
_publ_section_title
;
Structure prediction by ZEFSAII (Michael W. Deem and Ramdas Pophale) SiO2 
 PCOD8219886
Probable space group: P M N A
;
_chemical_formula_sum "Si O2"
_cell_formula_units_Z 64
_cell_length_a 8.882870
_cell_length_b 14.513174
_cell_length_c 25.051581
_cell_angle_alpha 90.000000
_cell_angle_beta 90.000000
_cell_angle_gamma 90.000000
_cell_volume 3229.615700
_symmetry_space_group_name_H-M "P M N A"
_symmetry_group_IT_number 53
_symmetry_cell_setting 'orthorhombic'
loop_
_space_group_symop_operation_xyz
x,y,z
1/2-x,-y,1/2+z
x,-y,-z
1/2-x,y,1/2-z
-x,-y,-z
1/2+x,y,1/2-z
-x,y,z
1/2+x,-y,1/2+z
loop_
_atom_site_type_symbol
_atom_site_label
_atom_site_fract_x
_atom_site_fract_y
_atom_site_fract_z
Si Si1 0.321198 0.784719 0.805325
Si Si2 0.833684 0.215277 0.018532
Si Si3 0.321835 0.517859 0.060924
Si Si4 0.176573 0.707176 0.092893
Si Si5 0.829374 0.349424 0.109227
Si Si6 0.822370 0.993430 0.666789
Si Si7 0.822175 0.179630 0.802954
Si Si8 0.676302 0.045845 0.051530
O O1 0.250000 0.750082 0.750000
O O2 0.500000 0.772834 0.804910
O O3 0.254350 0.721196 0.851724
O O4 0.276066 0.892060 0.812726
O O5 0.787531 0.226336 0.956942
O O6 0.000000 0.170914 0.022584
O O7 0.830145 0.312458 0.048541
O O8 0.715405 0.153061 0.050244
O O9 0.500000 0.510767 0.062288
O O10 0.271840 0.615705 0.084149
O O11 0.255746 0.446097 0.104084
O O12 0.264216 0.500000 0.000000
O O13 0.230802 0.760943 0.145952
O O14 0.000000 0.682240 0.095197
O O15 0.000000 0.364193 0.129962
O O16 0.766934 0.001077 0.605514
O O17 0.000000 0.009627 0.673480
O O18 0.733273 0.073698 0.696456
O O19 0.750000 0.225751 0.750000
O O20 0.000000 0.179807 0.798177
O O21 0.500000 0.034766 0.048893
O O22 0.755464 0.000000 0.000000
#
# Coordination Sequence:
#
# PCOD8219886 Si02
#       8
#     8   8   8   8   8   8   8   8
#     4  11  23  40  61  87 122 160 206 254 299 356
#     4  10  20  34  56  85 118 154 193 238 294 356
#     4  11  23  38  62  95 125 156 195 243 300 362
#     4  10  22  41  62  89 121 158 200 245 300 362
#     4  11  22  38  62  89 121 159 196 243 300 357
#     4  10  21  37  58  86 120 159 203 249 295 348
#     4  11  24  41  63  87 118 158 204 253 298 348
#     4  10  20  33  51  80 119 160 197 239 296 354
#
# _framework density 19.816599
#
# number of rings (size 3 to 8) (size 9 to 14) (size 15 to 20)
#    0.000    1.500    2.500    2.625    0.000    5.250 
#    0.000    0.625    0.000    1.500    0.000    0.000 
#    0.000    0.000    0.000    0.000    0.000    0.000 
#
# Total GULP energy -793484.983496 kJ/mol
# GULP energy per Si atom -12398.202867 kJ/mol
# Density = 1.977150 g / cm^3
# Si number density = 19.816599 Si / 1000 Ang^3
#
#
#
# Elastic Constant Matrix: (Units=GPa)
#
#
# Indices 1 2 3 4 5 6 
#
# 1 61.4639 34.3156 45.3665 0.0000 0.0000 0.0000
# 2 34.3156 88.9790 39.3802 0.0000 0.0000 0.0000
# 3 45.3665 39.3802 132.4063 0.0000 0.0000 0.0000
# 4 0.0000 0.0000 0.0000 18.0965 0.0000 0.0000
# 5 0.0000 0.0000 0.0000 0.0000 30.4260 0.0000
# 6 0.0000 0.0000 0.0000 0.0000 0.0000 33.1625
#
#
#
# Elastic Compliance Matrix: (Units=1/GPa)
#
#
# Indices 1 2 3 4 5 6 
#
# 1 0.024809 -0.006686 -0.006512 0.000000 0.000000 0.000000
# 2 -0.006686 0.014744 -0.002094 0.000000 0.000000 0.000000
# 3 -0.006512 -0.002094 0.010407 0.000000 0.000000 0.000000
# 4 0.000000 0.000000 0.000000 0.055259 0.000000 0.000000
# 5 0.000000 0.000000 0.000000 0.000000 0.032867 0.000000
# 6 0.000000 0.000000 0.000000 0.000000 0.000000 0.030155
#
#
# Mechanical properties :
#
#
# Convention : Reuss Voigt Hill
#
# Bulk Modulus (GPa) = 51.61177 57.88597 54.74887
# Shear Modulus (GPa) = 24.35673 27.25614 25.80643
#
# Velocity S-wave (km/s) = 3.50967 3.71269 3.61260
# Velocity P-wave (km/s) = 6.52111 6.90312 6.71483
#
# Compressibility (1/GPa) = 0.01937543
#
# Stress axis : x y z
#
# Youngs Moduli (GPa) = 40.30832 67.82434 96.09330
#
# Poissons Ratio (x) = 0.45346 0.62574
# Poissons Ratio (y) = 0.26949 0.20126
# Poissons Ratio (z) = 0.26248 0.14205
#
# Static dielectric constant tensor:
#      x y z
#    x 3.517530 0.000000 0.000000 
#    y 0.000000 3.464940 0.000000 
#    z 0.000000 0.000000 3.978310 
# 
# 
# High freq. dielectric constant tensor:
#      x y z
#    x 1.770800 0.000000 0.000000 
#    y 0.000000 1.761880 0.000000 
#    z 0.000000 0.000000 1.781740 
# 
# From -- ./inp_files/34252.got.cif
#   From: 2010.03.12/outbox.cif.g09.slc.cpg/sg53_18_cif.got.tgz:34252.got - 2010.04.16 14:36:59.
