data_PCOD8219760
_publ_section_title
;
Structure prediction by ZEFSAII (Michael W. Deem and Ramdas Pophale) SiO2 
 PCOD8219760
Probable space group: P M N A
;
_chemical_formula_sum "Si O2"
_cell_formula_units_Z 56
_cell_length_a 13.896782
_cell_length_b 14.086723
_cell_length_c 15.442191
_cell_angle_alpha 90.000000
_cell_angle_beta 90.000000
_cell_angle_gamma 90.000000
_cell_volume 3022.965142
_symmetry_space_group_name_H-M "P M N A"
_symmetry_group_IT_number 53
_symmetry_cell_setting 'orthorhombic'
loop_
_space_group_symop_operation_xyz
x,y,z
1/2-x,-y,1/2+z
x,-y,-z
1/2-x,y,1/2-z
-x,-y,-z
1/2+x,y,1/2-z
-x,y,z
1/2+x,-y,1/2+z
loop_
_atom_site_type_symbol
_atom_site_label
_atom_site_fract_x
_atom_site_fract_y
_atom_site_fract_z
Si Si1 0.237541 0.589420 0.046239
Si Si2 0.112350 0.882621 0.941468
Si Si3 0.303655 0.073850 0.618971
Si Si4 0.103148 0.346691 0.665490
Si Si5 0.894918 0.676009 0.905253
Si Si6 0.611032 0.863280 0.204048
Si Si7 0.152121 0.492735 0.204980
O O1 0.319090 0.651225 0.090218
O O2 0.161617 0.552542 0.116966
O O3 0.288252 0.500000 0.000000
O O4 0.184898 0.649966 0.974393
O O5 0.123026 0.786995 0.883587
O O6 0.000000 0.914387 0.945882
O O7 0.179959 0.962283 0.898861
O O8 0.153827 0.865233 0.038743
O O9 0.367357 0.094992 0.702564
O O10 0.189535 0.096013 0.634815
O O11 0.124353 0.250057 0.717108
O O12 0.097903 0.438589 0.728070
O O13 0.000000 0.340331 0.619090
O O14 0.895800 0.608571 0.819465
O O15 0.000000 0.666425 0.948869
O O16 0.500000 0.888213 0.176254
O O17 0.250000 0.463288 0.250000
#
# Coordination Sequence:
#
# PCOD8219760 Si02
#       7
#     8   8   8   8   8   8   8
#     4   9  19  33  50  74 107 139 172 211 255 311
#     4  10  20  35  55  79 105 138 182 219 267 324
#     4  10  20  35  56  76 107 141 167 227 275 310
#     4  10  20  32  52  78 106 139 174 214 260 314
#     4  10  20  33  53  79 105 138 176 217 259 310
#     4  10  21  34  54  83 106 135 175 217 267 321
#     4   9  19  33  49  73 110 141 172 210 258 311
#
# _framework density 18.524857999999998
#
# number of rings (size 3 to 8) (size 9 to 14) (size 15 to 20)
#    0.000    2.286    0.000    3.000    8.000    3.429 
#    2.571    1.429    0.000    0.857    0.000    0.000 
#    0.000    0.000    0.000    0.000    0.000    0.000 
#
# Total GULP energy -693756.828442 kJ/mol
# GULP energy per Si atom -12388.514794 kJ/mol
# Density = 1.848270 g / cm^3
# Si number density = 18.524858 Si / 1000 Ang^3
#
#
#
# Elastic Constant Matrix: (Units=GPa)
#
#
# Indices 1 2 3 4 5 6 
#
# 1 120.7280 51.8333 33.2680 0.0000 0.0000 0.0000
# 2 51.8333 117.9080 34.7467 0.0000 0.0000 0.0000
# 3 33.2680 34.7467 59.3069 0.0000 0.0000 0.0000
# 4 0.0000 0.0000 0.0000 24.0044 0.0000 0.0000
# 5 0.0000 0.0000 0.0000 0.0000 7.6270 0.0000
# 6 0.0000 0.0000 0.0000 0.0000 0.0000 -321.3459
#
#
#
# Elastic Compliance Matrix: (Units=1/GPa)
#
#
# Indices 1 2 3 4 5 6 
#
# 1 0.010948 -0.003630 -0.004015 0.000000 0.000000 0.000000
# 2 -0.003630 0.011454 -0.004675 0.000000 0.000000 0.000000
# 3 -0.004015 -0.004675 0.021852 0.000000 0.000000 0.000000
# 4 0.000000 0.000000 0.000000 0.041659 0.000000 0.000000
# 5 0.000000 0.000000 0.000000 0.000000 0.131114 0.000000
# 6 0.000000 0.000000 0.000000 0.000000 0.000000 -0.003112
#
#
# Mechanical properties :
#
#
# Convention : Reuss Voigt Hill
#
# Bulk Modulus (GPa) = 50.97797 59.73764 55.35781
# Shear Modulus (GPa) = 20.40046 -46.06992 -12.83473
#
# Velocity S-wave (km/s) = 3.32211 -4.99232 -2.63504
# Velocity P-wave (km/s) = 6.50335 0.95587 4.54862
#
# Compressibility (1/GPa) = 0.01961631
#
# Stress axis : x y z
#
# Youngs Moduli (GPa) = 91.34355 87.30219 45.76175
#
# Poissons Ratio (x) = 0.31687 0.18371
# Poissons Ratio (y) = 0.33154 0.21393
# Poissons Ratio (z) = 0.36670 0.40813
#
# Static dielectric constant tensor:
#      x y z
#    x 3.636540 0.000000 0.000000 
#    y 0.000000 3.520720 0.000000 
#    z 0.000000 0.000000 3.301830 
# 
# 
# High freq. dielectric constant tensor:
#      x y z
#    x 1.721020 0.000000 0.000000 
#    y 0.000000 1.724990 0.000000 
#    z 0.000000 0.000000 1.694640 
# 
# From -- ./inp_files/22969.got.cif
#   From: 2010.03.12/outbox.cif.g09.slc.cpg/sg53_12_cif.got.tgz:22969.got - 2010.04.16 14:36:59.
