data_PCOD8219041
_publ_section_title
;
Structure prediction by ZEFSAII (Michael W. Deem and Ramdas Pophale) SiO2 
 PCOD8219041
Probable space group: P M N A
;
_chemical_formula_sum "Si O2"
_cell_formula_units_Z 64
_cell_length_a 8.997409
_cell_length_b 15.459636
_cell_length_c 25.037695
_cell_angle_alpha 90.000000
_cell_angle_beta 90.000000
_cell_angle_gamma 90.000000
_cell_volume 3482.659951
_symmetry_space_group_name_H-M "P M N A"
_symmetry_group_IT_number 53
_symmetry_cell_setting 'orthorhombic'
loop_
_space_group_symop_operation_xyz
x,y,z
1/2-x,-y,1/2+z
x,-y,-z
1/2-x,y,1/2-z
-x,-y,-z
1/2+x,y,1/2-z
-x,y,z
1/2+x,-y,1/2+z
loop_
_atom_site_type_symbol
_atom_site_label
_atom_site_fract_x
_atom_site_fract_y
_atom_site_fract_z
Si Si1 0.168508 0.641965 0.938294
Si Si2 0.173644 0.888102 0.694884
Si Si3 0.165446 0.512199 0.699901
Si Si4 0.165924 0.697327 0.662208
Si Si5 0.326501 0.299566 0.962291
Si Si6 0.826447 0.873082 0.026836
Si Si7 0.669699 0.454324 0.596467
Si Si8 0.673101 0.049853 0.414201
O O1 0.205067 0.680575 0.880588
O O2 0.183279 0.538048 0.941710
O O3 0.000000 0.669288 0.953628
O O4 0.290285 0.684437 0.976060
O O5 0.250000 0.922688 0.750000
O O6 0.202086 0.785285 0.693237
O O7 0.237764 0.930420 0.640310
O O8 0.000000 0.911359 0.697792
O O9 0.250000 0.473055 0.750000
O O10 0.170270 0.616552 0.702489
O O11 0.238432 0.472741 0.648466
O O12 0.000000 0.476433 0.701834
O O13 0.000000 0.702591 0.636184
O O14 0.500000 0.309046 0.950413
O O15 0.271183 0.203654 0.948022
O O16 0.234653 0.369573 0.929891
O O17 0.000000 0.850285 0.029928
O O18 0.790232 0.954047 0.064716
O O19 0.783315 0.887884 0.964186
O O20 0.500000 0.436878 0.611793
O O21 0.500000 0.060057 0.400689
#
# Coordination Sequence:
#
# PCOD8219041 Si02
#       8
#     8   8   8   8   8   8   8   8
#     4  10  20  33  51  74 103 141 178 212 253 302
#     4  11  22  34  51  77 110 146 180 215 258 310
#     4  10  19  33  52  73 100 134 174 217 259 303
#     4   9  19  33  49  74 106 139 176 215 254 299
#     4  12  23  33  50  77 107 137 170 210 257 307
#     4   9  19  37  60  82 105 136 172 214 263 315
#     4  10  21  36  52  72 100 136 177 216 256 303
#     4   9  19  37  59  82 107 136 173 214 260 314
#
# _framework density 18.376757999999999
#
# number of rings (size 3 to 8) (size 9 to 14) (size 15 to 20)
#    0.000    2.000    0.000    4.875    0.000    7.500 
#    0.000    1.250    0.000    0.750    0.000    1.750 
#    0.000    0.000    0.000    0.000    0.000    0.000 
#
# Total GULP energy -793346.159547 kJ/mol
# GULP energy per Si atom -12396.033743 kJ/mol
# Density = 1.833493 g / cm^3
# Si number density = 18.376758 Si / 1000 Ang^3
#
#
#
# Elastic Constant Matrix: (Units=GPa)
#
#
# Indices 1 2 3 4 5 6 
#
# 1 106.6792 30.0039 35.2605 0.0000 0.0000 0.0000
# 2 30.0039 62.9428 16.6773 0.0000 0.0000 0.0000
# 3 35.2605 16.6773 71.2027 0.0000 0.0000 0.0000
# 4 0.0000 0.0000 0.0000 15.6587 0.0000 0.0000
# 5 0.0000 0.0000 0.0000 0.0000 32.2874 0.0000
# 6 0.0000 0.0000 0.0000 0.0000 0.0000 13.9721
#
#
#
# Elastic Compliance Matrix: (Units=1/GPa)
#
#
# Indices 1 2 3 4 5 6 
#
# 1 0.012314 -0.004536 -0.005036 0.000000 0.000000 0.000000
# 2 -0.004536 0.018609 -0.002113 0.000000 0.000000 0.000000
# 3 -0.005036 -0.002113 0.017033 0.000000 0.000000 0.000000
# 4 0.000000 0.000000 0.000000 0.063862 0.000000 0.000000
# 5 0.000000 0.000000 0.000000 0.000000 0.030972 0.000000
# 6 0.000000 0.000000 0.000000 0.000000 0.000000 0.071571
#
#
# Mechanical properties :
#
#
# Convention : Reuss Voigt Hill
#
# Bulk Modulus (GPa) = 40.66969 44.96758 42.81864
# Shear Modulus (GPa) = 20.33138 22.97586 21.65362
#
# Velocity S-wave (km/s) = 3.32981 3.53975 3.43638
# Velocity P-wave (km/s) = 6.07969 6.42101 6.25268
#
# Compressibility (1/GPa) = 0.02458833
#
# Stress axis : x y z
#
# Youngs Moduli (GPa) = 81.20838 53.73668 58.70965
#
# Poissons Ratio (x) = 0.24373 0.29564
# Poissons Ratio (y) = 0.36833 0.12403
# Poissons Ratio (z) = 0.40894 0.11352
#
# Static dielectric constant tensor:
#      x y z
#    x 3.405970 0.000000 0.000000 
#    y 0.000000 3.338780 0.000000 
#    z 0.000000 0.000000 3.192920 
# 
# 
# High freq. dielectric constant tensor:
#      x y z
#    x 1.722290 0.000000 0.000000 
#    y 0.000000 1.697980 0.000000 
#    z 0.000000 0.000000 1.700640 
# 
# From -- ./inp_files/34341.got.cif
#   From: 2010.03.12/outbox.cif.g09.slc.cpg/sg53_18_cif.got.tgz:34341.got - 2010.04.16 14:36:59.
