data_PCOD8219602
_publ_section_title
;
Structure prediction by ZEFSAII (Michael W. Deem and Ramdas Pophale) SiO2 
 PCOD8219602
Probable space group: P M N A
;
_chemical_formula_sum "Si O2"
_cell_formula_units_Z 64
_cell_length_a 15.316291
_cell_length_b 11.088978
_cell_length_c 18.126822
_cell_angle_alpha 90.000000
_cell_angle_beta 90.000000
_cell_angle_gamma 90.000000
_cell_volume 3078.695955
_symmetry_space_group_name_H-M "P M N A"
_symmetry_group_IT_number 53
_symmetry_cell_setting 'orthorhombic'
loop_
_space_group_symop_operation_xyz
x,y,z
1/2-x,-y,1/2+z
x,-y,-z
1/2-x,y,1/2-z
-x,-y,-z
1/2+x,y,1/2-z
-x,y,z
1/2+x,-y,1/2+z
loop_
_atom_site_type_symbol
_atom_site_label
_atom_site_fract_x
_atom_site_fract_y
_atom_site_fract_z
Si Si1 0.599624 0.126632 0.192384
Si Si2 0.095819 0.264068 0.778385
Si Si3 0.102498 0.865239 0.365385
Si Si4 0.097311 0.879437 0.079310
Si Si5 0.901691 0.133121 0.138198
Si Si6 0.776629 0.433679 0.831146
Si Si7 0.241192 0.299832 0.377273
Si Si8 0.265618 0.261471 0.959129
O O1 0.500000 0.170519 0.177709
O O2 0.613503 0.093132 0.277582
O O3 0.666738 0.231233 0.168670
O O4 0.620761 0.006184 0.147333
O O5 0.140872 0.216413 0.702418
O O6 0.099767 0.152490 0.834239
O O7 0.124950 0.383764 0.824433
O O8 0.000000 0.296717 0.752267
O O9 0.157944 0.831930 0.437801
O O10 0.000000 0.842806 0.379228
O O11 0.172106 0.806786 0.036004
O O12 0.000000 0.849587 0.046768
O O13 0.113509 0.023758 0.079821
O O14 0.833686 0.235400 0.118857
O O15 0.000000 0.183564 0.128745
O O16 0.750000 0.386029 0.750000
O O17 0.760848 0.574638 0.837248
O O18 0.730699 0.369951 0.900322
O O19 0.210468 0.317440 0.461561
#
# Coordination Sequence:
#
# PCOD8219602 Si02
#       8
#     8   8   8   8   8   8   8   8
#     4  10  21  39  64  92 124 162 206 257 306 358
#     4   9  17  34  62  93 113 137 195 264 306 336
#     4  10  19  36  65  94 119 152 203 260 309 357
#     4   9  18  34  60  89 118 152 200 250 300 356
#     4  10  20  37  61  89 122 161 204 255 306 362
#     4  11  22  41  64  84 109 156 212 257 295 342
#     4  12  26  40  55  88 131 167 200 241 309 383
#     4  11  24  39  59  87 125 165 200 253 312 364
#
# _framework density 20.788022999999999
#
# number of rings (size 3 to 8) (size 9 to 14) (size 15 to 20)
#    0.000    1.750    2.500    2.250    0.000    3.500 
#    0.000    3.750    0.000    5.250    0.000    0.000 
#    0.000    0.000    0.000    0.000    0.000    0.000 
#
# Total GULP energy -792982.560243 kJ/mol
# GULP energy per Si atom -12390.352504 kJ/mol
# Density = 2.074071 g / cm^3
# Si number density = 20.788023 Si / 1000 Ang^3
#
#
#
# Elastic Constant Matrix: (Units=GPa)
#
#
# Indices 1 2 3 4 5 6 
#
# 1 74.5418 44.5916 2.0441 0.0000 0.0000 0.0000
# 2 44.5916 106.8644 3.8126 0.0000 0.0000 0.0000
# 3 2.0441 3.8126 38.8628 0.0000 0.0000 0.0000
# 4 0.0000 0.0000 0.0000 26.9318 0.0000 0.0000
# 5 0.0000 0.0000 0.0000 0.0000 16.7446 0.0000
# 6 0.0000 0.0000 0.0000 0.0000 0.0000 18.1615
#
#
#
# Elastic Compliance Matrix: (Units=1/GPa)
#
#
# Indices 1 2 3 4 5 6 
#
# 1 0.017880 -0.007453 -0.000209 0.000000 0.000000 0.000000
# 2 -0.007453 0.012497 -0.000834 0.000000 0.000000 0.000000
# 3 -0.000209 -0.000834 0.025824 0.000000 0.000000 0.000000
# 4 0.000000 0.000000 0.000000 0.037131 0.000000 0.000000
# 5 0.000000 0.000000 0.000000 0.000000 0.059721 0.000000
# 6 0.000000 0.000000 0.000000 0.000000 0.000000 0.055062
#
#
# Mechanical properties :
#
#
# Convention : Reuss Voigt Hill
#
# Bulk Modulus (GPa) = 25.50470 35.68507 30.59488
# Shear Modulus (GPa) = 20.99279 23.68895 22.34087
#
# Velocity S-wave (km/s) = 3.18126 3.37938 3.28182
# Velocity P-wave (km/s) = 5.07833 5.69477 5.39536
#
# Compressibility (1/GPa) = 0.03920846
#
# Stress axis : x y z
#
# Youngs Moduli (GPa) = 55.92968 80.01648 38.72314
#
# Poissons Ratio (x) = 0.59638 0.00810
# Poissons Ratio (y) = 0.41686 0.03230
# Poissons Ratio (z) = 0.01170 0.06674
#
# Static dielectric constant tensor:
#      x y z
#    x 3.921230 0.000000 0.000000 
#    y 0.000000 3.467140 0.000000 
#    z 0.000000 0.000000 3.813490 
# 
# 
# High freq. dielectric constant tensor:
#      x y z
#    x 1.811440 0.000000 0.000000 
#    y 0.000000 1.794450 0.000000 
#    z 0.000000 0.000000 1.822950 
# 
# From -- ./inp_files/28513.got.cif
#   From: 2010.03.12/outbox.cif.g09.slc.cpg/sg53_15_cif.got.tgz:28513.got - 2010.04.16 14:36:59.
