data_PCOD8219430
_publ_section_title
;
Structure prediction by ZEFSAII (Michael W. Deem and Ramdas Pophale) SiO2 
 PCOD8219430
Probable space group: P M N A
;
_chemical_formula_sum "Si O2"
_cell_formula_units_Z 64
_cell_length_a 8.878603
_cell_length_b 21.504771
_cell_length_c 17.639899
_cell_angle_alpha 90.000000
_cell_angle_beta 90.000000
_cell_angle_gamma 90.000000
_cell_volume 3368.026917
_symmetry_space_group_name_H-M "P M N A"
_symmetry_group_IT_number 53
_symmetry_cell_setting 'orthorhombic'
loop_
_space_group_symop_operation_xyz
x,y,z
1/2-x,-y,1/2+z
x,-y,-z
1/2-x,y,1/2-z
-x,-y,-z
1/2+x,y,1/2-z
-x,y,z
1/2+x,-y,1/2+z
loop_
_atom_site_type_symbol
_atom_site_label
_atom_site_fract_x
_atom_site_fract_y
_atom_site_fract_z
Si Si1 0.323485 0.120488 0.099264
Si Si2 0.324382 0.313992 0.958608
Si Si3 0.172400 0.374354 0.173581
Si Si4 0.677079 0.101987 0.923679
Si Si5 0.321695 0.569988 0.517430
Si Si6 0.321514 0.996506 0.670787
Si Si7 0.673777 0.778972 0.169566
Si Si8 0.825115 0.247728 0.097681
O O1 0.500000 0.113148 0.115087
O O2 0.233855 0.072336 0.151054
O O3 0.269934 0.188613 0.124843
O O4 0.283471 0.110651 0.011490
O O5 0.500000 0.312589 0.980636
O O6 0.297192 0.284936 0.875741
O O7 0.261400 0.384357 0.958155
O O8 0.234046 0.271824 0.017415
O O9 0.250000 0.397216 0.250000
O O10 0.235502 0.412945 0.101813
O O11 0.198833 0.301077 0.160518
O O12 0.000000 0.390981 0.183452
O O13 0.500000 0.090279 0.912384
O O14 0.735199 0.162572 0.878610
O O15 0.767870 0.042498 0.895146
O O16 0.272796 0.500000 0.500000
O O17 0.500000 0.580395 0.509289
O O18 0.250000 0.018711 0.750000
O O19 0.500000 0.997777 0.677793
O O20 0.750000 0.773806 0.250000
O O21 0.500000 0.790136 0.184577
O O22 0.000000 0.230175 0.088871
#
# Coordination Sequence:
#
# PCOD8219430 Si02
#       8
#     8   8   8   8   8   8   8   8
#     4  11  22  39  62  86 114 148 185 235 292 342
#     4  10  19  35  56  82 114 146 186 232 278 331
#     4   9  19  34  54  82 113 148 186 229 277 329
#     4  10  21  40  61  83 112 147 187 234 289 344
#     4   9  19  37  59  83 113 151 192 233 281 336
#     4  12  26  42  58  81 111 148 193 239 290 346
#     4  10  21  36  55  83 114 147 186 231 284 339
#     4  10  20  35  56  83 113 147 189 229 276 338
#
# _framework density 19.002223000000001
#
# number of rings (size 3 to 8) (size 9 to 14) (size 15 to 20)
#    0.000    1.875    1.250    3.750    0.000    8.250 
#    0.000    1.875    0.000    3.000    0.000    0.000 
#    0.000    0.000    0.000    0.000    0.000    0.000 
#
# Total GULP energy -793798.813288 kJ/mol
# GULP energy per Si atom -12403.106458 kJ/mol
# Density = 1.895897 g / cm^3
# Si number density = 19.002223 Si / 1000 Ang^3
#
#
#
# Elastic Constant Matrix: (Units=GPa)
#
#
# Indices 1 2 3 4 5 6 
#
# 1 66.0386 28.0014 27.3691 0.0000 0.0000 0.0000
# 2 28.0014 108.0651 18.9788 0.0000 0.0000 0.0000
# 3 27.3691 18.9788 68.4994 0.0000 0.0000 0.0000
# 4 0.0000 0.0000 0.0000 19.8723 0.0000 0.0000
# 5 0.0000 0.0000 0.0000 0.0000 32.5680 0.0000
# 6 0.0000 0.0000 0.0000 0.0000 0.0000 21.3714
#
#
#
# Elastic Compliance Matrix: (Units=1/GPa)
#
#
# Indices 1 2 3 4 5 6 
#
# 1 0.019589 -0.003891 -0.006749 0.000000 0.000000 0.000000
# 2 -0.003891 0.010500 -0.001355 0.000000 0.000000 0.000000
# 3 -0.006749 -0.001355 0.017671 0.000000 0.000000 0.000000
# 4 0.000000 0.000000 0.000000 0.050321 0.000000 0.000000
# 5 0.000000 0.000000 0.000000 0.000000 0.030705 0.000000
# 6 0.000000 0.000000 0.000000 0.000000 0.000000 0.046791
#
#
# Mechanical properties :
#
#
# Convention : Reuss Voigt Hill
#
# Bulk Modulus (GPa) = 42.06777 43.47796 42.77286
# Shear Modulus (GPa) = 24.09759 25.97927 25.03843
#
# Velocity S-wave (km/s) = 3.56497 3.70154 3.63389
# Velocity P-wave (km/s) = 6.25554 6.41862 6.33760
#
# Compressibility (1/GPa) = 0.02377117
#
# Stress axis : x y z
#
# Youngs Moduli (GPa) = 51.04799 95.24082 56.59129
#
# Poissons Ratio (x) = 0.37055 0.38194
# Poissons Ratio (y) = 0.19861 0.07666
# Poissons Ratio (z) = 0.34452 0.12901
#
# Static dielectric constant tensor:
#      x y z
#    x 3.459410 0.000000 0.000000 
#    y 0.000000 3.583150 0.000000 
#    z 0.000000 0.000000 3.484200 
# 
# 
# High freq. dielectric constant tensor:
#      x y z
#    x 1.739730 0.000000 0.000000 
#    y 0.000000 1.738110 0.000000 
#    z 0.000000 0.000000 1.733880 
# 
# From -- ./inp_files/26985.got.cif
#   From: 2010.03.12/outbox.cif.g09.slc.cpg/sg53_14_cif.got.tgz:26985.got - 2010.04.16 14:36:59.
