data_PCOD8219749
_publ_section_title
;
Structure prediction by ZEFSAII (Michael W. Deem and Ramdas Pophale) SiO2 
 PCOD8219749
Probable space group: P M N A
;
_chemical_formula_sum "Si O2"
_cell_formula_units_Z 40
_cell_length_a 8.861121
_cell_length_b 12.810627
_cell_length_c 19.774466
_cell_angle_alpha 90.000000
_cell_angle_beta 90.000000
_cell_angle_gamma 90.000000
_cell_volume 2244.728485
_symmetry_space_group_name_H-M "P M N A"
_symmetry_group_IT_number 53
_symmetry_cell_setting 'orthorhombic'
loop_
_space_group_symop_operation_xyz
x,y,z
1/2-x,-y,1/2+z
x,-y,-z
1/2-x,y,1/2-z
-x,-y,-z
1/2+x,y,1/2-z
-x,y,z
1/2+x,-y,1/2+z
loop_
_atom_site_type_symbol
_atom_site_label
_atom_site_fract_x
_atom_site_fract_y
_atom_site_fract_z
Si Si1 0.320220 0.605979 0.178546
Si Si2 0.821438 0.219893 0.572702
Si Si3 0.166292 0.006483 0.419882
Si Si4 0.821327 0.387621 0.179072
Si Si5 0.175853 0.786530 0.929127
O O1 0.250000 0.639499 0.250000
O O2 0.500000 0.598146 0.184822
O O3 0.268122 0.691179 0.124000
O O4 0.252544 0.495793 0.154626
O O5 0.769522 0.106969 0.603226
O O6 0.752504 0.242871 0.499605
O O7 0.000000 0.218400 0.563061
O O8 0.000000 0.026974 0.388845
O O9 0.154865 0.000000 0.500000
O O10 0.273618 0.101628 0.398425
O O11 0.750000 0.352171 0.250000
O O12 0.778452 0.301195 0.124360
O O13 0.000000 0.402152 0.187474
O O14 0.000000 0.791196 0.942144
#
# Coordination Sequence:
#
# PCOD8219749 Si02
#       5
#     8   8   8   8   8
#     4  10  20  35  54  74  98 130 167 203 244 294
#     4   9  19  34  52  75 101 131 165 199 241 295
#     4   8  15  30  50  71  99 132 162 195 240 293
#     4  10  21  36  52  72  99 131 166 203 247 294
#     4  10  20  32  50  77 103 127 162 207 247 285
#
# _framework density 17.819527000000001
#
# number of rings (size 3 to 8) (size 9 to 14) (size 15 to 20)
#    0.000    2.600    0.000    4.200    0.000    9.200 
#    0.000    5.000    0.000    4.800    0.000    0.000 
#    0.000    0.000    0.000    0.000    0.000    0.000 
#
# Total GULP energy -495872.657914 kJ/mol
# GULP energy per Si atom -12396.816448 kJ/mol
# Density = 1.777897 g / cm^3
# Si number density = 17.819527 Si / 1000 Ang^3
#
#
#
# Elastic Constant Matrix: (Units=GPa)
#
#
# Indices 1 2 3 4 5 6 
#
# 1 69.2942 61.0247 46.8934 0.0000 0.0000 0.0000
# 2 61.0247 171.1314 97.5017 0.0000 0.0000 0.0000
# 3 46.8934 97.5017 93.7767 0.0000 0.0000 0.0000
# 4 0.0000 0.0000 0.0000 7.1618 0.0000 0.0000
# 5 0.0000 0.0000 0.0000 0.0000 12.6969 0.0000
# 6 0.0000 0.0000 0.0000 0.0000 0.0000 17.8578
#
#
#
# Elastic Compliance Matrix: (Units=1/GPa)
#
#
# Indices 1 2 3 4 5 6 
#
# 1 0.022890 -0.004026 -0.007260 0.000000 0.000000 0.000000
# 2 -0.004026 0.015044 -0.013628 0.000000 0.000000 0.000000
# 3 -0.007260 -0.013628 0.028464 0.000000 0.000000 0.000000
# 4 0.000000 0.000000 0.000000 0.139629 0.000000 0.000000
# 5 0.000000 0.000000 0.000000 0.000000 0.078760 0.000000
# 6 0.000000 0.000000 0.000000 0.000000 0.000000 0.055998
#
#
# Mechanical properties :
#
#
# Convention : Reuss Voigt Hill
#
# Bulk Modulus (GPa) = 60.35539 82.78243 71.56891
# Shear Modulus (GPa) = 12.62196 16.12881 14.37538
#
# Velocity S-wave (km/s) = 2.66432 3.01179 2.84336
# Velocity P-wave (km/s) = 6.58853 7.65842 7.14353
#
# Compressibility (1/GPa) = 0.01656853
#
# Stress axis : x y z
#
# Youngs Moduli (GPa) = 43.68726 66.47344 35.13252
#
# Poissons Ratio (x) = 0.26761 0.25508
# Poissons Ratio (y) = 0.17588 0.47879
# Poissons Ratio (z) = 0.31719 0.90590
#
# Static dielectric constant tensor:
#      x y z
#    x 3.339410 0.000000 0.000000 
#    y 0.000000 3.838460 0.000000 
#    z 0.000000 0.000000 3.095160 
# 
# 
# High freq. dielectric constant tensor:
#      x y z
#    x 1.695200 0.000000 0.000000 
#    y 0.000000 1.705160 0.000000 
#    z 0.000000 0.000000 1.663160 
# 
# From -- ./inp_files/30367.got.cif
#   From: 2010.03.12/outbox.cif.g09.slc.cpg/sg53_16_cif.got.tgz:30367.got - 2010.04.16 14:36:59.
