data_PCOD8219739
_publ_section_title
;
Structure prediction by ZEFSAII (Michael W. Deem and Ramdas Pophale) SiO2 
 PCOD8219739
Probable space group: P M N A
;
_chemical_formula_sum "Si O2"
_cell_formula_units_Z 56
_cell_length_a 8.917398
_cell_length_b 18.858148
_cell_length_c 16.990479
_cell_angle_alpha 90.000000
_cell_angle_beta 90.000000
_cell_angle_gamma 90.000000
_cell_volume 2857.214287
_symmetry_space_group_name_H-M "P M N A"
_symmetry_group_IT_number 53
_symmetry_cell_setting 'orthorhombic'
loop_
_space_group_symop_operation_xyz
x,y,z
1/2-x,-y,1/2+z
x,-y,-z
1/2-x,y,1/2-z
-x,-y,-z
1/2+x,y,1/2-z
-x,y,z
1/2+x,-y,1/2+z
loop_
_atom_site_type_symbol
_atom_site_label
_atom_site_fract_x
_atom_site_fract_y
_atom_site_fract_z
Si Si1 0.322067 0.329567 0.665614
Si Si2 0.176573 0.148181 0.168634
Si Si3 0.170366 0.725444 0.594023
Si Si4 0.328525 0.787020 0.074321
Si Si5 0.671359 0.586295 0.827430
Si Si6 0.324266 0.920225 0.979330
Si Si7 0.677045 0.455588 0.923246
O O1 0.250000 0.348621 0.750000
O O2 0.500000 0.334604 0.672649
O O3 0.274703 0.249081 0.641218
O O4 0.264278 0.383180 0.597063
O O5 0.250000 0.122554 0.250000
O O6 0.221156 0.229148 0.149872
O O7 0.233932 0.098039 0.098848
O O8 0.000000 0.141236 0.176003
O O9 0.196010 0.740969 0.503419
O O10 0.206695 0.642233 0.603110
O O11 0.000000 0.743865 0.619126
O O12 0.500000 0.784460 0.104052
O O13 0.280705 0.868052 0.052523
O O14 0.750000 0.613373 0.750000
O O15 0.500000 0.586807 0.805983
O O16 0.718733 0.507525 0.851396
O O17 0.500000 0.910159 0.961311
O O18 0.281340 0.000000 0.000000
O O19 0.500000 0.438475 0.930588
O O20 0.730661 0.500000 0.000000
#
# Coordination Sequence:
#
# PCOD8219739 Si02
#       7
#     8   8   8   8   8   8   8
#     4  12  25  40  59  83 113 150 196 245 291 341
#     4  11  21  33  52  80 114 150 188 227 270 324
#     4   9  18  34  55  79 108 143 181 220 269 329
#     4   9  18  36  61  85 110 141 179 223 273 331
#     4  10  20  32  49  74 103 136 173 216 268 324
#     4   9  19  38  63  88 115 147 182 224 279 340
#     4  10  21  39  60  79 104 142 187 235 290 345
#
# _framework density 19.599509999999999
#
# number of rings (size 3 to 8) (size 9 to 14) (size 15 to 20)
#    0.000    2.000    0.000    5.143    0.000    8.571 
#    0.000    2.143    0.000    0.000    0.000    0.000 
#    0.000    0.000    0.000    0.000    0.000    0.000 
#
# Total GULP energy -694199.376276 kJ/mol
# GULP energy per Si atom -12396.417434 kJ/mol
# Density = 1.955490 g / cm^3
# Si number density = 19.599510 Si / 1000 Ang^3
#
#
#
# Elastic Constant Matrix: (Units=GPa)
#
#
# Indices 1 2 3 4 5 6 
#
# 1 104.3061 47.0875 46.3088 0.0000 0.0000 0.0000
# 2 47.0875 116.5610 31.9210 0.0000 0.0000 0.0000
# 3 46.3088 31.9210 76.9700 0.0000 0.0000 0.0000
# 4 0.0000 0.0000 0.0000 16.5563 0.0000 0.0000
# 5 0.0000 0.0000 0.0000 0.0000 30.8520 0.0000
# 6 0.0000 0.0000 0.0000 0.0000 0.0000 38.7395
#
#
#
# Elastic Compliance Matrix: (Units=1/GPa)
#
#
# Indices 1 2 3 4 5 6 
#
# 1 0.014510 -0.003915 -0.007106 0.000000 0.000000 0.000000
# 2 -0.003915 0.010735 -0.002096 0.000000 0.000000 0.000000
# 3 -0.007106 -0.002096 0.018137 0.000000 0.000000 0.000000
# 4 0.000000 0.000000 0.000000 0.060400 0.000000 0.000000
# 5 0.000000 0.000000 0.000000 0.000000 0.032413 0.000000
# 6 0.000000 0.000000 0.000000 0.000000 0.000000 0.025813
#
#
# Mechanical properties :
#
#
# Convention : Reuss Voigt Hill
#
# Bulk Modulus (GPa) = 58.32249 60.94133 59.63191
# Shear Modulus (GPa) = 25.77877 28.73086 27.25482
#
# Velocity S-wave (km/s) = 3.63061 3.83286 3.73310
# Velocity P-wave (km/s) = 6.88453 7.12380 7.00519
#
# Compressibility (1/GPa) = 0.01714605
#
# Stress axis : x y z
#
# Youngs Moduli (GPa) = 68.92026 93.15297 55.13703
#
# Poissons Ratio (x) = 0.36474 0.39179
# Poissons Ratio (y) = 0.26986 0.11558
# Poissons Ratio (z) = 0.48973 0.19528
#
# Static dielectric constant tensor:
#      x y z
#    x 3.410070 0.000000 0.000000 
#    y 0.000000 3.778350 0.000000 
#    z 0.000000 0.000000 3.532820 
# 
# 
# High freq. dielectric constant tensor:
#      x y z
#    x 1.749070 0.000000 0.000000 
#    y 0.000000 1.763910 0.000000 
#    z 0.000000 0.000000 1.759270 
# 
# From -- ./inp_files/20529.got.cif
#   From: 2010.03.12/outbox.cif.g09.slc.cpg/sg53_11_cif.got.tgz:20529.got - 2010.04.16 14:36:59.
