data_PCOD8219721
_publ_section_title
;
Structure prediction by ZEFSAII (Michael W. Deem and Ramdas Pophale) SiO2 
 PCOD8219721
Probable space group: P M N A
;
_chemical_formula_sum "Si O2"
_cell_formula_units_Z 64
_cell_length_a 9.067384
_cell_length_b 21.151657
_cell_length_c 19.023913
_cell_angle_alpha 90.000000
_cell_angle_beta 90.000000
_cell_angle_gamma 90.000000
_cell_volume 3648.600008
_symmetry_space_group_name_H-M "P M N A"
_symmetry_group_IT_number 53
_symmetry_cell_setting 'orthorhombic'
loop_
_space_group_symop_operation_xyz
x,y,z
1/2-x,-y,1/2+z
x,-y,-z
1/2-x,y,1/2-z
-x,-y,-z
1/2+x,y,1/2-z
-x,y,z
1/2+x,-y,1/2+z
loop_
_atom_site_type_symbol
_atom_site_label
_atom_site_fract_x
_atom_site_fract_y
_atom_site_fract_z
Si Si1 0.334346 0.695262 0.498492
Si Si2 0.330074 0.857794 0.402252
Si Si3 0.827961 0.604457 0.319461
Si Si4 0.668423 0.739384 0.131200
Si Si5 0.328574 0.106794 0.179279
Si Si6 0.173437 0.038250 0.678092
Si Si7 0.164924 0.818991 0.937071
Si Si8 0.330500 0.560567 0.459439
O O1 0.500000 0.707918 0.466121
O O2 0.205285 0.713543 0.445755
O O3 0.317770 0.741953 0.565782
O O4 0.317776 0.620410 0.513463
O O5 0.500000 0.869106 0.384186
O O6 0.270755 0.800264 0.352890
O O7 0.239473 0.921198 0.385705
O O8 0.303509 0.841917 0.483679
O O9 0.750000 0.576406 0.250000
O O10 0.802624 0.680457 0.317099
O O11 0.758308 0.572375 0.388098
O O12 0.000000 0.587577 0.318402
O O13 0.500000 0.762128 0.133622
O O14 0.250000 0.130126 0.250000
O O15 0.500000 0.115504 0.191801
O O16 0.281309 0.150034 0.114524
O O17 0.287406 0.034499 0.161888
O O18 0.250000 0.060440 0.750000
O O19 0.000000 0.049465 0.684497
O O20 0.000000 0.838998 0.914065
O O21 0.264492 0.500000 0.500000
O O22 0.500000 0.548337 0.438359
#
# Coordination Sequence:
#
# PCOD8219721 Si02
#       8
#     8   8   8   8   8   8   8   8
#     4   8  15  29  48  72 100 127 156 191 235 287
#     4  10  20  33  50  73 101 133 165 200 244 293
#     4  10  20  32  48  71 100 134 171 211 249 288
#     4   9  17  29  45  67  95 127 162 199 239 283
#     4  10  21  36  54  73  94 123 161 206 255 305
#     4  10  21  36  51  68  93 126 163 204 249 299
#     4   9  18  32  51  74 100 129 160 199 245 291
#     4   9  17  31  53  78 104 136 170 203 244 294
#
# _framework density 17.540973999999999
#
# number of rings (size 3 to 8) (size 9 to 14) (size 15 to 20)
#    0.000    2.625    0.000    2.625    0.000    6.750 
#    0.000    3.750    0.000    0.750    0.000    0.000 
#    0.000    0.000    0.000    0.000    0.000    0.000 
#
# Total GULP energy -793231.039203 kJ/mol
# GULP energy per Si atom -12394.234988 kJ/mol
# Density = 1.750105 g / cm^3
# Si number density = 17.540974 Si / 1000 Ang^3
#
#
#
# Elastic Constant Matrix: (Units=GPa)
#
#
# Indices 1 2 3 4 5 6 
#
# 1 89.1255 45.6270 46.7834 0.0000 0.0000 0.0000
# 2 45.6270 103.9105 52.8750 0.0000 0.0000 0.0000
# 3 46.7834 52.8750 74.3029 0.0000 0.0000 0.0000
# 4 0.0000 0.0000 0.0000 20.1946 0.0000 0.0000
# 5 0.0000 0.0000 0.0000 0.0000 28.8144 0.0000
# 6 0.0000 0.0000 0.0000 0.0000 0.0000 24.5957
#
#
#
# Elastic Compliance Matrix: (Units=1/GPa)
#
#
# Indices 1 2 3 4 5 6 
#
# 1 0.017430 -0.003244 -0.008666 0.000000 0.000000 0.000000
# 2 -0.003244 0.015690 -0.009123 0.000000 0.000000 0.000000
# 3 -0.008666 -0.009123 0.025407 0.000000 0.000000 0.000000
# 4 0.000000 0.000000 0.000000 0.049518 0.000000 0.000000
# 5 0.000000 0.000000 0.000000 0.000000 0.034705 0.000000
# 6 0.000000 0.000000 0.000000 0.000000 0.000000 0.040657
#
#
# Mechanical properties :
#
#
# Convention : Reuss Voigt Hill
#
# Bulk Modulus (GPa) = 60.74853 61.98997 61.36925
# Shear Modulus (GPa) = 21.64877 22.85784 22.25330
#
# Velocity S-wave (km/s) = 3.51690 3.61378 3.56567
# Velocity P-wave (km/s) = 7.15535 7.26838 7.21209
#
# Compressibility (1/GPa) = 0.01646130
#
# Stress axis : x y z
#
# Youngs Moduli (GPa) = 57.37361 63.73385 39.35924
#
# Poissons Ratio (x) = 0.20673 0.34109
# Poissons Ratio (y) = 0.18610 0.35908
# Poissons Ratio (z) = 0.49720 0.58145
#
# Static dielectric constant tensor:
#      x y z
#    x 3.306820 0.000000 0.000000 
#    y 0.000000 3.412740 0.000000 
#    z 0.000000 0.000000 2.952230 
# 
# 
# High freq. dielectric constant tensor:
#      x y z
#    x 1.689120 0.000000 0.000000 
#    y 0.000000 1.672800 0.000000 
#    z 0.000000 0.000000 1.643670 
# 
# From -- ./inp_files/27007.got.cif
#   From: 2010.03.12/outbox.cif.g09.slc.cpg/sg53_14_cif.got.tgz:27007.got - 2010.04.16 14:36:59.
