data_PCOD8219472
_publ_section_title
;
Structure prediction by ZEFSAII (Michael W. Deem and Ramdas Pophale) SiO2 
 PCOD8219472
Probable space group: P M N A
;
_chemical_formula_sum "Si O2"
_cell_formula_units_Z 64
_cell_length_a 8.898987
_cell_length_b 18.531122
_cell_length_c 19.603492
_cell_angle_alpha 90.000000
_cell_angle_beta 90.000000
_cell_angle_gamma 90.000000
_cell_volume 3232.776849
_symmetry_space_group_name_H-M "P M N A"
_symmetry_group_IT_number 53
_symmetry_cell_setting 'orthorhombic'
loop_
_space_group_symop_operation_xyz
x,y,z
1/2-x,-y,1/2+z
x,-y,-z
1/2-x,y,1/2-z
-x,-y,-z
1/2+x,y,1/2-z
-x,y,z
1/2+x,-y,1/2+z
loop_
_atom_site_type_symbol
_atom_site_label
_atom_site_fract_x
_atom_site_fract_y
_atom_site_fract_z
Si Si1 0.823490 0.762936 0.180694
Si Si2 0.675252 0.712109 0.465037
Si Si3 0.169353 0.975262 0.923142
Si Si4 0.669944 0.570167 0.545351
Si Si5 0.820573 0.917574 0.320501
Si Si6 0.677053 0.576904 0.817221
Si Si7 0.668213 0.261391 0.188248
Si Si8 0.671746 0.827307 0.946444
O O1 0.750000 0.730163 0.250000
O O2 0.796787 0.708361 0.117029
O O3 0.746267 0.839097 0.163073
O O4 0.000000 0.776050 0.193322
O O5 0.500000 0.722959 0.480131
O O6 0.734795 0.639333 0.502553
O O7 0.760089 0.784170 0.489940
O O8 0.234105 0.895481 0.923271
O O9 0.000000 0.975430 0.893090
O O10 0.275613 0.027576 0.880009
O O11 0.168789 0.000000 0.000000
O O12 0.676532 0.500000 0.500000
O O13 0.500000 0.587777 0.567702
O O14 0.765428 0.546106 0.611118
O O15 0.750000 0.946855 0.250000
O O16 0.000000 0.913617 0.315251
O O17 0.750000 0.538923 0.750000
O O18 0.500000 0.567065 0.813440
O O19 0.736404 0.658985 0.819387
O O20 0.750000 0.218923 0.250000
O O21 0.500000 0.267345 0.213107
O O22 0.685341 0.225114 0.116640
O O23 0.500000 0.848890 0.963261
#
# Coordination Sequence:
#
# PCOD8219472 Si02
#       8
#     8   8   8   8   8   8   8   8
#     4  10  20  36  58  84 111 143 186 234 286 344
#     4  10  21  37  58  83 113 149 188 234 289 346
#     4  11  24  40  56  78 111 150 191 235 285 341
#     4  10  21  38  60  87 120 158 197 239 289 346
#     4  11  22  38  60  84 112 149 191 236 287 343
#     4  10  19  35  58  85 116 152 192 233 278 333
#     4   9  19  33  51  78 109 141 178 224 270 323
#     4  11  22  36  55  82 112 144 188 238 286 339
#
# _framework density 19.797222000000001
#
# number of rings (size 3 to 8) (size 9 to 14) (size 15 to 20)
#    0.000    1.750    1.250    4.125    0.000    7.250 
#    0.000    1.875    0.000    1.500    0.000    0.000 
#    0.000    0.000    0.000    0.000    0.000    0.000 
#
# Total GULP energy -793372.187300 kJ/mol
# GULP energy per Si atom -12396.440427 kJ/mol
# Density = 1.975216 g / cm^3
# Si number density = 19.797222 Si / 1000 Ang^3
#
#
#
# Elastic Constant Matrix: (Units=GPa)
#
#
# Indices 1 2 3 4 5 6 
#
# 1 112.7969 20.3768 61.3664 0.0000 0.0000 0.0000
# 2 20.3768 38.8301 25.7005 0.0000 0.0000 0.0000
# 3 61.3664 25.7005 119.1166 0.0000 0.0000 0.0000
# 4 0.0000 0.0000 0.0000 -10.9927 0.0000 0.0000
# 5 0.0000 0.0000 0.0000 0.0000 39.2986 0.0000
# 6 0.0000 0.0000 0.0000 0.0000 0.0000 20.5612
#
#
#
# Elastic Compliance Matrix: (Units=1/GPa)
#
#
# Indices 1 2 3 4 5 6 
#
# 1 0.012555 -0.002692 -0.005887 0.000000 0.000000 0.000000
# 2 -0.002692 0.030621 -0.005220 0.000000 0.000000 0.000000
# 3 -0.005887 -0.005220 0.012554 0.000000 0.000000 0.000000
# 4 0.000000 0.000000 0.000000 -0.090970 0.000000 0.000000
# 5 0.000000 0.000000 0.000000 0.000000 0.025446 0.000000
# 6 0.000000 0.000000 0.000000 0.000000 0.000000 0.048635
#
#
# Mechanical properties :
#
#
# Convention : Reuss Voigt Hill
#
# Bulk Modulus (GPa) = 35.54677 53.95902 44.75289
# Shear Modulus (GPa) = 65.94878 20.66008 43.30443
#
# Velocity S-wave (km/s) = 5.77793 3.23396 4.68204
# Velocity P-wave (km/s) = 7.90614 6.42337 7.20301
#
# Compressibility (1/GPa) = 0.02813195
#
# Stress axis : x y z
#
# Youngs Moduli (GPa) = 79.65214 32.65765 79.65398
#
# Poissons Ratio (x) = 0.08791 0.46893
# Poissons Ratio (y) = 0.21440 0.41579
# Poissons Ratio (z) = 0.46892 0.17047
#
# Static dielectric constant tensor:
#      x y z
#    x 3.789250 0.000000 0.000000 
#    y 0.000000 3.348910 0.000000 
#    z 0.000000 0.000000 3.818810 
# 
# 
# High freq. dielectric constant tensor:
#      x y z
#    x 1.779010 0.000000 0.000000 
#    y 0.000000 1.744800 0.000000 
#    z 0.000000 0.000000 1.789710 
# 
# From -- ./inp_files/26869.got.cif
#   From: 2010.03.12/outbox.cif.g09.slc.cpg/sg53_14_cif.got.tgz:26869.got - 2010.04.16 14:36:59.
