data_PCOD8219166
_publ_section_title
;
Structure prediction by ZEFSAII (Michael W. Deem and Ramdas Pophale) SiO2 
 PCOD8219166
Probable space group: P M N A
;
_chemical_formula_sum "Si O2"
_cell_formula_units_Z 48
_cell_length_a 19.399680
_cell_length_b 13.698314
_cell_length_c 9.879681
_cell_angle_alpha 90.000000
_cell_angle_beta 90.000000
_cell_angle_gamma 90.000000
_cell_volume 2625.455160
_symmetry_space_group_name_H-M "P M N A"
_symmetry_group_IT_number 53
_symmetry_cell_setting 'orthorhombic'
loop_
_space_group_symop_operation_xyz
x,y,z
1/2-x,-y,1/2+z
x,-y,-z
1/2-x,y,1/2-z
-x,-y,-z
1/2+x,y,1/2-z
-x,y,z
1/2+x,-y,1/2+z
loop_
_atom_site_type_symbol
_atom_site_label
_atom_site_fract_x
_atom_site_fract_y
_atom_site_fract_z
Si Si1 0.814580 0.883570 0.156293
Si Si2 0.920932 0.268302 0.733655
Si Si3 0.315095 0.889640 0.659335
Si Si4 0.581348 0.390137 0.015233
Si Si5 0.921248 0.604755 0.013423
Si Si6 0.918966 0.267241 0.224845
O O1 0.750000 0.854123 0.250000
O O2 0.879441 0.824354 0.213083
O O3 0.832625 0.996736 0.173270
O O4 0.801099 0.860409 0.997674
O O5 0.889928 0.313524 0.595855
O O6 0.000000 0.233428 0.718238
O O7 0.914846 0.359033 0.834858
O O8 0.250000 0.860640 0.750000
O O9 0.379583 0.835355 0.729233
O O10 0.500000 0.397969 0.993956
O O11 0.612861 0.500000 0.000000
O O12 0.601399 0.343091 0.157911
O O13 0.889516 0.683364 0.911494
O O14 0.000000 0.591892 0.965239
O O15 0.883503 0.500000 0.000000
O O16 0.000000 0.243232 0.225447
#
# Coordination Sequence:
#
# PCOD8219166 Si02
#       6
#     8   8   8   8   8   8
#     4  10  22  39  58  79 106 143 181 220 272 330
#     4  10  19  33  55  84 110 139 180 224 269 311
#     4  10  22  39  58  79 106 143 181 220 272 330
#     4   9  18  32  52  81 116 148 177 215 266 321
#     4   9  16  28  50  79 108 136 173 219 264 315
#     4  10  19  33  55  84 110 139 180 224 269 311
#
# _framework density 18.282544999999999
#
# number of rings (size 3 to 8) (size 9 to 14) (size 15 to 20)
#    0.000    2.333    1.667    1.000    2.333    4.667 
#    0.000    1.667    0.000    9.000    0.000    0.000 
#    0.000    0.000    0.000    0.000    0.000    0.000 
#
# Total GULP energy -594975.460518 kJ/mol
# GULP energy per Si atom -12395.322094 kJ/mol
# Density = 1.824093 g / cm^3
# Si number density = 18.282545 Si / 1000 Ang^3
#
#
#
# Elastic Constant Matrix: (Units=GPa)
#
#
# Indices 1 2 3 4 5 6 
#
# 1 67.9717 54.4987 36.7148 0.0000 0.0000 0.0000
# 2 54.4987 95.7068 33.7542 0.0000 0.0000 0.0000
# 3 36.7148 33.7542 92.4452 0.0000 0.0000 0.0000
# 4 0.0000 0.0000 0.0000 32.8176 0.0000 0.0000
# 5 0.0000 0.0000 0.0000 0.0000 22.0610 0.0000
# 6 0.0000 0.0000 0.0000 0.0000 0.0000 10.2746
#
#
#
# Elastic Compliance Matrix: (Units=1/GPa)
#
#
# Indices 1 2 3 4 5 6 
#
# 1 0.030176 -0.014872 -0.006555 0.000000 0.000000 0.000000
# 2 -0.014872 0.019322 -0.001149 0.000000 0.000000 0.000000
# 3 -0.006555 -0.001149 0.013840 0.000000 0.000000 0.000000
# 4 0.000000 0.000000 0.000000 0.030471 0.000000 0.000000
# 5 0.000000 0.000000 0.000000 0.000000 0.045329 0.000000
# 6 0.000000 0.000000 0.000000 0.000000 0.000000 0.097328
#
#
# Mechanical properties :
#
#
# Convention : Reuss Voigt Hill
#
# Bulk Modulus (GPa) = 54.98021 56.22878 55.60450
# Shear Modulus (GPa) = 17.38047 21.77437 19.57742
#
# Velocity S-wave (km/s) = 3.08662 3.45482 3.27590
# Velocity P-wave (km/s) = 6.54529 6.83642 6.69243
#
# Compressibility (1/GPa) = 0.01818836
#
# Stress axis : x y z
#
# Youngs Moduli (GPa) = 33.13849 51.75397 72.25541
#
# Poissons Ratio (x) = 0.76967 0.47360
# Poissons Ratio (y) = 0.49283 0.08300
# Poissons Ratio (z) = 0.21721 0.05945
#
# Static dielectric constant tensor:
#      x y z
#    x 2.977680 0.000000 0.000000 
#    y 0.000000 3.421810 0.000000 
#    z 0.000000 0.000000 3.567200 
# 
# 
# High freq. dielectric constant tensor:
#      x y z
#    x 1.662050 0.000000 0.000000 
#    y 0.000000 1.716800 0.000000 
#    z 0.000000 0.000000 1.726360 
# 
# From -- ./inp_files/10921.got.cif
#   From: 2010.03.12/outbox.cif.g09.slc.cpg/sg53_6_cif.got.tgz:10921.got - 2010.04.16 14:36:59.
