data_PCOD8219082
_publ_section_title
;
Structure prediction by ZEFSAII (Michael W. Deem and Ramdas Pophale) SiO2 
 PCOD8219082
Probable space group: P M N A
;
_chemical_formula_sum "Si O2"
_cell_formula_units_Z 64
_cell_length_a 18.959696
_cell_length_b 8.700449
_cell_length_c 20.201547
_cell_angle_alpha 90.000000
_cell_angle_beta 90.000000
_cell_angle_gamma 90.000000
_cell_volume 3332.404126
_symmetry_space_group_name_H-M "P M N A"
_symmetry_group_IT_number 53
_symmetry_cell_setting 'orthorhombic'
loop_
_space_group_symop_operation_xyz
x,y,z
1/2-x,-y,1/2+z
x,-y,-z
1/2-x,y,1/2-z
-x,-y,-z
1/2+x,y,1/2-z
-x,y,z
1/2+x,-y,1/2+z
loop_
_atom_site_type_symbol
_atom_site_label
_atom_site_fract_x
_atom_site_fract_y
_atom_site_fract_z
Si Si1 0.140536 0.941981 0.064979
Si Si2 0.176959 0.073265 0.289181
Si Si3 0.711783 0.087252 0.063540
Si Si4 0.671030 0.560940 0.931864
Si Si5 0.582594 0.366234 0.191932
Si Si6 0.818121 0.583328 0.067896
Si Si7 0.076843 0.095239 0.800816
Si Si8 0.077154 0.452755 0.821328
O O1 0.167038 0.765238 0.063362
O O2 0.095453 0.983903 0.129334
O O3 0.205663 0.058952 0.063806
O O4 0.096716 0.000000 0.000000
O O5 0.250000 0.106024 0.250000
O O6 0.184447 0.024152 0.365757
O O7 0.126488 0.219294 0.285653
O O8 0.136537 0.934865 0.253496
O O9 0.699766 0.267964 0.056451
O O10 0.676066 0.000000 0.000000
O O11 0.611910 0.558243 0.875394
O O12 0.736442 0.448707 0.913574
O O13 0.636010 0.500000 0.000000
O O14 0.500000 0.326565 0.182304
O O15 0.597215 0.486279 0.249526
O O16 0.865361 0.501595 0.124142
O O17 0.838424 0.500000 0.000000
O O18 0.073947 0.272711 0.814317
O O19 0.000000 0.033840 0.777500
O O20 0.000000 0.515495 0.843453
#
# Coordination Sequence:
#
# PCOD8219082 Si02
#       8
#     8   8   8   8   8   8   8   8
#     4  10  19  33  53  79 114 149 187 233 279 334
#     4  11  22  37  59  88 113 146 193 231 282 337
#     4  10  20  35  56  81 117 142 181 237 280 329
#     4  10  21  36  57  84 109 145 190 236 283 332
#     4  10  23  40  59  84 115 151 186 234 289 343
#     4  10  20  33  53  82 112 146 192 235 278 328
#     4  10  21  38  56  80 116 151 186 233 281 336
#     4   9  21  38  55  79 115 153 187 228 284 340
#
# _framework density 19.205354
#
# number of rings (size 3 to 8) (size 9 to 14) (size 15 to 20)
#    0.000    2.000    1.250    3.375    3.500    3.750 
#    0.000    0.000    0.000    9.375    0.000    0.000 
#    0.000    0.500    0.000    0.000    0.000    0.000 
#
# Total GULP energy -793190.937590 kJ/mol
# GULP energy per Si atom -12393.608400 kJ/mol
# Density = 1.916164 g / cm^3
# Si number density = 19.205354 Si / 1000 Ang^3
#
#
#
# Elastic Constant Matrix: (Units=GPa)
#
#
# Indices 1 2 3 4 5 6 
#
# 1 109.0932 20.6329 65.7515 0.0000 0.0000 0.0000
# 2 20.6329 34.2918 28.4750 0.0000 0.0000 0.0000
# 3 65.7515 28.4750 143.6619 0.0000 0.0000 0.0000
# 4 0.0000 0.0000 0.0000 31.7129 0.0000 0.0000
# 5 0.0000 0.0000 0.0000 0.0000 26.4794 0.0000
# 6 0.0000 0.0000 0.0000 0.0000 0.0000 22.1647
#
#
#
# Elastic Compliance Matrix: (Units=1/GPa)
#
#
# Indices 1 2 3 4 5 6 
#
# 1 0.012990 -0.003446 -0.005262 0.000000 0.000000 0.000000
# 2 -0.003446 0.035821 -0.005523 0.000000 0.000000 0.000000
# 3 -0.005262 -0.005523 0.010464 0.000000 0.000000 0.000000
# 4 0.000000 0.000000 0.000000 0.031533 0.000000 0.000000
# 5 0.000000 0.000000 0.000000 0.000000 0.037765 0.000000
# 6 0.000000 0.000000 0.000000 0.000000 0.000000 0.045117
#
#
# Mechanical properties :
#
#
# Convention : Reuss Voigt Hill
#
# Bulk Modulus (GPa) = 32.45447 57.41840 44.93643
# Shear Modulus (GPa) = 23.53799 27.55056 25.54428
#
# Velocity S-wave (km/s) = 3.50465 3.79162 3.65096
# Velocity P-wave (km/s) = 5.77166 7.00932 6.42038
#
# Compressibility (1/GPa) = 0.03081240
#
# Stress axis : x y z
#
# Youngs Moduli (GPa) = 76.98349 27.91660 95.56746
#
# Poissons Ratio (x) = 0.09621 0.50289
# Poissons Ratio (y) = 0.26530 0.52779
# Poissons Ratio (z) = 0.40510 0.15418
#
# Static dielectric constant tensor:
#      x y z
#    x 3.683970 0.000000 0.000000 
#    y 0.000000 3.439860 0.000000 
#    z 0.000000 0.000000 4.313100 
# 
# 
# High freq. dielectric constant tensor:
#      x y z
#    x 1.735410 0.000000 0.000000 
#    y 0.000000 1.743680 0.000000 
#    z 0.000000 0.000000 1.765220 
# 
# From -- ./inp_files/32854.got.cif
#   From: 2010.03.12/outbox.cif.g09.slc.cpg/sg53_17_cif.got.tgz:32854.got - 2010.04.16 14:36:59.
