data_PCOD8219258
_publ_section_title
;
Structure prediction by ZEFSAII (Michael W. Deem and Ramdas Pophale) SiO2 
 PCOD8219258
Probable space group: P M N A
;
_chemical_formula_sum "Si O2"
_cell_formula_units_Z 64
_cell_length_a 8.816990
_cell_length_b 20.535704
_cell_length_c 19.529950
_cell_angle_alpha 90.000000
_cell_angle_beta 90.000000
_cell_angle_gamma 90.000000
_cell_volume 3536.153228
_symmetry_space_group_name_H-M "P M N A"
_symmetry_group_IT_number 53
_symmetry_cell_setting 'orthorhombic'
loop_
_space_group_symop_operation_xyz
x,y,z
1/2-x,-y,1/2+z
x,-y,-z
1/2-x,y,1/2-z
-x,-y,-z
1/2+x,y,1/2-z
-x,y,z
1/2+x,-y,1/2+z
loop_
_atom_site_type_symbol
_atom_site_label
_atom_site_fract_x
_atom_site_fract_y
_atom_site_fract_z
Si Si1 0.822408 0.123544 0.681153
Si Si2 0.678336 0.061102 0.045642
Si Si3 0.679271 0.630213 0.180136
Si Si4 0.823600 0.482495 0.318148
Si Si5 0.322592 0.680700 0.454126
Si Si6 0.822788 0.566896 0.536356
Si Si7 0.179955 0.016198 0.179147
Si Si8 0.324869 0.812191 0.039524
O O1 0.750000 0.154346 0.750000
O O2 0.794144 0.172972 0.619312
O O3 0.000000 0.109567 0.691981
O O4 0.741277 0.055862 0.663962
O O5 0.500000 0.056633 0.060434
O O6 0.767472 0.062440 0.117273
O O7 0.723588 0.126484 0.006001
O O8 0.731278 0.000000 0.000000
O O9 0.750000 0.658168 0.250000
O O10 0.500000 0.636148 0.183710
O O11 0.735362 0.555917 0.168689
O O12 0.737430 0.672830 0.117589
O O13 0.750000 0.451829 0.250000
O O14 0.784204 0.438051 0.383206
O O15 0.000000 0.485306 0.304843
O O16 0.500000 0.676388 0.441893
O O17 0.274515 0.625948 0.507990
O O18 0.276341 0.751080 0.483793
O O19 0.774267 0.500000 0.500000
O O20 0.000000 0.580362 0.522508
O O21 0.250000 0.043245 0.250000
O O22 0.000000 0.015508 0.184844
O O23 0.500000 0.794905 0.027307
#
# Coordination Sequence:
#
# PCOD8219258 Si02
#       8
#     8   8   8   8   8   8   8   8
#     4  10  19  34  54  79 109 147 189 227 272 324
#     4  10  19  37  61  84 110 143 186 232 282 332
#     4  10  19  35  55  79 111 148 189 226 273 329
#     4   9  18  32  55  83 110 141 177 226 276 327
#     4  12  25  37  53  81 115 150 188 233 277 328
#     4  10  19  37  60  81 108 147 189 229 279 332
#     4  11  21  33  54  84 116 147 182 227 278 329
#     4  10  22  39  58  77 109 153 188 227 279 336
#
# _framework density 18.098763000000002
#
# number of rings (size 3 to 8) (size 9 to 14) (size 15 to 20)
#    0.000    1.750    2.500    3.750    0.000    3.500 
#    0.000    1.250    0.000    0.750    0.000    3.500 
#    0.000    0.000    0.000    0.000    0.000    0.000 
#
# Total GULP energy -793788.426689 kJ/mol
# GULP energy per Si atom -12402.944167 kJ/mol
# Density = 1.805757 g / cm^3
# Si number density = 18.098763 Si / 1000 Ang^3
#
#
#
# Elastic Constant Matrix: (Units=GPa)
#
#
# Indices 1 2 3 4 5 6 
#
# 1 94.9107 42.0255 51.7563 0.0000 0.0000 0.0000
# 2 42.0255 93.5336 52.2051 0.0000 0.0000 0.0000
# 3 51.7563 52.2051 114.8408 0.0000 0.0000 0.0000
# 4 0.0000 0.0000 0.0000 19.2580 0.0000 0.0000
# 5 0.0000 0.0000 0.0000 0.0000 35.0688 0.0000
# 6 0.0000 0.0000 0.0000 0.0000 0.0000 17.4804
#
#
#
# Elastic Compliance Matrix: (Units=1/GPa)
#
#
# Indices 1 2 3 4 5 6 
#
# 1 0.014996 -0.003974 -0.004952 0.000000 0.000000 0.000000
# 2 -0.003974 0.015379 -0.005200 0.000000 0.000000 0.000000
# 3 -0.004952 -0.005200 0.013303 0.000000 0.000000 0.000000
# 4 0.000000 0.000000 0.000000 0.051927 0.000000 0.000000
# 5 0.000000 0.000000 0.000000 0.000000 0.028515 0.000000
# 6 0.000000 0.000000 0.000000 0.000000 0.000000 0.057207
#
#
# Mechanical properties :
#
#
# Convention : Reuss Voigt Hill
#
# Bulk Modulus (GPa) = 64.82322 66.13986 65.48154
# Shear Modulus (GPa) = 23.28587 24.84799 24.06693
#
# Velocity S-wave (km/s) = 3.59081 3.70930 3.65054
# Velocity P-wave (km/s) = 7.28602 7.41407 7.35032
#
# Compressibility (1/GPa) = 0.01542657
#
# Stress axis : x y z
#
# Youngs Moduli (GPa) = 66.68330 65.02200 75.16875
#
# Poissons Ratio (x) = 0.25840 0.37223
# Poissons Ratio (y) = 0.26500 0.39090
# Poissons Ratio (z) = 0.33021 0.33813
#
# Static dielectric constant tensor:
#      x y z
#    x 3.293480 0.000000 0.000000 
#    y 0.000000 3.139410 0.000000 
#    z 0.000000 0.000000 3.529030 
# 
# 
# High freq. dielectric constant tensor:
#      x y z
#    x 1.702070 0.000000 0.000000 
#    y 0.000000 1.675010 0.000000 
#    z 0.000000 0.000000 1.707040 
# 
# From -- ./inp_files/31205.got.cif
#   From: 2010.03.12/outbox.cif.g09.slc.cpg/sg53_16_cif.got.tgz:31205.got - 2010.04.16 14:36:59.
