data_PCOD8219218
_publ_section_title
;
Structure prediction by ZEFSAII (Michael W. Deem and Ramdas Pophale) SiO2 
 PCOD8219218
Probable space group: P M N A
;
_chemical_formula_sum "Si O2"
_cell_formula_units_Z 64
_cell_length_a 15.601973
_cell_length_b 11.724296
_cell_length_c 18.115550
_cell_angle_alpha 90.000000
_cell_angle_beta 90.000000
_cell_angle_gamma 90.000000
_cell_volume 3313.735348
_symmetry_space_group_name_H-M "P M N A"
_symmetry_group_IT_number 53
_symmetry_cell_setting 'orthorhombic'
loop_
_space_group_symop_operation_xyz
x,y,z
1/2-x,-y,1/2+z
x,-y,-z
1/2-x,y,1/2-z
-x,-y,-z
1/2+x,y,1/2-z
-x,y,z
1/2+x,-y,1/2+z
loop_
_atom_site_type_symbol
_atom_site_label
_atom_site_fract_x
_atom_site_fract_y
_atom_site_fract_z
Si Si1 0.905112 0.270889 0.684791
Si Si2 0.598317 0.854841 0.336107
Si Si3 0.250754 0.737123 0.079008
Si Si4 0.741322 0.253629 0.086162
Si Si5 0.903206 0.271874 0.305225
Si Si6 0.849182 0.508855 0.240551
Si Si7 0.323090 0.500825 0.580069
Si Si8 0.669056 0.094921 0.300214
O O1 0.888907 0.191228 0.754333
O O2 0.834168 0.231286 0.626287
O O3 0.901810 0.403024 0.709742
O O4 0.000000 0.250265 0.651201
O O5 0.500000 0.838636 0.363537
O O6 0.662112 0.786951 0.389600
O O7 0.621597 0.987494 0.335068
O O8 0.246576 0.600148 0.074676
O O9 0.263000 0.789426 0.997788
O O10 0.646289 0.245814 0.119347
O O11 0.773335 0.382578 0.092985
O O12 0.804515 0.172328 0.130860
O O13 0.862225 0.380553 0.265677
O O14 0.897335 0.165295 0.249910
O O15 0.000000 0.296455 0.327099
O O16 0.750000 0.543254 0.250000
O O17 0.879787 0.520230 0.154061
O O18 0.373689 0.500000 0.500000
O O19 0.750000 0.058740 0.250000
#
# Coordination Sequence:
#
# PCOD8219218 Si02
#       8
#     8   8   8   8   8   8   8   8
#     4  11  22  35  58  90 117 151 197 240 285 342
#     4  11  23  39  60  86 113 145 194 246 293 347
#     4  11  21  38  61  82 119 159 187 233 294 345
#     4  10  21  37  59  83 112 156 195 225 289 356
#     4  11  21  34  56  88 118 147 192 245 287 339
#     4  12  17  34  58  82 116 153 195 234 281 336
#     4  10  19  33  58  83 114 154 189 226 284 348
#     4  10  20  38  60  81 110 150 194 236 290 347
#
# _framework density 19.313552999999999
#
# number of rings (size 3 to 8) (size 9 to 14) (size 15 to 20)
#    0.000    1.250    5.000    2.250    0.000    1.000 
#    0.000    1.875    0.000    6.375    0.000    7.000 
#    0.000    0.000    0.000    0.000    0.000    0.000 
#
# Total GULP energy -793468.465164 kJ/mol
# GULP energy per Si atom -12397.944768 kJ/mol
# Density = 1.926959 g / cm^3
# Si number density = 19.313553 Si / 1000 Ang^3
#
#
#
# Elastic Constant Matrix: (Units=GPa)
#
#
# Indices 1 2 3 4 5 6 
#
# 1 110.1793 29.9812 67.0686 0.0000 0.0000 0.0000
# 2 29.9812 87.9815 29.2027 0.0000 0.0000 0.0000
# 3 67.0686 29.2027 139.6520 0.0000 0.0000 0.0000
# 4 0.0000 0.0000 0.0000 5.2379 0.0000 0.0000
# 5 0.0000 0.0000 0.0000 0.0000 16.3677 0.0000
# 6 0.0000 0.0000 0.0000 0.0000 0.0000 23.6264
#
#
#
# Elastic Compliance Matrix: (Units=1/GPa)
#
#
# Indices 1 2 3 4 5 6 
#
# 1 0.013358 -0.002603 -0.005871 0.000000 0.000000 0.000000
# 2 -0.002603 0.012721 -0.001410 0.000000 0.000000 0.000000
# 3 -0.005871 -0.001410 0.010275 0.000000 0.000000 0.000000
# 4 0.000000 0.000000 0.000000 0.190915 0.000000 0.000000
# 5 0.000000 0.000000 0.000000 0.000000 0.061096 0.000000
# 6 0.000000 0.000000 0.000000 0.000000 0.000000 0.042325
#
#
# Mechanical properties :
#
#
# Convention : Reuss Voigt Hill
#
# Bulk Modulus (GPa) = 60.29163 65.59087 62.94125
# Shear Modulus (GPa) = 14.04542 23.15043 18.59792
#
# Velocity S-wave (km/s) = 2.69965 3.46593 3.10650
# Velocity P-wave (km/s) = 6.40332 7.07472 6.74738
#
# Compressibility (1/GPa) = 0.01658605
#
# Stress axis : x y z
#
# Youngs Moduli (GPa) = 74.85952 78.60944 97.32308
#
# Poissons Ratio (x) = 0.20465 0.57139
# Poissons Ratio (y) = 0.19489 0.13721
# Poissons Ratio (z) = 0.43950 0.11083
#
# Static dielectric constant tensor:
#      x y z
#    x 3.387020 0.000000 0.000000 
#    y 0.000000 3.527060 0.000000 
#    z 0.000000 0.000000 3.787880 
# 
# 
# High freq. dielectric constant tensor:
#      x y z
#    x 1.732360 0.000000 0.000000 
#    y 0.000000 1.756820 0.000000 
#    z 0.000000 0.000000 1.753030 
# 
# From -- ./inp_files/28554.got.cif
#   From: 2010.03.12/outbox.cif.g09.slc.cpg/sg53_15_cif.got.tgz:28554.got - 2010.04.16 14:36:59.
