data_PCOD8219596
_publ_section_title
;
Structure prediction by ZEFSAII (Michael W. Deem and Ramdas Pophale) SiO2 
 PCOD8219596
Probable space group: P M N A
;
_chemical_formula_sum "Si O2"
_cell_formula_units_Z 40
_cell_length_a 16.987056
_cell_length_b 10.133179
_cell_length_c 11.533231
_cell_angle_alpha 90.000000
_cell_angle_beta 90.000000
_cell_angle_gamma 90.000000
_cell_volume 1985.248258
_symmetry_space_group_name_H-M "P M N A"
_symmetry_group_IT_number 53
_symmetry_cell_setting 'orthorhombic'
loop_
_space_group_symop_operation_xyz
x,y,z
1/2-x,-y,1/2+z
x,-y,-z
1/2-x,y,1/2-z
-x,-y,-z
1/2+x,y,1/2-z
-x,y,z
1/2+x,-y,1/2+z
loop_
_atom_site_type_symbol
_atom_site_label
_atom_site_fract_x
_atom_site_fract_y
_atom_site_fract_z
Si Si1 0.092848 0.472658 0.133941
Si Si2 0.407416 0.022090 0.625483
Si Si3 0.406627 0.266415 0.763037
Si Si4 0.406727 0.846615 0.994071
Si Si5 0.658584 0.219850 0.243468
O O1 0.121860 0.592640 0.215595
O O2 0.139806 0.347213 0.179720
O O3 0.000000 0.446695 0.146152
O O4 0.114747 0.500000 0.000000
O O5 0.500000 0.039952 0.611750
O O6 0.391538 0.901168 0.709114
O O7 0.367839 0.000000 0.500000
O O8 0.370552 0.154975 0.678642
O O9 0.500000 0.258999 0.758631
O O10 0.377983 0.234173 0.892848
O O11 0.500000 0.840822 0.978970
O O12 0.366691 0.765671 0.889956
O O13 0.379186 0.000000 0.000000
O O14 0.750000 0.187474 0.250000
#
# Coordination Sequence:
#
# PCOD8219596 Si02
#       5
#     8   8   8   8   8
#     4  10  21  41  65  88 118 157 208 262 302 348
#     4  10  19  36  64  91 115 151 206 260 297 346
#     4   9  18  34  62  94 112 143 199 253 306 346
#     4  10  19  37  65  91 119 151 197 257 303 349
#     4  12  25  39  56  88 128 166 198 239 305 377
#
# _framework density 20.148614999999999
#
# number of rings (size 3 to 8) (size 9 to 14) (size 15 to 20)
#    0.000    1.800    2.000    3.000    0.000    4.800 
#    3.600    4.000    0.000    0.000    0.000    0.000 
#    0.000    0.000    0.000    0.000    0.000    0.000 
#
# Total GULP energy -496004.198798 kJ/mol
# GULP energy per Si atom -12400.104970 kJ/mol
# Density = 2.010276 g / cm^3
# Si number density = 20.148615 Si / 1000 Ang^3
#
#
#
# Elastic Constant Matrix: (Units=GPa)
#
#
# Indices 1 2 3 4 5 6 
#
# 1 16.8304 2.8051 25.2812 0.0000 0.0000 0.0000
# 2 2.8051 72.1674 4.0690 0.0000 0.0000 0.0000
# 3 25.2812 4.0690 108.1271 0.0000 0.0000 0.0000
# 4 0.0000 0.0000 0.0000 41.3923 0.0000 0.0000
# 5 0.0000 0.0000 0.0000 0.0000 6.5616 0.0000
# 6 0.0000 0.0000 0.0000 0.0000 0.0000 1.9726
#
#
#
# Elastic Compliance Matrix: (Units=1/GPa)
#
#
# Indices 1 2 3 4 5 6 
#
# 1 0.091982 -0.002368 -0.021417 0.000000 0.000000 0.000000
# 2 -0.002368 0.013947 0.000029 0.000000 0.000000 0.000000
# 3 -0.021417 0.000029 0.014255 0.000000 0.000000 0.000000
# 4 0.000000 0.000000 0.000000 0.024159 0.000000 0.000000
# 5 0.000000 0.000000 0.000000 0.000000 0.152402 0.000000
# 6 0.000000 0.000000 0.000000 0.000000 0.000000 0.506952
#
#
# Mechanical properties :
#
#
# Convention : Reuss Voigt Hill
#
# Bulk Modulus (GPa) = 13.76056 29.04840 21.40448
# Shear Modulus (GPa) = 5.71146 20.98328 13.34737
#
# Velocity S-wave (km/s) = 1.68547 3.23061 2.57659
# Velocity P-wave (km/s) = 3.26069 5.32580 4.41567
#
# Compressibility (1/GPa) = 0.07267144
#
# Stress axis : x y z
#
# Youngs Moduli (GPa) = 10.87173 71.69962 70.15171
#
# Poissons Ratio (x) = 0.16976 1.50245
# Poissons Ratio (y) = 0.02574 -0.00202
# Poissons Ratio (z) = 0.23284 -0.00206
#
# Static dielectric constant tensor:
#      x y z
#    x 3.217730 0.000000 0.000000 
#    y 0.000000 3.870500 0.000000 
#    z 0.000000 0.000000 8.298490 
# 
# 
# High freq. dielectric constant tensor:
#      x y z
#    x 1.742850 0.000000 0.000000 
#    y 0.000000 1.790100 0.000000 
#    z 0.000000 0.000000 1.809040 
# 
# From -- ./inp_files/16671.got.cif
#   From: 2010.03.12/outbox.cif.g09.slc.cpg/sg53_9_cif.got.tgz:16671.got - 2010.04.16 14:36:59.
