data_PCOD8219321
_publ_section_title
;
Structure prediction by ZEFSAII (Michael W. Deem and Ramdas Pophale) SiO2 
 PCOD8219321
Probable space group: P M N A
;
_chemical_formula_sum "Si O2"
_cell_formula_units_Z 56
_cell_length_a 15.188259
_cell_length_b 12.600392
_cell_length_c 13.946769
_cell_angle_alpha 90.000000
_cell_angle_beta 90.000000
_cell_angle_gamma 90.000000
_cell_volume 2669.104998
_symmetry_space_group_name_H-M "P M N A"
_symmetry_group_IT_number 53
_symmetry_cell_setting 'orthorhombic'
loop_
_space_group_symop_operation_xyz
x,y,z
1/2-x,-y,1/2+z
x,-y,-z
1/2-x,y,1/2-z
-x,-y,-z
1/2+x,y,1/2-z
-x,y,z
1/2+x,-y,1/2+z
loop_
_atom_site_type_symbol
_atom_site_label
_atom_site_fract_x
_atom_site_fract_y
_atom_site_fract_z
Si Si1 0.901285 0.785768 0.353967
Si Si2 0.099251 0.609856 0.829596
Si Si3 0.823891 0.159098 0.173879
Si Si4 0.400055 0.939966 0.324090
Si Si5 0.773279 0.168072 0.964174
Si Si6 0.348482 0.587349 0.254402
Si Si7 0.098596 0.639308 0.039480
O O1 0.882291 0.860051 0.263048
O O2 0.828587 0.814912 0.433303
O O3 0.899340 0.661159 0.321622
O O4 0.000000 0.806856 0.394850
O O5 0.120677 0.733879 0.830823
O O6 0.150882 0.542137 0.744987
O O7 0.000000 0.597490 0.797680
O O8 0.114980 0.570336 0.941934
O O9 0.750000 0.178077 0.250000
O O10 0.887168 0.062405 0.206396
O O11 0.775189 0.132480 0.074017
O O12 0.500000 0.924315 0.362883
O O13 0.325689 0.919527 0.403402
O O14 0.825005 0.275911 0.949677
O O15 0.250000 0.632357 0.250000
O O16 0.396774 0.582804 0.357765
O O17 0.000000 0.689427 0.029980
#
# Coordination Sequence:
#
# PCOD8219321 Si02
#       7
#     8   8   8   8   8   8   8
#     4  11  22  38  62  93 125 159 199 248 307 364
#     4  10  22  37  57  85 117 156 201 251 305 359
#     4  11  24  41  60  84 119 165 208 249 299 361
#     4  11  22  38  64  95 125 153 192 251 314 370
#     4  11  21  38  61  91 122 155 201 252 303 360
#     4  12  20  34  58  87 124 156 194 243 303 365
#     4  10  19  34  56  88 120 148 190 246 307 356
#
# _framework density 20.980816000000001
#
# number of rings (size 3 to 8) (size 9 to 14) (size 15 to 20)
#    0.000    1.143    2.857    4.714    0.000    3.429 
#    0.000    1.429    0.000    3.429    0.000    4.000 
#    0.000    0.000    0.000    0.000    0.000    0.000 
#
# Total GULP energy -693734.452490 kJ/mol
# GULP energy per Si atom -12388.115223 kJ/mol
# Density = 2.093306 g / cm^3
# Si number density = 20.980816 Si / 1000 Ang^3
#
#
#
# Elastic Constant Matrix: (Units=GPa)
#
#
# Indices 1 2 3 4 5 6 
#
# 1 128.5867 19.7681 29.3148 0.0000 0.0000 0.0000
# 2 19.7681 58.1512 16.8729 0.0000 0.0000 0.0000
# 3 29.3148 16.8729 44.7959 0.0000 0.0000 0.0000
# 4 0.0000 0.0000 0.0000 13.5337 0.0000 0.0000
# 5 0.0000 0.0000 0.0000 0.0000 19.8216 0.0000
# 6 0.0000 0.0000 0.0000 0.0000 0.0000 -4.2937
#
#
#
# Elastic Compliance Matrix: (Units=1/GPa)
#
#
# Indices 1 2 3 4 5 6 
#
# 1 0.009265 -0.001561 -0.005475 0.000000 0.000000 0.000000
# 2 -0.001561 0.019570 -0.006350 0.000000 0.000000 0.000000
# 3 -0.005475 -0.006350 0.028298 0.000000 0.000000 0.000000
# 4 0.000000 0.000000 0.000000 0.073890 0.000000 0.000000
# 5 0.000000 0.000000 0.000000 0.000000 0.050450 0.000000
# 6 0.000000 0.000000 0.000000 0.000000 0.000000 -0.232900
#
#
# Mechanical properties :
#
#
# Convention : Reuss Voigt Hill
#
# Bulk Modulus (GPa) = 32.93668 40.38282 36.65975
# Shear Modulus (GPa) = -343.98758 16.85086 -163.56836
#
# Velocity S-wave (km/s) = -12.81832 2.83707 -8.83913
# Velocity P-wave (km/s) = 14.25996 5.47917 9.30928
#
# Compressibility (1/GPa) = 0.03036129
#
# Stress axis : x y z
#
# Youngs Moduli (GPa) = 107.93265 51.09979 35.33799
#
# Poissons Ratio (x) = 0.07976 0.19348
# Poissons Ratio (y) = 0.16847 0.22438
# Poissons Ratio (z) = 0.59095 0.32446
#
# Static dielectric constant tensor:
#      x y z
#    x 3.825610 0.000000 0.000000 
#    y 0.000000 4.056120 0.000000 
#    z 0.000000 0.000000 3.676830 
# 
# 
# High freq. dielectric constant tensor:
#      x y z
#    x 1.823880 0.000000 0.000000 
#    y 0.000000 1.843390 0.000000 
#    z 0.000000 0.000000 1.790890 
# 
# From -- ./inp_files/22853.got.cif
#   From: 2010.03.12/outbox.cif.g09.slc.cpg/sg53_12_cif.got.tgz:22853.got - 2010.04.16 14:36:59.
