data_PCOD8219509
_publ_section_title
;
Structure prediction by ZEFSAII (Michael W. Deem and Ramdas Pophale) SiO2 
 PCOD8219509
Probable space group: P M N A
;
_chemical_formula_sum "Si O2"
_cell_formula_units_Z 64
_cell_length_a 8.850545
_cell_length_b 14.319183
_cell_length_c 25.815518
_cell_angle_alpha 90.000000
_cell_angle_beta 90.000000
_cell_angle_gamma 90.000000
_cell_volume 3271.667032
_symmetry_space_group_name_H-M "P M N A"
_symmetry_group_IT_number 53
_symmetry_cell_setting 'orthorhombic'
loop_
_space_group_symop_operation_xyz
x,y,z
1/2-x,-y,1/2+z
x,-y,-z
1/2-x,y,1/2-z
-x,-y,-z
1/2+x,y,1/2-z
-x,y,z
1/2+x,-y,1/2+z
loop_
_atom_site_type_symbol
_atom_site_label
_atom_site_fract_x
_atom_site_fract_y
_atom_site_fract_z
Si Si1 0.676579 0.098740 0.020970
Si Si2 0.820648 0.385508 0.101073
Si Si3 0.822701 0.914422 0.640407
Si Si4 0.320495 0.742121 0.695348
Si Si5 0.180154 0.404463 0.900670
Si Si6 0.322776 0.709832 0.303099
Si Si7 0.179403 0.286136 0.997958
Si Si8 0.178195 0.924018 0.196175
O O1 0.500000 0.105800 0.009464
O O2 0.714084 0.110566 0.081382
O O3 0.758494 0.181764 0.990232
O O4 0.739589 0.000000 0.000000
O O5 0.767098 0.334766 0.153487
O O6 0.755114 0.490418 0.099720
O O7 0.000000 0.388374 0.098170
O O8 0.757557 0.329572 0.051466
O O9 0.740795 0.842583 0.678505
O O10 0.000000 0.913828 0.651865
O O11 0.754499 0.016727 0.650553
O O12 0.250000 0.712130 0.750000
O O13 0.500000 0.747205 0.699993
O O14 0.242226 0.352146 0.849834
O O15 0.239874 0.350763 0.951378
O O16 0.000000 0.404999 0.900714
O O17 0.250000 0.673827 0.250000
O O18 0.500000 0.697395 0.297374
O O19 0.279452 0.816781 0.314616
O O20 0.000000 0.281361 0.997772
O O21 0.250000 0.957958 0.250000
O O22 0.000000 0.940915 0.197545
#
# Coordination Sequence:
#
# PCOD8219509 Si02
#       8
#     8   8   8   8   8   8   8   8
#     4  10  23  40  56  80 116 153 181 218 280 342
#     4   9  18  34  56  84 114 144 182 230 280 328
#     4  11  22  37  57  79 108 147 186 227 275 331
#     4  11  22  37  57  84 115 150 191 234 282 335
#     4   9  18  33  57  86 113 142 183 232 279 329
#     4   9  19  35  54  79 111 146 180 223 275 324
#     4  10  19  35  61  88 111 142 186 233 277 325
#     4  10  20  34  53  78 108 141 180 224 270 324
#
# _framework density 19.561893000000001
#
# number of rings (size 3 to 8) (size 9 to 14) (size 15 to 20)
#    0.000    2.125    1.250    1.875    1.750    3.250 
#    0.000    0.625    0.000    4.500    0.000    0.000 
#    0.000    0.000    0.000    0.000    0.000    0.000 
#
# Total GULP energy -793796.524457 kJ/mol
# GULP energy per Si atom -12403.070695 kJ/mol
# Density = 1.951737 g / cm^3
# Si number density = 19.561893 Si / 1000 Ang^3
#
#
#
# Elastic Constant Matrix: (Units=GPa)
#
#
# Indices 1 2 3 4 5 6 
#
# 1 42.7497 29.0083 33.8042 0.0000 0.0000 0.0000
# 2 29.0083 148.5908 76.6046 0.0000 0.0000 0.0000
# 3 33.8042 76.6046 139.9767 0.0000 0.0000 0.0000
# 4 0.0000 0.0000 0.0000 38.3799 0.0000 0.0000
# 5 0.0000 0.0000 0.0000 0.0000 22.5181 0.0000
# 6 0.0000 0.0000 0.0000 0.0000 0.0000 16.3641
#
#
#
# Elastic Compliance Matrix: (Units=1/GPa)
#
#
# Indices 1 2 3 4 5 6 
#
# 1 0.029806 -0.002936 -0.005591 0.000000 0.000000 0.000000
# 2 -0.002936 0.009664 -0.004580 0.000000 0.000000 0.000000
# 3 -0.005591 -0.004580 0.011001 0.000000 0.000000 0.000000
# 4 0.000000 0.000000 0.000000 0.026055 0.000000 0.000000
# 5 0.000000 0.000000 0.000000 0.000000 0.044409 0.000000
# 6 0.000000 0.000000 0.000000 0.000000 0.000000 0.061109
#
#
# Mechanical properties :
#
#
# Convention : Reuss Voigt Hill
#
# Bulk Modulus (GPa) = 41.22672 67.79460 54.51066
# Shear Modulus (GPa) = 23.11141 28.24577 25.67859
#
# Velocity S-wave (km/s) = 3.44095 3.80401 3.62703
# Velocity P-wave (km/s) = 6.07517 7.35022 6.74290
#
# Compressibility (1/GPa) = 0.02425611
#
# Stress axis : x y z
#
# Youngs Moduli (GPa) = 33.55077 103.47484 90.90371
#
# Poissons Ratio (x) = 0.30383 0.50825
# Poissons Ratio (y) = 0.09851 0.41632
# Poissons Ratio (z) = 0.18759 0.47389
#
# Static dielectric constant tensor:
#      x y z
#    x 3.238530 0.000000 0.000000 
#    y 0.000000 3.697750 0.000000 
#    z 0.000000 0.000000 3.690660 
# 
# 
# High freq. dielectric constant tensor:
#      x y z
#    x 1.732900 0.000000 0.000000 
#    y 0.000000 1.770970 0.000000 
#    z 0.000000 0.000000 1.770380 
# 
# From -- ./inp_files/34241.got.cif
#   From: 2010.03.12/outbox.cif.g09.slc.cpg/sg53_18_cif.got.tgz:34241.got - 2010.04.16 14:36:59.
