data_PCOD8219861
_publ_section_title
;
Structure prediction by ZEFSAII (Michael W. Deem and Ramdas Pophale) SiO2 
 PCOD8219861
Probable space group: P M N A
;
_chemical_formula_sum "Si O2"
_cell_formula_units_Z 48
_cell_length_a 8.655160
_cell_length_b 14.026274
_cell_length_c 21.734173
_cell_angle_alpha 90.000000
_cell_angle_beta 90.000000
_cell_angle_gamma 90.000000
_cell_volume 2638.520901
_symmetry_space_group_name_H-M "P M N A"
_symmetry_group_IT_number 53
_symmetry_cell_setting 'orthorhombic'
loop_
_space_group_symop_operation_xyz
x,y,z
1/2-x,-y,1/2+z
x,-y,-z
1/2-x,y,1/2-z
-x,-y,-z
1/2+x,y,1/2-z
-x,y,z
1/2+x,-y,1/2+z
loop_
_atom_site_type_symbol
_atom_site_label
_atom_site_fract_x
_atom_site_fract_y
_atom_site_fract_z
Si Si1 0.331467 0.470414 0.570904
Si Si2 0.821977 0.215803 0.189383
Si Si3 0.319643 0.723999 0.475951
Si Si4 0.175327 0.347832 0.403197
Si Si5 0.182627 0.925883 0.445420
Si Si6 0.681215 0.987989 0.814838
O O1 0.337100 0.500000 0.500000
O O2 0.500000 0.489925 0.600497
O O3 0.292873 0.357249 0.576840
O O4 0.205912 0.538457 0.603543
O O5 0.750000 0.263144 0.250000
O O6 0.799903 0.292840 0.137087
O O7 0.000000 0.189289 0.197938
O O8 0.728827 0.120443 0.174455
O O9 0.500000 0.722923 0.496594
O O10 0.203322 0.692911 0.529302
O O11 0.274403 0.828069 0.453375
O O12 0.000000 0.326816 0.383046
O O13 0.235554 0.959517 0.377338
O O14 0.000000 0.907907 0.448468
O O15 0.230292 0.000000 0.500000
O O16 0.750000 0.028806 0.750000
O O17 0.500000 0.996018 0.808095
#
# Coordination Sequence:
#
# PCOD8219861 Si02
#       6
#     8   8   8   8   8   8
#     4   8  16  31  48  70  99 129 162 200 246 300
#     4  11  21  34  52  74 101 132 168 209 253 303
#     4  10  20  33  51  75 103 134 168 210 257 304
#     4  11  20  31  50  75 103 134 167 204 251 306
#     4  10  21  35  52  76 106 137 172 219 267 309
#     4  10  20  35  54  76 104 139 176 213 256 310
#
# _framework density 18.19201
#
# number of rings (size 3 to 8) (size 9 to 14) (size 15 to 20)
#    0.000    2.000    0.000    7.000    0.000    6.667 
#    0.000    0.000    0.000    1.000    0.000    2.333 
#    0.000    0.000    0.000    0.000    0.000    0.000 
#
# Total GULP energy -594792.548104 kJ/mol
# GULP energy per Si atom -12391.511419 kJ/mol
# Density = 1.815060 g / cm^3
# Si number density = 18.192010 Si / 1000 Ang^3
#
#
#
# Elastic Constant Matrix: (Units=GPa)
#
#
# Indices 1 2 3 4 5 6 
#
# 1 57.9664 26.9631 29.8151 0.0000 0.0000 0.0000
# 2 26.9631 115.8955 47.3723 0.0000 0.0000 0.0000
# 3 29.8151 47.3723 82.5770 0.0000 0.0000 0.0000
# 4 0.0000 0.0000 0.0000 19.9088 0.0000 0.0000
# 5 0.0000 0.0000 0.0000 0.0000 25.7968 0.0000
# 6 0.0000 0.0000 0.0000 0.0000 0.0000 21.0670
#
#
#
# Elastic Compliance Matrix: (Units=1/GPa)
#
#
# Indices 1 2 3 4 5 6 
#
# 1 0.021689 -0.002410 -0.006448 0.000000 0.000000 0.000000
# 2 -0.002410 0.011539 -0.005750 0.000000 0.000000 0.000000
# 3 -0.006448 -0.005750 0.017737 0.000000 0.000000 0.000000
# 4 0.000000 0.000000 0.000000 0.050229 0.000000 0.000000
# 5 0.000000 0.000000 0.000000 0.000000 0.038765 0.000000
# 6 0.000000 0.000000 0.000000 0.000000 0.000000 0.047468
#
#
# Mechanical properties :
#
#
# Convention : Reuss Voigt Hill
#
# Bulk Modulus (GPa) = 45.97974 51.63776 48.80875
# Shear Modulus (GPa) = 22.33217 23.50708 22.91962
#
# Velocity S-wave (km/s) = 3.50749 3.59857 3.55332
# Velocity P-wave (km/s) = 6.46010 6.76112 6.61232
#
# Compressibility (1/GPa) = 0.02174871
#
# Stress axis : x y z
#
# Youngs Moduli (GPa) = 46.10580 86.66003 56.38068
#
# Poissons Ratio (x) = 0.20887 0.36357
# Poissons Ratio (y) = 0.11112 0.32417
# Poissons Ratio (z) = 0.29731 0.49826
#
# Static dielectric constant tensor:
#      x y z
#    x 3.321020 0.000000 0.000000 
#    y 0.000000 3.524220 0.000000 
#    z 0.000000 0.000000 3.314830 
# 
# 
# High freq. dielectric constant tensor:
#      x y z
#    x 1.713790 0.000000 0.000000 
#    y 0.000000 1.704180 0.000000 
#    z 0.000000 0.000000 1.675730 
# 
# From -- ./inp_files/30506.got.cif
#   From: 2010.03.12/outbox.cif.g09.slc.cpg/sg53_16_cif.got.tgz:30506.got - 2010.04.16 14:36:59.
