data_PCOD8219353
_publ_section_title
;
Structure prediction by ZEFSAII (Michael W. Deem and Ramdas Pophale) SiO2 
 PCOD8219353
Probable space group: P M N A
;
_chemical_formula_sum "Si O2"
_cell_formula_units_Z 40
_cell_length_a 8.779473
_cell_length_b 7.705241
_cell_length_c 28.709439
_cell_angle_alpha 90.000000
_cell_angle_beta 90.000000
_cell_angle_gamma 90.000000
_cell_volume 1942.134847
_symmetry_space_group_name_H-M "P M N A"
_symmetry_group_IT_number 53
_symmetry_cell_setting 'orthorhombic'
loop_
_space_group_symop_operation_xyz
x,y,z
1/2-x,-y,1/2+z
x,-y,-z
1/2-x,y,1/2-z
-x,-y,-z
1/2+x,y,1/2-z
-x,y,z
1/2+x,-y,1/2+z
loop_
_atom_site_type_symbol
_atom_site_label
_atom_site_fract_x
_atom_site_fract_y
_atom_site_fract_z
Si Si1 0.823599 0.322341 0.796074
Si Si2 0.323280 0.508299 0.946121
Si Si3 0.827214 0.196624 0.896207
Si Si4 0.179597 0.695175 0.702551
Si Si5 0.176188 0.188979 0.111519
O O1 0.750000 0.233965 0.750000
O O2 0.799183 0.200153 0.840555
O O3 0.740308 0.502436 0.806709
O O4 0.000000 0.360142 0.786162
O O5 0.500000 0.548692 0.938182
O O6 0.285947 0.323448 0.923101
O O7 0.227423 0.662890 0.923858
O O8 0.279747 0.500000 0.000000
O O9 0.000000 0.255048 0.907362
O O10 0.798163 0.998851 0.912541
O O11 0.250000 0.773248 0.750000
O O12 0.228144 0.811314 0.658982
O O13 0.000000 0.692789 0.707213
O O14 0.000000 0.218699 0.124016
#
# Coordination Sequence:
#
# PCOD8219353 Si02
#       5
#     8   8   8   8   8
#     4  10  19  34  57  87 122 162 205 249 297 355
#     4  11  25  44  66  92 122 158 202 256 316 372
#     4  10  23  41  64  92 124 163 206 253 304 366
#     4  11  21  35  58  89 124 167 209 250 302 356
#     4  11  23  41  64  93 126 162 207 253 305 367
#
# _framework density 20.595891000000002
#
# number of rings (size 3 to 8) (size 9 to 14) (size 15 to 20)
#    0.000    1.400    2.000    4.800    0.000    5.600 
#    0.000    6.000    0.000    0.000    0.000    0.000 
#    0.000    0.000    0.000    0.000    0.000    0.000 
#
# Total GULP energy -496126.999412 kJ/mol
# GULP energy per Si atom -12403.174985 kJ/mol
# Density = 2.054901 g / cm^3
# Si number density = 20.595891 Si / 1000 Ang^3
#
#
#
# Elastic Constant Matrix: (Units=GPa)
#
#
# Indices 1 2 3 4 5 6 
#
# 1 131.3593 40.7422 48.6599 0.0000 0.0000 0.0000
# 2 40.7422 101.1860 43.6949 0.0000 0.0000 0.0000
# 3 48.6599 43.6949 104.8396 0.0000 0.0000 0.0000
# 4 0.0000 0.0000 0.0000 10.8200 0.0000 0.0000
# 5 0.0000 0.0000 0.0000 0.0000 33.6468 0.0000
# 6 0.0000 0.0000 0.0000 0.0000 0.0000 16.3786
#
#
#
# Elastic Compliance Matrix: (Units=1/GPa)
#
#
# Indices 1 2 3 4 5 6 
#
# 1 0.009641 -0.002377 -0.003484 0.000000 0.000000 0.000000
# 2 -0.002377 0.012638 -0.004164 0.000000 0.000000 0.000000
# 3 -0.003484 -0.004164 0.012891 0.000000 0.000000 0.000000
# 4 0.000000 0.000000 0.000000 0.092421 0.000000 0.000000
# 5 0.000000 0.000000 0.000000 0.000000 0.029721 0.000000
# 6 0.000000 0.000000 0.000000 0.000000 0.000000 0.061055
#
#
# Mechanical properties :
#
#
# Convention : Reuss Voigt Hill
#
# Bulk Modulus (GPa) = 66.13984 67.06433 66.60209
# Shear Modulus (GPa) = 20.53756 25.78827 23.16291
#
# Velocity S-wave (km/s) = 3.16122 3.54235 3.35720
# Velocity P-wave (km/s) = 6.74591 7.02593 6.88734
#
# Compressibility (1/GPa) = 0.01511948
#
# Stress axis : x y z
#
# Youngs Moduli (GPa) = 103.72862 79.12575 77.57536
#
# Poissons Ratio (x) = 0.18811 0.27025
# Poissons Ratio (y) = 0.24660 0.32301
# Poissons Ratio (z) = 0.36136 0.32947
#
# Static dielectric constant tensor:
#      x y z
#    x 3.805570 0.000000 0.000000 
#    y 0.000000 3.581330 0.000000 
#    z 0.000000 0.000000 3.692340 
# 
# 
# High freq. dielectric constant tensor:
#      x y z
#    x 1.815850 0.000000 0.000000 
#    y 0.000000 1.798870 0.000000 
#    z 0.000000 0.000000 1.805330 
# 
# From -- ./inp_files/37523.got.cif
#   From: 2010.03.12/outbox.cif.g09.slc.cpg/sg53_19_cif.got.tgz:37523.got - 2010.04.16 14:36:59.
