data_PCOD8219003
_publ_section_title
;
Structure prediction by ZEFSAII (Michael W. Deem and Ramdas Pophale) SiO2 
 PCOD8219003
Probable space group: P M N A
;
_chemical_formula_sum "Si O2"
_cell_formula_units_Z 64
_cell_length_a 8.816486
_cell_length_b 13.166432
_cell_length_c 27.011784
_cell_angle_alpha 90.000000
_cell_angle_beta 90.000000
_cell_angle_gamma 90.000000
_cell_volume 3135.572818
_symmetry_space_group_name_H-M "P M N A"
_symmetry_group_IT_number 53
_symmetry_cell_setting 'orthorhombic'
loop_
_space_group_symop_operation_xyz
x,y,z
1/2-x,-y,1/2+z
x,-y,-z
1/2-x,y,1/2-z
-x,-y,-z
1/2+x,y,1/2-z
-x,y,z
1/2+x,-y,1/2+z
loop_
_atom_site_type_symbol
_atom_site_label
_atom_site_fract_x
_atom_site_fract_y
_atom_site_fract_z
Si Si1 0.179831 0.782113 0.301759
Si Si2 0.675707 0.916640 0.459359
Si Si3 0.820300 0.202820 0.142625
Si Si4 0.323071 0.242577 0.467276
Si Si5 0.679842 0.971633 0.352503
Si Si6 0.820345 0.589702 0.365363
Si Si7 0.836528 0.603660 0.475689
Si Si8 0.819132 0.605564 0.696288
O O1 0.250000 0.748874 0.250000
O O2 0.241678 0.893793 0.315175
O O3 0.234144 0.694140 0.339495
O O4 0.000000 0.787553 0.297959
O O5 0.500000 0.900335 0.448181
O O6 0.748742 0.818235 0.485597
O O7 0.749501 0.946121 0.406913
O O8 0.704794 0.000000 0.500000
O O9 0.757276 0.213319 0.086369
O O10 0.737091 0.285877 0.176009
O O11 0.000000 0.222810 0.144946
O O12 0.780278 0.088688 0.161232
O O13 0.500000 0.219908 0.464678
O O14 0.280366 0.355056 0.483006
O O15 0.500000 0.956490 0.350181
O O16 0.758349 0.593325 0.421594
O O17 0.759629 0.487937 0.337885
O O18 0.000000 0.582605 0.365509
O O19 0.880262 0.500000 0.500000
O O20 0.000000 0.662746 0.471278
O O21 0.750000 0.587090 0.750000
O O22 0.000000 0.607901 0.699713
#
# Coordination Sequence:
#
# PCOD8219003 Si02
#       8
#     8   8   8   8   8   8   8   8
#     4  11  23  40  61  84 113 147 191 245 297 345
#     4   9  15  29  54  82 110 145 184 221 268 323
#     4  10  21  37  57  84 119 155 190 231 278 333
#     4  10  19  32  54  84 115 148 188 231 271 316
#     4  10  20  36  59  86 118 155 194 233 281 340
#     4   9  20  39  61  85 114 149 189 235 286 342
#     4  10  20  35  55  80 115 156 188 218 271 339
#     4  11  23  41  64  86 109 142 187 238 291 345
#
# _framework density 20.410944000000001
#
# number of rings (size 3 to 8) (size 9 to 14) (size 15 to 20)
#    0.000    2.000    1.250    2.625    0.000    2.750 
#    0.000    3.750    0.000    0.750    0.000    0.000 
#    0.000    0.000    0.000    0.000    0.000    0.000 
#
# Total GULP energy -793028.956917 kJ/mol
# GULP energy per Si atom -12391.077452 kJ/mol
# Density = 2.036449 g / cm^3
# Si number density = 20.410944 Si / 1000 Ang^3
#
#
#
# Elastic Constant Matrix: (Units=GPa)
#
#
# Indices 1 2 3 4 5 6 
#
# 1 40.2306 30.6126 26.1959 0.0000 0.0000 0.0000
# 2 30.6126 120.9853 41.3778 0.0000 0.0000 0.0000
# 3 26.1959 41.3778 108.2152 0.0000 0.0000 0.0000
# 4 0.0000 0.0000 0.0000 42.3570 0.0000 0.0000
# 5 0.0000 0.0000 0.0000 0.0000 23.2287 0.0000
# 6 0.0000 0.0000 0.0000 0.0000 0.0000 -43.0997
#
#
#
# Elastic Compliance Matrix: (Units=1/GPa)
#
#
# Indices 1 2 3 4 5 6 
#
# 1 0.033495 -0.006560 -0.005600 0.000000 0.000000 0.000000
# 2 -0.006560 0.010794 -0.002539 0.000000 0.000000 0.000000
# 3 -0.005600 -0.002539 0.011567 0.000000 0.000000 0.000000
# 4 0.000000 0.000000 0.000000 0.023609 0.000000 0.000000
# 5 0.000000 0.000000 0.000000 0.000000 0.043050 0.000000
# 6 0.000000 0.000000 0.000000 0.000000 0.000000 -0.023202
#
#
# Mechanical properties :
#
#
# Convention : Reuss Voigt Hill
#
# Bulk Modulus (GPa) = 37.79602 51.75596 44.77599
# Shear Modulus (GPa) = 36.35578 15.91350 26.13464
#
# Velocity S-wave (km/s) = 4.22499 2.79526 3.58218
# Velocity P-wave (km/s) = 6.50834 5.98582 6.25254
#
# Compressibility (1/GPa) = 0.02645781
#
# Stress axis : x y z
#
# Youngs Moduli (GPa) = 29.85560 92.64657 86.45051
#
# Poissons Ratio (x) = 0.60775 0.48411
# Poissons Ratio (y) = 0.19585 0.21951
# Poissons Ratio (z) = 0.16719 0.23525
#
# Static dielectric constant tensor:
#      x y z
#    x 3.313370 0.000000 0.000000 
#    y 0.000000 3.597200 0.000000 
#    z 0.000000 0.000000 3.899290 
# 
# 
# High freq. dielectric constant tensor:
#      x y z
#    x 1.762230 0.000000 0.000000 
#    y 0.000000 1.809090 0.000000 
#    z 0.000000 0.000000 1.808220 
# 
# From -- ./inp_files/38141.got.cif
#   From: 2010.03.12/outbox.cif.g09.slc.cpg/sg53_20_cif.got.tgz:38141.got - 2010.04.16 14:36:59.
