data_PCOD8219207
_publ_section_title
;
Structure prediction by ZEFSAII (Michael W. Deem and Ramdas Pophale) SiO2 
 PCOD8219207
Probable space group: P M N A
;
_chemical_formula_sum "Si O2"
_cell_formula_units_Z 48
_cell_length_a 8.681091
_cell_length_b 10.189396
_cell_length_c 27.999630
_cell_angle_alpha 90.000000
_cell_angle_beta 90.000000
_cell_angle_gamma 90.000000
_cell_volume 2476.709341
_symmetry_space_group_name_H-M "P M N A"
_symmetry_group_IT_number 53
_symmetry_cell_setting 'orthorhombic'
loop_
_space_group_symop_operation_xyz
x,y,z
1/2-x,-y,1/2+z
x,-y,-z
1/2-x,y,1/2-z
-x,-y,-z
1/2+x,y,1/2-z
-x,y,z
1/2+x,-y,1/2+z
loop_
_atom_site_type_symbol
_atom_site_label
_atom_site_fract_x
_atom_site_fract_y
_atom_site_fract_z
Si Si1 0.181296 0.604824 0.799417
Si Si2 0.321325 0.264917 0.949763
Si Si3 0.320642 0.111525 0.201670
Si Si4 0.680073 0.522301 0.893197
Si Si5 0.676447 0.001092 0.101501
Si Si6 0.678510 0.760321 0.551256
O O1 0.250000 0.549399 0.750000
O O2 0.241235 0.750686 0.810226
O O3 0.232383 0.511701 0.842788
O O4 0.000000 0.607453 0.795173
O O5 0.500000 0.270377 0.965355
O O6 0.268806 0.399464 0.925133
O O7 0.289951 0.148253 0.912557
O O8 0.216236 0.243603 0.995571
O O9 0.250000 0.049183 0.250000
O O10 0.500000 0.138138 0.209745
O O11 0.288714 0.013229 0.157937
O O12 0.500000 0.519655 0.882445
O O13 0.720327 0.655087 0.920675
O O14 0.500000 0.040230 0.090425
O O15 0.785102 0.095132 0.070728
O O16 0.500000 0.728191 0.559440
#
# Coordination Sequence:
#
# PCOD8219207 Si02
#       6
#     8   8   8   8   8   8
#     4  11  21  35  58  87 117 148 189 237 286 338
#     4  10  23  41  60  82 114 156 196 236 288 347
#     4  10  19  33  57  85 114 147 186 233 283 336
#     4  11  22  39  61  85 115 153 196 239 286 341
#     4  10  21  39  61  84 114 153 194 234 286 346
#     4  12  24  37  58  87 116 150 195 242 289 341
#
# _framework density 19.380554
#
# number of rings (size 3 to 8) (size 9 to 14) (size 15 to 20)
#    0.000    1.333    1.667    6.000    0.000    6.667 
#    0.000    0.833    0.000    2.000    0.000    0.000 
#    0.000    0.000    0.000    0.000    0.000    0.000 
#
# Total GULP energy -595457.901648 kJ/mol
# GULP energy per Si atom -12405.372951 kJ/mol
# Density = 1.933644 g / cm^3
# Si number density = 19.380554 Si / 1000 Ang^3
#
#
#
# Elastic Constant Matrix: (Units=GPa)
#
#
# Indices 1 2 3 4 5 6 
#
# 1 99.0444 14.9297 41.2270 0.0000 0.0000 0.0000
# 2 14.9297 58.4711 22.0245 0.0000 0.0000 0.0000
# 3 41.2270 22.0245 128.2429 0.0000 0.0000 0.0000
# 4 0.0000 0.0000 0.0000 6.8630 0.0000 0.0000
# 5 0.0000 0.0000 0.0000 0.0000 36.4236 0.0000
# 6 0.0000 0.0000 0.0000 0.0000 0.0000 14.2098
#
#
#
# Elastic Compliance Matrix: (Units=1/GPa)
#
#
# Indices 1 2 3 4 5 6 
#
# 1 0.011811 -0.001695 -0.003506 0.000000 0.000000 0.000000
# 2 -0.001695 0.018529 -0.002637 0.000000 0.000000 0.000000
# 3 -0.003506 -0.002637 0.009378 0.000000 0.000000 0.000000
# 4 0.000000 0.000000 0.000000 0.145708 0.000000 0.000000
# 5 0.000000 0.000000 0.000000 0.000000 0.027455 0.000000
# 6 0.000000 0.000000 0.000000 0.000000 0.000000 0.070374
#
#
# Mechanical properties :
#
#
# Convention : Reuss Voigt Hill
#
# Bulk Modulus (GPa) = 41.59548 49.12451 45.36000
# Shear Modulus (GPa) = 16.28959 25.33778 20.81369
#
# Velocity S-wave (km/s) = 2.90230 3.61970 3.28067
# Velocity P-wave (km/s) = 5.72191 6.54767 6.14867
#
# Compressibility (1/GPa) = 0.02404107
#
# Stress axis : x y z
#
# Youngs Moduli (GPa) = 84.66436 53.97041 106.63627
#
# Poissons Ratio (x) = 0.09149 0.37386
# Poissons Ratio (y) = 0.14353 0.28121
# Poissons Ratio (z) = 0.29683 0.14233
#
# Static dielectric constant tensor:
#      x y z
#    x 3.571150 0.000000 0.000000 
#    y 0.000000 3.388440 0.000000 
#    z 0.000000 0.000000 3.794810 
# 
# 
# High freq. dielectric constant tensor:
#      x y z
#    x 1.759570 0.000000 0.000000 
#    y 0.000000 1.731980 0.000000 
#    z 0.000000 0.000000 1.772750 
# 
# From -- ./inp_files/37762.got.cif
#   From: 2010.03.12/outbox.cif.g09.slc.cpg/sg53_19_cif.got.tgz:37762.got - 2010.04.16 14:36:59.
