data_PCOD8219482
_publ_section_title
;
Structure prediction by ZEFSAII (Michael W. Deem and Ramdas Pophale) SiO2 
 PCOD8219482
Probable space group: P M N A
;
_chemical_formula_sum "Si O2"
_cell_formula_units_Z 56
_cell_length_a 19.080967
_cell_length_b 13.632492
_cell_length_c 11.302862
_cell_angle_alpha 90.000000
_cell_angle_beta 90.000000
_cell_angle_gamma 90.000000
_cell_volume 2940.113235
_symmetry_space_group_name_H-M "P M N A"
_symmetry_group_IT_number 53
_symmetry_cell_setting 'orthorhombic'
loop_
_space_group_symop_operation_xyz
x,y,z
1/2-x,-y,1/2+z
x,-y,-z
1/2-x,y,1/2-z
-x,-y,-z
1/2+x,y,1/2-z
-x,y,z
1/2+x,-y,1/2+z
loop_
_atom_site_type_symbol
_atom_site_label
_atom_site_fract_x
_atom_site_fract_y
_atom_site_fract_z
Si Si1 0.325076 0.533712 0.260715
Si Si2 0.671993 0.303189 0.932221
Si Si3 0.921099 0.237164 0.149328
Si Si4 0.827906 0.687968 0.051947
Si Si5 0.579064 0.622958 0.858068
Si Si6 0.832117 0.848088 0.246918
Si Si7 0.417793 0.016912 0.364396
O O1 0.250000 0.476628 0.250000
O O2 0.315821 0.627761 0.178962
O O3 0.339340 0.578909 0.391569
O O4 0.387100 0.465137 0.216301
O O5 0.748203 0.294324 0.992915
O O6 0.646610 0.199426 0.874987
O O7 0.616884 0.352570 0.019588
O O8 0.918946 0.279529 0.280764
O O9 0.892854 0.127115 0.162943
O O10 0.000000 0.236107 0.097688
O O11 0.875299 0.305719 0.064332
O O12 0.851090 0.773224 0.141800
O O13 0.500000 0.590782 0.888213
O O14 0.750000 0.873462 0.250000
O O15 0.876102 0.946445 0.224991
O O16 0.500000 0.000118 0.342022
O O17 0.397064 0.000000 0.500000
#
# Coordination Sequence:
#
# PCOD8219482 Si02
#       7
#     8   8   8   8   8   8   8
#     4   9  20  37  58  83 108 143 191 234 280 335
#     4   9  20  37  58  80 111 153 187 226 279 337
#     4  10  22  37  54  81 115 146 185 235 284 335
#     4   9  18  36  59  81 111 144 183 238 287 333
#     4  11  24  39  53  80 119 152 189 232 274 336
#     4   9  18  36  57  86 116 139 187 243 278 328
#     4  10  19  35  59  84 110 144 186 232 282 333
#
# _framework density 19.046887000000002
#
# number of rings (size 3 to 8) (size 9 to 14) (size 15 to 20)
#    0.000    2.429    1.429    2.143    2.000    2.857 
#    2.571    5.000    0.000    2.571    0.000    0.000 
#    0.000    0.000    0.000    0.000    0.000    0.000 
#
# Total GULP energy -694249.189137 kJ/mol
# GULP energy per Si atom -12397.306949 kJ/mol
# Density = 1.900354 g / cm^3
# Si number density = 19.046887 Si / 1000 Ang^3
#
#
#
# Elastic Constant Matrix: (Units=GPa)
#
#
# Indices 1 2 3 4 5 6 
#
# 1 95.4066 33.2461 35.3316 0.0000 0.0000 0.0000
# 2 33.2461 75.3089 18.7928 0.0000 0.0000 0.0000
# 3 35.3316 18.7928 59.3566 0.0000 0.0000 0.0000
# 4 0.0000 0.0000 0.0000 21.4029 0.0000 0.0000
# 5 0.0000 0.0000 0.0000 0.0000 32.4337 0.0000
# 6 0.0000 0.0000 0.0000 0.0000 0.0000 31.2118
#
#
#
# Elastic Compliance Matrix: (Units=1/GPa)
#
#
# Indices 1 2 3 4 5 6 
#
# 1 0.014846 -0.004722 -0.007342 0.000000 0.000000 0.000000
# 2 -0.004722 0.015920 -0.002230 0.000000 0.000000 0.000000
# 3 -0.007342 -0.002230 0.021923 0.000000 0.000000 0.000000
# 4 0.000000 0.000000 0.000000 0.046723 0.000000 0.000000
# 5 0.000000 0.000000 0.000000 0.000000 0.030832 0.000000
# 6 0.000000 0.000000 0.000000 0.000000 0.000000 0.032039
#
#
# Mechanical properties :
#
#
# Convention : Reuss Voigt Hill
#
# Bulk Modulus (GPa) = 41.49011 44.97923 43.23467
# Shear Modulus (GPa) = 25.13786 26.52312 25.83049
#
# Velocity S-wave (km/s) = 3.63683 3.73569 3.68659
# Velocity P-wave (km/s) = 6.28218 6.50181 6.39294
#
# Compressibility (1/GPa) = 0.02410213
#
# Stress axis : x y z
#
# Youngs Moduli (GPa) = 67.35963 62.81598 45.61328
#
# Poissons Ratio (x) = 0.29660 0.33489
# Poissons Ratio (y) = 0.31805 0.10170
# Poissons Ratio (z) = 0.49454 0.14006
#
# Static dielectric constant tensor:
#      x y z
#    x 3.497600 0.000000 0.000000 
#    y 0.000000 3.453670 0.000000 
#    z 0.000000 0.000000 3.310930 
# 
# 
# High freq. dielectric constant tensor:
#      x y z
#    x 1.735970 0.000000 0.000000 
#    y 0.000000 1.737390 0.000000 
#    z 0.000000 0.000000 1.730530 
# 
# From -- ./inp_files/16060.got.cif
#   From: 2010.03.12/outbox.cif.g09.slc.cpg/sg53_9_cif.got.tgz:16060.got - 2010.04.16 14:36:59.
