data_PCOD8219801
_publ_section_title
;
Structure prediction by ZEFSAII (Michael W. Deem and Ramdas Pophale) SiO2 
 PCOD8219801
Probable space group: P M N A
;
_chemical_formula_sum "Si O2"
_cell_formula_units_Z 40
_cell_length_a 17.854211
_cell_length_b 7.199251
_cell_length_c 17.879123
_cell_angle_alpha 90.000000
_cell_angle_beta 90.000000
_cell_angle_gamma 90.000000
_cell_volume 2298.127875
_symmetry_space_group_name_H-M "P M N A"
_symmetry_group_IT_number 53
_symmetry_cell_setting 'orthorhombic'
loop_
_space_group_symop_operation_xyz
x,y,z
1/2-x,-y,1/2+z
x,-y,-z
1/2-x,y,1/2-z
-x,-y,-z
1/2+x,y,1/2-z
-x,y,z
1/2+x,-y,1/2+z
loop_
_atom_site_type_symbol
_atom_site_label
_atom_site_fract_x
_atom_site_fract_y
_atom_site_fract_z
Si Si1 0.791081 0.759357 0.679050
Si Si2 0.792600 0.616599 0.176731
Si Si3 0.415025 0.495594 0.221074
Si Si4 0.084201 0.333373 0.558228
Si Si5 0.725247 0.908447 0.071265
O O1 0.750000 0.848083 0.750000
O O2 0.744080 0.578860 0.649826
O O3 0.873944 0.698496 0.704663
O O4 0.800146 0.919827 0.620534
O O5 0.750000 0.690097 0.250000
O O6 0.878327 0.593444 0.205149
O O7 0.783294 0.766942 0.110761
O O8 0.500000 0.453868 0.242097
O O9 0.407033 0.614597 0.145417
O O10 0.097957 0.500000 0.500000
O O11 0.148657 0.185060 0.541935
O O12 0.000000 0.253719 0.545087
O O13 0.767228 0.000000 0.000000
#
# Coordination Sequence:
#
# PCOD8219801 Si02
#       5
#     8   8   8   8   8
#     4   9  19  33  53  77 103 132 173 223 258 313
#     4   9  18  36  52  72 105 135 178 227 259 311
#     4   9  17  34  57  74 101 145 174 213 270 317
#     4  10  20  33  49  75 113 145 172 205 253 322
#     4  12  22  30  54  78 105 144 177 217 270 309
#
# _framework density 17.405473000000001
#
# number of rings (size 3 to 8) (size 9 to 14) (size 15 to 20)
#    0.000    2.600    4.000    1.800    0.000    1.200 
#    0.000    0.000    0.000    0.600    0.000    5.600 
#    0.000    0.000    0.000    0.000    0.000    0.000 
#
# Total GULP energy -495542.233776 kJ/mol
# GULP energy per Si atom -12388.555844 kJ/mol
# Density = 1.736586 g / cm^3
# Si number density = 17.405473 Si / 1000 Ang^3
#
#
#
# Elastic Constant Matrix: (Units=GPa)
#
#
# Indices 1 2 3 4 5 6 
#
# 1 106.7203 39.2065 39.7503 0.0000 0.0000 0.0000
# 2 39.2065 87.2713 57.6279 0.0000 0.0000 0.0000
# 3 39.7503 57.6279 73.6178 0.0000 0.0000 0.0000
# 4 0.0000 0.0000 0.0000 31.4087 0.0000 0.0000
# 5 0.0000 0.0000 0.0000 0.0000 21.8715 0.0000
# 6 0.0000 0.0000 0.0000 0.0000 0.0000 13.1493
#
#
#
# Elastic Compliance Matrix: (Units=1/GPa)
#
#
# Indices 1 2 3 4 5 6 
#
# 1 0.011947 -0.002292 -0.004656 0.000000 0.000000 0.000000
# 2 -0.002292 0.024159 -0.017674 0.000000 0.000000 0.000000
# 3 -0.004656 -0.017674 0.029933 0.000000 0.000000 0.000000
# 4 0.000000 0.000000 0.000000 0.031838 0.000000 0.000000
# 5 0.000000 0.000000 0.000000 0.000000 0.045722 0.000000
# 6 0.000000 0.000000 0.000000 0.000000 0.000000 0.076050
#
#
# Mechanical properties :
#
#
# Convention : Reuss Voigt Hill
#
# Bulk Modulus (GPa) = 59.54615 60.08656 59.81635
# Shear Modulus (GPa) = 18.21556 22.02089 20.11822
#
# Velocity S-wave (km/s) = 3.23854 3.56078 3.40348
# Velocity P-wave (km/s) = 6.94763 7.17650 7.06299
#
# Compressibility (1/GPa) = 0.01679370
#
# Stress axis : x y z
#
# Youngs Moduli (GPa) = 83.70451 41.39259 33.40819
#
# Poissons Ratio (x) = 0.09489 0.15556
# Poissons Ratio (y) = 0.19189 0.59045
# Poissons Ratio (z) = 0.38975 0.73156
#
# Static dielectric constant tensor:
#      x y z
#    x 3.289320 0.000000 0.000000 
#    y 0.000000 3.164320 0.000000 
#    z 0.000000 0.000000 3.620570 
# 
# 
# High freq. dielectric constant tensor:
#      x y z
#    x 1.652940 0.000000 0.000000 
#    y 0.000000 1.664960 0.000000 
#    z 0.000000 0.000000 1.666840 
# 
# From -- ./inp_files/28843.got.cif
#   From: 2010.03.12/outbox.cif.g09.slc.cpg/sg53_15_cif.got.tgz:28843.got - 2010.04.16 14:36:59.
