data_PCOD8219124
_publ_section_title
;
Structure prediction by ZEFSAII (Michael W. Deem and Ramdas Pophale) SiO2 
 PCOD8219124
Probable space group: P M N A
;
_chemical_formula_sum "Si O2"
_cell_formula_units_Z 40
_cell_length_a 16.470557
_cell_length_b 22.519385
_cell_length_c 5.019007
_cell_angle_alpha 90.000000
_cell_angle_beta 90.000000
_cell_angle_gamma 90.000000
_cell_volume 1861.583897
_symmetry_space_group_name_H-M "P M N A"
_symmetry_group_IT_number 53
_symmetry_cell_setting 'orthorhombic'
loop_
_space_group_symop_operation_xyz
x,y,z
1/2-x,-y,1/2+z
x,-y,-z
1/2-x,y,1/2-z
-x,-y,-z
1/2+x,y,1/2-z
-x,y,z
1/2+x,-y,1/2+z
loop_
_atom_site_type_symbol
_atom_site_label
_atom_site_fract_x
_atom_site_fract_y
_atom_site_fract_z
Si Si1 0.092754 0.175973 0.368857
Si Si2 0.305942 0.066845 0.000968
Si Si3 0.094007 0.359659 0.023326
Si Si4 0.660113 0.236201 0.642400
Si Si5 0.906416 0.434707 0.508330
O O1 0.119352 0.112226 0.485447
O O2 0.100536 0.223431 0.609066
O O3 0.000000 0.172921 0.276820
O O4 0.145224 0.193498 0.110119
O O5 0.250000 0.077105 0.250000
O O6 0.250000 0.080717 0.750000
O O7 0.341770 0.000000 0.000000
O O8 0.148425 0.303298 0.953699
O O9 0.104875 0.409598 0.801259
O O10 0.000000 0.339298 0.052261
O O11 0.130343 0.388601 0.293193
O O12 0.750000 0.224634 0.750000
O O13 0.864841 0.500000 0.500000
O O14 0.000000 0.441955 0.424681
#
# Coordination Sequence:
#
# PCOD8219124 Si02
#       5
#     8   8   8   8   8
#     4  12  24  40  63  91 123 158 204 257 305 354
#     4  10  21  39  63  90 123 163 203 243 296 362
#     4  10  19  33  54  81 114 149 192 242 288 342
#     4  12  25  41  61  87 122 163 205 249 306 371
#     4   9  17  30  52  82 113 146 187 237 290 345
#
# _framework density 21.487076999999999
#
# number of rings (size 3 to 8) (size 9 to 14) (size 15 to 20)
#    0.000    1.400    0.000    7.200    0.000    4.400 
#    0.000    0.000    0.000    8.400    0.000    0.000 
#    0.000    0.000    0.000    0.000    0.000    0.200 
#
# Total GULP energy -496117.996290 kJ/mol
# GULP energy per Si atom -12402.949907 kJ/mol
# Density = 2.143817 g / cm^3
# Si number density = 21.487077 Si / 1000 Ang^3
#
#
#
# Elastic Constant Matrix: (Units=GPa)
#
#
# Indices 1 2 3 4 5 6 
#
# 1 72.3007 47.1293 28.6515 0.0000 0.0000 0.0000
# 2 47.1293 125.3223 28.8452 0.0000 0.0000 0.0000
# 3 28.6515 28.8452 128.3514 0.0000 0.0000 0.0000
# 4 0.0000 0.0000 0.0000 41.6497 0.0000 0.0000
# 5 0.0000 0.0000 0.0000 0.0000 31.8008 0.0000
# 6 0.0000 0.0000 0.0000 0.0000 0.0000 19.6854
#
#
#
# Elastic Compliance Matrix: (Units=1/GPa)
#
#
# Indices 1 2 3 4 5 6 
#
# 1 0.019241 -0.006588 -0.002815 0.000000 0.000000 0.000000
# 2 -0.006588 0.010670 -0.000927 0.000000 0.000000 0.000000
# 3 -0.002815 -0.000927 0.008628 0.000000 0.000000 0.000000
# 4 0.000000 0.000000 0.000000 0.024010 0.000000 0.000000
# 5 0.000000 0.000000 0.000000 0.000000 0.031446 0.000000
# 6 0.000000 0.000000 0.000000 0.000000 0.000000 0.050799
#
#
# Mechanical properties :
#
#
# Convention : Reuss Voigt Hill
#
# Bulk Modulus (GPa) = 55.93084 59.46961 57.70022
# Shear Modulus (GPa) = 29.16925 33.38374 31.27650
#
# Velocity S-wave (km/s) = 3.68846 3.94593 3.81937
# Velocity P-wave (km/s) = 6.65027 6.96402 6.80895
#
# Compressibility (1/GPa) = 0.01787922
#
# Stress axis : x y z
#
# Youngs Moduli (GPa) = 51.97270 93.71725 115.90427
#
# Poissons Ratio (x) = 0.61741 0.32622
# Poissons Ratio (y) = 0.34240 0.10749
# Poissons Ratio (z) = 0.14628 0.08691
#
# Static dielectric constant tensor:
#      x y z
#    x 3.434950 0.000000 0.000000 
#    y 0.000000 3.764310 0.000000 
#    z 0.000000 0.000000 4.079120 
# 
# 
# High freq. dielectric constant tensor:
#      x y z
#    x 1.801070 0.000000 0.000000 
#    y 0.000000 1.858940 0.000000 
#    z 0.000000 0.000000 1.866700 
# 
# From -- ./inp_files/2183.got.cif
#   From: 2010.03.12/outbox.cif.g09.slc.cpg/sg53_2_cif.got.tgz:2183.got - 2010.04.16 14:36:59.
