data_PCOD8219247
_publ_section_title
;
Structure prediction by ZEFSAII (Michael W. Deem and Ramdas Pophale) SiO2 
 PCOD8219247
Probable space group: P M N A
;
_chemical_formula_sum "Si O2"
_cell_formula_units_Z 48
_cell_length_a 9.142879
_cell_length_b 9.416109
_cell_length_c 30.566208
_cell_angle_alpha 90.000000
_cell_angle_beta 90.000000
_cell_angle_gamma 90.000000
_cell_volume 2631.455399
_symmetry_space_group_name_H-M "P M N A"
_symmetry_group_IT_number 53
_symmetry_cell_setting 'orthorhombic'
loop_
_space_group_symop_operation_xyz
x,y,z
1/2-x,-y,1/2+z
x,-y,-z
1/2-x,y,1/2-z
-x,-y,-z
1/2+x,y,1/2-z
-x,y,z
1/2+x,-y,1/2+z
loop_
_atom_site_type_symbol
_atom_site_label
_atom_site_fract_x
_atom_site_fract_y
_atom_site_fract_z
Si Si1 0.168675 0.012438 0.866815
Si Si2 0.170070 0.349973 0.482597
Si Si3 0.672221 0.808757 0.203849
Si Si4 0.166151 0.439411 0.639805
Si Si5 0.167904 0.695769 0.893422
Si Si6 0.833582 0.797111 0.429651
O O1 0.189055 0.844360 0.869003
O O2 0.000000 0.055382 0.860231
O O3 0.263339 0.066397 0.826068
O O4 0.225239 0.082156 0.912034
O O5 0.232005 0.500000 0.500000
O O6 0.251594 0.299760 0.439593
O O7 0.196127 0.229116 0.519221
O O8 0.000000 0.366947 0.470915
O O9 0.750000 0.812283 0.250000
O O10 0.500000 0.834637 0.209171
O O11 0.705539 0.657073 0.181592
O O12 0.269287 0.576348 0.639100
O O13 0.192411 0.351009 0.595471
O O14 0.000000 0.492740 0.642510
O O15 0.000000 0.661989 0.902659
O O16 0.000000 0.848140 0.421292
#
# Coordination Sequence:
#
# PCOD8219247 Si02
#       6
#     8   8   8   8   8   8
#     4  10  22  38  54  78 115 151 182 223 274 326
#     4  10  19  34  54  76 107 146 190 237 277 321
#     4  10  21  39  64  89 109 136 176 219 269 330
#     4   9  18  35  57  80 108 140 178 221 267 322
#     4  11  23  35  51  80 114 148 185 226 274 321
#     4   9  18  34  55  78 103 142 192 232 271 320
#
# _framework density 18.240856999999998
#
# number of rings (size 3 to 8) (size 9 to 14) (size 15 to 20)
#    0.000    2.167    1.667    2.500    0.000    7.667 
#    0.000    4.167    0.000    2.000    0.000    0.000 
#    0.000    0.000    0.000    0.000    0.000    0.000 
#
# Total GULP energy -595325.548517 kJ/mol
# GULP energy per Si atom -12402.615594 kJ/mol
# Density = 1.819934 g / cm^3
# Si number density = 18.240857 Si / 1000 Ang^3
#
#
#
# Elastic Constant Matrix: (Units=GPa)
#
#
# Indices 1 2 3 4 5 6 
#
# 1 115.9075 61.5068 62.9301 0.0000 0.0000 0.0000
# 2 61.5068 86.8381 42.1093 0.0000 0.0000 0.0000
# 3 62.9301 42.1093 109.3909 0.0000 0.0000 0.0000
# 4 0.0000 0.0000 0.0000 16.0954 0.0000 0.0000
# 5 0.0000 0.0000 0.0000 0.0000 12.6550 0.0000
# 6 0.0000 0.0000 0.0000 0.0000 0.0000 28.3886
#
#
#
# Elastic Compliance Matrix: (Units=1/GPa)
#
#
# Indices 1 2 3 4 5 6 
#
# 1 0.016660 -0.008794 -0.006199 0.000000 0.000000 0.000000
# 2 -0.008794 0.018801 -0.002178 0.000000 0.000000 0.000000
# 3 -0.006199 -0.002178 0.013546 0.000000 0.000000 0.000000
# 4 0.000000 0.000000 0.000000 0.062130 0.000000 0.000000
# 5 0.000000 0.000000 0.000000 0.000000 0.079020 0.000000
# 6 0.000000 0.000000 0.000000 0.000000 0.000000 0.035225
#
#
# Mechanical properties :
#
#
# Convention : Reuss Voigt Hill
#
# Bulk Modulus (GPa) = 68.19219 71.69211 69.94215
# Shear Modulus (GPa) = 18.89559 21.13379 20.01469
#
# Velocity S-wave (km/s) = 3.22202 3.40751 3.31606
# Velocity P-wave (km/s) = 7.16292 7.40742 7.28619
#
# Compressibility (1/GPa) = 0.01466444
#
# Stress axis : x y z
#
# Youngs Moduli (GPa) = 60.02511 53.18947 73.82256
#
# Poissons Ratio (x) = 0.46775 0.45761
# Poissons Ratio (y) = 0.52787 0.16080
# Poissons Ratio (z) = 0.37208 0.11586
#
# Static dielectric constant tensor:
#      x y z
#    x 3.424000 0.000000 0.000000 
#    y 0.000000 3.267940 0.000000 
#    z 0.000000 0.000000 3.263890 
# 
# 
# High freq. dielectric constant tensor:
#      x y z
#    x 1.711420 0.000000 0.000000 
#    y 0.000000 1.700650 0.000000 
#    z 0.000000 0.000000 1.698110 
# 
# From -- ./inp_files/37735.got.cif
#   From: 2010.03.12/outbox.cif.g09.slc.cpg/sg53_19_cif.got.tgz:37735.got - 2010.04.16 14:36:59.
