data_PCOD8219909
_publ_section_title
;
Structure prediction by ZEFSAII (Michael W. Deem and Ramdas Pophale) SiO2 
 PCOD8219909
Probable space group: P M N A
;
_chemical_formula_sum "Si O2"
_cell_formula_units_Z 64
_cell_length_a 18.781906
_cell_length_b 14.223454
_cell_length_c 12.241712
_cell_angle_alpha 90.000000
_cell_angle_beta 90.000000
_cell_angle_gamma 90.000000
_cell_volume 3270.294720
_symmetry_space_group_name_H-M "P M N A"
_symmetry_group_IT_number 53
_symmetry_cell_setting 'orthorhombic'
loop_
_space_group_symop_operation_xyz
x,y,z
1/2-x,-y,1/2+z
x,-y,-z
1/2-x,y,1/2-z
-x,-y,-z
1/2+x,y,1/2-z
-x,y,z
1/2+x,-y,1/2+z
loop_
_atom_site_type_symbol
_atom_site_label
_atom_site_fract_x
_atom_site_fract_y
_atom_site_fract_z
Si Si1 0.580035 0.941213 0.898092
Si Si2 0.082385 0.734734 0.345983
Si Si3 0.580132 0.026888 0.341615
Si Si4 0.170674 0.632645 0.729879
Si Si5 0.836975 0.790812 0.911438
Si Si6 0.173168 0.221781 0.447831
Si Si7 0.081386 0.483700 0.622464
Si Si8 0.917275 0.818010 0.116938
O O1 0.500000 0.906759 0.925635
O O2 0.581084 0.001151 0.786843
O O3 0.630699 0.853300 0.875546
O O4 0.610652 0.000000 0.000000
O O5 0.137059 0.776973 0.433649
O O6 0.090029 0.623240 0.341548
O O7 0.109309 0.778299 0.232349
O O8 0.000000 0.762927 0.372604
O O9 0.500000 0.059480 0.375005
O O10 0.634741 0.110002 0.366065
O O11 0.600188 0.929268 0.401500
O O12 0.250000 0.594932 0.750000
O O13 0.150510 0.707622 0.823994
O O14 0.164267 0.678846 0.610672
O O15 0.119561 0.542934 0.719199
O O16 0.755646 0.806436 0.946783
O O17 0.878606 0.761078 0.020707
O O18 0.113027 0.500000 0.500000
O O19 0.000000 0.517286 0.621918
O O20 0.000000 0.797901 0.106708
#
# Coordination Sequence:
#
# PCOD8219909 Si02
#       8
#     8   8   8   8   8   8   8   8
#     4  10  20  33  52  83 116 151 196 246 302 349
#     4  10  21  40  65  91 121 152 195 259 311 353
#     4  10  20  36  59  83 113 160 209 245 287 350
#     4  10  22  40  57  87 122 157 193 242 301 363
#     4  11  23  38  57  85 122 161 205 240 287 361
#     4  11  21  37  59  83 120 154 194 246 299 352
#     4  10  20  37  65  96 117 145 196 253 304 355
#     4  10  22  41  60  83 120 160 203 250 294 352
#
# _framework density 19.570101000000001
#
# number of rings (size 3 to 8) (size 9 to 14) (size 15 to 20)
#    0.000    1.750    2.500    1.875    0.000    6.000 
#    2.250    1.875    0.000    2.250    0.000    0.000 
#    0.000    0.000    0.000    0.000    0.000    0.000 
#
# Total GULP energy -793462.942999 kJ/mol
# GULP energy per Si atom -12397.858484 kJ/mol
# Density = 1.952556 g / cm^3
# Si number density = 19.570101 Si / 1000 Ang^3
#
#
#
# Elastic Constant Matrix: (Units=GPa)
#
#
# Indices 1 2 3 4 5 6 
#
# 1 88.9881 46.7838 51.7004 0.0000 0.0000 0.0000
# 2 46.7838 72.1030 27.1455 0.0000 0.0000 0.0000
# 3 51.7004 27.1455 108.9824 0.0000 0.0000 0.0000
# 4 0.0000 0.0000 0.0000 27.7957 0.0000 0.0000
# 5 0.0000 0.0000 0.0000 0.0000 -29.5637 0.0000
# 6 0.0000 0.0000 0.0000 0.0000 0.0000 24.1227
#
#
#
# Elastic Compliance Matrix: (Units=1/GPa)
#
#
# Indices 1 2 3 4 5 6 
#
# 1 0.021337 -0.011072 -0.007364 0.000000 0.000000 0.000000
# 2 -0.011072 0.021049 0.000009 0.000000 0.000000 0.000000
# 3 -0.007364 0.000009 0.012667 0.000000 0.000000 0.000000
# 4 0.000000 0.000000 0.000000 0.035977 0.000000 0.000000
# 5 0.000000 0.000000 0.000000 0.000000 -0.033825 0.000000
# 6 0.000000 0.000000 0.000000 0.000000 0.000000 0.041455
#
#
# Mechanical properties :
#
#
# Convention : Reuss Voigt Hill
#
# Bulk Modulus (GPa) = 54.94545 57.92586 56.43566
# Shear Modulus (GPa) = 35.31597 14.10053 24.70825
#
# Velocity S-wave (km/s) = 4.25265 2.68715 3.55709
# Velocity P-wave (km/s) = 7.22846 6.26826 6.76542
#
# Compressibility (1/GPa) = 0.01819987
#
# Stress axis : x y z
#
# Youngs Moduli (GPa) = 46.86775 47.50733 78.94543
#
# Poissons Ratio (x) = 0.52599 0.58137
# Poissons Ratio (y) = 0.51891 -0.00074
# Poissons Ratio (z) = 0.34514 -0.00044
#
# Static dielectric constant tensor:
#      x y z
#    x 3.504810 0.000000 0.000000 
#    y 0.000000 3.391140 0.000000 
#    z 0.000000 0.000000 3.663950 
# 
# 
# High freq. dielectric constant tensor:
#      x y z
#    x 1.752690 0.000000 0.000000 
#    y 0.000000 1.751560 0.000000 
#    z 0.000000 0.000000 1.774250 
# 
# From -- ./inp_files/17147.got.cif
#   From: 2010.03.12/outbox.cif.g09.slc.cpg/sg53_9_cif.got.tgz:17147.got - 2010.04.16 14:36:59.
