data_PCOD8219089
_publ_section_title
;
Structure prediction by ZEFSAII (Michael W. Deem and Ramdas Pophale) SiO2 
 PCOD8219089
Probable space group: P M N A
;
_chemical_formula_sum "Si O2"
_cell_formula_units_Z 64
_cell_length_a 9.072304
_cell_length_b 20.903999
_cell_length_c 19.802591
_cell_angle_alpha 90.000000
_cell_angle_beta 90.000000
_cell_angle_gamma 90.000000
_cell_volume 3755.510565
_symmetry_space_group_name_H-M "P M N A"
_symmetry_group_IT_number 53
_symmetry_cell_setting 'orthorhombic'
loop_
_space_group_symop_operation_xyz
x,y,z
1/2-x,-y,1/2+z
x,-y,-z
1/2-x,y,1/2-z
-x,-y,-z
1/2+x,y,1/2-z
-x,y,z
1/2+x,-y,1/2+z
loop_
_atom_site_type_symbol
_atom_site_label
_atom_site_fract_x
_atom_site_fract_y
_atom_site_fract_z
Si Si1 0.826808 0.059669 0.953744
Si Si2 0.826941 0.124085 0.318884
Si Si3 0.824951 0.439411 0.457220
Si Si4 0.173644 0.023814 0.680538
Si Si5 0.838689 0.691802 0.690084
Si Si6 0.341868 0.546253 0.809172
Si Si7 0.669903 0.314699 0.447468
Si Si8 0.329905 0.826497 0.550934
O O1 0.000000 0.056277 0.937750
O O2 0.739708 0.061793 0.883169
O O3 0.781316 0.123807 0.993489
O O4 0.777431 0.000000 0.000000
O O5 0.750000 0.147107 0.250000
O O6 0.788721 0.050219 0.332436
O O7 0.766903 0.165768 0.381409
O O8 0.000000 0.135049 0.311793
O O9 0.774999 0.500000 0.500000
O O10 0.763798 0.455303 0.382338
O O11 0.753489 0.373328 0.485362
O O12 0.000000 0.428782 0.456133
O O13 0.250000 0.047389 0.750000
O O14 0.000000 0.036830 0.686044
O O15 0.750000 0.727770 0.750000
O O16 0.867485 0.619200 0.712494
O O17 0.736773 0.694609 0.625737
O O18 0.000000 0.724431 0.678192
O O19 0.250000 0.510971 0.750000
O O20 0.500000 0.510862 0.813804
O O21 0.500000 0.334139 0.442550
O O22 0.690771 0.244753 0.481627
O O23 0.500000 0.838106 0.571464
#
# Coordination Sequence:
#
# PCOD8219089 Si02
#       8
#     8   8   8   8   8   8   8   8
#     4  10  19  33  54  74  97 131 167 205 251 297
#     4  10  20  32  48  69  97 133 171 208 244 287
#     4   9  18  33  51  70  94 126 162 200 242 288
#     4  10  20  33  51  75 101 128 164 209 253 297
#     4   9  16  27  43  62  87 122 162 197 232 273
#     4   8  14  24  40  63  89 116 146 182 222 266
#     4  10  20  32  46  67  96 126 160 200 242 292
#     4  10  21  35  49  69  98 132 167 205 251 299
#
# _framework density 17.041625
#
# number of rings (size 3 to 8) (size 9 to 14) (size 15 to 20)
#    0.000    2.500    1.250    2.250    0.000    6.500 
#    0.000    0.000    0.000    0.000    0.000    0.875 
#    0.000    4.000    0.000    0.000    0.000    0.000 
#
# Total GULP energy -793136.457826 kJ/mol
# GULP energy per Si atom -12392.757154 kJ/mol
# Density = 1.700284 g / cm^3
# Si number density = 17.041625 Si / 1000 Ang^3
#
#
#
# Elastic Constant Matrix: (Units=GPa)
#
#
# Indices 1 2 3 4 5 6 
#
# 1 76.1155 39.8743 42.5997 0.0000 0.0000 0.0000
# 2 39.8743 101.6372 50.2104 0.0000 0.0000 0.0000
# 3 42.5997 50.2104 92.4453 0.0000 0.0000 0.0000
# 4 0.0000 0.0000 0.0000 8.0920 0.0000 0.0000
# 5 0.0000 0.0000 0.0000 0.0000 28.1446 0.0000
# 6 0.0000 0.0000 0.0000 0.0000 0.0000 9.7526
#
#
#
# Elastic Compliance Matrix: (Units=1/GPa)
#
#
# Indices 1 2 3 4 5 6 
#
# 1 0.018969 -0.004269 -0.006422 0.000000 0.000000 0.000000
# 2 -0.004269 0.014408 -0.005858 0.000000 0.000000 0.000000
# 3 -0.006422 -0.005858 0.016958 0.000000 0.000000 0.000000
# 4 0.000000 0.000000 0.000000 0.123579 0.000000 0.000000
# 5 0.000000 0.000000 0.000000 0.000000 0.035531 0.000000
# 6 0.000000 0.000000 0.000000 0.000000 0.000000 0.102537
#
#
# Mechanical properties :
#
#
# Convention : Reuss Voigt Hill
#
# Bulk Modulus (GPa) = 58.01845 59.50743 58.76294
# Shear Modulus (GPa) = 14.25209 18.36541 16.30875
#
# Velocity S-wave (km/s) = 2.89504 3.28636 3.09689
# Velocity P-wave (km/s) = 6.73009 7.02815 6.88073
#
# Compressibility (1/GPa) = 0.01723590
#
# Stress axis : x y z
#
# Youngs Moduli (GPa) = 52.71831 69.40688 58.96777
#
# Poissons Ratio (x) = 0.29631 0.37871
# Poissons Ratio (y) = 0.22506 0.34544
# Poissons Ratio (z) = 0.33857 0.40660
#
# Static dielectric constant tensor:
#      x y z
#    x 3.420730 0.000000 0.000000 
#    y 0.000000 3.173540 0.000000 
#    z 0.000000 0.000000 3.077340 
# 
# 
# High freq. dielectric constant tensor:
#      x y z
#    x 1.667220 0.000000 0.000000 
#    y 0.000000 1.630220 0.000000 
#    z 0.000000 0.000000 1.634280 
# 
# From -- ./inp_files/27063.got.cif
#   From: 2010.03.12/outbox.cif.g09.slc.cpg/sg53_14_cif.got.tgz:27063.got - 2010.04.16 14:36:59.
