data_PCOD8219257
_publ_section_title
;
Structure prediction by ZEFSAII (Michael W. Deem and Ramdas Pophale) SiO2 
 PCOD8219257
Probable space group: P M N A
;
_chemical_formula_sum "Si O2"
_cell_formula_units_Z 64
_cell_length_a 8.837982
_cell_length_b 20.325794
_cell_length_c 19.760109
_cell_angle_alpha 90.000000
_cell_angle_beta 90.000000
_cell_angle_gamma 90.000000
_cell_volume 3549.686250
_symmetry_space_group_name_H-M "P M N A"
_symmetry_group_IT_number 53
_symmetry_cell_setting 'orthorhombic'
loop_
_space_group_symop_operation_xyz
x,y,z
1/2-x,-y,1/2+z
x,-y,-z
1/2-x,y,1/2-z
-x,-y,-z
1/2+x,y,1/2-z
-x,y,z
1/2+x,-y,1/2+z
loop_
_atom_site_type_symbol
_atom_site_label
_atom_site_fract_x
_atom_site_fract_y
_atom_site_fract_z
Si Si1 0.679784 0.200575 0.541873
Si Si2 0.832526 0.211271 0.684587
Si Si3 0.820081 0.683408 0.537565
Si Si4 0.823268 0.368377 0.318301
Si Si5 0.163144 0.942638 0.311661
Si Si6 0.679786 0.480429 0.820098
Si Si7 0.680543 0.937202 0.042490
Si Si8 0.678519 0.435774 0.543493
O O1 0.500000 0.201701 0.543351
O O2 0.738966 0.222411 0.615833
O O3 0.743060 0.249238 0.485281
O O4 0.737886 0.128911 0.518105
O O5 0.750000 0.244019 0.750000
O O6 0.852017 0.134775 0.700308
O O7 0.000000 0.242950 0.676107
O O8 0.772268 0.672464 0.615788
O O9 0.758487 0.625046 0.491768
O O10 0.000000 0.687283 0.529573
O O11 0.750000 0.338708 0.250000
O O12 0.772195 0.443626 0.329226
O O13 0.000000 0.364231 0.307555
O O14 0.250000 0.976852 0.250000
O O15 0.244070 0.954880 0.383053
O O16 0.000000 0.976762 0.312981
O O17 0.750000 0.453301 0.750000
O O18 0.500000 0.470547 0.820278
O O19 0.753817 0.440475 0.881419
O O20 0.500000 0.924471 0.043252
O O21 0.728982 0.000000 0.000000
O O22 0.718489 0.500000 0.500000
O O23 0.500000 0.423457 0.547834
#
# Coordination Sequence:
#
# PCOD8219257 Si02
#       8
#     8   8   8   8   8   8   8   8
#     4  11  22  35  52  79 111 143 180 224 272 324
#     4   9  16  29  49  73 101 136 175 215 257 307
#     4  11  22  38  57  79 108 145 183 222 270 325
#     4   9  19  33  54  80 105 135 176 223 270 318
#     4   8  14  24  42  69  98 127 161 203 249 297
#     4  10  19  34  54  79 109 143 182 225 272 322
#     4   9  18  34  55  77 103 138 179 221 267 320
#     4  11  22  35  54  81 110 141 177 221 270 318
#
# _framework density 18.029762999999999
#
# number of rings (size 3 to 8) (size 9 to 14) (size 15 to 20)
#    0.000    2.250    1.250    3.375    0.000    5.250 
#    0.000    0.625    0.000    0.750    0.000    1.750 
#    0.000    0.000    0.000    0.000    0.000    0.000 
#
# Total GULP energy -793385.642327 kJ/mol
# GULP energy per Si atom -12396.650661 kJ/mol
# Density = 1.798873 g / cm^3
# Si number density = 18.029763 Si / 1000 Ang^3
#
#
#
# Elastic Constant Matrix: (Units=GPa)
#
#
# Indices 1 2 3 4 5 6 
#
# 1 101.3767 41.3148 58.6790 0.0000 0.0000 0.0000
# 2 41.3148 78.1731 60.9675 0.0000 0.0000 0.0000
# 3 58.6790 60.9675 148.8725 0.0000 0.0000 0.0000
# 4 0.0000 0.0000 0.0000 28.9255 0.0000 0.0000
# 5 0.0000 0.0000 0.0000 0.0000 32.9302 0.0000
# 6 0.0000 0.0000 0.0000 0.0000 0.0000 18.6506
#
#
#
# Elastic Compliance Matrix: (Units=1/GPa)
#
#
# Indices 1 2 3 4 5 6 
#
# 1 0.013768 -0.004473 -0.003595 0.000000 0.000000 0.000000
# 2 -0.004473 0.020248 -0.006529 0.000000 0.000000 0.000000
# 3 -0.003595 -0.006529 0.010808 0.000000 0.000000 0.000000
# 4 0.000000 0.000000 0.000000 0.034572 0.000000 0.000000
# 5 0.000000 0.000000 0.000000 0.000000 0.030367 0.000000
# 6 0.000000 0.000000 0.000000 0.000000 0.000000 0.053618
#
#
# Mechanical properties :
#
#
# Convention : Reuss Voigt Hill
#
# Bulk Modulus (GPa) = 63.97852 72.26056 68.11954
# Shear Modulus (GPa) = 25.28007 27.26532 26.27269
#
# Velocity S-wave (km/s) = 3.74856 3.89297 3.82145
# Velocity P-wave (km/s) = 7.36869 7.76997 7.57199
#
# Compressibility (1/GPa) = 0.01563024
#
# Stress axis : x y z
#
# Youngs Moduli (GPa) = 72.63318 49.38732 92.52334
#
# Poissons Ratio (x) = 0.22089 0.33262
# Poissons Ratio (y) = 0.32486 0.60411
# Poissons Ratio (z) = 0.26112 0.32246
#
# Static dielectric constant tensor:
#      x y z
#    x 3.498400 0.000000 0.000000 
#    y 0.000000 3.071040 0.000000 
#    z 0.000000 0.000000 3.312560 
# 
# 
# High freq. dielectric constant tensor:
#      x y z
#    x 1.706510 0.000000 0.000000 
#    y 0.000000 1.653830 0.000000 
#    z 0.000000 0.000000 1.710400 
# 
# From -- ./inp_files/26911.got.cif
#   From: 2010.03.12/outbox.cif.g09.slc.cpg/sg53_14_cif.got.tgz:26911.got - 2010.04.16 14:36:59.
