data_PCOD8219024
_publ_section_title
;
Structure prediction by ZEFSAII (Michael W. Deem and Ramdas Pophale) SiO2 
 PCOD8219024
Probable space group: P M N A
;
_chemical_formula_sum "Si O2"
_cell_formula_units_Z 56
_cell_length_a 9.092078
_cell_length_b 17.902287
_cell_length_c 19.189297
_cell_angle_alpha 90.000000
_cell_angle_beta 90.000000
_cell_angle_gamma 90.000000
_cell_volume 3123.422487
_symmetry_space_group_name_H-M "P M N A"
_symmetry_group_IT_number 53
_symmetry_cell_setting 'orthorhombic'
loop_
_space_group_symop_operation_xyz
x,y,z
1/2-x,-y,1/2+z
x,-y,-z
1/2-x,y,1/2-z
-x,-y,-z
1/2+x,y,1/2-z
-x,y,z
1/2+x,-y,1/2+z
loop_
_atom_site_type_symbol
_atom_site_label
_atom_site_fract_x
_atom_site_fract_y
_atom_site_fract_z
Si Si1 0.829684 0.647392 0.941761
Si Si2 0.323835 0.525143 0.672639
Si Si3 0.661900 0.879959 0.813091
Si Si4 0.340603 0.054654 0.811722
Si Si5 0.828531 0.180960 0.060348
Si Si6 0.331810 0.435214 0.943492
Si Si7 0.824776 0.923643 0.463548
O O1 0.783897 0.598885 0.873408
O O2 0.795304 0.732869 0.923636
O O3 0.000000 0.632568 0.958181
O O4 0.743655 0.632362 0.014231
O O5 0.250000 0.530060 0.750000
O O6 0.500000 0.515433 0.681219
O O7 0.256435 0.455940 0.627716
O O8 0.750000 0.840836 0.750000
O O9 0.500000 0.842939 0.820083
O O10 0.755685 0.869945 0.881543
O O11 0.643409 0.966900 0.798635
O O12 0.250000 0.093056 0.750000
O O13 0.500000 0.092563 0.810525
O O14 0.265854 0.071184 0.885114
O O15 0.000000 0.164570 0.057340
O O16 0.752932 0.151525 0.990279
O O17 0.500000 0.415631 0.923164
O O18 0.325176 0.500000 0.000000
O O19 0.000000 0.915955 0.470581
O O20 0.771851 0.000000 0.500000
#
# Coordination Sequence:
#
# PCOD8219024 Si02
#       7
#     8   8   8   8   8   8   8
#     4   9  20  36  51  72 107 144 176 212 259 311
#     4  10  19  33  54  79 109 142 173 209 252 299
#     4  10  19  33  49  69  98 133 169 210 259 315
#     4   9  18  32  51  71  94 124 161 209 263 317
#     4  11  22  34  50  76 105 138 178 219 264 314
#     4   9  17  31  53  79 103 131 172 213 250 299
#     4  10  19  35  53  72 100 134 174 222 275 321
#
# _framework density 17.929051000000001
#
# number of rings (size 3 to 8) (size 9 to 14) (size 15 to 20)
#    0.000    2.286    1.429    1.714    0.000    5.429 
#    0.000    1.429    0.000    0.857    0.000    2.000 
#    0.000    0.000    0.000    0.000    0.000    0.000 
#
# Total GULP energy -693950.991794 kJ/mol
# GULP energy per Si atom -12391.981996 kJ/mol
# Density = 1.788824 g / cm^3
# Si number density = 17.929051 Si / 1000 Ang^3
#
#
#
# Elastic Constant Matrix: (Units=GPa)
#
#
# Indices 1 2 3 4 5 6 
#
# 1 86.1179 25.6850 64.1517 0.0000 0.0000 0.0000
# 2 25.6850 26.1400 24.5935 0.0000 0.0000 0.0000
# 3 64.1517 24.5935 151.4389 0.0000 0.0000 0.0000
# 4 0.0000 0.0000 0.0000 20.1373 0.0000 0.0000
# 5 0.0000 0.0000 0.0000 0.0000 35.5635 0.0000
# 6 0.0000 0.0000 0.0000 0.0000 0.0000 24.6076
#
#
#
# Elastic Compliance Matrix: (Units=1/GPa)
#
#
# Indices 1 2 3 4 5 6 
#
# 1 0.020654 -0.014238 -0.006437 0.000000 0.000000 0.000000
# 2 -0.014238 0.054970 -0.002896 0.000000 0.000000 0.000000
# 3 -0.006437 -0.002896 0.009800 0.000000 0.000000 0.000000
# 4 0.000000 0.000000 0.000000 0.049659 0.000000 0.000000
# 5 0.000000 0.000000 0.000000 0.000000 0.028119 0.000000
# 6 0.000000 0.000000 0.000000 0.000000 0.000000 0.040638
#
#
# Mechanical properties :
#
#
# Convention : Reuss Voigt Hill
#
# Bulk Modulus (GPa) = 26.12135 54.72859 40.42497
# Shear Modulus (GPa) = 18.95794 26.01279 22.48537
#
# Velocity S-wave (km/s) = 3.25528 3.81317 3.54521
# Velocity P-wave (km/s) = 5.36004 7.06954 6.27329
#
# Compressibility (1/GPa) = 0.03828286
#
# Stress axis : x y z
#
# Youngs Moduli (GPa) = 48.41774 18.19171 102.03725
#
# Poissons Ratio (x) = 0.25901 0.65681
# Poissons Ratio (y) = 0.68937 0.29546
# Poissons Ratio (z) = 0.31166 0.05268
#
# Static dielectric constant tensor:
#      x y z
#    x 3.629910 0.000000 0.000000 
#    y 0.000000 3.008300 0.000000 
#    z 0.000000 0.000000 3.442170 
# 
# 
# High freq. dielectric constant tensor:
#      x y z
#    x 1.704260 0.000000 0.000000 
#    y 0.000000 1.651600 0.000000 
#    z 0.000000 0.000000 1.699420 
# 
# From -- ./inp_files/26659.got.cif
#   From: 2010.03.12/outbox.cif.g09.slc.cpg/sg53_14_cif.got.tgz:26659.got - 2010.04.16 14:36:59.
