data_PCOD8219208
_publ_section_title
;
Structure prediction by ZEFSAII (Michael W. Deem and Ramdas Pophale) SiO2 
 PCOD8219208
Probable space group: P M N A
;
_chemical_formula_sum "Si O2"
_cell_formula_units_Z 64
_cell_length_a 17.899964
_cell_length_b 12.610336
_cell_length_c 14.454003
_cell_angle_alpha 90.000000
_cell_angle_beta 90.000000
_cell_angle_gamma 90.000000
_cell_volume 3262.623474
_symmetry_space_group_name_H-M "P M N A"
_symmetry_group_IT_number 53
_symmetry_cell_setting 'orthorhombic'
loop_
_space_group_symop_operation_xyz
x,y,z
1/2-x,-y,1/2+z
x,-y,-z
1/2-x,y,1/2-z
-x,-y,-z
1/2+x,y,1/2-z
-x,y,z
1/2+x,-y,1/2+z
loop_
_atom_site_type_symbol
_atom_site_label
_atom_site_fract_x
_atom_site_fract_y
_atom_site_fract_z
Si Si1 0.410828 0.167459 0.721724
Si Si2 0.332579 0.033454 0.227426
Si Si3 0.684301 0.113791 0.032092
Si Si4 0.413066 0.618967 0.185309
Si Si5 0.855614 0.121444 0.982189
Si Si6 0.413533 0.203359 0.341160
Si Si7 0.911151 0.389226 0.291168
Si Si8 0.413376 0.305681 0.012076
O O1 0.500000 0.164418 0.715727
O O2 0.378979 0.277420 0.764706
O O3 0.374357 0.153935 0.621541
O O4 0.383225 0.071060 0.787555
O O5 0.250000 0.991575 0.250000
O O6 0.327764 0.114306 0.142170
O O7 0.366401 0.101239 0.310846
O O8 0.630737 0.199573 0.986466
O O9 0.768173 0.136787 0.000328
O O10 0.656556 0.000000 0.000000
O O11 0.500000 0.623345 0.206638
O O12 0.379862 0.508638 0.226810
O O13 0.399754 0.615849 0.074310
O O14 0.900671 0.204250 0.048333
O O15 0.880705 0.000000 0.000000
O O16 0.500000 0.186886 0.315723
O O17 0.383953 0.310771 0.290962
O O18 0.881647 0.352877 0.392016
O O19 0.000000 0.393191 0.294648
O O20 0.500000 0.275988 0.021936
#
# Coordination Sequence:
#
# PCOD8219208 Si02
#       8
#     8   8   8   8   8   8   8   8
#     4  11  23  38  61  88 116 156 205 253 291 348
#     4  12  21  36  56  81 119 154 186 237 300 351
#     4  11  22  35  53  82 120 158 189 228 300 362
#     4   9  19  36  56  84 116 148 192 246 303 351
#     4  11  22  39  57  81 117 161 196 239 292 356
#     4  11  21  35  60  90 112 144 198 247 283 340
#     4   9  18  34  58  86 115 148 191 244 301 353
#     4  10  19  33  57  85 114 151 195 243 290 356
#
# _framework density 19.616116999999999
#
# number of rings (size 3 to 8) (size 9 to 14) (size 15 to 20)
#    0.000    1.500    3.750    2.625    0.000    2.750 
#    0.000    0.625    0.000   11.250    0.000    0.000 
#    0.000    0.000    0.000    0.000    0.000    0.000 
#
# Total GULP energy -793386.400684 kJ/mol
# GULP energy per Si atom -12396.662511 kJ/mol
# Density = 1.957147 g / cm^3
# Si number density = 19.616117 Si / 1000 Ang^3
#
#
#
# Elastic Constant Matrix: (Units=GPa)
#
#
# Indices 1 2 3 4 5 6 
#
# 1 54.7383 37.3569 24.6049 0.0000 0.0000 0.0000
# 2 37.3569 139.3713 34.4502 0.0000 0.0000 0.0000
# 3 24.6049 34.4502 78.9761 0.0000 0.0000 0.0000
# 4 0.0000 0.0000 0.0000 29.9652 0.0000 0.0000
# 5 0.0000 0.0000 0.0000 0.0000 22.2580 0.0000
# 6 0.0000 0.0000 0.0000 0.0000 0.0000 7.1142
#
#
#
# Elastic Compliance Matrix: (Units=1/GPa)
#
#
# Indices 1 2 3 4 5 6 
#
# 1 0.024171 -0.005175 -0.005273 0.000000 0.000000 0.000000
# 2 -0.005175 0.009150 -0.002379 0.000000 0.000000 0.000000
# 3 -0.005273 -0.002379 0.015343 0.000000 0.000000 0.000000
# 4 0.000000 0.000000 0.000000 0.033372 0.000000 0.000000
# 5 0.000000 0.000000 0.000000 0.000000 0.044928 0.000000
# 6 0.000000 0.000000 0.000000 0.000000 0.000000 0.140564
#
#
# Mechanical properties :
#
#
# Convention : Reuss Voigt Hill
#
# Bulk Modulus (GPa) = 43.46088 51.76774 47.61431
# Shear Modulus (GPa) = 16.61945 23.64572 20.13259
#
# Velocity S-wave (km/s) = 2.91389 3.47569 3.20711
# Velocity P-wave (km/s) = 5.79006 6.52341 6.16764
#
# Compressibility (1/GPa) = 0.02300920
#
# Stress axis : x y z
#
# Youngs Moduli (GPa) = 41.37199 109.28533 65.17797
#
# Poissons Ratio (x) = 0.56559 0.34367
# Poissons Ratio (y) = 0.21412 0.15506
# Poissons Ratio (z) = 0.21815 0.26000
#
# Static dielectric constant tensor:
#      x y z
#    x 3.296110 0.000000 0.000000 
#    y 0.000000 3.843490 0.000000 
#    z 0.000000 0.000000 4.151830 
# 
# 
# High freq. dielectric constant tensor:
#      x y z
#    x 1.737600 0.000000 0.000000 
#    y 0.000000 1.760470 0.000000 
#    z 0.000000 0.000000 1.770970 
# 
# From -- ./inp_files/23920.got.cif
#   From: 2010.03.12/outbox.cif.g09.slc.cpg/sg53_12_cif.got.tgz:23920.got - 2010.04.16 14:36:59.
