data_PCOD8219928
_publ_section_title
;
Structure prediction by ZEFSAII (Michael W. Deem and Ramdas Pophale) SiO2 
 PCOD8219928
Probable space group: P M N A
;
_chemical_formula_sum "Si O2"
_cell_formula_units_Z 48
_cell_length_a 12.693146
_cell_length_b 9.198877
_cell_length_c 21.673784
_cell_angle_alpha 90.000000
_cell_angle_beta 90.000000
_cell_angle_gamma 90.000000
_cell_volume 2530.689296
_symmetry_space_group_name_H-M "P M N A"
_symmetry_group_IT_number 53
_symmetry_cell_setting 'orthorhombic'
loop_
_space_group_symop_operation_xyz
x,y,z
1/2-x,-y,1/2+z
x,-y,-z
1/2-x,y,1/2-z
-x,-y,-z
1/2+x,y,1/2-z
-x,y,z
1/2+x,-y,1/2+z
loop_
_atom_site_type_symbol
_atom_site_label
_atom_site_fract_x
_atom_site_fract_y
_atom_site_fract_z
Si Si1 0.374981 0.676148 0.325576
Si Si2 0.116320 0.044681 0.350536
Si Si3 0.747147 0.412445 0.557166
Si Si4 0.250000 0.911608 0.250000
Si Si5 0.750000 0.552396 0.750000
Si Si6 0.119871 0.139517 0.535045
Si Si7 0.877195 0.360670 0.363506
O O1 0.500000 0.689063 0.324129
O O2 0.339099 0.655830 0.396899
O O3 0.326110 0.818149 0.293853
O O4 0.336616 0.540050 0.286551
O O5 0.140021 0.195193 0.388658
O O6 0.000000 0.060318 0.323038
O O7 0.188735 0.023518 0.292244
O O8 0.123509 0.902007 0.392908
O O9 0.693368 0.500000 0.500000
O O10 0.813109 0.283831 0.524929
O O11 0.826974 0.518565 0.592699
O O12 0.680997 0.645525 0.797370
O O13 0.000000 0.168306 0.512228
O O14 0.168497 0.000000 0.500000
O O15 0.000000 0.401232 0.356116
#
# Coordination Sequence:
#
# PCOD8219928 Si02
#       7
#     8   8   8   4   4   8   8
#     4  10  21  36  56  82 110 145 188 233 282 331
#     4  10  20  33  53  83 113 145 181 223 277 336
#     4  11  22  37  56  81 109 151 191 234 278 333
#     4  11  19  36  58  82 112 148 182 232 276 338
#     4   9  19  34  54  82 112 148 180 224 278 334
#     4  10  20  35  55  82 114 147 185 230 281 332
#     4  10  20  34  54  84 119 147 181 227 277 333
#
# _framework density 18.967162999999999
#
# number of rings (size 3 to 8) (size 9 to 14) (size 15 to 20)
#    0.000    1.833    1.667    3.000    0.000    3.000 
#    0.000    0.000    0.000    1.500    0.000    0.000 
#    0.000    0.000    0.000    0.000    0.000    0.000 
#
# Total GULP energy -594984.656888 kJ/mol
# GULP energy per Si atom -12395.513685 kJ/mol
# Density = 1.892399 g / cm^3
# Si number density = 18.967163 Si / 1000 Ang^3
#
#
#
# Elastic Constant Matrix: (Units=GPa)
#
#
# Indices 1 2 3 4 5 6 
#
# 1 103.8861 35.6024 33.8361 0.0000 0.0000 0.0000
# 2 35.6024 89.0549 19.3478 0.0000 0.0000 0.0000
# 3 33.8361 19.3478 70.1154 0.0000 0.0000 0.0000
# 4 0.0000 0.0000 0.0000 35.3163 0.0000 0.0000
# 5 0.0000 0.0000 0.0000 0.0000 22.6834 0.0000
# 6 0.0000 0.0000 0.0000 0.0000 0.0000 19.2700
#
#
#
# Elastic Compliance Matrix: (Units=1/GPa)
#
#
# Indices 1 2 3 4 5 6 
#
# 1 0.012608 -0.003956 -0.004993 0.000000 0.000000 0.000000
# 2 -0.003956 0.013186 -0.001730 0.000000 0.000000 0.000000
# 3 -0.004993 -0.001730 0.017149 0.000000 0.000000 0.000000
# 4 0.000000 0.000000 0.000000 0.028315 0.000000 0.000000
# 5 0.000000 0.000000 0.000000 0.000000 0.044085 0.000000
# 6 0.000000 0.000000 0.000000 0.000000 0.000000 0.051894
#
#
# Mechanical properties :
#
#
# Convention : Reuss Voigt Hill
#
# Bulk Modulus (GPa) = 46.32480 48.95877 47.64179
# Shear Modulus (GPa) = 25.53769 27.07196 26.30482
#
# Velocity S-wave (km/s) = 3.67333 3.78207 3.72810
# Velocity P-wave (km/s) = 6.51674 6.70377 6.61091
#
# Compressibility (1/GPa) = 0.02158671
#
# Stress axis : x y z
#
# Youngs Moduli (GPa) = 79.31681 75.83686 58.31295
#
# Poissons Ratio (x) = 0.29998 0.29114
# Poissons Ratio (y) = 0.31375 0.10087
# Poissons Ratio (z) = 0.39600 0.13118
#
# Static dielectric constant tensor:
#      x y z
#    x 3.249190 0.000000 0.000000 
#    y 0.000000 3.542320 0.000000 
#    z 0.000000 0.000000 3.615480 
# 
# 
# High freq. dielectric constant tensor:
#      x y z
#    x 1.712760 0.000000 0.000000 
#    y 0.000000 1.747680 0.000000 
#    z 0.000000 0.000000 1.745700 
# 
# From -- ./inp_files/32306.got.cif
#   From: 2010.03.12/outbox.cif.g09.slc.cpg/sg53_17_cif.got.tgz:32306.got - 2010.04.16 14:36:59.
