data_PCOD8219786
_publ_section_title
;
Structure prediction by ZEFSAII (Michael W. Deem and Ramdas Pophale) SiO2 
 PCOD8219786
Probable space group: P M N A
;
_chemical_formula_sum "Si O2"
_cell_formula_units_Z 64
_cell_length_a 9.637729
_cell_length_b 19.820662
_cell_length_c 19.859147
_cell_angle_alpha 90.000000
_cell_angle_beta 90.000000
_cell_angle_gamma 90.000000
_cell_volume 3793.616770
_symmetry_space_group_name_H-M "P M N A"
_symmetry_group_IT_number 53
_symmetry_cell_setting 'orthorhombic'
loop_
_space_group_symop_operation_xyz
x,y,z
1/2-x,-y,1/2+z
x,-y,-z
1/2-x,y,1/2-z
-x,-y,-z
1/2+x,y,1/2-z
-x,y,z
1/2+x,-y,1/2+z
loop_
_atom_site_type_symbol
_atom_site_label
_atom_site_fract_x
_atom_site_fract_y
_atom_site_fract_z
Si Si1 0.163066 0.429793 0.183786
Si Si2 0.839934 0.941149 0.686937
Si Si3 0.840551 0.679532 0.050219
Si Si4 0.838375 0.805154 0.432583
Si Si5 0.342214 0.703459 0.604788
Si Si6 0.164472 0.469999 0.931304
Si Si7 0.339520 0.173029 0.084773
Si Si8 0.661066 0.904299 0.186303
O O1 0.250000 0.442824 0.250000
O O2 0.197951 0.355795 0.155738
O O3 0.216129 0.485913 0.131267
O O4 0.000000 0.437375 0.198628
O O5 0.750000 0.915871 0.750000
O O6 0.802685 0.897004 0.621421
O O7 0.000000 0.932715 0.707316
O O8 0.804477 0.018243 0.668589
O O9 0.746642 0.737415 0.083291
O O10 0.790372 0.607700 0.079581
O O11 0.000000 0.694772 0.068816
O O12 0.819649 0.675814 0.970202
O O13 0.799209 0.834253 0.506219
O O14 0.795135 0.861225 0.378525
O O15 0.000000 0.787221 0.427958
O O16 0.500000 0.726915 0.615434
O O17 0.245353 0.767174 0.620177
O O18 0.000000 0.474142 0.937576
O O19 0.230187 0.500000 0.000000
O O20 0.500000 0.191584 0.093091
O O21 0.750000 0.879481 0.250000
O O22 0.500000 0.894444 0.204247
#
# Coordination Sequence:
#
# PCOD8219786 Si02
#       8
#     8   8   8   8   8   8   8   8
#     4  10  20  33  49  71  99 128 160 200 241 283
#     4   9  18  32  49  69  93 125 164 200 235 282
#     4   9  16  29  52  76  93 117 160 203 235 276
#     4   9  18  32  49  72 101 127 153 195 245 289
#     4   9  17  30  48  69  93 124 160 195 232 279
#     4   9  15  29  54  75  90 119 165 205 234 275
#     4   9  18  31  48  71  99 127 156 195 241 284
#     4   9  18  33  52  71  93 125 163 200 240 286
#
# _framework density 16.870443999999999
#
# number of rings (size 3 to 8) (size 9 to 14) (size 15 to 20)
#    0.000    2.875    1.250    0.000    0.000    2.500 
#    0.000    6.250    0.000    3.750    0.000    7.000 
#    0.000    0.000    0.000    0.000    0.000    0.000 
#
# Total GULP energy -793612.681452 kJ/mol
# GULP energy per Si atom -12400.198148 kJ/mol
# Density = 1.683205 g / cm^3
# Si number density = 16.870444 Si / 1000 Ang^3
#
#
#
# Elastic Constant Matrix: (Units=GPa)
#
#
# Indices 1 2 3 4 5 6 
#
# 1 51.2682 54.4865 49.6987 0.0000 0.0000 0.0000
# 2 54.4865 122.6886 81.4869 0.0000 0.0000 0.0000
# 3 49.6987 81.4869 111.3112 0.0000 0.0000 0.0000
# 4 0.0000 0.0000 0.0000 28.6069 0.0000 0.0000
# 5 0.0000 0.0000 0.0000 0.0000 27.4453 0.0000
# 6 0.0000 0.0000 0.0000 0.0000 0.0000 26.9179
#
#
#
# Elastic Compliance Matrix: (Units=1/GPa)
#
#
# Indices 1 2 3 4 5 6 
#
# 1 0.041878 -0.012027 -0.009893 0.000000 0.000000 0.000000
# 2 -0.012027 0.019319 -0.008772 0.000000 0.000000 0.000000
# 3 -0.009893 -0.008772 0.019823 0.000000 0.000000 0.000000
# 4 0.000000 0.000000 0.000000 0.034957 0.000000 0.000000
# 5 0.000000 0.000000 0.000000 0.000000 0.036436 0.000000
# 6 0.000000 0.000000 0.000000 0.000000 0.000000 0.037150
#
#
# Mechanical properties :
#
#
# Convention : Reuss Voigt Hill
#
# Bulk Modulus (GPa) = 50.93291 72.95692 61.94491
# Shear Modulus (GPa) = 19.41812 23.23374 21.32593
#
# Velocity S-wave (km/s) = 3.39634 3.71507 3.55928
# Velocity P-wave (km/s) = 6.75547 7.85758 7.32728
#
# Compressibility (1/GPa) = 0.01963367
#
# Stress axis : x y z
#
# Youngs Moduli (GPa) = 23.87908 51.76383 50.44712
#
# Poissons Ratio (x) = 0.62258 0.49907
# Poissons Ratio (y) = 0.28720 0.44254
# Poissons Ratio (z) = 0.23623 0.45409
#
# Static dielectric constant tensor:
#      x y z
#    x 3.047330 0.000000 0.000000 
#    y 0.000000 3.271170 0.000000 
#    z 0.000000 0.000000 3.090800 
# 
# 
# High freq. dielectric constant tensor:
#      x y z
#    x 1.635200 0.000000 0.000000 
#    y 0.000000 1.655090 0.000000 
#    z 0.000000 0.000000 1.639190 
# 
# From -- ./inp_files/26818.got.cif
#   From: 2010.03.12/outbox.cif.g09.slc.cpg/sg53_14_cif.got.tgz:26818.got - 2010.04.16 14:36:59.
