data_PCOD8219686
_publ_section_title
;
Structure prediction by ZEFSAII (Michael W. Deem and Ramdas Pophale) SiO2 
 PCOD8219686
Probable space group: P M N A
;
_chemical_formula_sum "Si O2"
_cell_formula_units_Z 56
_cell_length_a 9.043105
_cell_length_b 20.516164
_cell_length_c 16.473201
_cell_angle_alpha 90.000000
_cell_angle_beta 90.000000
_cell_angle_gamma 90.000000
_cell_volume 3056.270103
_symmetry_space_group_name_H-M "P M N A"
_symmetry_group_IT_number 53
_symmetry_cell_setting 'orthorhombic'
loop_
_space_group_symop_operation_xyz
x,y,z
1/2-x,-y,1/2+z
x,-y,-z
1/2-x,y,1/2-z
-x,-y,-z
1/2+x,y,1/2-z
-x,y,z
1/2+x,-y,1/2+z
loop_
_atom_site_type_symbol
_atom_site_label
_atom_site_fract_x
_atom_site_fract_y
_atom_site_fract_z
Si Si1 0.174289 0.851324 0.997777
Si Si2 0.333611 0.037559 0.916151
Si Si3 0.829101 0.345148 0.326123
Si Si4 0.334111 0.536394 0.619508
Si Si5 0.175146 0.075907 0.167365
Si Si6 0.665852 0.597307 0.442480
Si Si7 0.673138 0.284741 0.002349
O O1 0.214822 0.875276 0.906645
O O2 0.235422 0.779848 0.014135
O O3 0.000000 0.853108 0.010927
O O4 0.248104 0.895316 0.067558
O O5 0.500000 0.050868 0.883578
O O6 0.242972 0.995379 0.850676
O O7 0.341151 0.000000 0.000000
O O8 0.750000 0.309908 0.250000
O O9 0.778049 0.420720 0.327794
O O10 0.785552 0.306929 0.407011
O O11 0.000000 0.343071 0.309362
O O12 0.500000 0.542902 0.654945
O O13 0.284651 0.460023 0.620126
O O14 0.331387 0.564424 0.529573
O O15 0.250000 0.103159 0.250000
O O16 0.000000 0.069703 0.179281
O O17 0.500000 0.621482 0.421933
O O18 0.776243 0.659063 0.439082
O O19 0.500000 0.271686 0.991174
#
# Coordination Sequence:
#
# PCOD8219686 Si02
#       7
#     8   8   8   8   8   8   8
#     4  10  20  33  49  69  96 130 164 198 238 286
#     4   9  17  31  51  72  95 123 156 197 241 283
#     4  10  20  31  43  61  88 122 157 192 230 274
#     4   8  14  26  44  63  83 109 143 183 225 267
#     4  10  20  33  50  73  99 127 161 199 239 283
#     4   8  14  26  44  64  85 110 141 180 225 268
#     4  10  20  31  44  65  92 122 156 192 229 272
#
# _framework density 18.322989
#
# number of rings (size 3 to 8) (size 9 to 14) (size 15 to 20)
#    0.000    2.714    0.000    3.000    0.000    6.286 
#    0.000    5.714    0.000    0.000    0.000    1.000 
#    0.000    4.571    0.000    0.000    0.000    0.000 
#
# Total GULP energy -694106.014681 kJ/mol
# GULP energy per Si atom -12394.750262 kJ/mol
# Density = 1.828128 g / cm^3
# Si number density = 18.322989 Si / 1000 Ang^3
#
#
#
# Elastic Constant Matrix: (Units=GPa)
#
#
# Indices 1 2 3 4 5 6 
#
# 1 72.7218 35.2425 -1.6017 0.0000 0.0000 0.0000
# 2 35.2425 101.7125 -1.0213 0.0000 0.0000 0.0000
# 3 -1.6017 -1.0213 5.7102 0.0000 0.0000 0.0000
# 4 0.0000 0.0000 0.0000 11.4452 0.0000 0.0000
# 5 0.0000 0.0000 0.0000 0.0000 24.9793 0.0000
# 6 0.0000 0.0000 0.0000 0.0000 0.0000 31.0218
#
#
#
# Elastic Compliance Matrix: (Units=1/GPa)
#
#
# Indices 1 2 3 4 5 6 
#
# 1 0.016601 -0.005716 0.003634 0.000000 0.000000 0.000000
# 2 -0.005716 0.011817 0.000510 0.000000 0.000000 0.000000
# 3 0.003634 0.000510 0.176236 0.000000 0.000000 0.000000
# 4 0.000000 0.000000 0.000000 0.087373 0.000000 0.000000
# 5 0.000000 0.000000 0.000000 0.000000 0.040033 0.000000
# 6 0.000000 0.000000 0.000000 0.000000 0.000000 0.032235
#
#
# Mechanical properties :
#
#
# Convention : Reuss Voigt Hill
#
# Bulk Modulus (GPa) = 4.96247 27.26482 16.11365
# Shear Modulus (GPa) = 11.50463 23.32429 17.41446
#
# Velocity S-wave (km/s) = 2.50847 3.57172 3.08623
# Velocity P-wave (km/s) = 3.33228 5.64995 4.63821
#
# Compressibility (1/GPa) = 0.20151239
#
# Stress axis : x y z
#
# Youngs Moduli (GPa) = 60.23742 84.62267 5.67421
#
# Poissons Ratio (x) = 0.48367 -0.02062
# Poissons Ratio (y) = 0.34429 -0.00290
# Poissons Ratio (z) = -0.21893 -0.04319
#
# Static dielectric constant tensor:
#      x y z
#    x 3.484400 0.000000 0.000000 
#    y 0.000000 3.460470 0.000000 
#    z 0.000000 0.000000 3.282660 
# 
# 
# High freq. dielectric constant tensor:
#      x y z
#    x 1.719630 0.000000 0.000000 
#    y 0.000000 1.702310 0.000000 
#    z 0.000000 0.000000 1.668780 
# 
# From -- ./inp_files/26696.got.cif
#   From: 2010.03.12/outbox.cif.g09.slc.cpg/sg53_14_cif.got.tgz:26696.got - 2010.04.16 14:36:59.
