data_PCOD8219001
_publ_section_title
;
Structure prediction by ZEFSAII (Michael W. Deem and Ramdas Pophale) SiO2 
 PCOD8219001
Probable space group: P M N A
;
_chemical_formula_sum "Si O2"
_cell_formula_units_Z 64
_cell_length_a 19.912928
_cell_length_b 10.162631
_cell_length_c 17.159169
_cell_angle_alpha 90.000000
_cell_angle_beta 90.000000
_cell_angle_gamma 90.000000
_cell_volume 3472.462240
_symmetry_space_group_name_H-M "P M N A"
_symmetry_group_IT_number 53
_symmetry_cell_setting 'orthorhombic'
loop_
_space_group_symop_operation_xyz
x,y,z
1/2-x,-y,1/2+z
x,-y,-z
1/2-x,y,1/2-z
-x,-y,-z
1/2+x,y,1/2-z
-x,y,z
1/2+x,-y,1/2+z
loop_
_atom_site_type_symbol
_atom_site_label
_atom_site_fract_x
_atom_site_fract_y
_atom_site_fract_z
Si Si1 0.361820 0.257490 0.592408
Si Si2 0.204532 0.781548 0.582159
Si Si3 0.652780 0.509772 0.683275
Si Si4 0.422732 0.000244 0.658623
Si Si5 0.639059 0.246466 0.415051
Si Si6 0.180330 0.002681 0.296007
Si Si7 0.205428 0.773521 0.407291
Si Si8 0.690421 0.507374 0.852611
O O1 0.381821 0.380809 0.646530
O O2 0.408270 0.135453 0.614015
O O3 0.373391 0.297388 0.502657
O O4 0.284883 0.218622 0.607019
O O5 0.283712 0.791731 0.597157
O O6 0.187755 0.824608 0.493840
O O7 0.175539 0.634536 0.594564
O O8 0.170284 0.879376 0.642943
O O9 0.618720 0.637698 0.644618
O O10 0.643018 0.512621 0.776309
O O11 0.731514 0.508584 0.667267
O O12 0.500000 0.994833 0.682208
O O13 0.380745 0.987532 0.737144
O O14 0.405996 0.880758 0.600577
O O15 0.250000 0.014439 0.250000
O O16 0.172967 0.865554 0.341839
O O17 0.175491 0.626751 0.399017
#
# Coordination Sequence:
#
# PCOD8219001 Si02
#       8
#     8   8   8   8   8   8   8   8
#     4  10  19  33  52  78 111 146 181 218 263 318
#     4  10  19  32  54  84 112 140 175 221 274 328
#     4   9  17  29  50  78 108 146 180 218 259 317
#     4  12  25  38  53  76 107 146 188 227 271 319
#     4  10  19  33  52  78 111 146 181 218 263 318
#     4  12  21  35  57  79 107 140 182 232 272 317
#     4  10  19  32  54  84 112 140 175 221 274 328
#     4   9  17  27  49  79 119 141 169 216 278 319
#
# _framework density 18.430727000000001
#
# number of rings (size 3 to 8) (size 9 to 14) (size 15 to 20)
#    0.000    1.750    2.500    3.000    3.500    6.000 
#    0.000    0.625    0.000    3.000    0.000    0.000 
#    0.000    4.000    0.000    0.000    0.000    0.000 
#
# Total GULP energy -793685.467037 kJ/mol
# GULP energy per Si atom -12401.335422 kJ/mol
# Density = 1.838878 g / cm^3
# Si number density = 18.430727 Si / 1000 Ang^3
#
#
#
# Elastic Constant Matrix: (Units=GPa)
#
#
# Indices 1 2 3 4 5 6 
#
# 1 53.2569 14.7879 25.6306 0.0000 0.0000 0.0000
# 2 14.7879 80.6491 7.3317 0.0000 0.0000 0.0000
# 3 25.6306 7.3317 78.4945 0.0000 0.0000 0.0000
# 4 0.0000 0.0000 0.0000 42.6625 0.0000 0.0000
# 5 0.0000 0.0000 0.0000 0.0000 13.3252 0.0000
# 6 0.0000 0.0000 0.0000 0.0000 0.0000 6.8979
#
#
#
# Elastic Compliance Matrix: (Units=1/GPa)
#
#
# Indices 1 2 3 4 5 6 
#
# 1 0.023274 -0.003607 -0.007263 0.000000 0.000000 0.000000
# 2 -0.003607 0.013065 -0.000042 0.000000 0.000000 0.000000
# 3 -0.007263 -0.000042 0.015115 0.000000 0.000000 0.000000
# 4 0.000000 0.000000 0.000000 0.023440 0.000000 0.000000
# 5 0.000000 0.000000 0.000000 0.000000 0.075046 0.000000
# 6 0.000000 0.000000 0.000000 0.000000 0.000000 0.144973
#
#
# Mechanical properties :
#
#
# Convention : Reuss Voigt Hill
#
# Bulk Modulus (GPa) = 33.75067 34.21120 33.98094
# Shear Modulus (GPa) = 15.30865 23.55380 19.43122
#
# Velocity S-wave (km/s) = 2.88515 3.57874 3.25050
# Velocity P-wave (km/s) = 5.42685 5.97318 5.70656
#
# Compressibility (1/GPa) = 0.02962904
#
# Stress axis : x y z
#
# Youngs Moduli (GPa) = 42.96684 76.54220 66.15884
#
# Poissons Ratio (x) = 0.27611 0.48048
# Poissons Ratio (y) = 0.15499 0.00281
# Poissons Ratio (z) = 0.31205 0.00325
#
# Static dielectric constant tensor:
#      x y z
#    x 2.803750 0.000000 0.000000 
#    y 0.000000 3.595990 0.000000 
#    z 0.000000 0.000000 3.551310 
# 
# 
# High freq. dielectric constant tensor:
#      x y z
#    x 1.635300 0.000000 0.000000 
#    y 0.000000 1.734290 0.000000 
#    z 0.000000 0.000000 1.731330 
# 
# From -- ./inp_files/29407.got.cif
#   From: 2010.03.12/outbox.cif.g09.slc.cpg/sg53_15_cif.got.tgz:29407.got - 2010.04.16 14:36:59.
