data_PCOD8219820
_publ_section_title
;
Structure prediction by ZEFSAII (Michael W. Deem and Ramdas Pophale) SiO2 
 PCOD8219820
Probable space group: P M N A
;
_chemical_formula_sum "Si O2"
_cell_formula_units_Z 64
_cell_length_a 9.255892
_cell_length_b 14.991907
_cell_length_c 23.862438
_cell_angle_alpha 90.000000
_cell_angle_beta 90.000000
_cell_angle_gamma 90.000000
_cell_volume 3311.234749
_symmetry_space_group_name_H-M "P M N A"
_symmetry_group_IT_number 53
_symmetry_cell_setting 'orthorhombic'
loop_
_space_group_symop_operation_xyz
x,y,z
1/2-x,-y,1/2+z
x,-y,-z
1/2-x,y,1/2-z
-x,-y,-z
1/2+x,y,1/2-z
-x,y,z
1/2+x,-y,1/2+z
loop_
_atom_site_type_symbol
_atom_site_label
_atom_site_fract_x
_atom_site_fract_y
_atom_site_fract_z
Si Si1 0.831757 0.864373 0.886207
Si Si2 0.332375 0.798281 0.377260
Si Si3 0.670813 0.976650 0.309864
Si Si4 0.670051 0.509274 0.694497
Si Si5 0.159767 0.600158 0.496227
Si Si6 0.159274 0.369763 0.632362
Si Si7 0.169816 0.227490 0.005528
Si Si8 0.666158 0.711987 0.696467
O O1 0.794357 0.771518 0.856362
O O2 0.000000 0.885491 0.887887
O O3 0.763754 0.945744 0.850504
O O4 0.776411 0.849315 0.950297
O O5 0.500000 0.772713 0.371197
O O6 0.294118 0.886920 0.343512
O O7 0.237661 0.721083 0.348285
O O8 0.292505 0.807926 0.443298
O O9 0.750000 0.978065 0.250000
O O10 0.500000 0.988220 0.298840
O O11 0.750000 0.475011 0.750000
O O12 0.500000 0.493115 0.699588
O O13 0.737484 0.453015 0.644524
O O14 0.710892 0.611260 0.681939
O O15 0.228037 0.500000 0.500000
O O16 0.140491 0.631226 0.433267
O O17 0.260203 0.676922 0.522946
O O18 0.000000 0.598807 0.525093
O O19 0.000000 0.376469 0.660952
O O20 0.000000 0.243089 0.012950
O O21 0.750000 0.749277 0.750000
O O22 0.500000 0.718107 0.712854
#
# Coordination Sequence:
#
# PCOD8219820 Si02
#       8
#     8   8   8   8   8   8   8   8
#     4   9  18  33  54  81 109 136 172 222 269 319
#     4   9  19  36  55  78 107 140 179 224 269 320
#     4  10  21  37  58  82 109 139 177 222 271 325
#     4  10  20  33  50  73 103 137 176 218 262 317
#     4   9  19  34  50  73 107 143 178 218 261 310
#     4  10  20  34  53  75 103 139 175 218 267 313
#     4   9  18  33  54  79 107 140 180 220 268 321
#     4   9  18  32  49  71 102 137 172 213 263 315
#
# _framework density 19.328137999999999
#
# number of rings (size 3 to 8) (size 9 to 14) (size 15 to 20)
#    0.000    2.625    0.000    1.125    1.750    2.750 
#    0.000    5.000    0.000    0.000    0.000    4.375 
#    0.000    0.000    0.000    0.000    0.000    0.000 
#
# Total GULP energy -793178.577755 kJ/mol
# GULP energy per Si atom -12393.415277 kJ/mol
# Density = 1.928415 g / cm^3
# Si number density = 19.328138 Si / 1000 Ang^3
#
#
#
# Elastic Constant Matrix: (Units=GPa)
#
#
# Indices 1 2 3 4 5 6 
#
# 1 60.5972 37.3892 24.4175 0.0000 0.0000 0.0000
# 2 37.3892 108.2065 40.9181 0.0000 0.0000 0.0000
# 3 24.4175 40.9181 65.6432 0.0000 0.0000 0.0000
# 4 0.0000 0.0000 0.0000 -178.6057 0.0000 0.0000
# 5 0.0000 0.0000 0.0000 0.0000 24.7193 0.0000
# 6 0.0000 0.0000 0.0000 0.0000 0.0000 21.2794
#
#
#
# Elastic Compliance Matrix: (Units=1/GPa)
#
#
# Indices 1 2 3 4 5 6 
#
# 1 0.021943 -0.005882 -0.004496 0.000000 0.000000 0.000000
# 2 -0.005882 0.013669 -0.006332 0.000000 0.000000 0.000000
# 3 -0.004496 -0.006332 0.020853 0.000000 0.000000 0.000000
# 4 0.000000 0.000000 0.000000 -0.005599 0.000000 0.000000
# 5 0.000000 0.000000 0.000000 0.000000 0.040454 0.000000
# 6 0.000000 0.000000 0.000000 0.000000 0.000000 0.046994
#
#
# Mechanical properties :
#
#
# Convention : Reuss Voigt Hill
#
# Bulk Modulus (GPa) = 43.39329 48.87738 46.13533
# Shear Modulus (GPa) = 27.86819 -17.73992 5.06413
#
# Velocity S-wave (km/s) = 3.80128 -3.03286 1.62042
# Velocity P-wave (km/s) = 6.46266 3.61646 5.23664
#
# Compressibility (1/GPa) = 0.02304504
#
# Stress axis : x y z
#
# Youngs Moduli (GPa) = 45.57200 73.16049 47.95413
#
# Poissons Ratio (x) = 0.43034 0.21559
# Poissons Ratio (y) = 0.26806 0.30365
# Poissons Ratio (z) = 0.20488 0.46327
#
# Static dielectric constant tensor:
#      x y z
#    x 3.616170 0.000000 0.000000 
#    y 0.000000 3.623970 0.000000 
#    z 0.000000 0.000000 3.463500 
# 
# 
# High freq. dielectric constant tensor:
#      x y z
#    x 1.734670 0.000000 0.000000 
#    y 0.000000 1.754070 0.000000 
#    z 0.000000 0.000000 1.747020 
# 
# From -- ./inp_files/34209.got.cif
#   From: 2010.03.12/outbox.cif.g09.slc.cpg/sg53_18_cif.got.tgz:34209.got - 2010.04.16 14:36:59.
