data_PCOD8219044
_publ_section_title
;
Structure prediction by ZEFSAII (Michael W. Deem and Ramdas Pophale) SiO2 
 PCOD8219044
Probable space group: P M N A
;
_chemical_formula_sum "Si O2"
_cell_formula_units_Z 64
_cell_length_a 8.764535
_cell_length_b 18.150179
_cell_length_c 23.328895
_cell_angle_alpha 90.000000
_cell_angle_beta 90.000000
_cell_angle_gamma 90.000000
_cell_volume 3711.111138
_symmetry_space_group_name_H-M "P M N A"
_symmetry_group_IT_number 53
_symmetry_cell_setting 'orthorhombic'
loop_
_space_group_symop_operation_xyz
x,y,z
1/2-x,-y,1/2+z
x,-y,-z
1/2-x,y,1/2-z
-x,-y,-z
1/2+x,y,1/2-z
-x,y,z
1/2+x,-y,1/2+z
loop_
_atom_site_type_symbol
_atom_site_label
_atom_site_fract_x
_atom_site_fract_y
_atom_site_fract_z
Si Si1 0.321562 0.087287 0.812286
Si Si2 0.820625 0.766968 0.187116
Si Si3 0.322047 0.638452 0.116385
Si Si4 0.680314 0.218475 0.313231
Si Si5 0.322056 0.498999 0.189990
Si Si6 0.681390 0.355065 0.125085
Si Si7 0.678770 0.072224 0.187720
Si Si8 0.820168 0.417843 0.494612
O O1 0.250000 0.082691 0.750000
O O2 0.500000 0.103830 0.807291
O O3 0.240933 0.157103 0.842586
O O4 0.293817 0.007551 0.843482
O O5 0.750000 0.753462 0.250000
O O6 0.778312 0.701737 0.144447
O O7 0.000000 0.771259 0.194312
O O8 0.500000 0.656551 0.125628
O O9 0.276957 0.560668 0.144144
O O10 0.279315 0.632181 0.049459
O O11 0.750000 0.229888 0.250000
O O12 0.500000 0.218595 0.307729
O O13 0.733720 0.281727 0.355896
O O14 0.737802 0.141439 0.342318
O O15 0.250000 0.520173 0.250000
O O16 0.500000 0.496605 0.199344
O O17 0.265125 0.420079 0.167583
O O18 0.500000 0.343104 0.126995
O O19 0.740518 0.375801 0.061578
O O20 0.750000 0.066085 0.250000
O O21 0.500000 0.089463 0.192430
O O22 0.747955 0.500000 0.500000
O O23 0.000000 0.428022 0.488349
#
# Coordination Sequence:
#
# PCOD8219044 Si02
#       8
#     8   8   8   8   8   8   8   8
#     4   9  16  27  45  69  97 129 163 198 238 287
#     4  11  21  32  47  70 102 136 167 201 243 292
#     4  10  19  33  52  73  96 125 163 206 248 293
#     4  11  21  32  47  70 102 136 167 201 243 292
#     4  10  20  31  47  69  95 126 159 196 239 290
#     4  10  19  33  52  73  96 125 163 206 248 293
#     4   9  16  27  45  69  97 129 163 198 238 287
#     4   9  16  32  57  77  92 119 164 211 253 294
#
# _framework density 17.245508999999998
#
# number of rings (size 3 to 8) (size 9 to 14) (size 15 to 20)
#    0.000    2.125    1.250    5.250    0.000    4.500 
#    0.000    0.625    0.000    0.750    0.000    0.875 
#    0.000    7.000    0.000    0.000    0.000    0.000 
#
# Total GULP energy -793196.799969 kJ/mol
# GULP energy per Si atom -12393.700000 kJ/mol
# Density = 1.720626 g / cm^3
# Si number density = 17.245509 Si / 1000 Ang^3
#
#
#
# Elastic Constant Matrix: (Units=GPa)
#
#
# Indices 1 2 3 4 5 6 
#
# 1 91.6857 57.8073 29.0162 0.0000 0.0000 0.0000
# 2 57.8073 133.8475 29.3591 0.0000 0.0000 0.0000
# 3 29.0162 29.3591 67.6527 0.0000 0.0000 0.0000
# 4 0.0000 0.0000 0.0000 9.5931 0.0000 0.0000
# 5 0.0000 0.0000 0.0000 0.0000 15.7267 0.0000
# 6 0.0000 0.0000 0.0000 0.0000 0.0000 26.7077
#
#
#
# Elastic Compliance Matrix: (Units=1/GPa)
#
#
# Indices 1 2 3 4 5 6 
#
# 1 0.016036 -0.005987 -0.004280 0.000000 0.000000 0.000000
# 2 -0.005987 0.010492 -0.001986 0.000000 0.000000 0.000000
# 3 -0.004280 -0.001986 0.017479 0.000000 0.000000 0.000000
# 4 0.000000 0.000000 0.000000 0.104242 0.000000 0.000000
# 5 0.000000 0.000000 0.000000 0.000000 0.063586 0.000000
# 6 0.000000 0.000000 0.000000 0.000000 0.000000 0.037442
#
#
# Mechanical properties :
#
#
# Convention : Reuss Voigt Hill
#
# Bulk Modulus (GPa) = 51.27533 58.39457 54.83495
# Shear Modulus (GPa) = 17.83913 22.20572 20.02242
#
# Velocity S-wave (km/s) = 3.21973 3.59224 3.41107
# Velocity P-wave (km/s) = 6.60449 7.15121 6.88328
#
# Compressibility (1/GPa) = 0.01950256
#
# Stress axis : x y z
#
# Youngs Moduli (GPa) = 62.35955 95.30657 57.21292
#
# Poissons Ratio (x) = 0.57061 0.24485
# Poissons Ratio (y) = 0.37335 0.11360
# Poissons Ratio (z) = 0.26688 0.18924
#
# Static dielectric constant tensor:
#      x y z
#    x 3.155890 0.000000 0.000000 
#    y 0.000000 3.971960 0.000000 
#    z 0.000000 0.000000 2.945910 
# 
# 
# High freq. dielectric constant tensor:
#      x y z
#    x 1.660250 0.000000 0.000000 
#    y 0.000000 1.685730 0.000000 
#    z 0.000000 0.000000 1.619680 
# 
# From -- ./inp_files/34523.got.cif
#   From: 2010.03.12/outbox.cif.g09.slc.cpg/sg53_18_cif.got.tgz:34523.got - 2010.04.16 14:36:59.
