data_PCOD8219426
_publ_section_title
;
Structure prediction by ZEFSAII (Michael W. Deem and Ramdas Pophale) SiO2 
 PCOD8219426
Probable space group: P M N A
;
_chemical_formula_sum "Si O2"
_cell_formula_units_Z 64
_cell_length_a 9.071546
_cell_length_b 20.197670
_cell_length_c 19.780164
_cell_angle_alpha 90.000000
_cell_angle_beta 90.000000
_cell_angle_gamma 90.000000
_cell_volume 3624.202598
_symmetry_space_group_name_H-M "P M N A"
_symmetry_group_IT_number 53
_symmetry_cell_setting 'orthorhombic'
loop_
_space_group_symop_operation_xyz
x,y,z
1/2-x,-y,1/2+z
x,-y,-z
1/2-x,y,1/2-z
-x,-y,-z
1/2+x,y,1/2-z
-x,y,z
1/2+x,-y,1/2+z
loop_
_atom_site_type_symbol
_atom_site_label
_atom_site_fract_x
_atom_site_fract_y
_atom_site_fract_z
Si Si1 0.324243 0.791676 0.464324
Si Si2 0.175789 0.059453 0.955912
Si Si3 0.660304 0.059928 0.689708
Si Si4 0.324804 0.632807 0.680805
Si Si5 0.170942 0.520243 0.183220
Si Si6 0.324265 0.320281 0.046487
Si Si7 0.829603 0.431341 0.962148
Si Si8 0.160496 0.215542 0.812464
O O1 0.500000 0.780416 0.471687
O O2 0.280719 0.867620 0.481961
O O3 0.231682 0.748990 0.516826
O O4 0.272652 0.772914 0.387614
O O5 0.241570 0.046939 0.881271
O O6 0.000000 0.055974 0.951403
O O7 0.242715 0.000000 0.000000
O O8 0.750000 0.025993 0.750000
O O9 0.500000 0.026399 0.690445
O O10 0.644726 0.137971 0.700934
O O11 0.250000 0.658502 0.750000
O O12 0.500000 0.645398 0.682533
O O13 0.285603 0.555852 0.670163
O O14 0.252100 0.672056 0.619101
O O15 0.250000 0.548862 0.250000
O O16 0.215115 0.561735 0.116665
O O17 0.000000 0.526218 0.197842
O O18 0.500000 0.320574 0.054468
O O19 0.276166 0.377612 0.995043
O O20 0.000000 0.408890 0.969760
O O21 0.804775 0.500000 0.000000
O O22 0.250000 0.248196 0.750000
O O23 0.000000 0.249228 0.810262
#
# Coordination Sequence:
#
# PCOD8219426 Si02
#       8
#     8   8   8   8   8   8   8   8
#     4   9  18  33  51  72 100 135 171 211 260 312
#     4   8  14  27  50  76  97 123 167 214 253 302
#     4   8  13  22  39  65  94 120 150 192 238 287
#     4  10  19  35  56  80 105 133 170 214 261 308
#     4   9  18  32  53  77 103 134 168 210 257 307
#     4  12  24  35  51  78 107 138 174 216 258 305
#     4  10  19  36  56  75 101 136 172 209 260 311
#     4   8  14  25  43  66  91 122 160 199 242 292
#
# _framework density 17.659056
#
# number of rings (size 3 to 8) (size 9 to 14) (size 15 to 20)
#    0.000    2.750    1.250    3.000    0.000    1.750 
#    0.000    2.500    0.000    2.250    0.000    1.750 
#    0.000    0.000    0.000    0.000    0.000    0.000 
#
# Total GULP energy -793145.594007 kJ/mol
# GULP energy per Si atom -12392.899906 kJ/mol
# Density = 1.761886 g / cm^3
# Si number density = 17.659056 Si / 1000 Ang^3
#
#
#
# Elastic Constant Matrix: (Units=GPa)
#
#
# Indices 1 2 3 4 5 6 
#
# 1 77.5483 33.9623 59.7097 0.0000 0.0000 0.0000
# 2 33.9623 67.6357 57.3075 0.0000 0.0000 0.0000
# 3 59.7097 57.3075 152.8592 0.0000 0.0000 0.0000
# 4 0.0000 0.0000 0.0000 22.8798 0.0000 0.0000
# 5 0.0000 0.0000 0.0000 0.0000 32.9996 0.0000
# 6 0.0000 0.0000 0.0000 0.0000 0.0000 -199.1945
#
#
#
# Elastic Compliance Matrix: (Units=1/GPa)
#
#
# Indices 1 2 3 4 5 6 
#
# 1 0.019485 -0.004888 -0.005779 0.000000 0.000000 0.000000
# 2 -0.004888 0.022894 -0.006674 0.000000 0.000000 0.000000
# 3 -0.005779 -0.006674 0.011301 0.000000 0.000000 0.000000
# 4 0.000000 0.000000 0.000000 0.043707 0.000000 0.000000
# 5 0.000000 0.000000 0.000000 0.000000 0.030303 0.000000
# 6 0.000000 0.000000 0.000000 0.000000 0.000000 -0.005020
#
#
# Mechanical properties :
#
#
# Convention : Reuss Voigt Hill
#
# Bulk Modulus (GPa) = 52.63228 66.66692 59.64960
# Shear Modulus (GPa) = 30.54645 -18.85878 5.84383
#
# Velocity S-wave (km/s) = 4.16359 -3.27148 1.82111
# Velocity P-wave (km/s) = 7.27896 4.85429 6.18658
#
# Compressibility (1/GPa) = 0.01899975
#
# Stress axis : x y z
#
# Youngs Moduli (GPa) = 51.32049 43.67922 88.48516
#
# Poissons Ratio (x) = 0.21350 0.51134
# Poissons Ratio (y) = 0.25085 0.59053
# Poissons Ratio (z) = 0.29657 0.29151
#
# Static dielectric constant tensor:
#      x y z
#    x 3.327330 0.000000 0.000000 
#    y 0.000000 3.025110 0.000000 
#    z 0.000000 0.000000 3.604850 
# 
# 
# High freq. dielectric constant tensor:
#      x y z
#    x 1.664810 0.000000 0.000000 
#    y 0.000000 1.641890 0.000000 
#    z 0.000000 0.000000 1.696940 
# 
# From -- ./inp_files/27039.got.cif
#   From: 2010.03.12/outbox.cif.g09.slc.cpg/sg53_14_cif.got.tgz:27039.got - 2010.04.16 14:36:59.
