data_PCOD8219995
_publ_section_title
;
Structure prediction by ZEFSAII (Michael W. Deem and Ramdas Pophale) SiO2 
 PCOD8219995
Probable space group: P M N A
;
_chemical_formula_sum "Si O2"
_cell_formula_units_Z 56
_cell_length_a 8.926645
_cell_length_b 17.584906
_cell_length_c 19.477962
_cell_angle_alpha 90.000000
_cell_angle_beta 90.000000
_cell_angle_gamma 90.000000
_cell_volume 3057.537760
_symmetry_space_group_name_H-M "P M N A"
_symmetry_group_IT_number 53
_symmetry_cell_setting 'orthorhombic'
loop_
_space_group_symop_operation_xyz
x,y,z
1/2-x,-y,1/2+z
x,-y,-z
1/2-x,y,1/2-z
-x,-y,-z
1/2+x,y,1/2-z
-x,y,z
1/2+x,-y,1/2+z
loop_
_atom_site_type_symbol
_atom_site_label
_atom_site_fract_x
_atom_site_fract_y
_atom_site_fract_z
Si Si1 0.323777 0.498310 0.175679
Si Si2 0.673697 0.626736 0.927384
Si Si3 0.323368 0.359988 0.918741
Si Si4 0.325356 0.081680 0.680658
Si Si5 0.176947 0.793807 0.070768
Si Si6 0.825543 0.200750 0.426015
Si Si7 0.323694 0.090317 0.320429
O O1 0.250000 0.496896 0.250000
O O2 0.500000 0.488084 0.186107
O O3 0.254016 0.430880 0.128091
O O4 0.285689 0.576741 0.137395
O O5 0.500000 0.606757 0.929815
O O6 0.704070 0.712585 0.902179
O O7 0.734387 0.614400 0.005225
O O8 0.500000 0.341073 0.922165
O O9 0.232432 0.285163 0.895781
O O10 0.250000 0.110965 0.750000
O O11 0.500000 0.084294 0.694014
O O12 0.277660 0.137382 0.620114
O O13 0.273877 0.995953 0.662104
O O14 0.000000 0.790671 0.056185
O O15 0.268972 0.810307 0.002626
O O16 0.730981 0.144517 0.380053
O O17 0.000000 0.180214 0.421647
O O18 0.250000 0.118117 0.250000
O O19 0.500000 0.097784 0.312936
#
# Coordination Sequence:
#
# PCOD8219995 Si02
#       7
#     8   8   8   8   8   8   8
#     4  10  20  34  52  75 103 133 166 207 253 301
#     4   8  16  33  55  74  95 130 174 211 245 294
#     4   9  18  34  55  75  97 131 173 211 250 300
#     4   9  20  36  54  75 102 138 176 213 256 309
#     4  10  20  35  54  78 106 135 170 214 262 307
#     4  10  20  35  55  80 106 135 174 215 258 309
#     4  10  20  36  55  76 104 138 175 214 258 307
#
# _framework density 18.315390000000001
#
# number of rings (size 3 to 8) (size 9 to 14) (size 15 to 20)
#    0.000    2.571    0.000    2.571    0.000    5.714 
#    0.000   10.714    0.000    4.286    0.000    0.000 
#    0.000    0.000    0.000    0.000    0.000    0.000 
#
# Total GULP energy -694346.233972 kJ/mol
# GULP energy per Si atom -12399.039892 kJ/mol
# Density = 1.827370 g / cm^3
# Si number density = 18.315390 Si / 1000 Ang^3
#
#
#
# Elastic Constant Matrix: (Units=GPa)
#
#
# Indices 1 2 3 4 5 6 
#
# 1 42.4609 32.6012 27.6895 0.0000 0.0000 0.0000
# 2 32.6012 91.9275 59.7653 0.0000 0.0000 0.0000
# 3 27.6895 59.7653 93.9823 0.0000 0.0000 0.0000
# 4 0.0000 0.0000 0.0000 16.5949 0.0000 0.0000
# 5 0.0000 0.0000 0.0000 0.0000 34.2177 0.0000
# 6 0.0000 0.0000 0.0000 0.0000 0.0000 28.4478
#
#
#
# Elastic Compliance Matrix: (Units=1/GPa)
#
#
# Indices 1 2 3 4 5 6 
#
# 1 0.033185 -0.009227 -0.003909 0.000000 0.000000 0.000000
# 2 -0.009227 0.021111 -0.010706 0.000000 0.000000 0.000000
# 3 -0.003909 -0.010706 0.018601 0.000000 0.000000 0.000000
# 4 0.000000 0.000000 0.000000 0.060259 0.000000 0.000000
# 5 0.000000 0.000000 0.000000 0.000000 0.029225 0.000000
# 6 0.000000 0.000000 0.000000 0.000000 0.000000 0.035152
#
#
# Mechanical properties :
#
#
# Convention : Reuss Voigt Hill
#
# Bulk Modulus (GPa) = 39.66565 52.05362 45.85963
# Shear Modulus (GPa) = 19.71437 23.07308 21.39372
#
# Velocity S-wave (km/s) = 3.28439 3.55317 3.42142
# Velocity P-wave (km/s) = 6.00724 6.73170 6.37976
#
# Compressibility (1/GPa) = 0.02521073
#
# Stress axis : x y z
#
# Youngs Moduli (GPa) = 30.13412 47.36851 53.76185
#
# Poissons Ratio (x) = 0.43707 0.21018
# Poissons Ratio (y) = 0.27805 0.57560
# Poissons Ratio (z) = 0.11781 0.50715
#
# Static dielectric constant tensor:
#      x y z
#    x 3.265100 0.000000 0.000000 
#    y 0.000000 3.607950 0.000000 
#    z 0.000000 0.000000 3.468020 
# 
# 
# High freq. dielectric constant tensor:
#      x y z
#    x 1.698170 0.000000 0.000000 
#    y 0.000000 1.718630 0.000000 
#    z 0.000000 0.000000 1.710110 
# 
# From -- ./inp_files/30831.got.cif
#   From: 2010.03.12/outbox.cif.g09.slc.cpg/sg53_16_cif.got.tgz:30831.got - 2010.04.16 14:36:59.
