data_PCOD8219988
_publ_section_title
;
Structure prediction by ZEFSAII (Michael W. Deem and Ramdas Pophale) SiO2 
 PCOD8219988
Probable space group: P M N A
;
_chemical_formula_sum "Si O2"
_cell_formula_units_Z 48
_cell_length_a 8.720229
_cell_length_b 12.621174
_cell_length_c 25.065149
_cell_angle_alpha 90.000000
_cell_angle_beta 90.000000
_cell_angle_gamma 90.000000
_cell_volume 2758.658456
_symmetry_space_group_name_H-M "P M N A"
_symmetry_group_IT_number 53
_symmetry_cell_setting 'orthorhombic'
loop_
_space_group_symop_operation_xyz
x,y,z
1/2-x,-y,1/2+z
x,-y,-z
1/2-x,y,1/2-z
-x,-y,-z
1/2+x,y,1/2-z
-x,y,z
1/2+x,-y,1/2+z
loop_
_atom_site_type_symbol
_atom_site_label
_atom_site_fract_x
_atom_site_fract_y
_atom_site_fract_z
Si Si1 0.321192 0.890796 0.110080
Si Si2 0.668952 0.874717 0.495912
Si Si3 0.319613 0.286662 0.191240
Si Si4 0.177044 0.494771 0.192540
Si Si5 0.318995 0.880398 0.613166
Si Si6 0.820815 0.729005 0.191387
O O1 0.500000 0.914793 0.114180
O O2 0.272521 0.807232 0.154191
O O3 0.228525 0.997963 0.120361
O O4 0.283998 0.842086 0.051437
O O5 0.500000 0.827851 0.482888
O O6 0.726160 0.835682 0.554187
O O7 0.656559 0.000000 0.500000
O O8 0.250000 0.274790 0.250000
O O9 0.500000 0.288562 0.195830
O O10 0.261207 0.396411 0.163026
O O11 0.269677 0.187319 0.156486
O O12 0.250000 0.504064 0.250000
O O13 0.199203 0.610552 0.166028
O O14 0.000000 0.464565 0.197522
O O15 0.500000 0.871868 0.622305
O O16 0.750000 0.736905 0.250000
O O17 0.000000 0.759646 0.193859
#
# Coordination Sequence:
#
# PCOD8219988 Si02
#       6
#     8   8   8   8   8   8
#     4  11  21  32  50  76 104 132 164 202 246 294
#     4   8  16  32  52  71  94 128 166 203 242 288
#     4  11  21  33  51  75 103 132 164 202 246 294
#     4   9  17  31  51  72  95 127 166 204 241 286
#     4  10  20  35  53  73 100 132 167 204 245 293
#     4  10  20  34  52  74 101 132 167 204 245 293
#
# _framework density 17.399761000000002
#
# number of rings (size 3 to 8) (size 9 to 14) (size 15 to 20)
#    0.000    2.167    0.000    6.500    0.000    6.333 
#    0.000    3.333    0.000    1.000    0.000    7.000 
#    0.000    0.000    0.000    0.000    0.000    0.000 
#
# Total GULP energy -594887.773559 kJ/mol
# GULP energy per Si atom -12393.495282 kJ/mol
# Density = 1.736016 g / cm^3
# Si number density = 17.399761 Si / 1000 Ang^3
#
#
#
# Elastic Constant Matrix: (Units=GPa)
#
#
# Indices 1 2 3 4 5 6 
#
# 1 112.9324 32.3934 38.9731 0.0000 0.0000 0.0000
# 2 32.3934 76.2676 42.8522 0.0000 0.0000 0.0000
# 3 38.9731 42.8522 85.1810 0.0000 0.0000 0.0000
# 4 0.0000 0.0000 0.0000 -4.7979 0.0000 0.0000
# 5 0.0000 0.0000 0.0000 0.0000 25.1536 0.0000
# 6 0.0000 0.0000 0.0000 0.0000 0.0000 34.0587
#
#
#
# Elastic Compliance Matrix: (Units=1/GPa)
#
#
# Indices 1 2 3 4 5 6 
#
# 1 0.010856 -0.002537 -0.003691 0.000000 0.000000 0.000000
# 2 -0.002537 0.018871 -0.008333 0.000000 0.000000 0.000000
# 3 -0.003691 -0.008333 0.017620 0.000000 0.000000 0.000000
# 4 0.000000 0.000000 0.000000 -0.208425 0.000000 0.000000
# 5 0.000000 0.000000 0.000000 0.000000 0.039756 0.000000
# 6 0.000000 0.000000 0.000000 0.000000 0.000000 0.029361
#
#
# Mechanical properties :
#
#
# Convention : Reuss Voigt Hill
#
# Bulk Modulus (GPa) = 54.86539 55.86872 55.36705
# Shear Modulus (GPa) = -88.08410 21.56038 -33.26186
#
# Velocity S-wave (km/s) = -7.12275 3.52393 -4.37696
# Velocity P-wave (km/s) = 6.00368 6.98112 2.51912
#
# Compressibility (1/GPa) = 0.01822643
#
# Stress axis : x y z
#
# Youngs Moduli (GPa) = 92.11229 52.99055 56.75297
#
# Poissons Ratio (x) = 0.13446 0.20945
# Poissons Ratio (y) = 0.23373 0.47290
# Poissons Ratio (z) = 0.33995 0.44155
#
# Static dielectric constant tensor:
#      x y z
#    x 3.371620 0.000000 0.000000 
#    y 0.000000 3.509180 0.000000 
#    z 0.000000 0.000000 3.340950 
# 
# 
# High freq. dielectric constant tensor:
#      x y z
#    x 1.688620 0.000000 0.000000 
#    y 0.000000 1.660350 0.000000 
#    z 0.000000 0.000000 1.652800 
# 
# From -- ./inp_files/33856.got.cif
#   From: 2010.03.12/outbox.cif.g09.slc.cpg/sg53_17_cif.got.tgz:33856.got - 2010.04.16 14:36:59.
