data_PCOD8219324
_publ_section_title
;
Structure prediction by ZEFSAII (Michael W. Deem and Ramdas Pophale) SiO2 
 PCOD8219324
Probable space group: P M N A
;
_chemical_formula_sum "Si O2"
_cell_formula_units_Z 64
_cell_length_a 18.212152
_cell_length_b 15.718609
_cell_length_c 11.861475
_cell_angle_alpha 90.000000
_cell_angle_beta 90.000000
_cell_angle_gamma 90.000000
_cell_volume 3395.580846
_symmetry_space_group_name_H-M "P M N A"
_symmetry_group_IT_number 53
_symmetry_cell_setting 'orthorhombic'
loop_
_space_group_symop_operation_xyz
x,y,z
1/2-x,-y,1/2+z
x,-y,-z
1/2-x,y,1/2-z
-x,-y,-z
1/2+x,y,1/2-z
-x,y,z
1/2+x,-y,1/2+z
loop_
_atom_site_type_symbol
_atom_site_label
_atom_site_fract_x
_atom_site_fract_y
_atom_site_fract_z
Si Si1 0.913805 0.597890 0.470514
Si Si2 0.336384 0.117230 0.272843
Si Si3 0.164525 0.562281 0.257223
Si Si4 0.581566 0.409216 0.297762
Si Si5 0.416790 0.740779 0.847953
Si Si6 0.582640 0.373462 0.546516
Si Si7 0.413671 0.183612 0.494145
Si Si8 0.082275 0.969054 0.128886
O O1 0.892814 0.500000 0.500000
O O2 0.869249 0.620042 0.356457
O O3 0.888849 0.671023 0.559811
O O4 0.000000 0.605897 0.448780
O O5 0.250000 0.115644 0.250000
O O6 0.370135 0.172355 0.167866
O O7 0.360456 0.157332 0.391691
O O8 0.365569 0.019207 0.281846
O O9 0.250000 0.571578 0.250000
O O10 0.139755 0.463938 0.273875
O O11 0.136156 0.587896 0.136066
O O12 0.500000 0.437950 0.256450
O O13 0.589916 0.308929 0.271563
O O14 0.590009 0.425816 0.430359
O O15 0.500000 0.768246 0.874948
O O16 0.500000 0.378326 0.592869
O O17 0.607394 0.277983 0.525661
O O18 0.500000 0.172963 0.457883
O O19 0.397635 0.130462 0.610581
O O20 0.000000 0.981439 0.175890
O O21 0.088247 0.000000 0.000000
#
# Coordination Sequence:
#
# PCOD8219324 Si02
#       8
#     8   8   8   8   8   8   8   8
#     4  10  20  37  56  70  94 141 193 225 254 318
#     4  11  20  29  48  84 120 144 165 209 276 338
#     4  12  25  36  49  74 110 147 184 226 279 337
#     4  10  19  36  58  77 100 135 182 234 280 318
#     4  10  19  34  57  78 102 141 185 226 268 318
#     4  10  20  36  60  83 104 133 183 242 286 324
#     4   9  17  34  59  84 107 138 179 229 278 325
#     4   8  15  30  54  78 104 136 176 218 258 313
#
# _framework density 18.848026999999998
#
# number of rings (size 3 to 8) (size 9 to 14) (size 15 to 20)
#    0.000    2.000    2.500    3.375    0.000    3.500 
#    0.000    0.625    0.000    1.500    0.000    0.000 
#    0.000   36.500    0.000    0.000    0.000    0.000 
#
# Total GULP energy -792855.167822 kJ/mol
# GULP energy per Si atom -12388.361997 kJ/mol
# Density = 1.880513 g / cm^3
# Si number density = 18.848027 Si / 1000 Ang^3
#
#
#
# Elastic Constant Matrix: (Units=GPa)
#
#
# Indices 1 2 3 4 5 6 
#
# 1 101.8422 38.8897 45.7089 0.0000 0.0000 0.0000
# 2 38.8897 62.9426 24.2355 0.0000 0.0000 0.0000
# 3 45.7089 24.2355 67.1991 0.0000 0.0000 0.0000
# 4 0.0000 0.0000 0.0000 27.9465 0.0000 0.0000
# 5 0.0000 0.0000 0.0000 0.0000 27.5717 0.0000
# 6 0.0000 0.0000 0.0000 0.0000 0.0000 10.3156
#
#
#
# Elastic Compliance Matrix: (Units=1/GPa)
#
#
# Indices 1 2 3 4 5 6 
#
# 1 0.016263 -0.006722 -0.008638 0.000000 0.000000 0.000000
# 2 -0.006722 0.021228 -0.003083 0.000000 0.000000 0.000000
# 3 -0.008638 -0.003083 0.021868 0.000000 0.000000 0.000000
# 4 0.000000 0.000000 0.000000 0.035783 0.000000 0.000000
# 5 0.000000 0.000000 0.000000 0.000000 0.036269 0.000000
# 6 0.000000 0.000000 0.000000 0.000000 0.000000 0.096941
#
#
# Mechanical properties :
#
#
# Convention : Reuss Voigt Hill
#
# Bulk Modulus (GPa) = 44.49823 49.96133 47.22978
# Shear Modulus (GPa) = 18.33318 21.37675 19.85497
#
# Velocity S-wave (km/s) = 3.12217 3.37139 3.24917
# Velocity P-wave (km/s) = 6.05454 6.45910 6.26009
#
# Compressibility (1/GPa) = 0.02247281
#
# Stress axis : x y z
#
# Youngs Moduli (GPa) = 61.48993 47.10715 45.72789
#
# Poissons Ratio (x) = 0.31667 0.39498
# Poissons Ratio (y) = 0.41335 0.14100
# Poissons Ratio (z) = 0.53112 0.14525
#
# Static dielectric constant tensor:
#      x y z
#    x -2.170510 0.000000 0.000000 
#    y 0.000000 3.902430 0.000000 
#    z 0.000000 0.000000 3.386940 
# 
# 
# High freq. dielectric constant tensor:
#      x y z
#    x 1.706610 0.000000 0.000000 
#    y 0.000000 1.732220 0.000000 
#    z 0.000000 0.000000 1.712360 
# 
# From -- ./inp_files/16222.got.cif
#   From: 2010.03.12/outbox.cif.g09.slc.cpg/sg53_9_cif.got.tgz:16222.got - 2010.04.16 14:36:59.
