data_PCOD8219968
_publ_section_title
;
Structure prediction by ZEFSAII (Michael W. Deem and Ramdas Pophale) SiO2 
 PCOD8219968
Probable space group: P M N A
;
_chemical_formula_sum "Si O2"
_cell_formula_units_Z 56
_cell_length_a 22.801454
_cell_length_b 9.159238
_cell_length_c 14.477790
_cell_angle_alpha 90.000000
_cell_angle_beta 90.000000
_cell_angle_gamma 90.000000
_cell_volume 3023.598763
_symmetry_space_group_name_H-M "P M N A"
_symmetry_group_IT_number 53
_symmetry_cell_setting 'orthorhombic'
loop_
_space_group_symop_operation_xyz
x,y,z
1/2-x,-y,1/2+z
x,-y,-z
1/2-x,y,1/2-z
-x,-y,-z
1/2+x,y,1/2-z
-x,y,z
1/2+x,-y,1/2+z
loop_
_atom_site_type_symbol
_atom_site_label
_atom_site_fract_x
_atom_site_fract_y
_atom_site_fract_z
Si Si1 0.730327 0.117632 0.649157
Si Si2 0.612323 0.577645 0.286824
Si Si3 0.718577 0.430174 0.593962
Si Si4 0.388433 0.075052 0.711803
Si Si5 0.647471 0.077378 0.908987
Si Si6 0.000000 0.424160 0.901005
Si Si7 0.351765 0.576798 0.091969
Si Si8 0.000000 0.075278 0.901394
O O1 0.750000 0.180136 0.750000
O O2 0.715830 0.254863 0.583960
O O3 0.671784 0.018128 0.662106
O O4 0.784547 0.026603 0.606323
O O5 0.673095 0.514385 0.328112
O O6 0.614361 0.751280 0.291669
O O7 0.556436 0.520395 0.343761
O O8 0.608294 0.529204 0.179378
O O9 0.695307 0.500000 0.500000
O O10 0.785557 0.477986 0.613646
O O11 0.390563 0.026743 0.819686
O O12 0.444217 0.016586 0.656244
O O13 0.645557 0.250314 0.923034
O O14 0.621642 0.000000 0.000000
O O15 0.000000 0.249401 0.913076
O O16 0.000000 0.500000 0.000000
O O17 0.376683 0.500000 0.000000
O O18 0.000000 0.000000 0.000000
#
# Coordination Sequence:
#
# PCOD8219968 Si02
#       8
#     8   8   8   8   8   4   8   4
#     4   8  14  26  43  63  88 119 151 181 215 264
#     4   9  16  29  47  65  89 122 153 182 216 266
#     4   9  14  22  42  68  90 114 149 186 218 258
#     4   8  16  30  47  66  88 119 155 181 215 270
#     4   9  16  28  48  69  90 117 149 185 221 262
#     4  10  20  34  51  70  90 116 153 186 217 262
#     4   9  17  29  46  68  92 118 149 183 223 266
#     4  10  20  34  51  68  90 118 149 186 223 262
#
# _framework density 18.520976000000001
#
# number of rings (size 3 to 8) (size 9 to 14) (size 15 to 20)
#    0.000    3.143    0.000    3.429    0.000    0.571 
#    0.000    2.143    0.000   15.429    0.000    0.000 
#    0.000    0.000    0.000    0.000    0.000    0.000 
#
# Total GULP energy -693883.631926 kJ/mol
# GULP energy per Si atom -12390.779142 kJ/mol
# Density = 1.847882 g / cm^3
# Si number density = 18.520976 Si / 1000 Ang^3
#
#
#
# Elastic Constant Matrix: (Units=GPa)
#
#
# Indices 1 2 3 4 5 6 
#
# 1 100.6521 18.7770 70.3137 0.0000 0.0000 0.0000
# 2 18.7770 21.6886 35.1811 0.0000 0.0000 0.0000
# 3 70.3137 35.1811 169.4007 0.0000 0.0000 0.0000
# 4 0.0000 0.0000 0.0000 32.2009 0.0000 0.0000
# 5 0.0000 0.0000 0.0000 0.0000 31.2245 0.0000
# 6 0.0000 0.0000 0.0000 0.0000 0.0000 9.8355
#
#
#
# Elastic Compliance Matrix: (Units=1/GPa)
#
#
# Indices 1 2 3 4 5 6 
#
# 1 0.014234 -0.004131 -0.005050 0.000000 0.000000 0.000000
# 2 -0.004131 0.070729 -0.012974 0.000000 0.000000 0.000000
# 3 -0.005050 -0.012974 0.010694 0.000000 0.000000 0.000000
# 4 0.000000 0.000000 0.000000 0.031055 0.000000 0.000000
# 5 0.000000 0.000000 0.000000 0.000000 0.032026 0.000000
# 6 0.000000 0.000000 0.000000 0.000000 0.000000 0.101672
#
#
# Mechanical properties :
#
#
# Convention : Reuss Voigt Hill
#
# Bulk Modulus (GPa) = 19.47580 60.03167 39.75373
# Shear Modulus (GPa) = 15.53582 25.81684 20.67633
#
# Velocity S-wave (km/s) = 2.89939 3.73758 3.34484
# Velocity P-wave (km/s) = 4.66336 7.14907 6.03557
#
# Compressibility (1/GPa) = 0.05134578
#
# Stress axis : x y z
#
# Youngs Moduli (GPa) = 70.25528 14.13839 93.51196
#
# Poissons Ratio (x) = 0.05841 0.47224
# Poissons Ratio (y) = 0.29024 1.21325
# Poissons Ratio (z) = 0.35480 0.18344
#
# Static dielectric constant tensor:
#      x y z
#    x 3.635260 0.000000 0.000000 
#    y 0.000000 2.805730 0.000000 
#    z 0.000000 0.000000 3.441210 
# 
# 
# High freq. dielectric constant tensor:
#      x y z
#    x 1.710830 0.000000 0.000000 
#    y 0.000000 1.653520 0.000000 
#    z 0.000000 0.000000 1.729030 
# 
# From -- ./inp_files/18462.got.cif
#   From: 2010.03.12/outbox.cif.g09.slc.cpg/sg53_10_cif.got.tgz:18462.got - 2010.04.16 14:36:59.
