data_PCOD8219615
_publ_section_title
;
Structure prediction by ZEFSAII (Michael W. Deem and Ramdas Pophale) SiO2 
 PCOD8219615
Probable space group: P M N A
;
_chemical_formula_sum "Si O2"
_cell_formula_units_Z 48
_cell_length_a 9.039911
_cell_length_b 18.951288
_cell_length_c 14.743044
_cell_angle_alpha 90.000000
_cell_angle_beta 90.000000
_cell_angle_gamma 90.000000
_cell_volume 2525.748176
_symmetry_space_group_name_H-M "P M N A"
_symmetry_group_IT_number 53
_symmetry_cell_setting 'orthorhombic'
loop_
_space_group_symop_operation_xyz
x,y,z
1/2-x,-y,1/2+z
x,-y,-z
1/2-x,y,1/2-z
-x,-y,-z
1/2+x,y,1/2-z
-x,y,z
1/2+x,-y,1/2+z
loop_
_atom_site_type_symbol
_atom_site_label
_atom_site_fract_x
_atom_site_fract_y
_atom_site_fract_z
Si Si1 0.324566 0.512015 0.348395
Si Si2 0.324988 0.394141 0.486553
Si Si3 0.825189 0.862897 0.660283
Si Si4 0.672003 0.764872 0.518404
Si Si5 0.168718 0.002077 0.892894
Si Si6 0.830189 0.844665 0.162471
O O1 0.250000 0.518870 0.250000
O O2 0.500000 0.514110 0.333592
O O3 0.274412 0.439735 0.399127
O O4 0.269864 0.574313 0.416656
O O5 0.500000 0.395425 0.491547
O O6 0.267427 0.314724 0.472608
O O7 0.750000 0.830904 0.750000
O O8 0.772328 0.815594 0.577570
O O9 0.775206 0.943670 0.649219
O O10 0.000000 0.859355 0.668697
O O11 0.500000 0.772333 0.547221
O O12 0.695671 0.787970 0.415501
O O13 0.000000 0.988302 0.860323
O O14 0.231902 0.077909 0.862705
O O15 0.175255 0.000000 0.000000
O O16 0.750000 0.813658 0.250000
O O17 0.000000 0.853323 0.185803
#
# Coordination Sequence:
#
# PCOD8219615 Si02
#       6
#     8   8   8   8   8   8
#     4   9  17  33  56  85 111 142 181 221 264 319
#     4   8  17  34  57  79 109 147 184 217 264 327
#     4  12  25  39  57  82 110 145 186 233 281 334
#     4  10  20  39  59  78 108 150 187 227 276 327
#     4  10  19  37  60  81 106 141 184 233 280 330
#     4  10  21  35  55  79 107 141 181 226 277 328
#
# _framework density 19.004270000000002
#
# number of rings (size 3 to 8) (size 9 to 14) (size 15 to 20)
#    0.000    2.167    1.667    3.000    0.000    4.333 
#    0.000    5.000    0.000    0.000    0.000    0.000 
#    0.000    0.000    0.000    0.000    0.000    0.000 
#
# Total GULP energy -595116.541281 kJ/mol
# GULP energy per Si atom -12398.261277 kJ/mol
# Density = 1.896102 g / cm^3
# Si number density = 19.004270 Si / 1000 Ang^3
#
#
#
# Elastic Constant Matrix: (Units=GPa)
#
#
# Indices 1 2 3 4 5 6 
#
# 1 72.9958 24.1435 36.6900 0.0000 0.0000 0.0000
# 2 24.1435 80.4112 1.3748 0.0000 0.0000 0.0000
# 3 36.6900 1.3748 83.5766 0.0000 0.0000 0.0000
# 4 0.0000 0.0000 0.0000 9.3229 0.0000 0.0000
# 5 0.0000 0.0000 0.0000 0.0000 36.3830 0.0000
# 6 0.0000 0.0000 0.0000 0.0000 0.0000 -29.7730
#
#
#
# Elastic Compliance Matrix: (Units=1/GPa)
#
#
# Indices 1 2 3 4 5 6 
#
# 1 0.020002 -0.005857 -0.008684 0.000000 0.000000 0.000000
# 2 -0.005857 0.014155 0.002338 0.000000 0.000000 0.000000
# 3 -0.008684 0.002338 0.015739 0.000000 0.000000 0.000000
# 4 0.000000 0.000000 0.000000 0.107263 0.000000 0.000000
# 5 0.000000 0.000000 0.000000 0.000000 0.027485 0.000000
# 6 0.000000 0.000000 0.000000 0.000000 0.000000 -0.033588
#
#
# Mechanical properties :
#
#
# Convention : Reuss Voigt Hill
#
# Bulk Modulus (GPa) = 39.23203 40.15557 39.69380
# Shear Modulus (GPa) = 27.18007 14.83828 21.00918
#
# Velocity S-wave (km/s) = 3.78591 2.79729 3.32851
# Velocity P-wave (km/s) = 6.30868 5.62216 5.97529
#
# Compressibility (1/GPa) = 0.02548938
#
# Stress axis : x y z
#
# Youngs Moduli (GPa) = 49.99583 70.64805 63.53630
#
# Poissons Ratio (x) = 0.41379 0.55177
# Poissons Ratio (y) = 0.29283 -0.14857
# Poissons Ratio (z) = 0.43418 -0.16520
#
# Static dielectric constant tensor:
#      x y z
#    x 3.252610 0.000000 0.000000 
#    y 0.000000 3.862530 0.000000 
#    z 0.000000 0.000000 3.542510 
# 
# 
# High freq. dielectric constant tensor:
#      x y z
#    x 1.711020 0.000000 0.000000 
#    y 0.000000 1.738850 0.000000 
#    z 0.000000 0.000000 1.750110 
# 
# From -- ./inp_files/20238.got.cif
#   From: 2010.03.12/outbox.cif.g09.slc.cpg/sg53_11_cif.got.tgz:20238.got - 2010.04.16 14:36:59.
