data_PCOD8219411
_publ_section_title
;
Structure prediction by ZEFSAII (Michael W. Deem and Ramdas Pophale) SiO2 
 PCOD8219411
Probable space group: P M N A
;
_chemical_formula_sum "Si O2"
_cell_formula_units_Z 48
_cell_length_a 8.805736
_cell_length_b 16.563030
_cell_length_c 18.100917
_cell_angle_alpha 90.000000
_cell_angle_beta 90.000000
_cell_angle_gamma 90.000000
_cell_volume 2640.012763
_symmetry_space_group_name_H-M "P M N A"
_symmetry_group_IT_number 53
_symmetry_cell_setting 'orthorhombic'
loop_
_space_group_symop_operation_xyz
x,y,z
1/2-x,-y,1/2+z
x,-y,-z
1/2-x,y,1/2-z
-x,-y,-z
1/2+x,y,1/2-z
-x,y,z
1/2+x,-y,1/2+z
loop_
_atom_site_type_symbol
_atom_site_label
_atom_site_fract_x
_atom_site_fract_y
_atom_site_fract_z
Si Si1 0.322322 0.416449 0.472237
Si Si2 0.321327 0.179910 0.101822
Si Si3 0.319464 0.669727 0.673851
Si Si4 0.679441 0.986546 0.584742
Si Si5 0.323435 0.856225 0.328366
Si Si6 0.676374 0.748645 0.461267
O O1 0.244599 0.500000 0.500000
O O2 0.500000 0.430760 0.463986
O O3 0.260283 0.388935 0.392003
O O4 0.287229 0.346629 0.532354
O O5 0.500000 0.186892 0.113422
O O6 0.239398 0.239988 0.158848
O O7 0.265996 0.089699 0.119307
O O8 0.277527 0.200947 0.017963
O O9 0.250000 0.636479 0.750000
O O10 0.500000 0.671223 0.678233
O O11 0.500000 0.972768 0.591023
O O12 0.727244 0.000000 0.500000
O O13 0.736784 0.063258 0.631636
O O14 0.250000 0.841371 0.250000
O O15 0.500000 0.865067 0.315331
O O16 0.285248 0.778387 0.379019
O O17 0.500000 0.765982 0.481414
#
# Coordination Sequence:
#
# PCOD8219411 Si02
#       6
#     8   8   8   8   8   8
#     4   8  15  30  56  84 104 131 175 218 255 311
#     4  11  21  32  52  80 106 134 175 221 266 315
#     4  10  20  35  55  78 110 144 178 219 269 323
#     4  10  19  35  55  72 100 141 183 218 262 315
#     4  10  21  35  52  73 101 138 175 217 260 309
#     4   9  17  34  55  74 101 140 178 210 257 317
#
# _framework density 18.181730999999999
#
# number of rings (size 3 to 8) (size 9 to 14) (size 15 to 20)
#    0.000    2.333    1.667    3.000    0.000    2.333 
#    0.000    2.500    0.000   12.500    0.000    0.000 
#    0.000    0.000    0.000    0.000    0.000    0.000 
#
# Total GULP energy -595153.271879 kJ/mol
# GULP energy per Si atom -12399.026497 kJ/mol
# Density = 1.814035 g / cm^3
# Si number density = 18.181731 Si / 1000 Ang^3
#
#
#
# Elastic Constant Matrix: (Units=GPa)
#
#
# Indices 1 2 3 4 5 6 
#
# 1 55.5837 32.4364 30.8376 0.0000 0.0000 0.0000
# 2 32.4364 144.4630 71.8901 0.0000 0.0000 0.0000
# 3 30.8376 71.8901 135.5571 0.0000 0.0000 0.0000
# 4 0.0000 0.0000 0.0000 21.2338 0.0000 0.0000
# 5 0.0000 0.0000 0.0000 0.0000 30.2649 0.0000
# 6 0.0000 0.0000 0.0000 0.0000 0.0000 10.7230
#
#
#
# Elastic Compliance Matrix: (Units=1/GPa)
#
#
# Indices 1 2 3 4 5 6 
#
# 1 0.021675 -0.003278 -0.003192 0.000000 0.000000 0.000000
# 2 -0.003278 0.009900 -0.004504 0.000000 0.000000 0.000000
# 3 -0.003192 -0.004504 0.010492 0.000000 0.000000 0.000000
# 4 0.000000 0.000000 0.000000 0.047095 0.000000 0.000000
# 5 0.000000 0.000000 0.000000 0.000000 0.033042 0.000000
# 6 0.000000 0.000000 0.000000 0.000000 0.000000 0.093257
#
#
# Mechanical properties :
#
#
# Convention : Reuss Voigt Hill
#
# Bulk Modulus (GPa) = 49.70903 67.32578 58.51741
# Shear Modulus (GPa) = 20.48207 25.80699 23.14453
#
# Velocity S-wave (km/s) = 3.36001 3.77157 3.57172
# Velocity P-wave (km/s) = 6.51554 7.48839 7.01884
#
# Compressibility (1/GPa) = 0.02011707
#
# Stress axis : x y z
#
# Youngs Moduli (GPa) = 46.13628 101.01222 95.31053
#
# Poissons Ratio (x) = 0.33113 0.30426
# Poissons Ratio (y) = 0.15124 0.42932
# Poissons Ratio (z) = 0.14728 0.45500
#
# Static dielectric constant tensor:
#      x y z
#    x 3.123220 0.000000 0.000000 
#    y 0.000000 3.586840 0.000000 
#    z 0.000000 0.000000 3.418440 
# 
# 
# High freq. dielectric constant tensor:
#      x y z
#    x 1.683230 0.000000 0.000000 
#    y 0.000000 1.702220 0.000000 
#    z 0.000000 0.000000 1.697830 
# 
# From -- ./inp_files/26403.got.cif
#   From: 2010.03.12/outbox.cif.g09.slc.cpg/sg53_14_cif.got.tgz:26403.got - 2010.04.16 14:36:59.
