data_PCOD8219405
_publ_section_title
;
Structure prediction by ZEFSAII (Michael W. Deem and Ramdas Pophale) SiO2 
 PCOD8219405
Probable space group: P M N A
;
_chemical_formula_sum "Si O2"
_cell_formula_units_Z 64
_cell_length_a 9.067134
_cell_length_b 17.312945
_cell_length_c 22.304265
_cell_angle_alpha 90.000000
_cell_angle_beta 90.000000
_cell_angle_gamma 90.000000
_cell_volume 3501.296582
_symmetry_space_group_name_H-M "P M N A"
_symmetry_group_IT_number 53
_symmetry_cell_setting 'orthorhombic'
loop_
_space_group_symop_operation_xyz
x,y,z
1/2-x,-y,1/2+z
x,-y,-z
1/2-x,y,1/2-z
-x,-y,-z
1/2+x,y,1/2-z
-x,y,z
1/2+x,-y,1/2+z
loop_
_atom_site_type_symbol
_atom_site_label
_atom_site_fract_x
_atom_site_fract_y
_atom_site_fract_z
Si Si1 0.825678 0.254350 0.190548
Si Si2 0.666035 0.010409 0.929199
Si Si3 0.332104 0.412605 0.011928
Si Si4 0.326553 0.141282 0.414853
Si Si5 0.829699 0.328060 0.912037
Si Si6 0.174382 0.425010 0.688162
Si Si7 0.168493 0.596610 0.651423
Si Si8 0.830474 0.841731 0.050689
O O1 0.750000 0.218838 0.250000
O O2 0.773395 0.205222 0.132910
O O3 0.773619 0.342710 0.183947
O O4 0.000000 0.252593 0.198404
O O5 0.500000 0.011492 0.904742
O O6 0.740914 0.092305 0.914014
O O7 0.750857 0.939913 0.897618
O O8 0.673324 0.000000 0.000000
O O9 0.500000 0.399742 0.989375
O O10 0.315211 0.392172 0.080912
O O11 0.284254 0.500000 0.000000
O O12 0.220112 0.358190 0.976807
O O13 0.500000 0.128835 0.410566
O O14 0.277690 0.168639 0.481447
O O15 0.729326 0.364917 0.861135
O O16 0.805796 0.236252 0.912134
O O17 0.000000 0.349722 0.901446
O O18 0.250000 0.401833 0.750000
O O19 0.221710 0.511199 0.669451
O O20 0.000000 0.417282 0.693986
O O21 0.000000 0.610483 0.671836
O O22 0.000000 0.867265 0.050113
#
# Coordination Sequence:
#
# PCOD8219405 Si02
#       8
#     8   8   8   8   8   8   8   8
#     4  11  23  37  54  77 107 143 186 228 269 318
#     4   9  17  29  50  81 110 135 168 206 250 308
#     4  10  19  35  54  77 109 142 175 218 274 327
#     4   9  18  34  54  76 107 144 175 211 261 316
#     4  11  22  35  54  82 110 142 181 222 268 319
#     4  11  23  40  57  75 101 138 183 228 273 320
#     4  10  21  37  57  78 105 140 179 223 272 321
#     4   9  18  33  53  79 111 141 173 212 264 323
#
# _framework density 18.278943999999999
#
# number of rings (size 3 to 8) (size 9 to 14) (size 15 to 20)
#    0.000    2.000    1.250    2.625    0.000    7.250 
#    0.000    2.500    0.000    0.750    0.000    3.500 
#    0.000    0.000    0.000    0.000    0.000    0.000 
#
# Total GULP energy -793785.767490 kJ/mol
# GULP energy per Si atom -12402.902617 kJ/mol
# Density = 1.823734 g / cm^3
# Si number density = 18.278944 Si / 1000 Ang^3
#
#
#
# Elastic Constant Matrix: (Units=GPa)
#
#
# Indices 1 2 3 4 5 6 
#
# 1 75.3375 49.5659 32.3774 0.0000 0.0000 0.0000
# 2 49.5659 105.0283 35.4177 0.0000 0.0000 0.0000
# 3 32.3774 35.4177 72.4038 0.0000 0.0000 0.0000
# 4 0.0000 0.0000 0.0000 15.5387 0.0000 0.0000
# 5 0.0000 0.0000 0.0000 0.0000 29.1514 0.0000
# 6 0.0000 0.0000 0.0000 0.0000 0.0000 17.8718
#
#
#
# Elastic Compliance Matrix: (Units=1/GPa)
#
#
# Indices 1 2 3 4 5 6 
#
# 1 0.020882 -0.008031 -0.005410 0.000000 0.000000 0.000000
# 2 -0.008031 0.014490 -0.003497 0.000000 0.000000 0.000000
# 3 -0.005410 -0.003497 0.017941 0.000000 0.000000 0.000000
# 4 0.000000 0.000000 0.000000 0.064355 0.000000 0.000000
# 5 0.000000 0.000000 0.000000 0.000000 0.034304 0.000000
# 6 0.000000 0.000000 0.000000 0.000000 0.000000 0.055954
#
#
# Mechanical properties :
#
#
# Convention : Reuss Voigt Hill
#
# Bulk Modulus (GPa) = 51.44349 54.16575 52.80462
# Shear Modulus (GPa) = 20.13848 21.53963 20.83906
#
# Velocity S-wave (km/s) = 3.32283 3.43648 3.38014
# Velocity P-wave (km/s) = 6.55182 6.74115 6.64716
#
# Compressibility (1/GPa) = 0.01943881
#
# Stress axis : x y z
#
# Youngs Moduli (GPa) = 47.88838 69.01118 55.73758
#
# Poissons Ratio (x) = 0.55420 0.30152
# Poissons Ratio (y) = 0.38457 0.19492
# Poissons Ratio (z) = 0.25906 0.24135
#
# Static dielectric constant tensor:
#      x y z
#    x 3.391360 0.000000 0.000000 
#    y 0.000000 3.384460 0.000000 
#    z 0.000000 0.000000 3.309260 
# 
# 
# High freq. dielectric constant tensor:
#      x y z
#    x 1.712740 0.000000 0.000000 
#    y 0.000000 1.708320 0.000000 
#    z 0.000000 0.000000 1.688560 
# 
# From -- ./inp_files/34142.got.cif
#   From: 2010.03.12/outbox.cif.g09.slc.cpg/sg53_18_cif.got.tgz:34142.got - 2010.04.16 14:36:59.
