data_PCOD8219735
_publ_section_title
;
Structure prediction by ZEFSAII (Michael W. Deem and Ramdas Pophale) SiO2 
 PCOD8219735
Probable space group: P M N A
;
_chemical_formula_sum "Si O2"
_cell_formula_units_Z 48
_cell_length_a 9.141140
_cell_length_b 9.069113
_cell_length_c 33.156588
_cell_angle_alpha 90.000000
_cell_angle_beta 90.000000
_cell_angle_gamma 90.000000
_cell_volume 2748.748506
_symmetry_space_group_name_H-M "P M N A"
_symmetry_group_IT_number 53
_symmetry_cell_setting 'orthorhombic'
loop_
_space_group_symop_operation_xyz
x,y,z
1/2-x,-y,1/2+z
x,-y,-z
1/2-x,y,1/2-z
-x,-y,-z
1/2+x,y,1/2-z
-x,y,z
1/2+x,-y,1/2+z
loop_
_atom_site_type_symbol
_atom_site_label
_atom_site_fract_x
_atom_site_fract_y
_atom_site_fract_z
Si Si1 0.831510 0.648852 0.165391
Si Si2 0.335587 0.918716 0.867097
Si Si3 0.667860 0.528810 0.044079
Si Si4 0.164450 0.208981 0.596059
Si Si5 0.170299 0.373894 0.116983
Si Si6 0.330652 0.881272 0.210717
O O1 0.792590 0.730882 0.124060
O O2 0.799003 0.476156 0.156437
O O3 0.733453 0.717530 0.201069
O O4 0.000000 0.676433 0.176252
O O5 0.500000 0.853953 0.865618
O O6 0.221059 0.788845 0.871613
O O7 0.318706 0.031142 0.905467
O O8 0.300691 0.008656 0.826288
O O9 0.500000 0.476675 0.044337
O O10 0.680678 0.705231 0.053522
O O11 0.748063 0.431087 0.077364
O O12 0.737284 0.500000 0.000000
O O13 0.000000 0.242348 0.614040
O O14 0.000000 0.371947 0.106575
O O15 0.250000 0.946132 0.250000
O O16 0.500000 0.864148 0.220494
#
# Coordination Sequence:
#
# PCOD8219735 Si02
#       6
#     8   8   8   8   8   8
#     4   9  17  30  48  70  94 123 159 195 233 280
#     4   9  18  32  50  71  97 130 164 198 239 289
#     4   9  17  31  52  74  96 126 164 206 250 293
#     4   8  15  29  48  70  94 123 162 201 238 285
#     4  10  20  32  49  73  99 128 162 200 242 288
#     4  10  20  34  53  76  99 126 160 198 240 285
#
# _framework density 17.462492000000001
#
# number of rings (size 3 to 8) (size 9 to 14) (size 15 to 20)
#    0.000    2.833    0.000    2.500    0.000    5.667 
#    0.000    1.667    0.000    7.000    0.000    0.000 
#    0.000    0.000    0.000    0.000    0.000    0.000 
#
# Total GULP energy -594750.217967 kJ/mol
# GULP energy per Si atom -12390.629541 kJ/mol
# Density = 1.742275 g / cm^3
# Si number density = 17.462492 Si / 1000 Ang^3
#
#
#
# Elastic Constant Matrix: (Units=GPa)
#
#
# Indices 1 2 3 4 5 6 
#
# 1 83.1727 47.7211 37.5382 0.0000 0.0000 0.0000
# 2 47.7211 101.6391 33.3217 0.0000 0.0000 0.0000
# 3 37.5382 33.3217 74.4016 0.0000 0.0000 0.0000
# 4 0.0000 0.0000 0.0000 17.0014 0.0000 0.0000
# 5 0.0000 0.0000 0.0000 0.0000 23.9508 0.0000
# 6 0.0000 0.0000 0.0000 0.0000 0.0000 23.7447
#
#
#
# Elastic Compliance Matrix: (Units=1/GPa)
#
#
# Indices 1 2 3 4 5 6 
#
# 1 0.018791 -0.006698 -0.006481 0.000000 0.000000 0.000000
# 2 -0.006698 0.013919 -0.002855 0.000000 0.000000 0.000000
# 3 -0.006481 -0.002855 0.017989 0.000000 0.000000 0.000000
# 4 0.000000 0.000000 0.000000 0.058819 0.000000 0.000000
# 5 0.000000 0.000000 0.000000 0.000000 0.041752 0.000000
# 6 0.000000 0.000000 0.000000 0.000000 0.000000 0.042115
#
#
# Mechanical properties :
#
#
# Convention : Reuss Voigt Hill
#
# Bulk Modulus (GPa) = 53.67025 55.15283 54.41154
# Shear Modulus (GPa) = 21.58302 22.31486 21.94894
#
# Velocity S-wave (km/s) = 3.51944 3.57861 3.54915
# Velocity P-wave (km/s) = 6.87871 6.98051 6.92979
#
# Compressibility (1/GPa) = 0.01863229
#
# Stress axis : x y z
#
# Youngs Moduli (GPa) = 53.21598 71.84206 55.58961
#
# Poissons Ratio (x) = 0.48120 0.36028
# Poissons Ratio (y) = 0.35644 0.15869
# Poissons Ratio (z) = 0.34490 0.20508
#
# Static dielectric constant tensor:
#      x y z
#    x 3.267980 0.000000 0.000000 
#    y 0.000000 3.288590 0.000000 
#    z 0.000000 0.000000 3.151300 
# 
# 
# High freq. dielectric constant tensor:
#      x y z
#    x 1.681710 0.000000 0.000000 
#    y 0.000000 1.665680 0.000000 
#    z 0.000000 0.000000 1.648610 
# 
# From -- ./inp_files/37793.got.cif
#   From: 2010.03.12/outbox.cif.g09.slc.cpg/sg53_19_cif.got.tgz:37793.got - 2010.04.16 14:36:59.
