data_PCOD8219650
_publ_section_title
;
Structure prediction by ZEFSAII (Michael W. Deem and Ramdas Pophale) SiO2 
 PCOD8219650
Probable space group: P M N A
;
_chemical_formula_sum "Si O2"
_cell_formula_units_Z 48
_cell_length_a 27.858918
_cell_length_b 9.349872
_cell_length_c 9.717464
_cell_angle_alpha 90.000000
_cell_angle_beta 90.000000
_cell_angle_gamma 90.000000
_cell_volume 2531.178954
_symmetry_space_group_name_H-M "P M N A"
_symmetry_group_IT_number 53
_symmetry_cell_setting 'orthorhombic'
loop_
_space_group_symop_operation_xyz
x,y,z
1/2-x,-y,1/2+z
x,-y,-z
1/2-x,y,1/2-z
-x,-y,-z
1/2+x,y,1/2-z
-x,y,z
1/2+x,-y,1/2+z
loop_
_atom_site_type_symbol
_atom_site_label
_atom_site_fract_x
_atom_site_fract_y
_atom_site_fract_z
Si Si1 0.899696 0.171849 0.754926
Si Si2 0.000000 0.826690 0.141045
Si Si3 0.152087 0.334886 0.978405
Si Si4 0.500000 0.836569 0.665390
Si Si5 0.105363 0.839707 0.778280
Si Si6 0.258208 0.635560 0.086672
Si Si7 0.657434 0.162242 0.002276
O O1 0.953326 0.229064 0.779206
O O2 0.863985 0.281243 0.829229
O O3 0.889292 0.180185 0.593311
O O4 0.891745 0.009299 0.806983
O O5 0.000000 0.995975 0.141195
O O6 0.000000 0.764283 0.985941
O O7 0.209162 0.312824 0.985300
O O8 0.138092 0.500000 0.000000
O O9 0.125496 0.238026 0.088874
O O10 0.450790 0.794045 0.745656
O O11 0.139090 0.789876 0.652321
O O12 0.250000 0.603664 0.250000
O O13 0.276728 0.500000 0.000000
O O14 0.298018 0.753880 0.060415
O O15 0.675366 0.000000 0.000000
#
# Coordination Sequence:
#
# PCOD8219650 Si02
#       7
#     8   4   8   4   8   8   8
#     4  10  19  38  58  86 117 152 191 236 290 339
#     4   9  16  29  59  85 114 154 191 234 279 345
#     4  11  23  37  58  85 111 151 198 236 289 341
#     4   9  16  31  55  89 114 150 195 228 285 345
#     4  10  21  36  60  86 119 152 189 238 287 346
#     4  11  25  43  62  84 116 154 197 237 286 353
#     4  10  23  39  59  89 120 151 189 243 295 336
#
# _framework density 18.963494000000001
#
# number of rings (size 3 to 8) (size 9 to 14) (size 15 to 20)
#    0.000    1.833    3.333    0.500    4.667    2.000 
#    0.000    5.000    0.000    0.000    0.000    3.500 
#    0.000    0.000    0.000    0.000    0.000    0.000 
#
# Total GULP energy -595003.042315 kJ/mol
# GULP energy per Si atom -12395.896715 kJ/mol
# Density = 1.892033 g / cm^3
# Si number density = 18.963494 Si / 1000 Ang^3
#
#
#
# Elastic Constant Matrix: (Units=GPa)
#
#
# Indices 1 2 3 4 5 6 
#
# 1 94.8664 40.0273 24.3946 0.0000 0.0000 0.0000
# 2 40.0273 62.1409 34.1574 0.0000 0.0000 0.0000
# 3 24.3946 34.1574 83.4023 0.0000 0.0000 0.0000
# 4 0.0000 0.0000 0.0000 23.1247 0.0000 0.0000
# 5 0.0000 0.0000 0.0000 0.0000 25.7731 0.0000
# 6 0.0000 0.0000 0.0000 0.0000 0.0000 8.7409
#
#
#
# Elastic Compliance Matrix: (Units=1/GPa)
#
#
# Indices 1 2 3 4 5 6 
#
# 1 0.014494 -0.009041 -0.000537 0.000000 0.000000 0.000000
# 2 -0.009041 0.026407 -0.008171 0.000000 0.000000 0.000000
# 3 -0.000537 -0.008171 0.015493 0.000000 0.000000 0.000000
# 4 0.000000 0.000000 0.000000 0.043244 0.000000 0.000000
# 5 0.000000 0.000000 0.000000 0.000000 0.038800 0.000000
# 6 0.000000 0.000000 0.000000 0.000000 0.000000 0.114405
#
#
# Mechanical properties :
#
#
# Convention : Reuss Voigt Hill
#
# Bulk Modulus (GPa) = 47.85176 48.61868 48.23522
# Shear Modulus (GPa) = 16.93159 20.98310 18.95734
#
# Velocity S-wave (km/s) = 2.99130 3.33002 3.16519
# Velocity P-wave (km/s) = 6.10073 6.36231 6.23290
#
# Compressibility (1/GPa) = 0.02089787
#
# Stress axis : x y z
#
# Youngs Moduli (GPa) = 68.99481 37.86818 64.54389
#
# Poissons Ratio (x) = 0.34237 0.03463
# Poissons Ratio (y) = 0.62379 0.52737
# Poissons Ratio (z) = 0.03702 0.30941
#
# Static dielectric constant tensor:
#      x y z
#    x 3.698070 0.000000 0.000000 
#    y 0.000000 3.310500 0.000000 
#    z 0.000000 0.000000 3.518010 
# 
# 
# High freq. dielectric constant tensor:
#      x y z
#    x 1.750010 0.000000 0.000000 
#    y 0.000000 1.711140 0.000000 
#    z 0.000000 0.000000 1.739420 
# 
# From -- ./inp_files/13069.got.cif
#   From: 2010.03.12/outbox.cif.g09.slc.cpg/sg53_7_cif.got.tgz:13069.got - 2010.04.16 14:36:59.
