data_PCOD8219068
_publ_section_title
;
Structure prediction by ZEFSAII (Michael W. Deem and Ramdas Pophale) SiO2 
 PCOD8219068
Probable space group: P M N A
;
_chemical_formula_sum "Si O2"
_cell_formula_units_Z 48
_cell_length_a 9.095508
_cell_length_b 9.489769
_cell_length_c 30.585657
_cell_angle_alpha 90.000000
_cell_angle_beta 90.000000
_cell_angle_gamma 90.000000
_cell_volume 2639.978652
_symmetry_space_group_name_H-M "P M N A"
_symmetry_group_IT_number 53
_symmetry_cell_setting 'orthorhombic'
loop_
_space_group_symop_operation_xyz
x,y,z
1/2-x,-y,1/2+z
x,-y,-z
1/2-x,y,1/2-z
-x,-y,-z
1/2+x,y,1/2-z
-x,y,z
1/2+x,-y,1/2+z
loop_
_atom_site_type_symbol
_atom_site_label
_atom_site_fract_x
_atom_site_fract_y
_atom_site_fract_z
Si Si1 0.331249 0.227722 0.889822
Si Si2 0.833254 0.079583 0.367041
Si Si3 0.672216 0.497992 0.363023
Si Si4 0.327642 0.843111 0.011465
Si Si5 0.828779 0.303763 0.295807
Si Si6 0.171090 0.732474 0.932609
O O1 0.500000 0.279787 0.887818
O O2 0.224713 0.343175 0.869404
O O3 0.283724 0.195373 0.939368
O O4 0.308655 0.086996 0.860899
O O5 0.802532 0.157099 0.321314
O O6 0.725856 0.135046 0.404470
O O7 0.000000 0.108795 0.383219
O O8 0.500000 0.494325 0.352303
O O9 0.758435 0.432893 0.322189
O O10 0.708966 0.411578 0.407124
O O11 0.500000 0.832230 0.003704
O O12 0.250159 0.730421 0.979530
O O13 0.271143 0.000000 0.000000
O O14 0.750000 0.286905 0.250000
O O15 0.000000 0.335867 0.288810
O O16 0.000000 0.750107 0.940637
#
# Coordination Sequence:
#
# PCOD8219068 Si02
#       6
#     8   8   8   8   8   8
#     4  10  20  35  55  79 108 145 186 227 273 322
#     4   9  18  35  57  79 106 140 179 220 266 322
#     4  10  22  38  54  78 113 148 182 223 273 326
#     4  10  19  33  53  76 106 145 190 234 271 318
#     4  10  20  37  63  87 108 137 174 218 267 326
#     4  10  20  33  51  76 107 144 185 229 272 316
#
# _framework density 18.181965000000002
#
# number of rings (size 3 to 8) (size 9 to 14) (size 15 to 20)
#    0.000    2.167    1.667    1.500    0.000    5.000 
#    0.000    4.167    0.000    2.000    0.000    0.000 
#    0.000    0.000    0.000    0.000    0.000    0.000 
#
# Total GULP energy -595335.804259 kJ/mol
# GULP energy per Si atom -12402.829255 kJ/mol
# Density = 1.814058 g / cm^3
# Si number density = 18.181965 Si / 1000 Ang^3
#
#
#
# Elastic Constant Matrix: (Units=GPa)
#
#
# Indices 1 2 3 4 5 6 
#
# 1 76.6715 45.3892 54.2677 0.0000 0.0000 0.0000
# 2 45.3892 106.9348 52.5982 0.0000 0.0000 0.0000
# 3 54.2677 52.5982 115.5815 0.0000 0.0000 0.0000
# 4 0.0000 0.0000 0.0000 19.7371 0.0000 0.0000
# 5 0.0000 0.0000 0.0000 0.0000 33.0487 0.0000
# 6 0.0000 0.0000 0.0000 0.0000 0.0000 28.0981
#
#
#
# Elastic Compliance Matrix: (Units=1/GPa)
#
#
# Indices 1 2 3 4 5 6 
#
# 1 0.021724 -0.005416 -0.007735 0.000000 0.000000 0.000000
# 2 -0.005416 0.013399 -0.003554 0.000000 0.000000 0.000000
# 3 -0.007735 -0.003554 0.013901 0.000000 0.000000 0.000000
# 4 0.000000 0.000000 0.000000 0.050666 0.000000 0.000000
# 5 0.000000 0.000000 0.000000 0.000000 0.030258 0.000000
# 6 0.000000 0.000000 0.000000 0.000000 0.000000 0.035590
#
#
# Mechanical properties :
#
#
# Convention : Reuss Voigt Hill
#
# Bulk Modulus (GPa) = 64.05117 67.07757 65.56437
# Shear Modulus (GPa) = 24.49141 25.97227 25.23184
#
# Velocity S-wave (km/s) = 3.67415 3.78360 3.72928
# Velocity P-wave (km/s) = 7.30093 7.48732 7.39471
#
# Compressibility (1/GPa) = 0.01561252
#
# Stress axis : x y z
#
# Youngs Moduli (GPa) = 46.03247 74.63369 71.93657
#
# Poissons Ratio (x) = 0.40423 0.55643
# Poissons Ratio (y) = 0.24932 0.25569
# Poissons Ratio (z) = 0.35606 0.26528
#
# Static dielectric constant tensor:
#      x y z
#    x 3.361810 0.000000 0.000000 
#    y 0.000000 3.315950 0.000000 
#    z 0.000000 0.000000 3.288910 
# 
# 
# High freq. dielectric constant tensor:
#      x y z
#    x 1.708700 0.000000 0.000000 
#    y 0.000000 1.698120 0.000000 
#    z 0.000000 0.000000 1.694330 
# 
# From -- ./inp_files/37692.got.cif
#   From: 2010.03.12/outbox.cif.g09.slc.cpg/sg53_19_cif.got.tgz:37692.got - 2010.04.16 14:36:59.
