data_PCOD8219634
_publ_section_title
;
Structure prediction by ZEFSAII (Michael W. Deem and Ramdas Pophale) SiO2 
 PCOD8219634
Probable space group: P M N A
;
_chemical_formula_sum "Si O2"
_cell_formula_units_Z 48
_cell_length_a 10.110132
_cell_length_b 13.911476
_cell_length_c 17.119941
_cell_angle_alpha 90.000000
_cell_angle_beta 90.000000
_cell_angle_gamma 90.000000
_cell_volume 2407.865922
_symmetry_space_group_name_H-M "P M N A"
_symmetry_group_IT_number 53
_symmetry_cell_setting 'orthorhombic'
loop_
_space_group_symop_operation_xyz
x,y,z
1/2-x,-y,1/2+z
x,-y,-z
1/2-x,y,1/2-z
-x,-y,-z
1/2+x,y,1/2-z
-x,y,z
1/2+x,-y,1/2+z
loop_
_atom_site_type_symbol
_atom_site_label
_atom_site_fract_x
_atom_site_fract_y
_atom_site_fract_z
Si Si1 0.262953 0.692343 0.895909
Si Si2 0.000000 0.802007 0.852074
Si Si3 0.845505 0.498498 0.681793
Si Si4 0.000000 0.025530 0.662891
Si Si5 0.652367 0.322137 0.930264
Si Si6 0.000000 0.811754 0.666254
Si Si7 0.000000 0.022879 0.848016
Si Si8 0.249466 0.142712 0.657191
O O1 0.123376 0.743316 0.884708
O O2 0.278765 0.597828 0.843871
O O3 0.369569 0.767569 0.868314
O O4 0.284382 0.664028 0.985314
O O5 0.000000 0.802742 0.759052
O O6 0.000000 0.913602 0.881892
O O7 0.750000 0.458162 0.750000
O O8 0.839791 0.424895 0.610699
O O9 0.000000 0.512675 0.708177
O O10 0.000000 0.019211 0.755575
O O11 0.873815 0.080004 0.630058
O O12 0.000000 0.918305 0.631636
O O13 0.500000 0.287493 0.935214
O O14 0.740904 0.246507 0.882543
O O15 0.874019 0.083944 0.875952
O O16 0.250000 0.158479 0.750000
#
# Coordination Sequence:
#
# PCOD8219634 Si02
#       8
#     8   4   8   4   8   4   4   8
#     4  12  24  41  64  95 128 168 202 258 321 372
#     4  11  24  41  63  93 130 165 214 264 312 369
#     4  11  24  44  70  97 125 162 211 258 308 373
#     4   9  18  33  60  89 118 159 213 268 298 361
#     4  11  23  43  64  92 128 168 208 255 316 380
#     4  11  20  39  65  91 120 163 220 254 310 373
#     4   9  20  37  60  89 126 165 209 268 314 353
#     4  10  19  37  62  91 122 165 214 259 309 362
#
# _framework density 19.934664000000001
#
# number of rings (size 3 to 8) (size 9 to 14) (size 15 to 20)
#    0.000    1.333    2.500    3.500    1.167    4.667 
#    3.000    5.833    0.000    0.000    0.000    0.000 
#    0.000    0.000    0.000    0.000    0.000    0.000 
#
# Total GULP energy -595218.727000 kJ/mol
# GULP energy per Si atom -12400.390146 kJ/mol
# Density = 1.988929 g / cm^3
# Si number density = 19.934664 Si / 1000 Ang^3
#
#
#
# Elastic Constant Matrix: (Units=GPa)
#
#
# Indices 1 2 3 4 5 6 
#
# 1 159.0114 43.2817 24.8317 0.0000 0.0000 0.0000
# 2 43.2817 88.5563 0.4786 0.0000 0.0000 0.0000
# 3 24.8317 0.4786 66.4557 0.0000 0.0000 0.0000
# 4 0.0000 0.0000 0.0000 7.8384 0.0000 0.0000
# 5 0.0000 0.0000 0.0000 0.0000 11.2631 0.0000
# 6 0.0000 0.0000 0.0000 0.0000 0.0000 42.6815
#
#
#
# Elastic Compliance Matrix: (Units=1/GPa)
#
#
# Indices 1 2 3 4 5 6 
#
# 1 0.007767 -0.003780 -0.002875 0.000000 0.000000 0.000000
# 2 -0.003780 0.013133 0.001318 0.000000 0.000000 0.000000
# 3 -0.002875 0.001318 0.016112 0.000000 0.000000 0.000000
# 4 0.000000 0.000000 0.000000 0.127578 0.000000 0.000000
# 5 0.000000 0.000000 0.000000 0.000000 0.088785 0.000000
# 6 0.000000 0.000000 0.000000 0.000000 0.000000 0.023429
#
#
# Mechanical properties :
#
#
# Convention : Reuss Voigt Hill
#
# Bulk Modulus (GPa) = 37.96898 50.13416 44.05157
# Shear Modulus (GPa) = 16.87718 28.71871 22.79794
#
# Velocity S-wave (km/s) = 2.91284 3.79970 3.38543
# Velocity P-wave (km/s) = 5.51370 6.66739 6.11780
#
# Compressibility (1/GPa) = 0.02633729
#
# Stress axis : x y z
#
# Youngs Moduli (GPa) = 128.75267 76.14508 62.06420
#
# Poissons Ratio (x) = 0.28787 0.17843
# Poissons Ratio (y) = 0.48675 -0.08180
# Poissons Ratio (z) = 0.37015 -0.10036
#
# Static dielectric constant tensor:
#      x y z
#    x 2.970860 0.000000 0.000000 
#    y 0.000000 3.787770 0.000000 
#    z 0.000000 0.000000 3.464370 
# 
# 
# High freq. dielectric constant tensor:
#      x y z
#    x 1.787260 0.000000 0.000000 
#    y 0.000000 1.794870 0.000000 
#    z 0.000000 0.000000 1.762600 
# 
# From -- ./inp_files/26356.got.cif
#   From: 2010.03.12/outbox.cif.g09.slc.cpg/sg53_14_cif.got.tgz:26356.got - 2010.04.16 14:36:59.
