data_PCOD8219053
_publ_section_title
;
Structure prediction by ZEFSAII (Michael W. Deem and Ramdas Pophale) SiO2 
 PCOD8219053
Probable space group: P M N A
;
_chemical_formula_sum "Si O2"
_cell_formula_units_Z 64
_cell_length_a 8.900809
_cell_length_b 13.291955
_cell_length_c 25.887850
_cell_angle_alpha 90.000000
_cell_angle_beta 90.000000
_cell_angle_gamma 90.000000
_cell_volume 3062.769599
_symmetry_space_group_name_H-M "P M N A"
_symmetry_group_IT_number 53
_symmetry_cell_setting 'orthorhombic'
loop_
_space_group_symop_operation_xyz
x,y,z
1/2-x,-y,1/2+z
x,-y,-z
1/2-x,y,1/2-z
-x,-y,-z
1/2+x,y,1/2-z
-x,y,z
1/2+x,-y,1/2+z
loop_
_atom_site_type_symbol
_atom_site_label
_atom_site_fract_x
_atom_site_fract_y
_atom_site_fract_z
Si Si1 0.821954 0.165477 0.092458
Si Si2 0.829521 0.369261 0.800819
Si Si3 0.830461 0.867914 0.199127
Si Si4 0.679476 0.236220 0.516734
Si Si5 0.820703 0.060781 0.908797
Si Si6 0.820545 0.717744 0.805561
Si Si7 0.324055 0.469110 0.141533
Si Si8 0.835380 0.449194 0.946493
O O1 0.763595 0.208630 0.147780
O O2 0.000000 0.166792 0.095126
O O3 0.764588 0.052381 0.081003
O O4 0.764651 0.230419 0.043186
O O5 0.750000 0.410745 0.750000
O O6 0.818981 0.250905 0.805260
O O7 0.732740 0.417353 0.846604
O O8 0.000000 0.407397 0.801020
O O9 0.750000 0.910034 0.250000
O O10 0.755015 0.911413 0.147573
O O11 0.000000 0.905689 0.203753
O O12 0.500000 0.237052 0.517131
O O13 0.740796 0.138592 0.548145
O O14 0.737924 0.338145 0.544356
O O15 0.000000 0.068118 0.908184
O O16 0.750000 0.749666 0.750000
O O17 0.763869 0.607327 0.821420
O O18 0.000000 0.718142 0.800196
O O19 0.500000 0.452481 0.148581
O O20 0.273111 0.469065 0.081906
O O21 0.000000 0.438255 0.918414
O O22 0.867788 0.500000 0.000000
#
# Coordination Sequence:
#
# PCOD8219053 Si02
#       8
#     8   8   8   8   8   8   8   8
#     4   9  18  32  53  80 109 142 182 232 284 335
#     4  10  19  33  52  76 107 141 177 217 266 323
#     4   9  18  31  49  75 109 146 181 223 274 331
#     4   9  16  29  52  82 114 147 184 230 284 336
#     4   9  16  28  49  79 111 142 182 231 282 333
#     4  11  23  40  59  81 111 147 189 233 282 339
#     4  12  24  37  55  80 109 142 181 225 276 330
#     4  10  20  35  56  82 114 151 188 225 270 327
#
# _framework density 20.896118999999999
#
# number of rings (size 3 to 8) (size 9 to 14) (size 15 to 20)
#    0.000    2.125    0.000    4.125    0.000    6.750 
#    0.000    0.000    0.000    0.750    0.000    0.000 
#    0.000    8.000    0.000    0.000    0.000    0.000 
#
# Total GULP energy -793078.309853 kJ/mol
# GULP energy per Si atom -12391.848591 kJ/mol
# Density = 2.084856 g / cm^3
# Si number density = 20.896119 Si / 1000 Ang^3
#
#
#
# Elastic Constant Matrix: (Units=GPa)
#
#
# Indices 1 2 3 4 5 6 
#
# 1 56.2858 18.2520 21.7379 0.0000 0.0000 0.0000
# 2 18.2520 80.0850 37.5301 0.0000 0.0000 0.0000
# 3 21.7379 37.5301 126.6090 0.0000 0.0000 0.0000
# 4 0.0000 0.0000 0.0000 -53.0523 0.0000 0.0000
# 5 0.0000 0.0000 0.0000 0.0000 25.0007 0.0000
# 6 0.0000 0.0000 0.0000 0.0000 0.0000 12.1503
#
#
#
# Elastic Compliance Matrix: (Units=1/GPa)
#
#
# Indices 1 2 3 4 5 6 
#
# 1 0.019790 -0.003389 -0.002393 0.000000 0.000000 0.000000
# 2 -0.003389 0.015081 -0.003889 0.000000 0.000000 0.000000
# 3 -0.002393 -0.003889 0.009462 0.000000 0.000000 0.000000
# 4 0.000000 0.000000 0.000000 -0.018849 0.000000 0.000000
# 5 0.000000 0.000000 0.000000 0.000000 0.039999 0.000000
# 6 0.000000 0.000000 0.000000 0.000000 0.000000 0.082302
#
#
# Mechanical properties :
#
#
# Convention : Reuss Voigt Hill
#
# Bulk Modulus (GPa) = 40.01324 46.44664 43.22994
# Shear Modulus (GPa) = 28.49704 9.18372 18.84038
#
# Velocity S-wave (km/s) = 3.69690 2.09869 3.00596
# Velocity P-wave (km/s) = 6.11662 5.30550 5.72544
#
# Compressibility (1/GPa) = 0.02499173
#
# Stress axis : x y z
#
# Youngs Moduli (GPa) = 50.53160 66.30689 105.68654
#
# Poissons Ratio (x) = 0.22469 0.25293
# Poissons Ratio (y) = 0.17123 0.41098
# Poissons Ratio (z) = 0.12093 0.25785
#
# Static dielectric constant tensor:
#      x y z
#    x 3.542810 0.000000 0.000000 
#    y 0.000000 3.858110 0.000000 
#    z 0.000000 0.000000 1.491450 
# 
# 
# High freq. dielectric constant tensor:
#      x y z
#    x 1.760530 0.000000 0.000000 
#    y 0.000000 1.817090 0.000000 
#    z 0.000000 0.000000 1.839920 
# 
# From -- ./inp_files/34242.got.cif
#   From: 2010.03.12/outbox.cif.g09.slc.cpg/sg53_18_cif.got.tgz:34242.got - 2010.04.16 14:36:59.
