data_PCOD8219234
_publ_section_title
;
Structure prediction by ZEFSAII (Michael W. Deem and Ramdas Pophale) SiO2 
 PCOD8219234
Probable space group: P M N A
;
_chemical_formula_sum "Si O2"
_cell_formula_units_Z 64
_cell_length_a 9.154143
_cell_length_b 20.480511
_cell_length_c 19.823110
_cell_angle_alpha 90.000000
_cell_angle_beta 90.000000
_cell_angle_gamma 90.000000
_cell_volume 3716.466921
_symmetry_space_group_name_H-M "P M N A"
_symmetry_group_IT_number 53
_symmetry_cell_setting 'orthorhombic'
loop_
_space_group_symop_operation_xyz
x,y,z
1/2-x,-y,1/2+z
x,-y,-z
1/2-x,y,1/2-z
-x,-y,-z
1/2+x,y,1/2-z
-x,y,z
1/2+x,-y,1/2+z
loop_
_atom_site_type_symbol
_atom_site_label
_atom_site_fract_x
_atom_site_fract_y
_atom_site_fract_z
Si Si1 0.670832 0.933243 0.037830
Si Si2 0.168547 0.977476 0.315714
Si Si3 0.331199 0.478372 0.684601
Si Si4 0.328367 0.827643 0.549128
Si Si5 0.330906 0.368969 0.315550
Si Si6 0.327359 0.870993 0.817930
Si Si7 0.170723 0.680756 0.955449
Si Si8 0.325626 0.437847 0.541304
O O1 0.500000 0.917371 0.027367
O O2 0.712533 0.938544 0.116744
O O3 0.767595 0.875793 0.007515
O O4 0.710852 0.000000 0.000000
O O5 0.250000 0.948950 0.250000
O O6 0.000000 0.968930 0.299967
O O7 0.207999 0.052816 0.327889
O O8 0.250000 0.450292 0.750000
O O9 0.500000 0.464025 0.695777
O O10 0.300493 0.554702 0.674383
O O11 0.270354 0.441512 0.618425
O O12 0.500000 0.840576 0.560964
O O13 0.243205 0.834219 0.619192
O O14 0.298469 0.754658 0.521528
O O15 0.250000 0.341089 0.250000
O O16 0.500000 0.353518 0.305208
O O17 0.264781 0.332177 0.380782
O O18 0.250000 0.845097 0.750000
O O19 0.500000 0.857311 0.814731
O O20 0.000000 0.665739 0.950344
O O21 0.237028 0.629357 0.009236
O O22 0.264605 0.500000 0.500000
O O23 0.500000 0.440146 0.540561
#
# Coordination Sequence:
#
# PCOD8219234 Si02
#       8
#     8   8   8   8   8   8   8   8
#     4  10  19  36  56  74  99 134 171 209 254 302
#     4   9  18  32  53  77 100 126 160 206 254 296
#     4   9  16  26  47  74  96 121 157 201 247 289
#     4  11  22  33  48  75 106 137 169 211 257 301
#     4   9  16  28  45  67  96 128 160 198 238 286
#     4  10  19  34  52  73 102 137 173 209 248 299
#     4   9  18  31  46  69 101 129 165 210 245 284
#     4   9  14  26  50  74  92 123 169 208 241 283
#
# _framework density 17.220656999999999
#
# number of rings (size 3 to 8) (size 9 to 14) (size 15 to 20)
#    0.000    2.500    2.500    0.750    0.000    1.750 
#    0.000    2.500    0.000    3.375    0.000    3.500 
#    0.000    0.000    0.000    0.000    0.000    0.000 
#
# Total GULP energy -793477.245804 kJ/mol
# GULP energy per Si atom -12398.081966 kJ/mol
# Density = 1.718146 g / cm^3
# Si number density = 17.220657 Si / 1000 Ang^3
#
#
#
# Elastic Constant Matrix: (Units=GPa)
#
#
# Indices 1 2 3 4 5 6 
#
# 1 52.6640 37.2656 44.6829 0.0000 0.0000 0.0000
# 2 37.2656 85.2458 64.0853 0.0000 0.0000 0.0000
# 3 44.6829 64.0853 144.6314 0.0000 0.0000 0.0000
# 4 0.0000 0.0000 0.0000 22.2226 0.0000 0.0000
# 5 0.0000 0.0000 0.0000 0.0000 31.1740 0.0000
# 6 0.0000 0.0000 0.0000 0.0000 0.0000 13.2228
#
#
#
# Elastic Compliance Matrix: (Units=1/GPa)
#
#
# Indices 1 2 3 4 5 6 
#
# 1 0.029857 -0.009173 -0.005159 0.000000 0.000000 0.000000
# 2 -0.009173 0.020409 -0.006209 0.000000 0.000000 0.000000
# 3 -0.005159 -0.006209 0.011259 0.000000 0.000000 0.000000
# 4 0.000000 0.000000 0.000000 0.044999 0.000000 0.000000
# 5 0.000000 0.000000 0.000000 0.000000 0.032078 0.000000
# 6 0.000000 0.000000 0.000000 0.000000 0.000000 0.075627
#
#
# Mechanical properties :
#
#
# Convention : Reuss Voigt Hill
#
# Bulk Modulus (GPa) = 48.92031 63.84542 56.38287
# Shear Modulus (GPa) = 19.07478 22.42438 20.74958
#
# Velocity S-wave (km/s) = 3.33178 3.61249 3.47497
# Velocity P-wave (km/s) = 6.57804 7.38617 6.99378
#
# Compressibility (1/GPa) = 0.02044141
#
# Stress axis : x y z
#
# Youngs Moduli (GPa) = 33.49293 48.99881 88.81608
#
# Poissons Ratio (x) = 0.44949 0.45824
# Poissons Ratio (y) = 0.30725 0.55145
# Poissons Ratio (z) = 0.17280 0.30423
#
# Static dielectric constant tensor:
#      x y z
#    x 3.008150 0.000000 0.000000 
#    y 0.000000 3.062350 0.000000 
#    z 0.000000 0.000000 3.491450 
# 
# 
# High freq. dielectric constant tensor:
#      x y z
#    x 1.640560 0.000000 0.000000 
#    y 0.000000 1.639740 0.000000 
#    z 0.000000 0.000000 1.675040 
# 
# From -- ./inp_files/31137.got.cif
#   From: 2010.03.12/outbox.cif.g09.slc.cpg/sg53_16_cif.got.tgz:31137.got - 2010.04.16 14:36:59.
