data_PCOD8219572
_publ_section_title
;
Structure prediction by ZEFSAII (Michael W. Deem and Ramdas Pophale) SiO2 
 PCOD8219572
Probable space group: P M N A
;
_chemical_formula_sum "Si O2"
_cell_formula_units_Z 56
_cell_length_a 8.807813
_cell_length_b 16.120063
_cell_length_c 19.534265
_cell_angle_alpha 90.000000
_cell_angle_beta 90.000000
_cell_angle_gamma 90.000000
_cell_volume 2773.523789
_symmetry_space_group_name_H-M "P M N A"
_symmetry_group_IT_number 53
_symmetry_cell_setting 'orthorhombic'
loop_
_space_group_symop_operation_xyz
x,y,z
1/2-x,-y,1/2+z
x,-y,-z
1/2-x,y,1/2-z
-x,-y,-z
1/2+x,y,1/2-z
-x,y,z
1/2+x,-y,1/2+z
loop_
_atom_site_type_symbol
_atom_site_label
_atom_site_fract_x
_atom_site_fract_y
_atom_site_fract_z
Si Si1 0.824874 0.317975 0.566620
Si Si2 0.676139 0.077383 0.044395
Si Si3 0.318758 0.354295 0.174095
Si Si4 0.674274 0.500908 0.923987
Si Si5 0.673616 0.991582 0.183179
Si Si6 0.678987 0.250184 0.439025
Si Si7 0.320133 0.806403 0.179774
O O1 0.808264 0.407122 0.603919
O O2 0.729638 0.316873 0.496162
O O3 0.757925 0.249646 0.618145
O O4 0.000000 0.300135 0.547653
O O5 0.500000 0.092938 0.025373
O O6 0.769282 0.160770 0.031527
O O7 0.701246 0.055764 0.123186
O O8 0.738555 0.000000 0.000000
O O9 0.250000 0.356148 0.250000
O O10 0.500000 0.351808 0.180254
O O11 0.256297 0.434733 0.131389
O O12 0.260101 0.272980 0.132951
O O13 0.500000 0.528305 0.933131
O O14 0.750451 0.500000 0.000000
O O15 0.750000 0.030528 0.250000
O O16 0.500000 0.979503 0.200916
O O17 0.738208 0.900098 0.165273
O O18 0.500000 0.251448 0.427979
O O19 0.250000 0.772627 0.250000
O O20 0.500000 0.798854 0.183911
#
# Coordination Sequence:
#
# PCOD8219572 Si02
#       7
#     8   8   8   8   8   8   8
#     4  10  19  36  61  85 114 156 200 239 289 356
#     4  10  21  39  62  85 112 150 199 248 296 355
#     4  11  23  42  65  90 123 160 204 252 303 363
#     4   9  17  34  62  89 112 150 198 242 291 350
#     4   9  18  33  53  77 105 142 184 226 278 340
#     4  12  25  39  58  88 121 156 197 247 305 357
#     4   9  18  32  53  81 114 149 186 231 285 344
#
# _framework density 20.190919999999998
#
# number of rings (size 3 to 8) (size 9 to 14) (size 15 to 20)
#    0.000    2.000    1.429    2.571    0.000    4.857 
#    0.000    6.429    0.000    0.000    0.000    0.000 
#    0.000    0.000    0.000    0.000    0.000    0.000 
#
# Total GULP energy -694283.077600 kJ/mol
# GULP energy per Si atom -12397.912100 kJ/mol
# Density = 2.014496 g / cm^3
# Si number density = 20.190920 Si / 1000 Ang^3
#
#
#
# Elastic Constant Matrix: (Units=GPa)
#
#
# Indices 1 2 3 4 5 6 
#
# 1 63.6642 30.1767 39.0105 0.0000 0.0000 0.0000
# 2 30.1767 89.3437 33.7227 0.0000 0.0000 0.0000
# 3 39.0105 33.7227 101.4462 0.0000 0.0000 0.0000
# 4 0.0000 0.0000 0.0000 66.1983 0.0000 0.0000
# 5 0.0000 0.0000 0.0000 0.0000 33.4816 0.0000
# 6 0.0000 0.0000 0.0000 0.0000 0.0000 12.8329
#
#
#
# Elastic Compliance Matrix: (Units=1/GPa)
#
#
# Indices 1 2 3 4 5 6 
#
# 1 0.022285 -0.004908 -0.006938 0.000000 0.000000 0.000000
# 2 -0.004908 0.013880 -0.002726 0.000000 0.000000 0.000000
# 3 -0.006938 -0.002726 0.013432 0.000000 0.000000 0.000000
# 4 0.000000 0.000000 0.000000 0.015106 0.000000 0.000000
# 5 0.000000 0.000000 0.000000 0.000000 0.029867 0.000000
# 6 0.000000 0.000000 0.000000 0.000000 0.000000 0.077924
#
#
# Mechanical properties :
#
#
# Convention : Reuss Voigt Hill
#
# Bulk Modulus (GPa) = 48.89706 51.14155 50.01930
# Shear Modulus (GPa) = 23.98577 32.60550 28.29564
#
# Velocity S-wave (km/s) = 3.45040 4.02289 3.74759
# Velocity P-wave (km/s) = 6.33590 6.85290 6.59946
#
# Compressibility (1/GPa) = 0.02045113
#
# Stress axis : x y z
#
# Youngs Moduli (GPa) = 44.87276 72.04797 74.45058
#
# Poissons Ratio (x) = 0.35363 0.51654
# Poissons Ratio (y) = 0.22025 0.20298
# Poissons Ratio (z) = 0.31133 0.19643
#
# Static dielectric constant tensor:
#      x y z
#    x 3.373960 0.000000 0.000000 
#    y 0.000000 3.788210 0.000000 
#    z 0.000000 0.000000 3.708470 
# 
# 
# High freq. dielectric constant tensor:
#      x y z
#    x 1.754500 0.000000 0.000000 
#    y 0.000000 1.795580 0.000000 
#    z 0.000000 0.000000 1.791200 
# 
# From -- ./inp_files/30768.got.cif
#   From: 2010.03.12/outbox.cif.g09.slc.cpg/sg53_16_cif.got.tgz:30768.got - 2010.04.16 14:36:59.
