data_PCOD8219022
_publ_section_title
;
Structure prediction by ZEFSAII (Michael W. Deem and Ramdas Pophale) SiO2 
 PCOD8219022
Probable space group: P M N A
;
_chemical_formula_sum "Si O2"
_cell_formula_units_Z 64
_cell_length_a 9.444177
_cell_length_b 14.294436
_cell_length_c 29.732716
_cell_angle_alpha 90.000000
_cell_angle_beta 90.000000
_cell_angle_gamma 90.000000
_cell_volume 4013.892389
_symmetry_space_group_name_H-M "P M N A"
_symmetry_group_IT_number 53
_symmetry_cell_setting 'orthorhombic'
loop_
_space_group_symop_operation_xyz
x,y,z
1/2-x,-y,1/2+z
x,-y,-z
1/2-x,y,1/2-z
-x,-y,-z
1/2+x,y,1/2-z
-x,y,z
1/2+x,-y,1/2+z
loop_
_atom_site_type_symbol
_atom_site_label
_atom_site_fract_x
_atom_site_fract_y
_atom_site_fract_z
Si Si1 0.660653 0.643135 0.291251
Si Si2 0.661368 0.067454 0.460613
Si Si3 0.161140 0.917673 0.110651
Si Si4 0.160539 0.754371 0.423537
Si Si5 0.342627 0.752017 0.971819
Si Si6 0.333965 0.544135 0.952358
Si Si7 0.836585 0.857117 0.207573
Si Si8 0.664655 0.415138 0.611964
O O1 0.750000 0.601678 0.250000
O O2 0.500000 0.644042 0.274897
O O3 0.707611 0.749753 0.302973
O O4 0.680119 0.575435 0.334133
O O5 0.500000 0.090146 0.473439
O O6 0.739852 0.165665 0.457081
O O7 0.724372 0.000000 0.500000
O O8 0.673723 0.020097 0.411466
O O9 0.273281 0.855920 0.083652
O O10 0.199627 0.919429 0.163573
O O11 0.000000 0.878966 0.104679
O O12 0.159843 0.731094 0.475659
O O13 0.262306 0.682042 0.399531
O O14 0.000000 0.749909 0.404324
O O15 0.500000 0.781390 0.956577
O O16 0.298555 0.654046 0.949203
O O17 0.500000 0.523382 0.944624
O O18 0.243849 0.499861 0.912138
O O19 0.286183 0.500000 0.000000
O O20 0.750000 0.897011 0.250000
O O21 0.000000 0.865447 0.220354
O O22 0.500000 0.412664 0.597566
#
# Coordination Sequence:
#
# PCOD8219022 Si02
#       8
#     8   8   8   8   8   8   8   8
#     4   9  18  31  47  69  98 128 158 196 239 289
#     4  10  20  32  50  72  96 128 164 199 240 289
#     4  10  19  33  48  69  99 131 162 200 241 281
#     4  11  20  30  47  70  97 133 168 200 236 283
#     4  10  21  35  49  67  98 132 164 205 240 275
#     4  10  20  36  51  69  98 131 167 203 243 289
#     4   9  17  30  46  66  96 127 157 195 238 284
#     4  11  21  33  49  73 100 130 166 204 243 286
#
# _framework density 15.944623
#
# number of rings (size 3 to 8) (size 9 to 14) (size 15 to 20)
#    0.000    2.000    3.750    0.750    0.000    3.500 
#    0.000    0.000    0.000    0.000    0.000    0.875 
#    0.000    2.000    0.000    0.000    0.000    0.000 
#
# Total GULP energy -793513.412630 kJ/mol
# GULP energy per Si atom -12398.647072 kJ/mol
# Density = 1.590833 g / cm^3
# Si number density = 15.944623 Si / 1000 Ang^3
#
#
#
# Elastic Constant Matrix: (Units=GPa)
#
#
# Indices 1 2 3 4 5 6 
#
# 1 82.3951 48.5029 44.5592 0.0000 0.0000 0.0000
# 2 48.5029 73.9776 35.0598 0.0000 0.0000 0.0000
# 3 44.5592 35.0598 91.6772 0.0000 0.0000 0.0000
# 4 0.0000 0.0000 0.0000 22.8711 0.0000 0.0000
# 5 0.0000 0.0000 0.0000 0.0000 27.2088 0.0000
# 6 0.0000 0.0000 0.0000 0.0000 0.0000 27.5535
#
#
#
# Elastic Compliance Matrix: (Units=1/GPa)
#
#
# Indices 1 2 3 4 5 6 
#
# 1 0.022525 -0.011701 -0.006474 0.000000 0.000000 0.000000
# 2 -0.011701 0.022588 -0.002951 0.000000 0.000000 0.000000
# 3 -0.006474 -0.002951 0.015183 0.000000 0.000000 0.000000
# 4 0.000000 0.000000 0.000000 0.043723 0.000000 0.000000
# 5 0.000000 0.000000 0.000000 0.000000 0.036753 0.000000
# 6 0.000000 0.000000 0.000000 0.000000 0.000000 0.036293
#
#
# Mechanical properties :
#
#
# Convention : Reuss Voigt Hill
#
# Bulk Modulus (GPa) = 55.41663 56.03264 55.72463
# Shear Modulus (GPa) = 22.18960 23.52186 22.85573
#
# Velocity S-wave (km/s) = 3.73455 3.84503 3.79019
# Velocity P-wave (km/s) = 7.30938 7.41152 7.36063
#
# Compressibility (1/GPa) = 0.01804512
#
# Stress axis : x y z
#
# Youngs Moduli (GPa) = 44.39451 44.27210 65.86338
#
# Poissons Ratio (x) = 0.51801 0.42638
# Poissons Ratio (y) = 0.51944 0.19437
# Poissons Ratio (z) = 0.28740 0.13065
#
# Static dielectric constant tensor:
#      x y z
#    x 3.117030 0.000000 0.000000 
#    y 0.000000 2.799670 0.000000 
#    z 0.000000 0.000000 3.028340 
# 
# 
# High freq. dielectric constant tensor:
#      x y z
#    x 1.620490 0.000000 0.000000 
#    y 0.000000 1.582060 0.000000 
#    z 0.000000 0.000000 1.602670 
# 
# From -- ./inp_files/38420.got.cif
#   From: 2010.03.12/outbox.cif.g09.slc.cpg/sg53_20_cif.got.tgz:38420.got - 2010.04.16 14:36:59.
