data_PCOD8219431
_publ_section_title
;
Structure prediction by ZEFSAII (Michael W. Deem and Ramdas Pophale) SiO2 
 PCOD8219431
Probable space group: P M N A
;
_chemical_formula_sum "Si O2"
_cell_formula_units_Z 24
_cell_length_a 13.526697
_cell_length_b 5.062018
_cell_length_c 13.187735
_cell_angle_alpha 90.000000
_cell_angle_beta 90.000000
_cell_angle_gamma 90.000000
_cell_volume 902.995651
_symmetry_space_group_name_H-M "P M N A"
_symmetry_group_IT_number 53
_symmetry_cell_setting 'orthorhombic'
loop_
_space_group_symop_operation_xyz
x,y,z
1/2-x,-y,1/2+z
x,-y,-z
1/2-x,y,1/2-z
-x,-y,-z
1/2+x,y,1/2-z
-x,y,z
1/2+x,-y,1/2+z
loop_
_atom_site_type_symbol
_atom_site_label
_atom_site_fract_x
_atom_site_fract_y
_atom_site_fract_z
Si Si1 0.386949 0.555229 0.678588
Si Si2 0.387075 0.700329 0.907803
Si Si3 0.219765 0.051301 0.863075
O O1 0.500000 0.473641 0.666255
O O2 0.359740 0.558068 0.799935
O O3 0.367494 0.834271 0.623325
O O4 0.321489 0.343152 0.614643
O O5 0.500000 0.805272 0.903492
O O6 0.315978 0.954936 0.926689
O O7 0.371189 0.500000 0.000000
O O8 0.250000 0.037618 0.750000
#
# Coordination Sequence:
#
# PCOD8219431 Si02
#       3
#     8   8   8
#     4  10  20  36  59  84 113 153 198 240 286 349
#     4   9  19  37  62  94 127 156 194 252 316 365
#     4  10  19  35  56  83 116 153 195 235 286 354
#
# _framework density 26.578196999999999
#
# number of rings (size 3 to 8) (size 9 to 14) (size 15 to 20)
#    0.000    2.333    0.000    4.000    0.000    1.333 
#    0.000   16.667    0.000   52.000    0.000    0.000 
#    0.000    0.000    0.000    0.000    0.000    0.000 
#
# Total GULP energy -297325.255646 kJ/mol
# GULP energy per Si atom -12388.552319 kJ/mol
# Density = 2.651770 g / cm^3
# Si number density = 26.578197 Si / 1000 Ang^3
#
#
#
# Elastic Constant Matrix: (Units=GPa)
#
#
# Indices 1 2 3 4 5 6 
#
# 1 114.9478 63.0792 3.0061 0.0000 0.0000 0.0000
# 2 63.0792 132.0693 7.0148 0.0000 0.0000 0.0000
# 3 3.0061 7.0148 56.4357 0.0000 0.0000 0.0000
# 4 0.0000 0.0000 0.0000 26.5118 0.0000 0.0000
# 5 0.0000 0.0000 0.0000 0.0000 -78.9644 0.0000
# 6 0.0000 0.0000 0.0000 0.0000 0.0000 -253.5194
#
#
#
# Elastic Compliance Matrix: (Units=1/GPa)
#
#
# Indices 1 2 3 4 5 6 
#
# 1 0.011790 -0.005635 0.000072 0.000000 0.000000 0.000000
# 2 -0.005635 0.010315 -0.000982 0.000000 0.000000 0.000000
# 3 0.000072 -0.000982 0.017837 0.000000 0.000000 0.000000
# 4 0.000000 0.000000 0.000000 0.037719 0.000000 0.000000
# 5 0.000000 0.000000 0.000000 0.000000 -0.012664 0.000000
# 6 0.000000 0.000000 0.000000 0.000000 0.000000 -0.003944
#
#
# Mechanical properties :
#
#
# Convention : Reuss Voigt Hill
#
# Bulk Modulus (GPa) = 37.23894 49.96144 43.60019
# Shear Modulus (GPa) = 60.17289 -45.83757 7.16766
#
# Velocity S-wave (km/s) = 4.76331 -4.15737 1.64398
# Velocity P-wave (km/s) = 6.65535 2.05092 4.47702
#
# Compressibility (1/GPa) = 0.02685361
#
# Stress axis : x y z
#
# Youngs Moduli (GPa) = 84.81767 96.94290 56.06170
#
# Poissons Ratio (x) = 0.54627 -0.00406
# Poissons Ratio (y) = 0.47795 0.05505
# Poissons Ratio (z) = -0.00614 0.09520
#
# Static dielectric constant tensor:
#      x y z
#    x 2.799170 0.000000 0.000000 
#    y 0.000000 10.622350 0.000000 
#    z 0.000000 0.000000 4.699560 
# 
# 
# High freq. dielectric constant tensor:
#      x y z
#    x 2.074280 0.000000 0.000000 
#    y 0.000000 2.062290 0.000000 
#    z 0.000000 0.000000 2.066420 
# 
# From -- ./inp_files/21982.got.cif
#   From: 2010.03.12/outbox.cif.g09.slc.cpg/sg53_11_cif.got.tgz:21982.got - 2010.04.16 14:36:59.
