data_PCOD8219345
_publ_section_title
;
Structure prediction by ZEFSAII (Michael W. Deem and Ramdas Pophale) SiO2 
 PCOD8219345
Probable space group: P M N A
;
_chemical_formula_sum "Si O2"
_cell_formula_units_Z 56
_cell_length_a 9.019870
_cell_length_b 17.516281
_cell_length_c 19.181919
_cell_angle_alpha 90.000000
_cell_angle_beta 90.000000
_cell_angle_gamma 90.000000
_cell_volume 3030.639188
_symmetry_space_group_name_H-M "P M N A"
_symmetry_group_IT_number 53
_symmetry_cell_setting 'orthorhombic'
loop_
_space_group_symop_operation_xyz
x,y,z
1/2-x,-y,1/2+z
x,-y,-z
1/2-x,y,1/2-z
-x,-y,-z
1/2+x,y,1/2-z
-x,y,z
1/2+x,-y,1/2+z
loop_
_atom_site_type_symbol
_atom_site_label
_atom_site_fract_x
_atom_site_fract_y
_atom_site_fract_z
Si Si1 0.674187 0.654163 0.069534
Si Si2 0.674778 0.074210 0.321010
Si Si3 0.328259 0.191955 0.551147
Si Si4 0.825269 0.478927 0.674888
Si Si5 0.674634 0.621864 0.913561
Si Si6 0.668626 0.963392 0.075459
Si Si7 0.669553 0.227088 0.391529
O O1 0.500000 0.672776 0.067366
O O2 0.764069 0.731156 0.085649
O O3 0.715043 0.596499 0.131309
O O4 0.724396 0.618360 0.994803
O O5 0.750000 0.049541 0.250000
O O6 0.500000 0.067608 0.314942
O O7 0.722536 0.160620 0.339670
O O8 0.728522 0.015949 0.378394
O O9 0.500000 0.182743 0.572016
O O10 0.234620 0.121255 0.579242
O O11 0.306282 0.195188 0.468673
O O12 0.750000 0.475706 0.750000
O O13 0.762724 0.549963 0.629617
O O14 0.000000 0.486169 0.686099
O O15 0.500000 0.621788 0.908872
O O16 0.732962 0.698480 0.876827
O O17 0.500000 0.960803 0.103305
O O18 0.674451 0.000000 0.000000
O O19 0.500000 0.250078 0.378947
#
# Coordination Sequence:
#
# PCOD8219345 Si02
#       7
#     8   8   8   8   8   8   8
#     4   9  18  35  57  80 107 140 184 233 277 325
#     4  11  23  39  56  79 115 154 189 229 281 336
#     4  10  19  34  57  85 112 140 180 229 283 331
#     4  10  21  36  54  78 109 145 183 226 278 333
#     4   9  18  33  56  81 106 140 184 229 272 323
#     4  11  22  36  59  87 113 145 189 233 276 331
#     4   9  19  34  53  79 111 144 177 222 277 331
#
# _framework density 18.477948999999999
#
# number of rings (size 3 to 8) (size 9 to 14) (size 15 to 20)
#    0.000    2.143    1.429    1.714    0.000    5.714 
#    0.000    3.571    0.000    6.000    0.000    0.000 
#    0.000    0.000    0.000    0.000    0.000    0.000 
#
# Total GULP energy -694469.811733 kJ/mol
# GULP energy per Si atom -12401.246638 kJ/mol
# Density = 1.843589 g / cm^3
# Si number density = 18.477949 Si / 1000 Ang^3
#
#
#
# Elastic Constant Matrix: (Units=GPa)
#
#
# Indices 1 2 3 4 5 6 
#
# 1 56.1828 57.3118 34.6466 0.0000 0.0000 0.0000
# 2 57.3118 122.1587 51.1234 0.0000 0.0000 0.0000
# 3 34.6466 51.1234 80.9632 0.0000 0.0000 0.0000
# 4 0.0000 0.0000 0.0000 116.0333 0.0000 0.0000
# 5 0.0000 0.0000 0.0000 0.0000 28.0142 0.0000
# 6 0.0000 0.0000 0.0000 0.0000 0.0000 39.6285
#
#
#
# Elastic Compliance Matrix: (Units=1/GPa)
#
#
# Indices 1 2 3 4 5 6 
#
# 1 0.036515 -0.014396 -0.006536 0.000000 0.000000 0.000000
# 2 -0.014396 0.016802 -0.004449 0.000000 0.000000 0.000000
# 3 -0.006536 -0.004449 0.017957 0.000000 0.000000 0.000000
# 4 0.000000 0.000000 0.000000 0.008618 0.000000 0.000000
# 5 0.000000 0.000000 0.000000 0.000000 0.035696 0.000000
# 6 0.000000 0.000000 0.000000 0.000000 0.000000 0.025234
#
#
# Mechanical properties :
#
#
# Convention : Reuss Voigt Hill
#
# Bulk Modulus (GPa) = 48.74971 60.60760 54.67865
# Shear Modulus (GPa) = 25.19888 44.48339 34.84113
#
# Velocity S-wave (km/s) = 3.69687 4.91183 4.34701
# Velocity P-wave (km/s) = 6.68299 8.06469 7.40613
#
# Compressibility (1/GPa) = 0.02051294
#
# Stress axis : x y z
#
# Youngs Moduli (GPa) = 27.38618 59.51670 55.68781
#
# Poissons Ratio (x) = 0.85681 0.36395
# Poissons Ratio (y) = 0.39425 0.24775
# Poissons Ratio (z) = 0.17898 0.26478
#
# Static dielectric constant tensor:
#      x y z
#    x 3.407300 0.000000 0.000000 
#    y 0.000000 3.542720 0.000000 
#    z 0.000000 0.000000 3.286810 
# 
# 
# High freq. dielectric constant tensor:
#      x y z
#    x 1.717020 0.000000 0.000000 
#    y 0.000000 1.727870 0.000000 
#    z 0.000000 0.000000 1.700540 
# 
# From -- ./inp_files/30884.got.cif
#   From: 2010.03.12/outbox.cif.g09.slc.cpg/sg53_16_cif.got.tgz:30884.got - 2010.04.16 14:36:59.
