data_PCOD8219456
_publ_section_title
;
Structure prediction by ZEFSAII (Michael W. Deem and Ramdas Pophale) SiO2 
 PCOD8219456
Probable space group: P M N A
;
_chemical_formula_sum "Si O2"
_cell_formula_units_Z 64
_cell_length_a 8.904383
_cell_length_b 21.511022
_cell_length_c 17.652208
_cell_angle_alpha 90.000000
_cell_angle_beta 90.000000
_cell_angle_gamma 90.000000
_cell_volume 3381.145908
_symmetry_space_group_name_H-M "P M N A"
_symmetry_group_IT_number 53
_symmetry_cell_setting 'orthorhombic'
loop_
_space_group_symop_operation_xyz
x,y,z
1/2-x,-y,1/2+z
x,-y,-z
1/2-x,y,1/2-z
-x,-y,-z
1/2+x,y,1/2-z
-x,y,z
1/2+x,-y,1/2+z
loop_
_atom_site_type_symbol
_atom_site_label
_atom_site_fract_x
_atom_site_fract_y
_atom_site_fract_z
Si Si1 0.173275 0.127903 0.085841
Si Si2 0.326887 0.317820 0.952450
Si Si3 0.177720 0.371359 0.174651
Si Si4 0.678503 0.101142 0.926660
Si Si5 0.323071 0.567822 0.519016
Si Si6 0.326992 0.997890 0.670077
Si Si7 0.677361 0.780106 0.168600
Si Si8 0.675125 0.253753 0.110320
O O1 0.189109 0.073794 0.147593
O O2 0.247023 0.187898 0.124580
O O3 0.000000 0.140628 0.065380
O O4 0.261926 0.109997 0.010752
O O5 0.500000 0.335892 0.946544
O O6 0.271233 0.280581 0.878622
O O7 0.237211 0.382109 0.958928
O O8 0.297951 0.272895 0.023481
O O9 0.250000 0.401531 0.250000
O O10 0.226709 0.414192 0.103981
O O11 0.246064 0.302835 0.165438
O O12 0.000000 0.367084 0.182475
O O13 0.500000 0.096633 0.930010
O O14 0.732589 0.158169 0.874264
O O15 0.746128 0.037959 0.894214
O O16 0.255910 0.500000 0.500000
O O17 0.500000 0.567546 0.510778
O O18 0.250000 0.010707 0.750000
O O19 0.500000 0.018335 0.675686
O O20 0.750000 0.776490 0.250000
O O21 0.500000 0.781260 0.177229
O O22 0.500000 0.249727 0.130570
#
# Coordination Sequence:
#
# PCOD8219456 Si02
#       8
#     8   8   8   8   8   8   8   8
#     4  11  23  38  58  84 114 146 189 236 283 343
#     4   9  18  35  55  79 112 143 181 227 271 330
#     4  10  20  35  56  84 116 151 190 232 283 336
#     4  11  22  39  61  83 110 146 189 236 287 341
#     4   9  19  36  58  84 113 148 191 233 274 327
#     4  11  25  42  57  79 110 146 187 236 287 342
#     4  10  21  36  54  82 113 143 182 229 279 333
#     4  10  19  35  58  82 111 145 183 231 283 334
#
# _framework density 18.928495000000002
#
# number of rings (size 3 to 8) (size 9 to 14) (size 15 to 20)
#    0.000    1.875    1.250    2.625    0.000    7.750 
#    0.000    1.875    0.000    3.000    0.000    0.000 
#    0.000    0.000    0.000    0.000    0.000    0.000 
#
# Total GULP energy -793853.611735 kJ/mol
# GULP energy per Si atom -12403.962683 kJ/mol
# Density = 1.888541 g / cm^3
# Si number density = 18.928495 Si / 1000 Ang^3
#
#
#
# Elastic Constant Matrix: (Units=GPa)
#
#
# Indices 1 2 3 4 5 6 
#
# 1 76.7726 39.7767 30.2139 0.0000 0.0000 0.0000
# 2 39.7767 112.8052 22.6693 0.0000 0.0000 0.0000
# 3 30.2139 22.6693 72.6420 0.0000 0.0000 0.0000
# 4 0.0000 0.0000 0.0000 20.0775 0.0000 0.0000
# 5 0.0000 0.0000 0.0000 0.0000 31.8784 0.0000
# 6 0.0000 0.0000 0.0000 0.0000 0.0000 29.3286
#
#
#
# Elastic Compliance Matrix: (Units=1/GPa)
#
#
# Indices 1 2 3 4 5 6 
#
# 1 0.018020 -0.005172 -0.005881 0.000000 0.000000 0.000000
# 2 -0.005172 0.010943 -0.001264 0.000000 0.000000 0.000000
# 3 -0.005881 -0.001264 0.016606 0.000000 0.000000 0.000000
# 4 0.000000 0.000000 0.000000 0.049807 0.000000 0.000000
# 5 0.000000 0.000000 0.000000 0.000000 0.031369 0.000000
# 6 0.000000 0.000000 0.000000 0.000000 0.000000 0.034096
#
#
# Mechanical properties :
#
#
# Convention : Reuss Voigt Hill
#
# Bulk Modulus (GPa) = 47.76567 49.72662 48.74615
# Shear Modulus (GPa) = 25.98040 27.56089 26.77065
#
# Velocity S-wave (km/s) = 3.70882 3.81997 3.76480
# Velocity P-wave (km/s) = 6.60530 6.76639 6.68633
#
# Compressibility (1/GPa) = 0.02093554
#
# Stress axis : x y z
#
# Youngs Moduli (GPa) = 55.49505 91.38637 60.21754
#
# Poissons Ratio (x) = 0.47267 0.35413
# Poissons Ratio (y) = 0.28703 0.07609
# Poissons Ratio (z) = 0.32636 0.11547
#
# Static dielectric constant tensor:
#      x y z
#    x 3.508890 0.000000 0.000000 
#    y 0.000000 3.629730 0.000000 
#    z 0.000000 0.000000 3.484160 
# 
# 
# High freq. dielectric constant tensor:
#      x y z
#    x 1.741830 0.000000 0.000000 
#    y 0.000000 1.734150 0.000000 
#    z 0.000000 0.000000 1.734180 
# 
# From -- ./inp_files/26922.got.cif
#   From: 2010.03.12/outbox.cif.g09.slc.cpg/sg53_14_cif.got.tgz:26922.got - 2010.04.16 14:36:59.
