data_PCOD8219000
_publ_section_title
;
Structure prediction by ZEFSAII (Michael W. Deem and Ramdas Pophale) SiO2 
 PCOD8219000
Probable space group: P M N A
;
_chemical_formula_sum "Si O2"
_cell_formula_units_Z 48
_cell_length_a 9.149736
_cell_length_b 14.450367
_cell_length_c 20.341982
_cell_angle_alpha 90.000000
_cell_angle_beta 90.000000
_cell_angle_gamma 90.000000
_cell_volume 2689.556712
_symmetry_space_group_name_H-M "P M N A"
_symmetry_group_IT_number 53
_symmetry_cell_setting 'orthorhombic'
loop_
_space_group_symop_operation_xyz
x,y,z
1/2-x,-y,1/2+z
x,-y,-z
1/2-x,y,1/2-z
-x,-y,-z
1/2+x,y,1/2-z
-x,y,z
1/2+x,-y,1/2+z
loop_
_atom_site_type_symbol
_atom_site_label
_atom_site_fract_x
_atom_site_fract_y
_atom_site_fract_z
Si Si1 0.171461 0.940514 0.182364
Si Si2 0.671936 0.565912 0.184696
Si Si3 0.326201 0.058860 0.439330
Si Si4 0.829069 0.440258 0.438672
Si Si5 0.670773 0.739572 0.371973
Si Si6 0.171864 0.260697 0.024311
O O1 0.250000 0.963437 0.250000
O O2 0.212412 0.839101 0.156601
O O3 0.000000 0.949740 0.193585
O O4 0.228061 0.015004 0.129036
O O5 0.750000 0.528022 0.250000
O O6 0.500000 0.574843 0.196473
O O7 0.710014 0.493921 0.127588
O O8 0.733815 0.666492 0.167688
O O9 0.500000 0.054557 0.443784
O O10 0.272004 0.164467 0.444600
O O11 0.260644 0.000000 0.500000
O O12 0.769490 0.500000 0.500000
O O13 0.749491 0.342163 0.435967
O O14 0.000000 0.422121 0.446710
O O15 0.500000 0.717338 0.362569
O O16 0.715952 0.736219 0.448027
O O17 0.000000 0.271969 0.033144
#
# Coordination Sequence:
#
# PCOD8219000 Si02
#       6
#     8   8   8   8   8   8
#     4  10  20  34  53  78 111 145 177 216 266 320
#     4  11  23  38  56  78 109 146 179 218 269 324
#     4   9  16  32  56  79 105 139 179 221 262 306
#     4  10  21  38  56  77 109 145 176 216 275 324
#     4  10  19  32  54  84 112 139 174 221 271 319
#     4  10  19  32  57  87 107 134 183 229 261 308
#
# _framework density 17.846806000000001
#
# number of rings (size 3 to 8) (size 9 to 14) (size 15 to 20)
#    0.000    2.000    3.333    1.000    0.000    3.667 
#    0.000    1.667    0.000    5.000    0.000    0.000 
#    0.000    0.000    0.000    0.000    0.000    0.000 
#
# Total GULP energy -595342.005925 kJ/mol
# GULP energy per Si atom -12402.958457 kJ/mol
# Density = 1.780619 g / cm^3
# Si number density = 17.846806 Si / 1000 Ang^3
#
#
#
# Elastic Constant Matrix: (Units=GPa)
#
#
# Indices 1 2 3 4 5 6 
#
# 1 41.1225 43.4061 49.3200 0.0000 0.0000 0.0000
# 2 43.4061 142.9108 77.7720 0.0000 0.0000 0.0000
# 3 49.3200 77.7720 144.0023 0.0000 0.0000 0.0000
# 4 0.0000 0.0000 0.0000 28.8894 0.0000 0.0000
# 5 0.0000 0.0000 0.0000 0.0000 27.9729 0.0000
# 6 0.0000 0.0000 0.0000 0.0000 0.0000 16.6886
#
#
#
# Elastic Compliance Matrix: (Units=1/GPa)
#
#
# Indices 1 2 3 4 5 6 
#
# 1 0.046634 -0.007750 -0.011786 0.000000 0.000000 0.000000
# 2 -0.007750 0.011198 -0.003393 0.000000 0.000000 0.000000
# 3 -0.011786 -0.003393 0.012814 0.000000 0.000000 0.000000
# 4 0.000000 0.000000 0.000000 0.034615 0.000000 0.000000
# 5 0.000000 0.000000 0.000000 0.000000 0.035749 0.000000
# 6 0.000000 0.000000 0.000000 0.000000 0.000000 0.059921
#
#
# Mechanical properties :
#
#
# Convention : Reuss Voigt Hill
#
# Bulk Modulus (GPa) = 40.34508 74.33688 57.34098
# Shear Modulus (GPa) = 19.60390 25.21267 22.40828
#
# Velocity S-wave (km/s) = 3.31789 3.76270 3.54728
# Velocity P-wave (km/s) = 6.11009 7.78591 6.99835
#
# Compressibility (1/GPa) = 0.02478617
#
# Stress axis : x y z
#
# Youngs Moduli (GPa) = 21.44378 89.30220 78.04110
#
# Poissons Ratio (x) = 0.69208 0.91981
# Poissons Ratio (y) = 0.16619 0.26483
# Poissons Ratio (z) = 0.25274 0.30304
#
# Static dielectric constant tensor:
#      x y z
#    x 3.059620 0.000000 0.000000 
#    y 0.000000 3.369560 0.000000 
#    z 0.000000 0.000000 3.406900 
# 
# 
# High freq. dielectric constant tensor:
#      x y z
#    x 1.668880 0.000000 0.000000 
#    y 0.000000 1.694260 0.000000 
#    z 0.000000 0.000000 1.695310 
# 
# From -- ./inp_files/26190.got.cif
#   From: 2010.03.12/outbox.cif.g09.slc.cpg/sg53_14_cif.got.tgz:26190.got - 2010.04.16 14:36:59.
