data_PCOD8219080
_publ_section_title
;
Structure prediction by ZEFSAII (Michael W. Deem and Ramdas Pophale) SiO2 
 PCOD8219080
Probable space group: P M N A
;
_chemical_formula_sum "Si O2"
_cell_formula_units_Z 64
_cell_length_a 8.965731
_cell_length_b 19.573378
_cell_length_c 20.631171
_cell_angle_alpha 90.000000
_cell_angle_beta 90.000000
_cell_angle_gamma 90.000000
_cell_volume 3620.556811
_symmetry_space_group_name_H-M "P M N A"
_symmetry_group_IT_number 53
_symmetry_cell_setting 'orthorhombic'
loop_
_space_group_symop_operation_xyz
x,y,z
1/2-x,-y,1/2+z
x,-y,-z
1/2-x,y,1/2-z
-x,-y,-z
1/2+x,y,1/2-z
-x,y,z
1/2+x,-y,1/2+z
loop_
_atom_site_type_symbol
_atom_site_label
_atom_site_fract_x
_atom_site_fract_y
_atom_site_fract_z
Si Si1 0.673516 0.180090 0.129464
Si Si2 0.176578 0.035706 0.316900
Si Si3 0.672332 0.315538 0.368170
Si Si4 0.176959 0.541655 0.060800
Si Si5 0.823726 0.041356 0.935593
Si Si6 0.323990 0.174499 0.981337
Si Si7 0.673235 0.688361 0.481010
Si Si8 0.822685 0.459091 0.183797
O O1 0.500000 0.194303 0.129675
O O2 0.718016 0.115104 0.172434
O O3 0.749354 0.247487 0.159086
O O4 0.727177 0.166587 0.055966
O O5 0.250000 0.011147 0.250000
O O6 0.000000 0.024262 0.314866
O O7 0.244167 0.991978 0.374571
O O8 0.500000 0.305595 0.354235
O O9 0.705006 0.326473 0.443797
O O10 0.733164 0.382119 0.331045
O O11 0.224184 0.621074 0.058129
O O12 0.236489 0.509262 0.127462
O O13 0.000000 0.535261 0.057193
O O14 0.245560 0.500000 0.000000
O O15 0.763344 0.118130 0.940297
O O16 0.000000 0.041567 0.924636
O O17 0.778355 0.000000 0.000000
O O18 0.500000 0.164989 0.972007
O O19 0.272943 0.248742 0.955643
O O20 0.500000 0.705799 0.469442
O O21 0.750000 0.485060 0.250000
O O22 0.000000 0.461835 0.188798
#
# Coordination Sequence:
#
# PCOD8219080 Si02
#       8
#     8   8   8   8   8   8   8   8
#     4   9  19  33  50  73 106 144 178 212 258 314
#     4  11  23  39  56  78 110 147 184 222 269 321
#     4   9  17  29  48  72 100 134 175 216 256 304
#     4   9  15  29  54  77  98 130 176 221 260 305
#     4  11  22  36  58  85 109 139 182 227 268 317
#     4  10  19  33  53  79 111 142 172 214 271 324
#     4   9  16  29  52  79 101 127 172 226 266 305
#     4  10  20  33  49  73 103 138 174 213 262 314
#
# _framework density 17.676839000000001
#
# number of rings (size 3 to 8) (size 9 to 14) (size 15 to 20)
#    0.000    2.250    2.500    1.125    0.000    3.000 
#    0.000    3.125    0.000    1.500    0.000    3.500 
#    0.000    0.000    0.000    0.000    0.000    0.000 
#
# Total GULP energy -793665.951915 kJ/mol
# GULP energy per Si atom -12401.030499 kJ/mol
# Density = 1.763661 g / cm^3
# Si number density = 17.676839 Si / 1000 Ang^3
#
#
#
# Elastic Constant Matrix: (Units=GPa)
#
#
# Indices 1 2 3 4 5 6 
#
# 1 49.4778 43.7062 39.1446 0.0000 0.0000 0.0000
# 2 43.7062 114.4892 65.0140 0.0000 0.0000 0.0000
# 3 39.1446 65.0140 110.7687 0.0000 0.0000 0.0000
# 4 0.0000 0.0000 0.0000 22.1724 0.0000 0.0000
# 5 0.0000 0.0000 0.0000 0.0000 25.1030 0.0000
# 6 0.0000 0.0000 0.0000 0.0000 0.0000 25.3322
#
#
#
# Elastic Compliance Matrix: (Units=1/GPa)
#
#
# Indices 1 2 3 4 5 6 
#
# 1 0.033318 -0.009049 -0.006463 0.000000 0.000000 0.000000
# 2 -0.009049 0.015559 -0.005934 0.000000 0.000000 0.000000
# 3 -0.006463 -0.005934 0.014795 0.000000 0.000000 0.000000
# 4 0.000000 0.000000 0.000000 0.045101 0.000000 0.000000
# 5 0.000000 0.000000 0.000000 0.000000 0.039836 0.000000
# 6 0.000000 0.000000 0.000000 0.000000 0.000000 0.039476
#
#
# Mechanical properties :
#
#
# Convention : Reuss Voigt Hill
#
# Bulk Modulus (GPa) = 48.12562 63.38506 55.75534
# Shear Modulus (GPa) = 21.01706 22.97956 21.99831
#
# Velocity S-wave (km/s) = 3.45187 3.60944 3.53153
# Velocity P-wave (km/s) = 6.57051 7.30111 6.94542
#
# Compressibility (1/GPa) = 0.02077895
#
# Stress axis : x y z
#
# Youngs Moduli (GPa) = 30.01404 64.27308 67.59162
#
# Poissons Ratio (x) = 0.58160 0.43685
# Poissons Ratio (y) = 0.27159 0.40109
# Poissons Ratio (z) = 0.19398 0.38140
#
# Static dielectric constant tensor:
#      x y z
#    x 3.111160 0.000000 0.000000 
#    y 0.000000 3.452570 0.000000 
#    z 0.000000 0.000000 3.149670 
# 
# 
# High freq. dielectric constant tensor:
#      x y z
#    x 1.671360 0.000000 0.000000 
#    y 0.000000 1.689410 0.000000 
#    z 0.000000 0.000000 1.660710 
# 
# From -- ./inp_files/31321.got.cif
#   From: 2010.03.12/outbox.cif.g09.slc.cpg/sg53_16_cif.got.tgz:31321.got - 2010.04.16 14:36:59.
