data_PCOD8219050
_publ_section_title
;
Structure prediction by ZEFSAII (Michael W. Deem and Ramdas Pophale) SiO2 
 PCOD8219050
Probable space group: P M N A
;
_chemical_formula_sum "Si O2"
_cell_formula_units_Z 64
_cell_length_a 8.962620
_cell_length_b 21.776508
_cell_length_c 18.645445
_cell_angle_alpha 90.000000
_cell_angle_beta 90.000000
_cell_angle_gamma 90.000000
_cell_volume 3639.116638
_symmetry_space_group_name_H-M "P M N A"
_symmetry_group_IT_number 53
_symmetry_cell_setting 'orthorhombic'
loop_
_space_group_symop_operation_xyz
x,y,z
1/2-x,-y,1/2+z
x,-y,-z
1/2-x,y,1/2-z
-x,-y,-z
1/2+x,y,1/2-z
-x,y,z
1/2+x,-y,1/2+z
loop_
_atom_site_type_symbol
_atom_site_label
_atom_site_fract_x
_atom_site_fract_y
_atom_site_fract_z
Si Si1 0.674291 0.001636 0.322211
Si Si2 0.668164 0.406281 0.539470
Si Si3 0.175879 0.861169 0.176149
Si Si4 0.179549 0.356877 0.175919
Si Si5 0.326389 0.696101 0.963014
Si Si6 0.331096 0.058771 0.049526
Si Si7 0.834475 0.476689 0.109328
Si Si8 0.673552 0.176439 0.962884
O O1 0.750000 0.024869 0.250000
O O2 0.500000 0.006185 0.311865
O O3 0.724841 0.048349 0.383251
O O4 0.723096 0.931693 0.339582
O O5 0.500000 0.386027 0.562041
O O6 0.773308 0.347412 0.528952
O O7 0.739765 0.455473 0.597481
O O8 0.658395 0.441013 0.464888
O O9 0.250000 0.838328 0.250000
O O10 0.235890 0.819299 0.111343
O O11 0.000000 0.853187 0.183026
O O12 0.250000 0.332309 0.250000
O O13 0.236374 0.314639 0.110589
O O14 0.238809 0.427881 0.164798
O O15 0.000000 0.353672 0.177867
O O16 0.500000 0.683857 0.948407
O O17 0.294011 0.764870 0.988157
O O18 0.500000 0.069974 0.076160
O O19 0.269810 0.117661 0.007265
O O20 0.321668 0.000000 0.000000
O O21 0.000000 0.491227 0.136603
O O22 0.500000 0.170143 0.943297
#
# Coordination Sequence:
#
# PCOD8219050 Si02
#       8
#     8   8   8   8   8   8   8   8
#     4  10  20  33  51  76 104 131 161 203 255 315
#     4   8  13  26  47  69  94 124 159 197 241 291
#     4  10  20  33  53  78 103 128 159 201 253 311
#     4  10  19  33  52  74 102 136 176 218 260 303
#     4  10  20  33  49  73 104 137 175 216 258 304
#     4  10  19  33  54  75  99 132 169 212 265 313
#     4   7  12  24  45  70  94 122 156 197 243 290
#     4  10  21  36  53  75 104 137 174 216 258 308
#
# _framework density 17.586686
#
# number of rings (size 3 to 8) (size 9 to 14) (size 15 to 20)
#    0.000    2.625    1.250    3.000    0.000    2.750 
#    0.000    6.250    0.000    0.750    0.000    3.500 
#    0.000    0.000    0.000    0.000    0.000    0.000 
#
# Total GULP energy -793075.447979 kJ/mol
# GULP energy per Si atom -12391.803875 kJ/mol
# Density = 1.754666 g / cm^3
# Si number density = 17.586686 Si / 1000 Ang^3
#
#
#
# Elastic Constant Matrix: (Units=GPa)
#
#
# Indices 1 2 3 4 5 6 
#
# 1 74.1329 35.5596 48.0642 0.0000 0.0000 0.0000
# 2 35.5596 91.7556 41.0115 0.0000 0.0000 0.0000
# 3 48.0642 41.0115 99.5376 0.0000 0.0000 0.0000
# 4 0.0000 0.0000 0.0000 19.1226 0.0000 0.0000
# 5 0.0000 0.0000 0.0000 0.0000 23.0987 0.0000
# 6 0.0000 0.0000 0.0000 0.0000 0.0000 23.8514
#
#
#
# Elastic Compliance Matrix: (Units=1/GPa)
#
#
# Indices 1 2 3 4 5 6 
#
# 1 0.021005 -0.004421 -0.008321 0.000000 0.000000 0.000000
# 2 -0.004421 0.014289 -0.003753 0.000000 0.000000 0.000000
# 3 -0.008321 -0.003753 0.015611 0.000000 0.000000 0.000000
# 4 0.000000 0.000000 0.000000 0.052294 0.000000 0.000000
# 5 0.000000 0.000000 0.000000 0.000000 0.043292 0.000000
# 6 0.000000 0.000000 0.000000 0.000000 0.000000 0.041926
#
#
# Mechanical properties :
#
#
# Convention : Reuss Voigt Hill
#
# Bulk Modulus (GPa) = 55.81893 57.18854 56.50374
# Shear Modulus (GPa) = 21.98968 22.60060 22.29514
#
# Velocity S-wave (km/s) = 3.53988 3.58871 3.56438
# Velocity P-wave (km/s) = 6.96533 7.05411 7.00986
#
# Compressibility (1/GPa) = 0.01791507
#
# Stress axis : x y z
#
# Youngs Moduli (GPa) = 47.60747 69.98300 64.05864
#
# Poissons Ratio (x) = 0.30941 0.53305
# Poissons Ratio (y) = 0.21048 0.24038
# Poissons Ratio (z) = 0.39615 0.26262
#
# Static dielectric constant tensor:
#      x y z
#    x 3.193400 0.000000 0.000000 
#    y 0.000000 3.383580 0.000000 
#    z 0.000000 0.000000 3.584060 
# 
# 
# High freq. dielectric constant tensor:
#      x y z
#    x 1.671780 0.000000 0.000000 
#    y 0.000000 1.663990 0.000000 
#    z 0.000000 0.000000 1.664800 
# 
# From -- ./inp_files/26880.got.cif
#   From: 2010.03.12/outbox.cif.g09.slc.cpg/sg53_14_cif.got.tgz:26880.got - 2010.04.16 14:36:59.
