data_PCOD8219976
_publ_section_title
;
Structure prediction by ZEFSAII (Michael W. Deem and Ramdas Pophale) SiO2 
 PCOD8219976
Probable space group: P M N A
;
_chemical_formula_sum "Si O2"
_cell_formula_units_Z 64
_cell_length_a 9.099481
_cell_length_b 17.040400
_cell_length_c 19.995322
_cell_angle_alpha 90.000000
_cell_angle_beta 90.000000
_cell_angle_gamma 90.000000
_cell_volume 3100.450556
_symmetry_space_group_name_H-M "P M N A"
_symmetry_group_IT_number 53
_symmetry_cell_setting 'orthorhombic'
loop_
_space_group_symop_operation_xyz
x,y,z
1/2-x,-y,1/2+z
x,-y,-z
1/2-x,y,1/2-z
-x,-y,-z
1/2+x,y,1/2-z
-x,y,z
1/2+x,-y,1/2+z
loop_
_atom_site_type_symbol
_atom_site_label
_atom_site_fract_x
_atom_site_fract_y
_atom_site_fract_z
Si Si1 0.838978 0.109954 0.478998
Si Si2 0.670788 0.609775 0.316155
Si Si3 0.671855 0.789377 0.315524
Si Si4 0.836457 0.921566 0.373699
Si Si5 0.328176 0.419184 0.535999
Si Si6 0.673778 0.758732 0.682774
Si Si7 0.169003 0.285729 0.452369
Si Si8 0.668114 0.067890 0.356355
O O1 0.839923 0.059755 0.547248
O O2 0.818711 0.203329 0.491271
O O3 0.704800 0.081336 0.434040
O O4 0.000000 0.098032 0.443549
O O5 0.750000 0.574467 0.250000
O O6 0.500000 0.600308 0.301429
O O7 0.717305 0.699875 0.327220
O O8 0.716794 0.568381 0.385746
O O9 0.750000 0.823297 0.250000
O O10 0.500000 0.800266 0.310053
O O11 0.736523 0.843829 0.373235
O O12 0.000000 0.905934 0.345677
O O13 0.767243 0.994398 0.331934
O O14 0.290659 0.500000 0.500000
O O15 0.500000 0.397090 0.531649
O O16 0.238283 0.350358 0.501073
O O17 0.750000 0.725025 0.750000
O O18 0.500000 0.740877 0.683228
O O19 0.744777 0.716891 0.618417
O O20 0.705120 0.852343 0.682845
O O21 0.000000 0.308119 0.437592
O O22 0.500000 0.043377 0.348656
#
# Coordination Sequence:
#
# PCOD8219976 Si02
#       8
#     8   8   8   8   8   8   8   8
#     4   9  19  34  51  73 101 135 176 223 276 332
#     4   9  19  36  59  85 113 150 191 231 276 329
#     4  10  20  34  51  72  99 131 173 219 263 316
#     4  11  21  32  48  71 102 138 176 223 278 332
#     4  10  21  38  60  88 123 157 188 228 281 336
#     4  10  21  38  59  81 107 143 190 241 292 346
#     4  10  20  36  59  85 113 146 187 234 284 341
#     4  10  21  34  49  72 102 137 179 229 282 334
#
# _framework density 20.642161999999999
#
# number of rings (size 3 to 8) (size 9 to 14) (size 15 to 20)
#    0.000    2.125    0.000    3.000    0.000    6.250 
#    0.000    1.875    0.000    1.500    0.000    0.000 
#    0.000    0.000    0.000    0.000    0.000    0.000 
#
# Total GULP energy -793365.253798 kJ/mol
# GULP energy per Si atom -12396.332091 kJ/mol
# Density = 2.059518 g / cm^3
# Si number density = 20.642162 Si / 1000 Ang^3
#
#
#
# Elastic Constant Matrix: (Units=GPa)
#
#
# Indices 1 2 3 4 5 6 
#
# 1 95.1142 33.6714 43.9765 0.0000 0.0000 0.0000
# 2 33.6714 57.2135 27.8681 0.0000 0.0000 0.0000
# 3 43.9765 27.8681 109.1724 0.0000 0.0000 0.0000
# 4 0.0000 0.0000 0.0000 19.2964 0.0000 0.0000
# 5 0.0000 0.0000 0.0000 0.0000 34.5950 0.0000
# 6 0.0000 0.0000 0.0000 0.0000 0.0000 23.9580
#
#
#
# Elastic Compliance Matrix: (Units=1/GPa)
#
#
# Indices 1 2 3 4 5 6 
#
# 1 0.014849 -0.006653 -0.004283 0.000000 0.000000 0.000000
# 2 -0.006653 0.022941 -0.003176 0.000000 0.000000 0.000000
# 3 -0.004283 -0.003176 0.011696 0.000000 0.000000 0.000000
# 4 0.000000 0.000000 0.000000 0.051823 0.000000 0.000000
# 5 0.000000 0.000000 0.000000 0.000000 0.028906 0.000000
# 6 0.000000 0.000000 0.000000 0.000000 0.000000 0.041740
#
#
# Mechanical properties :
#
#
# Convention : Reuss Voigt Hill
#
# Bulk Modulus (GPa) = 47.03329 52.50355 49.76842
# Shear Modulus (GPa) = 24.12355 25.96881 25.04618
#
# Velocity S-wave (km/s) = 3.42227 3.55074 3.48710
# Velocity P-wave (km/s) = 6.20084 6.50390 6.35418
#
# Compressibility (1/GPa) = 0.02126154
#
# Stress axis : x y z
#
# Youngs Moduli (GPa) = 67.34362 43.59055 85.49945
#
# Poissons Ratio (x) = 0.29000 0.36622
# Poissons Ratio (y) = 0.44802 0.27156
# Poissons Ratio (z) = 0.28845 0.13845
#
# Static dielectric constant tensor:
#      x y z
#    x 3.771490 0.000000 0.000000 
#    y 0.000000 3.553640 0.000000 
#    z 0.000000 0.000000 4.627300 
# 
# 
# High freq. dielectric constant tensor:
#      x y z
#    x 1.811570 0.000000 0.000000 
#    y 0.000000 1.789080 0.000000 
#    z 0.000000 0.000000 1.803340 
# 
# From -- ./inp_files/31281.got.cif
#   From: 2010.03.12/outbox.cif.g09.slc.cpg/sg53_16_cif.got.tgz:31281.got - 2010.04.16 14:36:59.
