data_PCOD8219867
_publ_section_title
;
Structure prediction by ZEFSAII (Michael W. Deem and Ramdas Pophale) SiO2 
 PCOD8219867
Probable space group: P M N A
;
_chemical_formula_sum "Si O2"
_cell_formula_units_Z 48
_cell_length_a 8.851144
_cell_length_b 31.100267
_cell_length_c 9.083846
_cell_angle_alpha 90.000000
_cell_angle_beta 90.000000
_cell_angle_gamma 90.000000
_cell_volume 2500.537010
_symmetry_space_group_name_H-M "P M N A"
_symmetry_group_IT_number 53
_symmetry_cell_setting 'orthorhombic'
loop_
_space_group_symop_operation_xyz
x,y,z
1/2-x,-y,1/2+z
x,-y,-z
1/2-x,y,1/2-z
-x,-y,-z
1/2+x,y,1/2-z
-x,y,z
1/2+x,-y,1/2+z
loop_
_atom_site_type_symbol
_atom_site_label
_atom_site_fract_x
_atom_site_fract_y
_atom_site_fract_z
Si Si1 0.321421 0.041417 0.590734
Si Si2 0.178646 0.793781 0.092538
Si Si3 0.674680 0.375603 0.092556
Si Si4 0.324012 0.280251 0.090050
Si Si5 0.177726 0.876742 0.908776
Si Si6 0.321347 0.541439 0.589553
O O1 0.250000 0.039802 0.750000
O O2 0.500000 0.042203 0.609071
O O3 0.262269 0.083675 0.506410
O O4 0.266813 0.000000 0.500000
O O5 0.250000 0.803068 0.250000
O O6 0.000000 0.789752 0.109283
O O7 0.243823 0.750052 0.026783
O O8 0.226491 0.832631 0.986366
O O9 0.750000 0.372259 0.250000
O O10 0.500000 0.387694 0.108423
O O11 0.695918 0.328379 0.021573
O O12 0.758521 0.415065 0.008262
O O13 0.250000 0.274920 0.250000
O O14 0.500000 0.268420 0.105980
O O15 0.250000 0.878977 0.750000
O O16 0.000000 0.879770 0.888840
O O17 0.267009 0.500000 0.500000
O O18 0.250000 0.537952 0.750000
O O19 0.500000 0.544000 0.600419
#
# Coordination Sequence:
#
# PCOD8219867 Si02
#       6
#     8   8   8   8   8   8
#     4  10  21  37  57  83 114 147 185 227 272 323
#     4  11  23  38  56  79 109 144 180 221 271 325
#     4   9  17  30  51  76 102 134 171 213 260 310
#     4  10  20  35  56  82 108 137 177 221 266 318
#     4  10  22  38  57  83 111 142 183 227 271 322
#     4  10  20  33  51  76 104 136 174 215 260 311
#
# _framework density 19.195878
#
# number of rings (size 3 to 8) (size 9 to 14) (size 15 to 20)
#    0.000    2.000    0.000    4.500    0.000    7.000 
#    0.000    0.833    0.000    2.000    0.000    0.000 
#    0.000    0.000    0.000    0.000    0.000    0.000 
#
# Total GULP energy -595115.919577 kJ/mol
# GULP energy per Si atom -12398.248325 kJ/mol
# Density = 1.915219 g / cm^3
# Si number density = 19.195878 Si / 1000 Ang^3
#
#
#
# Elastic Constant Matrix: (Units=GPa)
#
#
# Indices 1 2 3 4 5 6 
#
# 1 80.6106 57.4851 43.5654 0.0000 0.0000 0.0000
# 2 57.4851 168.9765 68.2565 0.0000 0.0000 0.0000
# 3 43.5654 68.2565 121.1177 0.0000 0.0000 0.0000
# 4 0.0000 0.0000 0.0000 40.2601 0.0000 0.0000
# 5 0.0000 0.0000 0.0000 0.0000 33.6179 0.0000
# 6 0.0000 0.0000 0.0000 0.0000 0.0000 32.4391
#
#
#
# Elastic Compliance Matrix: (Units=1/GPa)
#
#
# Indices 1 2 3 4 5 6 
#
# 1 0.017659 -0.004456 -0.003840 0.000000 0.000000 0.000000
# 2 -0.004456 0.008787 -0.003349 0.000000 0.000000 0.000000
# 3 -0.003840 -0.003349 0.011525 0.000000 0.000000 0.000000
# 4 0.000000 0.000000 0.000000 0.024838 0.000000 0.000000
# 5 0.000000 0.000000 0.000000 0.000000 0.029746 0.000000
# 6 0.000000 0.000000 0.000000 0.000000 0.000000 0.030827
#
#
# Mechanical properties :
#
#
# Convention : Reuss Voigt Hill
#
# Bulk Modulus (GPa) = 68.12245 78.81320 73.46782
# Shear Modulus (GPa) = 32.98892 34.68995 33.83944
#
# Velocity S-wave (km/s) = 4.15003 4.25568 4.20318
# Velocity P-wave (km/s) = 7.65041 8.08048 7.86838
#
# Compressibility (1/GPa) = 0.01467945
#
# Stress axis : x y z
#
# Youngs Moduli (GPa) = 56.62978 113.80846 86.76668
#
# Poissons Ratio (x) = 0.50713 0.33322
# Poissons Ratio (y) = 0.25234 0.29058
# Poissons Ratio (z) = 0.21748 0.38114
#
# Static dielectric constant tensor:
#      x y z
#    x 3.563430 0.000000 0.000000 
#    y 0.000000 4.395190 0.000000 
#    z 0.000000 0.000000 3.242460 
# 
# 
# High freq. dielectric constant tensor:
#      x y z
#    x 1.754670 0.000000 0.000000 
#    y 0.000000 1.774400 0.000000 
#    z 0.000000 0.000000 1.723250 
# 
# From -- ./inp_files/6639.got.cif
#   From: 2010.03.12/outbox.cif.g09.slc.cpg/sg53_4_cif.got.tgz:6639.got - 2010.04.16 14:36:59.
