data_PCOD8219540
_publ_section_title
;
Structure prediction by ZEFSAII (Michael W. Deem and Ramdas Pophale) SiO2 
 PCOD8219540
Probable space group: P M N A
;
_chemical_formula_sum "Si O2"
_cell_formula_units_Z 64
_cell_length_a 8.906527
_cell_length_b 24.156583
_cell_length_c 15.227451
_cell_angle_alpha 90.000000
_cell_angle_beta 90.000000
_cell_angle_gamma 90.000000
_cell_volume 3276.205250
_symmetry_space_group_name_H-M "P M N A"
_symmetry_group_IT_number 53
_symmetry_cell_setting 'orthorhombic'
loop_
_space_group_symop_operation_xyz
x,y,z
1/2-x,-y,1/2+z
x,-y,-z
1/2-x,y,1/2-z
-x,-y,-z
1/2+x,y,1/2-z
-x,y,z
1/2+x,-y,1/2+z
loop_
_atom_site_type_symbol
_atom_site_label
_atom_site_fract_x
_atom_site_fract_y
_atom_site_fract_z
Si Si1 0.170542 0.113463 0.084433
Si Si2 0.677102 0.706818 0.493317
Si Si3 0.822632 0.775618 0.838427
Si Si4 0.171581 0.880433 0.116005
Si Si5 0.821290 0.002031 0.158951
Si Si6 0.823368 0.227911 0.663901
Si Si7 0.678123 0.502534 0.651803
Si Si8 0.822386 0.418672 0.996863
O O1 0.245373 0.162860 0.141158
O O2 0.238974 0.051613 0.095681
O O3 0.000000 0.107879 0.115746
O O4 0.180284 0.134065 0.985714
O O5 0.500000 0.711127 0.475047
O O6 0.721915 0.732550 0.586405
O O7 0.763151 0.740623 0.419975
O O8 0.736291 0.643964 0.492759
O O9 0.750000 0.752596 0.750000
O O10 0.000000 0.778877 0.828521
O O11 0.276610 0.836779 0.164821
O O12 0.000000 0.875075 0.150094
O O13 0.238785 0.941985 0.129731
O O14 0.750000 0.018784 0.250000
O O15 0.000000 0.998794 0.161573
O O16 0.750000 0.255875 0.750000
O O17 0.000000 0.233242 0.668805
O O18 0.750000 0.503502 0.750000
O O19 0.500000 0.503146 0.666374
O O20 0.732245 0.553750 0.589286
O O21 0.730022 0.449261 0.593318
O O22 0.000000 0.421575 0.999284
#
# Coordination Sequence:
#
# PCOD8219540 Si02
#       8
#     8   8   8   8   8   8   8   8
#     4   9  17  33  54  77 102 138 180 222 275 336
#     4  10  20  39  61  82 111 152 194 237 280 327
#     4  10  20  34  55  79 109 145 185 228 280 335
#     4  10  19  36  58  78 103 138 183 229 277 338
#     4  10  20  32  51  76 104 136 175 223 275 336
#     4  12  25  40  59  83 111 146 186 234 287 342
#     4   9  17  33  56  85 117 153 190 229 273 326
#     4   8  17  34  57  81 113 154 193 226 273 331
#
# _framework density 19.534797000000001
#
# number of rings (size 3 to 8) (size 9 to 14) (size 15 to 20)
#    0.000    2.250    1.250    3.000    0.000    4.500 
#    0.000    4.375    0.000    1.500    0.000    0.000 
#    0.000    0.000    0.000    0.000    0.000    0.000 
#
# Total GULP energy -793105.251849 kJ/mol
# GULP energy per Si atom -12392.269560 kJ/mol
# Density = 1.949033 g / cm^3
# Si number density = 19.534797 Si / 1000 Ang^3
#
#
#
# Elastic Constant Matrix: (Units=GPa)
#
#
# Indices 1 2 3 4 5 6 
#
# 1 47.4487 38.7148 44.0639 0.0000 0.0000 0.0000
# 2 38.7148 138.6765 57.5098 0.0000 0.0000 0.0000
# 3 44.0639 57.5098 136.8297 0.0000 0.0000 0.0000
# 4 0.0000 0.0000 0.0000 4.9428 0.0000 0.0000
# 5 0.0000 0.0000 0.0000 0.0000 33.4548 0.0000
# 6 0.0000 0.0000 0.0000 0.0000 0.0000 24.4840
#
#
#
# Elastic Compliance Matrix: (Units=1/GPa)
#
#
# Indices 1 2 3 4 5 6 
#
# 1 0.033673 -0.005939 -0.008348 0.000000 0.000000 0.000000
# 2 -0.005939 0.009781 -0.002198 0.000000 0.000000 0.000000
# 3 -0.008348 -0.002198 0.010921 0.000000 0.000000 0.000000
# 4 0.000000 0.000000 0.000000 0.202313 0.000000 0.000000
# 5 0.000000 0.000000 0.000000 0.000000 0.029891 0.000000
# 6 0.000000 0.000000 0.000000 0.000000 0.000000 0.040843
#
#
# Mechanical properties :
#
#
# Convention : Reuss Voigt Hill
#
# Bulk Modulus (GPa) = 46.71890 67.05911 56.88900
# Shear Modulus (GPa) = 13.60446 24.75408 19.17927
#
# Velocity S-wave (km/s) = 2.64184 3.56361 3.13677
# Velocity P-wave (km/s) = 5.76831 7.16484 6.50417
#
# Compressibility (1/GPa) = 0.02140461
#
# Stress axis : x y z
#
# Youngs Moduli (GPa) = 29.69697 102.24280 91.56985
#
# Poissons Ratio (x) = 0.60720 0.76442
# Poissons Ratio (y) = 0.17637 0.20130
# Poissons Ratio (z) = 0.24791 0.22476
#
# Static dielectric constant tensor:
#      x y z
#    x 3.188800 0.000000 0.000000 
#    y 0.000000 3.982590 0.000000 
#    z 0.000000 0.000000 3.697210 
# 
# 
# High freq. dielectric constant tensor:
#      x y z
#    x 1.717920 0.000000 0.000000 
#    y 0.000000 1.768290 0.000000 
#    z 0.000000 0.000000 1.772080 
# 
# From -- ./inp_files/20812.got.cif
#   From: 2010.03.12/outbox.cif.g09.slc.cpg/sg53_11_cif.got.tgz:20812.got - 2010.04.16 14:36:59.
