data_PCOD8219516
_publ_section_title
;
Structure prediction by ZEFSAII (Michael W. Deem and Ramdas Pophale) SiO2 
 PCOD8219516
Probable space group: P M N A
;
_chemical_formula_sum "Si O2"
_cell_formula_units_Z 64
_cell_length_a 17.898315
_cell_length_b 11.705193
_cell_length_c 14.728805
_cell_angle_alpha 90.000000
_cell_angle_beta 90.000000
_cell_angle_gamma 90.000000
_cell_volume 3085.732243
_symmetry_space_group_name_H-M "P M N A"
_symmetry_group_IT_number 53
_symmetry_cell_setting 'orthorhombic'
loop_
_space_group_symop_operation_xyz
x,y,z
1/2-x,-y,1/2+z
x,-y,-z
1/2-x,y,1/2-z
-x,-y,-z
1/2+x,y,1/2-z
-x,y,z
1/2+x,-y,1/2+z
loop_
_atom_site_type_symbol
_atom_site_label
_atom_site_fract_x
_atom_site_fract_y
_atom_site_fract_z
Si Si1 0.913674 0.423664 0.912319
Si Si2 0.911793 0.516458 0.286823
Si Si3 0.416737 0.173822 0.342191
Si Si4 0.586059 0.916185 0.335515
Si Si5 0.911812 0.765320 0.329156
Si Si6 0.832297 0.792555 0.020938
Si Si7 0.334472 0.137192 0.998973
Si Si8 0.914076 0.279369 0.349937
O O1 0.890860 0.491626 0.820596
O O2 0.859241 0.316062 0.921238
O O3 0.000000 0.382198 0.905617
O O4 0.901029 0.500000 0.000000
O O5 0.880006 0.635765 0.326921
O O6 0.882296 0.410476 0.349174
O O7 0.000000 0.512095 0.296005
O O8 0.500000 0.185437 0.384233
O O9 0.358124 0.214470 0.417076
O O10 0.408091 0.252723 0.255833
O O11 0.402109 0.046381 0.306459
O O12 0.500000 0.886472 0.353686
O O13 0.620344 0.837206 0.255767
O O14 0.631160 0.901231 0.429199
O O15 0.892017 0.827618 0.421722
O O16 0.000000 0.763104 0.320349
O O17 0.743810 0.804626 0.024108
O O18 0.364018 0.191450 0.092936
O O19 0.328728 0.000000 0.000000
O O20 0.000000 0.270914 0.384258
#
# Coordination Sequence:
#
# PCOD8219516 Si02
#       8
#     8   8   8   8   8   8   8   8
#     4  10  19  36  65  97 130 165 203 252 309 376
#     4   9  18  37  65  95 120 148 199 261 317 367
#     4  10  20  35  61  92 120 158 206 255 310 369
#     4  10  19  35  61  91 122 157 204 261 309 361
#     4  10  21  40  66  90 116 160 214 270 315 359
#     4  12  23  38  58  91 130 166 201 247 315 384
#     4  12  27  43  60  87 127 174 215 259 314 376
#     4  10  22  42  67  93 121 161 213 268 317 364
#
# _framework density 20.74062
#
# number of rings (size 3 to 8) (size 9 to 14) (size 15 to 20)
#    0.000    1.625    1.250    4.125    0.000    6.500 
#    2.250    4.375    0.000    0.000    0.000    0.000 
#    0.000    0.000    0.000    0.000    0.000    0.000 
#
# Total GULP energy -793461.339975 kJ/mol
# GULP energy per Si atom -12397.833437 kJ/mol
# Density = 2.069341 g / cm^3
# Si number density = 20.740620 Si / 1000 Ang^3
#
#
#
# Elastic Constant Matrix: (Units=GPa)
#
#
# Indices 1 2 3 4 5 6 
#
# 1 36.5317 28.3938 11.3499 0.0000 0.0000 0.0000
# 2 28.3938 103.2782 25.0562 0.0000 0.0000 0.0000
# 3 11.3499 25.0562 74.6085 0.0000 0.0000 0.0000
# 4 0.0000 0.0000 0.0000 38.1008 0.0000 0.0000
# 5 0.0000 0.0000 0.0000 0.0000 13.5908 0.0000
# 6 0.0000 0.0000 0.0000 0.0000 0.0000 7.3618
#
#
#
# Elastic Compliance Matrix: (Units=1/GPa)
#
#
# Indices 1 2 3 4 5 6 
#
# 1 0.035168 -0.009113 -0.002289 0.000000 0.000000 0.000000
# 2 -0.009113 0.012903 -0.002947 0.000000 0.000000 0.000000
# 3 -0.002289 -0.002947 0.014741 0.000000 0.000000 0.000000
# 4 0.000000 0.000000 0.000000 0.026246 0.000000 0.000000
# 5 0.000000 0.000000 0.000000 0.000000 0.073579 0.000000
# 6 0.000000 0.000000 0.000000 0.000000 0.000000 0.135837
#
#
# Mechanical properties :
#
#
# Convention : Reuss Voigt Hill
#
# Bulk Modulus (GPa) = 29.31426 38.22426 33.76926
# Shear Modulus (GPa) = 14.76910 21.78524 18.27717
#
# Velocity S-wave (km/s) = 2.67139 3.24445 2.97177
# Velocity P-wave (km/s) = 4.86616 5.70131 5.30021
#
# Compressibility (1/GPa) = 0.03411309
#
# Stress axis : x y z
#
# Youngs Moduli (GPa) = 28.43512 77.50170 67.83677
#
# Poissons Ratio (x) = 0.70628 0.15531
# Poissons Ratio (y) = 0.25913 0.19991
# Poissons Ratio (z) = 0.06510 0.22839
#
# Static dielectric constant tensor:
#      x y z
#    x 3.422960 0.000000 0.000000 
#    y 0.000000 4.109150 0.000000 
#    z 0.000000 0.000000 3.704450 
# 
# 
# High freq. dielectric constant tensor:
#      x y z
#    x 1.772460 0.000000 0.000000 
#    y 0.000000 1.829440 0.000000 
#    z 0.000000 0.000000 1.815290 
# 
# From -- ./inp_files/23915.got.cif
#   From: 2010.03.12/outbox.cif.g09.slc.cpg/sg53_12_cif.got.tgz:23915.got - 2010.04.16 14:36:59.
