data_PCOD8219059
_publ_section_title
;
Structure prediction by ZEFSAII (Michael W. Deem and Ramdas Pophale) SiO2 
 PCOD8219059
Probable space group: P M N A
;
_chemical_formula_sum "Si O2"
_cell_formula_units_Z 64
_cell_length_a 17.539720
_cell_length_b 15.163618
_cell_length_c 11.902641
_cell_angle_alpha 90.000000
_cell_angle_beta 90.000000
_cell_angle_gamma 90.000000
_cell_volume 3165.693221
_symmetry_space_group_name_H-M "P M N A"
_symmetry_group_IT_number 53
_symmetry_cell_setting 'orthorhombic'
loop_
_space_group_symop_operation_xyz
x,y,z
1/2-x,-y,1/2+z
x,-y,-z
1/2-x,y,1/2-z
-x,-y,-z
1/2+x,y,1/2-z
-x,y,z
1/2+x,-y,1/2+z
loop_
_atom_site_type_symbol
_atom_site_label
_atom_site_fract_x
_atom_site_fract_y
_atom_site_fract_z
Si Si1 0.837921 0.020237 0.722003
Si Si2 0.090692 0.679257 0.261811
Si Si3 0.587835 0.842631 0.089509
Si Si4 0.090780 0.721809 0.016055
Si Si5 0.090555 0.340356 0.219646
Si Si6 0.408971 0.500580 0.128435
Si Si7 0.090105 0.085071 0.938843
Si Si8 0.587536 0.161186 0.170210
O O1 0.750000 0.024809 0.750000
O O2 0.859377 0.070865 0.607109
O O3 0.885113 0.079085 0.810356
O O4 0.863008 0.919371 0.715902
O O5 0.119306 0.761241 0.336411
O O6 0.122330 0.589718 0.315702
O O7 0.000000 0.678872 0.262622
O O8 0.122154 0.683940 0.134064
O O9 0.500000 0.864985 0.118487
O O10 0.596700 0.818006 0.960279
O O11 0.118861 0.661097 0.911213
O O12 0.000000 0.721931 0.018550
O O13 0.119224 0.823749 0.004666
O O14 0.124258 0.420320 0.294839
O O15 0.118723 0.248123 0.269685
O O16 0.000000 0.346858 0.224158
O O17 0.500000 0.496424 0.127912
O O18 0.378636 0.500000 0.000000
O O19 0.000000 0.081482 0.945871
O O20 0.127145 0.000000 0.000000
O O21 0.500000 0.141075 0.202343
#
# Coordination Sequence:
#
# PCOD8219059 Si02
#       8
#     8   8   8   8   8   8   8   8
#     4  12  24  35  50  76 109 140 176 222 277 327
#     4   9  16  27  47  73 103 139 174 214 266 319
#     4  10  19  35  57  78 105 141 183 225 266 322
#     4   9  16  27  44  68 100 136 176 217 258 312
#     4   9  17  29  46  73 106 136 173 217 265 317
#     4   9  16  26  42  70 107 140 171 212 266 321
#     4  10  19  33  53  72  97 139 186 224 258 310
#     4  10  20  35  56  78 104 141 183 226 268 319
#
# _framework density 20.216740000000001
#
# number of rings (size 3 to 8) (size 9 to 14) (size 15 to 20)
#    0.000    2.250    1.250    3.000    0.000    7.500 
#    0.000    2.500    0.000    0.000    0.000    0.875 
#    0.000    0.250    0.000    0.000    0.000    0.000 
#
# Total GULP energy -793307.093100 kJ/mol
# GULP energy per Si atom -12395.423330 kJ/mol
# Density = 2.017073 g / cm^3
# Si number density = 20.216740 Si / 1000 Ang^3
#
#
#
# Elastic Constant Matrix: (Units=GPa)
#
#
# Indices 1 2 3 4 5 6 
#
# 1 17.1512 26.6371 22.9559 0.0000 0.0000 0.0000
# 2 26.6371 143.1355 61.5940 0.0000 0.0000 0.0000
# 3 22.9559 61.5940 126.0428 0.0000 0.0000 0.0000
# 4 0.0000 0.0000 0.0000 43.5779 0.0000 0.0000
# 5 0.0000 0.0000 0.0000 0.0000 3.0036 0.0000
# 6 0.0000 0.0000 0.0000 0.0000 0.0000 3.1507
#
#
#
# Elastic Compliance Matrix: (Units=1/GPa)
#
#
# Indices 1 2 3 4 5 6 
#
# 1 0.092022 -0.012553 -0.010626 0.000000 0.000000 0.000000
# 2 -0.012553 0.010559 -0.002874 0.000000 0.000000 0.000000
# 3 -0.010626 -0.002874 0.011273 0.000000 0.000000 0.000000
# 4 0.000000 0.000000 0.000000 0.022947 0.000000 0.000000
# 5 0.000000 0.000000 0.000000 0.000000 0.332934 0.000000
# 6 0.000000 0.000000 0.000000 0.000000 0.000000 0.317387
#
#
# Mechanical properties :
#
#
# Convention : Reuss Voigt Hill
#
# Bulk Modulus (GPa) = 16.19427 56.52263 36.35845
# Shear Modulus (GPa) = 5.81523 21.62260 13.71892
#
# Velocity S-wave (km/s) = 1.69785 3.27393 2.60781
# Velocity P-wave (km/s) = 3.44548 6.50465 5.20489
#
# Compressibility (1/GPa) = 0.06175025
#
# Stress axis : x y z
#
# Youngs Moduli (GPa) = 10.86699 94.70572 88.70465
#
# Poissons Ratio (x) = 1.18880 0.94254
# Poissons Ratio (y) = 0.13641 0.25492
# Poissons Ratio (z) = 0.11547 0.27216
#
# Static dielectric constant tensor:
#      x y z
#    x 2.896510 0.000000 0.000000 
#    y 0.000000 3.908430 0.000000 
#    z 0.000000 0.000000 4.698410 
# 
# 
# High freq. dielectric constant tensor:
#      x y z
#    x 1.707190 0.000000 0.000000 
#    y 0.000000 1.797650 0.000000 
#    z 0.000000 0.000000 1.809350 
# 
# From -- ./inp_files/17107.got.cif
#   From: 2010.03.12/outbox.cif.g09.slc.cpg/sg53_9_cif.got.tgz:17107.got - 2010.04.16 14:36:59.
