data_PCOD8219649
_publ_section_title
;
Structure prediction by ZEFSAII (Michael W. Deem and Ramdas Pophale) SiO2 
 PCOD8219649
Probable space group: P M N A
;
_chemical_formula_sum "Si O2"
_cell_formula_units_Z 32
_cell_length_a 13.720705
_cell_length_b 10.445345
_cell_length_c 10.157620
_cell_angle_alpha 90.000000
_cell_angle_beta 90.000000
_cell_angle_gamma 90.000000
_cell_volume 1455.764678
_symmetry_space_group_name_H-M "P M N A"
_symmetry_group_IT_number 53
_symmetry_cell_setting 'orthorhombic'
loop_
_space_group_symop_operation_xyz
x,y,z
1/2-x,-y,1/2+z
x,-y,-z
1/2-x,y,1/2-z
-x,-y,-z
1/2+x,y,1/2-z
-x,y,z
1/2+x,-y,1/2+z
loop_
_atom_site_type_symbol
_atom_site_label
_atom_site_fract_x
_atom_site_fract_y
_atom_site_fract_z
Si Si1 0.889833 0.005684 0.643600
Si Si2 0.390814 0.298389 0.820880
Si Si3 0.698770 0.359378 0.548501
Si Si4 0.115727 0.117647 0.093882
O O1 0.884596 0.147233 0.700404
O O2 0.000000 0.959001 0.619999
O O3 0.835482 0.000000 0.500000
O O4 0.845607 0.914736 0.757693
O O5 0.500000 0.341061 0.862297
O O6 0.315097 0.344322 0.931379
O O7 0.362705 0.354891 0.681242
O O8 0.675329 0.500000 0.500000
O O9 0.665434 0.250485 0.446957
O O10 0.000000 0.135487 0.090445
O O11 0.146583 0.000000 0.000000
#
# Coordination Sequence:
#
# PCOD8219649 Si02
#       4
#     8   8   8   8
#     4   9  18  37  65  99 132 169 222 277 339 403
#     4  10  22  44  68  92 136 184 223 284 349 404
#     4  11  24  42  66 102 136 175 233 285 338 418
#     4  10  19  37  69 103 133 174 227 280 338 402
#
# _framework density 21.981573999999998
#
# number of rings (size 3 to 8) (size 9 to 14) (size 15 to 20)
#    0.000    2.000    2.500    0.750    0.000    3.500 
#    9.000    0.000    0.000    0.000    0.000    0.000 
#    0.000    1.000    0.000    0.000    0.000    0.000 
#
# Total GULP energy -396648.482153 kJ/mol
# GULP energy per Si atom -12395.265067 kJ/mol
# Density = 2.193154 g / cm^3
# Si number density = 21.981574 Si / 1000 Ang^3
#
#
#
# Elastic Constant Matrix: (Units=GPa)
#
#
# Indices 1 2 3 4 5 6 
#
# 1 113.6572 55.0161 43.6956 0.0000 0.0000 0.0000
# 2 55.0161 157.1580 84.9321 0.0000 0.0000 0.0000
# 3 43.6956 84.9321 178.2754 0.0000 0.0000 0.0000
# 4 0.0000 0.0000 0.0000 40.2470 0.0000 0.0000
# 5 0.0000 0.0000 0.0000 0.0000 10.7968 0.0000
# 6 0.0000 0.0000 0.0000 0.0000 0.0000 10.9134
#
#
#
# Elastic Compliance Matrix: (Units=1/GPa)
#
#
# Indices 1 2 3 4 5 6 
#
# 1 0.010761 -0.003154 -0.001135 0.000000 0.000000 0.000000
# 2 -0.003154 0.009494 -0.003750 0.000000 0.000000 0.000000
# 3 -0.001135 -0.003750 0.007674 0.000000 0.000000 0.000000
# 4 0.000000 0.000000 0.000000 0.024847 0.000000 0.000000
# 5 0.000000 0.000000 0.000000 0.000000 0.092620 0.000000
# 6 0.000000 0.000000 0.000000 0.000000 0.000000 0.091631
#
#
# Mechanical properties :
#
#
# Convention : Reuss Voigt Hill
#
# Bulk Modulus (GPa) = 84.37795 90.70869 87.54332
# Shear Modulus (GPa) = 19.45113 30.08788 24.76951
#
# Velocity S-wave (km/s) = 2.97793 3.70371 3.36047
# Velocity P-wave (km/s) = 7.09177 7.72304 7.41413
#
# Compressibility (1/GPa) = 0.01185144
#
# Stress axis : x y z
#
# Youngs Moduli (GPa) = 92.92486 105.33462 130.31047
#
# Poissons Ratio (x) = 0.33220 0.14792
# Poissons Ratio (y) = 0.29306 0.48864
# Poissons Ratio (z) = 0.10548 0.39499
#
# Static dielectric constant tensor:
#      x y z
#    x 4.155080 0.000000 0.000000 
#    y 0.000000 3.700170 0.000000 
#    z 0.000000 0.000000 4.160860 
# 
# 
# High freq. dielectric constant tensor:
#      x y z
#    x 1.875960 0.000000 0.000000 
#    y 0.000000 1.841610 0.000000 
#    z 0.000000 0.000000 1.868820 
# 
# From -- ./inp_files/8028.got.cif
#   From: 2010.03.12/outbox.cif.g09.slc.cpg/sg53_5_cif.got.tgz:8028.got - 2010.04.16 14:36:59.
