data_PCOD8219394
_publ_section_title
;
Structure prediction by ZEFSAII (Michael W. Deem and Ramdas Pophale) SiO2 
 PCOD8219394
Probable space group: P M N A
;
_chemical_formula_sum "Si O2"
_cell_formula_units_Z 64
_cell_length_a 9.003167
_cell_length_b 15.417355
_cell_length_c 23.723061
_cell_angle_alpha 90.000000
_cell_angle_beta 90.000000
_cell_angle_gamma 90.000000
_cell_volume 3292.879998
_symmetry_space_group_name_H-M "P M N A"
_symmetry_group_IT_number 53
_symmetry_cell_setting 'orthorhombic'
loop_
_space_group_symop_operation_xyz
x,y,z
1/2-x,-y,1/2+z
x,-y,-z
1/2-x,y,1/2-z
-x,-y,-z
1/2+x,y,1/2-z
-x,y,z
1/2+x,-y,1/2+z
loop_
_atom_site_type_symbol
_atom_site_label
_atom_site_fract_x
_atom_site_fract_y
_atom_site_fract_z
Si Si1 0.324582 0.007820 0.809137
Si Si2 0.671330 0.398619 0.002444
Si Si3 0.324125 0.503934 0.309211
Si Si4 0.674404 0.350229 0.128134
Si Si5 0.325091 0.658280 0.391592
Si Si6 0.325376 0.830989 0.113872
Si Si7 0.824686 0.843923 0.622930
Si Si8 0.323211 0.903020 0.996193
O O1 0.250000 0.024916 0.750000
O O2 0.500000 0.003494 0.801338
O O3 0.262264 0.917537 0.835077
O O4 0.277482 0.086612 0.849331
O O5 0.500000 0.375777 0.990802
O O6 0.721371 0.364436 0.063378
O O7 0.702254 0.500000 0.000000
O O8 0.767045 0.351570 0.955083
O O9 0.250000 0.527393 0.250000
O O10 0.500000 0.500030 0.301578
O O11 0.267108 0.411224 0.330701
O O12 0.274284 0.576798 0.353906
O O13 0.500000 0.369806 0.136003
O O14 0.716593 0.251734 0.145204
O O15 0.500000 0.666570 0.392713
O O16 0.257295 0.745113 0.363903
O O17 0.500000 0.814821 0.117925
O O18 0.271544 0.847842 0.049977
O O19 0.759437 0.857777 0.560086
O O20 0.000000 0.854873 0.618553
O O21 0.500000 0.907637 0.995346
O O22 0.258104 0.000000 0.000000
#
# Coordination Sequence:
#
# PCOD8219394 Si02
#       8
#     8   8   8   8   8   8   8   8
#     4  10  21  37  56  80 110 147 188 230 277 331
#     4  10  19  34  60  91 119 150 189 231 279 337
#     4  11  25  43  61  81 109 149 195 241 290 340
#     4  10  20  36  60  89 120 151 188 235 281 336
#     4  11  24  39  58  85 118 153 187 232 290 345
#     4  10  20  35  59  86 111 144 187 233 280 334
#     4   9  17  31  54  85 115 144 181 227 280 332
#     4   9  14  27  55  87 114 140 179 231 279 325
#
# _framework density 19.435874999999999
#
# number of rings (size 3 to 8) (size 9 to 14) (size 15 to 20)
#    0.000    2.000    2.500    1.500    0.000    5.750 
#    0.000    4.375    0.000    1.125    0.000    0.000 
#    0.000    0.000    0.000    0.000    0.000    0.000 
#
# Total GULP energy -793699.667315 kJ/mol
# GULP energy per Si atom -12401.557302 kJ/mol
# Density = 1.939164 g / cm^3
# Si number density = 19.435875 Si / 1000 Ang^3
#
#
#
# Elastic Constant Matrix: (Units=GPa)
#
#
# Indices 1 2 3 4 5 6 
#
# 1 40.1103 34.0966 31.2489 0.0000 0.0000 0.0000
# 2 34.0966 100.8362 41.0608 0.0000 0.0000 0.0000
# 3 31.2489 41.0608 85.4920 0.0000 0.0000 0.0000
# 4 0.0000 0.0000 0.0000 9.1072 0.0000 0.0000
# 5 0.0000 0.0000 0.0000 0.0000 27.9586 0.0000
# 6 0.0000 0.0000 0.0000 0.0000 0.0000 13.2669
#
#
#
# Elastic Compliance Matrix: (Units=1/GPa)
#
#
# Indices 1 2 3 4 5 6 
#
# 1 0.041328 -0.009725 -0.010435 0.000000 0.000000 0.000000
# 2 -0.009725 0.014617 -0.003465 0.000000 0.000000 0.000000
# 3 -0.010435 -0.003465 0.017176 0.000000 0.000000 0.000000
# 4 0.000000 0.000000 0.000000 0.109804 0.000000 0.000000
# 5 0.000000 0.000000 0.000000 0.000000 0.035767 0.000000
# 6 0.000000 0.000000 0.000000 0.000000 0.000000 0.075376
#
#
# Mechanical properties :
#
#
# Convention : Reuss Voigt Hill
#
# Bulk Modulus (GPa) = 38.65696 48.80568 43.73132
# Shear Modulus (GPa) = 14.28806 18.06868 16.17837
#
# Velocity S-wave (km/s) = 2.71428 3.05233 2.88826
# Velocity P-wave (km/s) = 5.45489 6.13090 5.80275
#
# Compressibility (1/GPa) = 0.02586856
#
# Stress axis : x y z
#
# Youngs Moduli (GPa) = 24.19640 68.41463 58.22175
#
# Poissons Ratio (x) = 0.66536 0.60756
# Poissons Ratio (y) = 0.23532 0.20176
# Poissons Ratio (z) = 0.25250 0.23709
#
# Static dielectric constant tensor:
#      x y z
#    x 3.151210 0.000000 0.000000 
#    y 0.000000 3.788250 0.000000 
#    z 0.000000 0.000000 3.571510 
# 
# 
# High freq. dielectric constant tensor:
#      x y z
#    x 1.717530 0.000000 0.000000 
#    y 0.000000 1.775870 0.000000 
#    z 0.000000 0.000000 1.756660 
# 
# From -- ./inp_files/34256.got.cif
#   From: 2010.03.12/outbox.cif.g09.slc.cpg/sg53_18_cif.got.tgz:34256.got - 2010.04.16 14:36:59.
