data_PCOD8219064
_publ_section_title
;
Structure prediction by ZEFSAII (Michael W. Deem and Ramdas Pophale) SiO2 
 PCOD8219064
Probable space group: P M N A
;
_chemical_formula_sum "Si O2"
_cell_formula_units_Z 64
_cell_length_a 8.985887
_cell_length_b 22.390063
_cell_length_c 17.689129
_cell_angle_alpha 90.000000
_cell_angle_beta 90.000000
_cell_angle_gamma 90.000000
_cell_volume 3558.956810
_symmetry_space_group_name_H-M "P M N A"
_symmetry_group_IT_number 53
_symmetry_cell_setting 'orthorhombic'
loop_
_space_group_symop_operation_xyz
x,y,z
1/2-x,-y,1/2+z
x,-y,-z
1/2-x,y,1/2-z
-x,-y,-z
1/2+x,y,1/2-z
-x,y,z
1/2+x,-y,1/2+z
loop_
_atom_site_type_symbol
_atom_site_label
_atom_site_fract_x
_atom_site_fract_y
_atom_site_fract_z
Si Si1 0.822727 0.060924 0.330044
Si Si2 0.328714 0.612438 0.536140
Si Si3 0.825840 0.299025 0.672283
Si Si4 0.662074 0.957666 0.071364
Si Si5 0.822358 0.856984 0.531381
Si Si6 0.172519 0.257194 0.974012
Si Si7 0.825780 0.446596 0.327165
Si Si8 0.327962 0.573300 0.108083
O O1 0.750000 0.075566 0.250000
O O2 0.779011 0.113562 0.388277
O O3 0.000000 0.057095 0.321884
O O4 0.758669 0.996926 0.362481
O O5 0.500000 0.596834 0.550440
O O6 0.303132 0.681715 0.518908
O O7 0.233749 0.597632 0.609350
O O8 0.271391 0.572369 0.466844
O O9 0.750000 0.279234 0.750000
O O10 0.757039 0.258997 0.605870
O O11 0.791596 0.368867 0.658441
O O12 0.000000 0.285923 0.676819
O O13 0.500000 0.939034 0.102399
O O14 0.740859 0.897575 0.039367
O O15 0.639507 0.000000 0.000000
O O16 0.742271 0.793589 0.526907
O O17 0.000000 0.850234 0.525038
O O18 0.000000 0.244600 0.958447
O O19 0.750000 0.426923 0.250000
O O20 0.784152 0.515233 0.344309
O O21 0.000000 0.437444 0.319603
O O22 0.500000 0.572434 0.082960
#
# Coordination Sequence:
#
# PCOD8219064 Si02
#       8
#     8   8   8   8   8   8   8   8
#     4   9  17  30  50  77 106 133 164 205 252 299
#     4  10  21  36  53  73  99 133 171 211 254 301
#     4  10  19  33  53  76 103 132 164 204 252 304
#     4   7  12  26  48  71  95 125 160 195 234 286
#     4   9  17  32  54  75  97 133 176 210 246 295
#     4  10  21  36  53  74 101 134 174 215 252 294
#     4  11  22  35  52  75 103 131 163 206 257 311
#     4   9  19  34  53  77 102 129 161 202 254 311
#
# _framework density 17.982797999999999
#
# number of rings (size 3 to 8) (size 9 to 14) (size 15 to 20)
#    0.000    2.625    0.000    3.750    0.000    5.000 
#    0.000    1.875    0.000    5.250    0.000    0.000 
#    0.000    0.000    0.000    0.000    0.000    0.000 
#
# Total GULP energy -793335.314381 kJ/mol
# GULP energy per Si atom -12395.864287 kJ/mol
# Density = 1.794187 g / cm^3
# Si number density = 17.982798 Si / 1000 Ang^3
#
#
#
# Elastic Constant Matrix: (Units=GPa)
#
#
# Indices 1 2 3 4 5 6 
#
# 1 77.2314 36.5626 57.8212 0.0000 0.0000 0.0000
# 2 36.5626 58.9303 42.8888 0.0000 0.0000 0.0000
# 3 57.8212 42.8888 128.0828 0.0000 0.0000 0.0000
# 4 0.0000 0.0000 0.0000 20.4068 0.0000 0.0000
# 5 0.0000 0.0000 0.0000 0.0000 34.8488 0.0000
# 6 0.0000 0.0000 0.0000 0.0000 0.0000 19.9549
#
#
#
# Elastic Compliance Matrix: (Units=1/GPa)
#
#
# Indices 1 2 3 4 5 6 
#
# 1 0.022477 -0.008675 -0.007242 0.000000 0.000000 0.000000
# 2 -0.008675 0.025785 -0.004718 0.000000 0.000000 0.000000
# 3 -0.007242 -0.004718 0.012657 0.000000 0.000000 0.000000
# 4 0.000000 0.000000 0.000000 0.049003 0.000000 0.000000
# 5 0.000000 0.000000 0.000000 0.000000 0.028695 0.000000
# 6 0.000000 0.000000 0.000000 0.000000 0.000000 0.050113
#
#
# Mechanical properties :
#
#
# Convention : Reuss Voigt Hill
#
# Bulk Modulus (GPa) = 50.89395 59.86552 55.37973
# Shear Modulus (GPa) = 21.13720 23.50690 22.32205
#
# Velocity S-wave (km/s) = 3.43215 3.61943 3.52703
# Velocity P-wave (km/s) = 6.63846 7.12950 6.88835
#
# Compressibility (1/GPa) = 0.01964870
#
# Stress axis : x y z
#
# Youngs Moduli (GPa) = 44.49023 38.78207 79.00980
#
# Poissons Ratio (x) = 0.33643 0.57220
# Poissons Ratio (y) = 0.38594 0.37278
# Poissons Ratio (z) = 0.32220 0.18298
#
# Static dielectric constant tensor:
#      x y z
#    x 3.203400 0.000000 0.000000 
#    y 0.000000 3.340400 0.000000 
#    z 0.000000 0.000000 3.312190 
# 
# 
# High freq. dielectric constant tensor:
#      x y z
#    x 1.686760 0.000000 0.000000 
#    y 0.000000 1.687090 0.000000 
#    z 0.000000 0.000000 1.691000 
# 
# From -- ./inp_files/26875.got.cif
#   From: 2010.03.12/outbox.cif.g09.slc.cpg/sg53_14_cif.got.tgz:26875.got - 2010.04.16 14:36:59.
