data_PCOD8219292
_publ_section_title
;
Structure prediction by ZEFSAII (Michael W. Deem and Ramdas Pophale) SiO2 
 PCOD8219292
Probable space group: P M N A
;
_chemical_formula_sum "Si O2"
_cell_formula_units_Z 40
_cell_length_a 8.622150
_cell_length_b 12.827680
_cell_length_c 18.443200
_cell_angle_alpha 90.000000
_cell_angle_beta 90.000000
_cell_angle_gamma 90.000000
_cell_volume 2039.858147
_symmetry_space_group_name_H-M "P M N A"
_symmetry_group_IT_number 53
_symmetry_cell_setting 'orthorhombic'
loop_
_space_group_symop_operation_xyz
x,y,z
1/2-x,-y,1/2+z
x,-y,-z
1/2-x,y,1/2-z
-x,-y,-z
1/2+x,y,1/2-z
-x,y,z
1/2+x,-y,1/2+z
loop_
_atom_site_type_symbol
_atom_site_label
_atom_site_fract_x
_atom_site_fract_y
_atom_site_fract_z
Si Si1 0.183698 0.002574 0.670299
Si Si2 0.183858 0.207554 0.585741
Si Si3 0.683753 0.809222 0.921794
Si Si4 0.682913 0.394398 0.672124
Si Si5 0.815932 0.615693 0.672063
O O1 0.250000 0.993189 0.750000
O O2 0.237592 0.110753 0.634700
O O3 0.000000 0.996551 0.674120
O O4 0.251451 0.908034 0.621937
O O5 0.242438 0.186395 0.504239
O O6 0.269468 0.310276 0.612894
O O7 0.000000 0.225018 0.589121
O O8 0.500000 0.815439 0.920288
O O9 0.740819 0.702260 0.884958
O O10 0.750000 0.361364 0.750000
O O11 0.500000 0.402412 0.679058
O O12 0.749659 0.505093 0.646138
O O13 0.750000 0.647689 0.750000
O O14 0.000000 0.608361 0.676961
#
# Coordination Sequence:
#
# PCOD8219292 Si02
#       5
#     8   8   8   8   8
#     4  10  20  35  57  82 108 140 179 221 265 316
#     4  10  20  36  57  80 109 143 180 220 264 316
#     4   9  19  35  56  81 108 142 180 218 264 321
#     4  11  22  37  56  79 108 141 181 223 267 316
#     4  10  19  34  56  80 107 140 181 223 266 316
#
# _framework density 19.609206
#
# number of rings (size 3 to 8) (size 9 to 14) (size 15 to 20)
#    0.000    2.000    0.000    5.400    0.000    5.600 
#    0.000    8.000    0.000    2.400    0.000    0.000 
#    0.000    0.000    0.000    0.000    0.000    0.000 
#
# Total GULP energy -496114.792421 kJ/mol
# GULP energy per Si atom -12402.869811 kJ/mol
# Density = 1.956457 g / cm^3
# Si number density = 19.609206 Si / 1000 Ang^3
#
#
#
# Elastic Constant Matrix: (Units=GPa)
#
#
# Indices 1 2 3 4 5 6 
#
# 1 64.5310 29.8049 18.7003 0.0000 0.0000 0.0000
# 2 29.8049 122.1673 60.6926 0.0000 0.0000 0.0000
# 3 18.7003 60.6926 116.4960 0.0000 0.0000 0.0000
# 4 0.0000 0.0000 0.0000 36.0397 0.0000 0.0000
# 5 0.0000 0.0000 0.0000 0.0000 29.7615 0.0000
# 6 0.0000 0.0000 0.0000 0.0000 0.0000 17.8084
#
#
#
# Elastic Compliance Matrix: (Units=1/GPa)
#
#
# Indices 1 2 3 4 5 6 
#
# 1 0.017518 -0.003881 -0.000790 0.000000 0.000000 0.000000
# 2 -0.003881 0.011904 -0.005579 0.000000 0.000000 0.000000
# 3 -0.000790 -0.005579 0.011617 0.000000 0.000000 0.000000
# 4 0.000000 0.000000 0.000000 0.027747 0.000000 0.000000
# 5 0.000000 0.000000 0.000000 0.000000 0.033600 0.000000
# 6 0.000000 0.000000 0.000000 0.000000 0.000000 0.056153
#
#
# Mechanical properties :
#
#
# Convention : Reuss Voigt Hill
#
# Bulk Modulus (GPa) = 48.68754 57.95444 53.32099
# Shear Modulus (GPa) = 26.89812 29.65501 28.27657
#
# Velocity S-wave (km/s) = 3.70768 3.89305 3.80149
# Velocity P-wave (km/s) = 6.57358 7.05880 6.82051
#
# Compressibility (1/GPa) = 0.02053914
#
# Stress axis : x y z
#
# Youngs Moduli (GPa) = 57.08400 84.00586 86.07928
#
# Poissons Ratio (x) = 0.32606 0.06799
# Poissons Ratio (y) = 0.22157 0.48021
# Poissons Ratio (z) = 0.04509 0.46864
#
# Static dielectric constant tensor:
#      x y z
#    x 3.366570 0.000000 0.000000 
#    y 0.000000 3.819110 0.000000 
#    z 0.000000 0.000000 3.786840 
# 
# 
# High freq. dielectric constant tensor:
#      x y z
#    x 1.742560 0.000000 0.000000 
#    y 0.000000 1.781760 0.000000 
#    z 0.000000 0.000000 1.769440 
# 
# From -- ./inp_files/25812.got.cif
#   From: 2010.03.12/outbox.cif.g09.slc.cpg/sg53_13_cif.got.tgz:25812.got - 2010.04.16 14:36:59.
