data_PCOD8219031
_publ_section_title
;
Structure prediction by ZEFSAII (Michael W. Deem and Ramdas Pophale) SiO2 
 PCOD8219031
Probable space group: P M N A
;
_chemical_formula_sum "Si O2"
_cell_formula_units_Z 64
_cell_length_a 9.078937
_cell_length_b 14.722497
_cell_length_c 29.348371
_cell_angle_alpha 90.000000
_cell_angle_beta 90.000000
_cell_angle_gamma 90.000000
_cell_volume 3922.838938
_symmetry_space_group_name_H-M "P M N A"
_symmetry_group_IT_number 53
_symmetry_cell_setting 'orthorhombic'
loop_
_space_group_symop_operation_xyz
x,y,z
1/2-x,-y,1/2+z
x,-y,-z
1/2-x,y,1/2-z
-x,-y,-z
1/2+x,y,1/2-z
-x,y,z
1/2+x,-y,1/2+z
loop_
_atom_site_type_symbol
_atom_site_label
_atom_site_fract_x
_atom_site_fract_y
_atom_site_fract_z
Si Si1 0.674309 0.538358 0.894771
Si Si2 0.169750 0.201387 0.879905
Si Si3 0.826907 0.318445 0.043680
Si Si4 0.668452 0.059060 0.933632
Si Si5 0.330294 0.372213 0.557670
Si Si6 0.671675 0.487781 0.794913
Si Si7 0.331824 0.134313 0.032974
Si Si8 0.173114 0.279227 0.705043
O O1 0.500000 0.541489 0.900885
O O2 0.746647 0.626452 0.916706
O O3 0.729672 0.447310 0.919051
O O4 0.717852 0.539553 0.841183
O O5 0.219952 0.103254 0.897809
O O6 0.198192 0.275688 0.918931
O O7 0.269594 0.221867 0.836905
O O8 0.000000 0.198087 0.865297
O O9 0.776512 0.214599 0.047176
O O10 0.000000 0.322485 0.051882
O O11 0.784822 0.362479 0.995087
O O12 0.500000 0.081190 0.920322
O O13 0.694527 0.950768 0.933317
O O14 0.704954 0.101198 0.982525
O O15 0.500000 0.402616 0.562362
O O16 0.750000 0.529492 0.750000
O O17 0.500000 0.495980 0.785677
O O18 0.720021 0.383657 0.802015
O O19 0.500000 0.168576 0.036358
O O20 0.250000 0.239829 0.750000
O O21 0.000000 0.267307 0.709581
#
# Coordination Sequence:
#
# PCOD8219031 Si02
#       8
#     8   8   8   8   8   8   8   8
#     4  11  22  35  50  72  97 131 172 208 247 297
#     4  11  20  31  49  74 102 135 169 204 247 298
#     4  11  22  35  49  70 100 136 172 210 251 292
#     4   9  18  32  51  73  98 128 164 205 249 294
#     4  10  21  34  46  67 101 137 172 206 241 288
#     4   9  19  33  50  71  95 123 161 204 249 294
#     4   9  18  33  51  72  97 128 166 208 249 290
#     4  10  19  33  50  72  99 130 166 207 251 300
#
# _framework density 16.314713999999999
#
# number of rings (size 3 to 8) (size 9 to 14) (size 15 to 20)
#    0.000    2.000    2.500    2.625    0.000    5.000 
#    0.000    1.250    0.000    0.000    0.000    0.875 
#    0.000    4.000    0.000    0.000    0.000    0.000 
#
# Total GULP energy -793711.824200 kJ/mol
# GULP energy per Si atom -12401.747253 kJ/mol
# Density = 1.627758 g / cm^3
# Si number density = 16.314714 Si / 1000 Ang^3
#
#
#
# Elastic Constant Matrix: (Units=GPa)
#
#
# Indices 1 2 3 4 5 6 
#
# 1 77.4351 42.6352 52.2322 0.0000 0.0000 0.0000
# 2 42.6352 74.1762 43.3261 0.0000 0.0000 0.0000
# 3 52.2322 43.3261 111.5564 0.0000 0.0000 0.0000
# 4 0.0000 0.0000 0.0000 17.2933 0.0000 0.0000
# 5 0.0000 0.0000 0.0000 0.0000 29.2338 0.0000
# 6 0.0000 0.0000 0.0000 0.0000 0.0000 26.5433
#
#
#
# Elastic Compliance Matrix: (Units=1/GPa)
#
#
# Indices 1 2 3 4 5 6 
#
# 1 0.022589 -0.008803 -0.007158 0.000000 0.000000 0.000000
# 2 -0.008803 0.020868 -0.003983 0.000000 0.000000 0.000000
# 3 -0.007158 -0.003983 0.013862 0.000000 0.000000 0.000000
# 4 0.000000 0.000000 0.000000 0.057826 0.000000 0.000000
# 5 0.000000 0.000000 0.000000 0.000000 0.034207 0.000000
# 6 0.000000 0.000000 0.000000 0.000000 0.000000 0.037674
#
#
# Mechanical properties :
#
#
# Convention : Reuss Voigt Hill
#
# Bulk Modulus (GPa) = 57.36605 59.95051 58.65828
# Shear Modulus (GPa) = 21.48477 22.94571 22.21524
#
# Velocity S-wave (km/s) = 3.63284 3.75433 3.69408
# Velocity P-wave (km/s) = 7.26878 7.45784 7.36392
#
# Compressibility (1/GPa) = 0.01743191
#
# Stress axis : x y z
#
# Youngs Moduli (GPa) = 44.26954 47.92112 72.13886
#
# Poissons Ratio (x) = 0.42185 0.51633
# Poissons Ratio (y) = 0.38971 0.28732
# Poissons Ratio (z) = 0.31686 0.19086
#
# Static dielectric constant tensor:
#      x y z
#    x 3.104300 0.000000 0.000000 
#    y 0.000000 2.958090 0.000000 
#    z 0.000000 0.000000 3.147790 
# 
# 
# High freq. dielectric constant tensor:
#      x y z
#    x 1.637090 0.000000 0.000000 
#    y 0.000000 1.606510 0.000000 
#    z 0.000000 0.000000 1.617600 
# 
# From -- ./inp_files/38463.got.cif
#   From: 2010.03.12/outbox.cif.g09.slc.cpg/sg53_20_cif.got.tgz:38463.got - 2010.04.16 14:36:59.
