data_PCOD8219271
_publ_section_title
;
Structure prediction by ZEFSAII (Michael W. Deem and Ramdas Pophale) SiO2 
 PCOD8219271
Probable space group: P M N A
;
_chemical_formula_sum "Si O2"
_cell_formula_units_Z 48
_cell_length_a 8.856388
_cell_length_b 11.707021
_cell_length_c 25.877280
_cell_angle_alpha 90.000000
_cell_angle_beta 90.000000
_cell_angle_gamma 90.000000
_cell_volume 2683.006083
_symmetry_space_group_name_H-M "P M N A"
_symmetry_group_IT_number 53
_symmetry_cell_setting 'orthorhombic'
loop_
_space_group_symop_operation_xyz
x,y,z
1/2-x,-y,1/2+z
x,-y,-z
1/2-x,y,1/2-z
-x,-y,-z
1/2+x,y,1/2-z
-x,y,z
1/2+x,-y,1/2+z
loop_
_atom_site_type_symbol
_atom_site_label
_atom_site_fract_x
_atom_site_fract_y
_atom_site_fract_z
Si Si1 0.173694 0.656529 0.884207
Si Si2 0.178381 0.539357 0.443466
Si Si3 0.821655 0.177553 0.305798
Si Si4 0.172797 0.779492 0.071668
Si Si5 0.325100 0.017781 0.883699
Si Si6 0.168817 0.140273 0.041565
O O1 0.249119 0.536408 0.898183
O O2 0.256121 0.712678 0.835288
O O3 0.192891 0.734566 0.934744
O O4 0.000000 0.636796 0.869332
O O5 0.237645 0.500000 0.500000
O O6 0.224786 0.668286 0.431649
O O7 0.000000 0.527053 0.440473
O O8 0.750000 0.170201 0.250000
O O9 0.000000 0.191986 0.302092
O O10 0.776959 0.060316 0.335096
O O11 0.232300 0.863224 0.117130
O O12 0.000000 0.744005 0.082036
O O13 0.190669 0.852177 0.019403
O O14 0.500000 0.048798 0.882477
O O15 0.290445 0.946731 0.935668
O O16 0.000000 0.095492 0.055176
#
# Coordination Sequence:
#
# PCOD8219271 Si02
#       6
#     8   8   8   8   8   8
#     4  10  19  34  55  79 109 143 182 225 269 317
#     4  11  22  34  51  76 110 149 187 225 266 316
#     4  10  21  38  60  84 108 136 175 225 279 328
#     4  11  21  33  50  73 106 147 186 218 258 316
#     4  10  21  34  50  76 107 137 174 221 271 321
#     4   9  18  31  48  72 104 142 180 217 256 310
#
# _framework density 17.890381000000001
#
# number of rings (size 3 to 8) (size 9 to 14) (size 15 to 20)
#    0.000    1.833    1.667    3.000    0.000    6.667 
#    0.000    0.000    0.000    1.000    0.000    4.667 
#    0.000    0.000    0.000    0.000    0.000    0.000 
#
# Total GULP energy -595293.041399 kJ/mol
# GULP energy per Si atom -12401.938362 kJ/mol
# Density = 1.784966 g / cm^3
# Si number density = 17.890381 Si / 1000 Ang^3
#
#
#
# Elastic Constant Matrix: (Units=GPa)
#
#
# Indices 1 2 3 4 5 6 
#
# 1 82.5005 41.5467 43.1359 0.0000 0.0000 0.0000
# 2 41.5467 89.6211 47.9603 0.0000 0.0000 0.0000
# 3 43.1359 47.9603 90.8926 0.0000 0.0000 0.0000
# 4 0.0000 0.0000 0.0000 46.0427 0.0000 0.0000
# 5 0.0000 0.0000 0.0000 0.0000 24.8696 0.0000
# 6 0.0000 0.0000 0.0000 0.0000 0.0000 34.6768
#
#
#
# Elastic Compliance Matrix: (Units=1/GPa)
#
#
# Indices 1 2 3 4 5 6 
#
# 1 0.017686 -0.005166 -0.005668 0.000000 0.000000 0.000000
# 2 -0.005166 0.017058 -0.006549 0.000000 0.000000 0.000000
# 3 -0.005668 -0.006549 0.017147 0.000000 0.000000 0.000000
# 4 0.000000 0.000000 0.000000 0.021719 0.000000 0.000000
# 5 0.000000 0.000000 0.000000 0.000000 0.040210 0.000000
# 6 0.000000 0.000000 0.000000 0.000000 0.000000 0.028838
#
#
# Mechanical properties :
#
#
# Convention : Reuss Voigt Hill
#
# Bulk Modulus (GPa) = 58.39075 58.69999 58.54537
# Shear Modulus (GPa) = 27.30289 29.80924 28.55607
#
# Velocity S-wave (km/s) = 3.91080 4.08636 3.99954
# Velocity P-wave (km/s) = 7.28707 7.42608 7.35690
#
# Compressibility (1/GPa) = 0.01712600
#
# Stress axis : x y z
#
# Youngs Moduli (GPa) = 56.54188 58.62509 58.31817
#
# Poissons Ratio (x) = 0.30285 0.33052
# Poissons Ratio (y) = 0.29209 0.38192
# Poissons Ratio (z) = 0.32046 0.38393
#
# Static dielectric constant tensor:
#      x y z
#    x 3.400490 0.000000 0.000000 
#    y 0.000000 3.270200 0.000000 
#    z 0.000000 0.000000 3.127140 
# 
# 
# High freq. dielectric constant tensor:
#      x y z
#    x 1.705830 0.000000 0.000000 
#    y 0.000000 1.694780 0.000000 
#    z 0.000000 0.000000 1.657860 
# 
# From -- ./inp_files/33840.got.cif
#   From: 2010.03.12/outbox.cif.g09.slc.cpg/sg53_17_cif.got.tgz:33840.got - 2010.04.16 14:36:59.
