data_PCOD8219197
_publ_section_title
;
Structure prediction by ZEFSAII (Michael W. Deem and Ramdas Pophale) SiO2 
 PCOD8219197
Probable space group: P M N A
;
_chemical_formula_sum "Si O2"
_cell_formula_units_Z 64
_cell_length_a 17.963870
_cell_length_b 9.358340
_cell_length_c 19.082978
_cell_angle_alpha 90.000000
_cell_angle_beta 90.000000
_cell_angle_gamma 90.000000
_cell_volume 3208.077658
_symmetry_space_group_name_H-M "P M N A"
_symmetry_group_IT_number 53
_symmetry_cell_setting 'orthorhombic'
loop_
_space_group_symop_operation_xyz
x,y,z
1/2-x,-y,1/2+z
x,-y,-z
1/2-x,y,1/2-z
-x,-y,-z
1/2+x,y,1/2-z
-x,y,z
1/2+x,-y,1/2+z
loop_
_atom_site_type_symbol
_atom_site_label
_atom_site_fract_x
_atom_site_fract_y
_atom_site_fract_z
Si Si1 0.913229 0.928703 0.769899
Si Si2 0.323260 0.357795 0.293384
Si Si3 0.082349 0.840999 0.992608
Si Si4 0.360020 0.166983 0.632928
Si Si5 0.798597 0.362412 0.047896
Si Si6 0.914293 0.623707 0.240466
Si Si7 0.415276 0.850486 0.146730
Si Si8 0.283588 0.856314 0.042985
O O1 0.857988 0.796846 0.778978
O O2 0.000000 0.882888 0.768993
O O3 0.897384 0.022921 0.838431
O O4 0.893291 0.021038 0.700303
O O5 0.250000 0.375769 0.250000
O O6 0.290893 0.399572 0.370556
O O7 0.386757 0.462136 0.262977
O O8 0.087061 0.775597 0.070546
O O9 0.000000 0.845711 0.961290
O O10 0.130311 0.741363 0.943259
O O11 0.117424 0.000000 0.000000
O O12 0.358878 0.289208 0.690544
O O13 0.276200 0.143775 0.605744
O O14 0.815285 0.500000 0.000000
O O15 0.730467 0.275840 0.011229
O O16 0.907110 0.694977 0.317031
O O17 0.000000 0.634003 0.215270
O O18 0.500000 0.873695 0.121690
O O19 0.364759 0.847841 0.077583
O O20 0.277288 0.000000 0.000000
#
# Coordination Sequence:
#
# PCOD8219197 Si02
#       8
#     8   8   8   8   8   8   8   8
#     4  10  21  38  61  92 130 160 204 264 316 373
#     4  12  26  38  63  90 127 167 211 255 327 377
#     4  10  19  33  56  84 120 164 203 239 296 365
#     4  10  19  34  61  90 121 157 205 248 303 365
#     4  11  25  41  56  88 127 165 211 260 304 375
#     4  10  22  40  63  91 124 163 210 259 308 375
#     4   9  22  42  67  94 119 162 217 265 318 375
#     4  11  23  39  65  87 131 163 208 262 313 371
#
# _framework density 19.949642999999998
#
# number of rings (size 3 to 8) (size 9 to 14) (size 15 to 20)
#    0.000    1.625    0.000    6.750    7.000    3.500 
#    0.000    0.000    0.000    0.375    0.000    0.000 
#    0.000    0.000    0.000    0.000    0.000    0.000 
#
# Total GULP energy -793181.604932 kJ/mol
# GULP energy per Si atom -12393.462577 kJ/mol
# Density = 1.990424 g / cm^3
# Si number density = 19.949643 Si / 1000 Ang^3
#
#
#
# Elastic Constant Matrix: (Units=GPa)
#
#
# Indices 1 2 3 4 5 6 
#
# 1 107.7104 30.3533 58.9871 0.0000 0.0000 0.0000
# 2 30.3533 93.6268 31.3124 0.0000 0.0000 0.0000
# 3 58.9871 31.3124 72.6675 0.0000 0.0000 0.0000
# 4 0.0000 0.0000 0.0000 19.1221 0.0000 0.0000
# 5 0.0000 0.0000 0.0000 0.0000 28.1932 0.0000
# 6 0.0000 0.0000 0.0000 0.0000 0.0000 23.5241
#
#
#
# Elastic Compliance Matrix: (Units=1/GPa)
#
#
# Indices 1 2 3 4 5 6 
#
# 1 0.016800 -0.001035 -0.013191 0.000000 0.000000 0.000000
# 2 -0.001035 0.012543 -0.004565 0.000000 0.000000 0.000000
# 3 -0.013191 -0.004565 0.026436 0.000000 0.000000 0.000000
# 4 0.000000 0.000000 0.000000 0.052296 0.000000 0.000000
# 5 0.000000 0.000000 0.000000 0.000000 0.035470 0.000000
# 6 0.000000 0.000000 0.000000 0.000000 0.000000 0.042510
#
#
# Mechanical properties :
#
#
# Convention : Reuss Voigt Hill
#
# Bulk Modulus (GPa) = 54.95320 57.25669 56.10495
# Shear Modulus (GPa) = 21.76744 24.39132 23.07938
#
# Velocity S-wave (km/s) = 3.30679 3.50043 3.40499
# Velocity P-wave (km/s) = 6.49504 6.71567 6.60628
#
# Compressibility (1/GPa) = 0.01819730
#
# Stress axis : x y z
#
# Youngs Moduli (GPa) = 59.52419 79.72711 37.82706
#
# Poissons Ratio (x) = 0.08250 0.49899
# Poissons Ratio (y) = 0.06159 0.17267
# Poissons Ratio (z) = 0.78520 0.36393
#
# Static dielectric constant tensor:
#      x y z
#    x 3.523590 0.000000 0.000000 
#    y 0.000000 3.798510 0.000000 
#    z 0.000000 0.000000 3.608440 
# 
# 
# High freq. dielectric constant tensor:
#      x y z
#    x 1.771070 0.000000 0.000000 
#    y 0.000000 1.781520 0.000000 
#    z 0.000000 0.000000 1.773770 
# 
# From -- ./inp_files/32846.got.cif
#   From: 2010.03.12/outbox.cif.g09.slc.cpg/sg53_17_cif.got.tgz:32846.got - 2010.04.16 14:36:59.
