data_PCOD8219992
_publ_section_title
;
Structure prediction by ZEFSAII (Michael W. Deem and Ramdas Pophale) SiO2 
 PCOD8219992
Probable space group: P M N A
;
_chemical_formula_sum "Si O2"
_cell_formula_units_Z 64
_cell_length_a 8.621417
_cell_length_b 15.138777
_cell_length_c 29.520438
_cell_angle_alpha 90.000000
_cell_angle_beta 90.000000
_cell_angle_gamma 90.000000
_cell_volume 3852.939948
_symmetry_space_group_name_H-M "P M N A"
_symmetry_group_IT_number 53
_symmetry_cell_setting 'orthorhombic'
loop_
_space_group_symop_operation_xyz
x,y,z
1/2-x,-y,1/2+z
x,-y,-z
1/2-x,y,1/2-z
-x,-y,-z
1/2+x,y,1/2-z
-x,y,z
1/2+x,-y,1/2+z
loop_
_atom_site_type_symbol
_atom_site_label
_atom_site_fract_x
_atom_site_fract_y
_atom_site_fract_z
Si Si1 0.183340 0.287464 0.797014
Si Si2 0.680504 0.943770 0.059535
Si Si3 0.682344 0.630502 0.443413
Si Si4 0.318906 0.782402 0.115363
Si Si5 0.819757 0.539395 0.604926
Si Si6 0.682349 0.479675 0.796464
Si Si7 0.816848 0.129576 0.465347
Si Si8 0.818076 0.317047 0.042444
O O1 0.250000 0.252175 0.750000
O O2 0.266377 0.226261 0.833425
O O3 0.228859 0.388606 0.805068
O O4 0.000000 0.276909 0.799622
O O5 0.500000 0.952105 0.049519
O O6 0.717490 0.884548 0.103237
O O7 0.739053 0.045086 0.065257
O O8 0.747040 0.892552 0.015644
O O9 0.500000 0.610631 0.442364
O O10 0.717941 0.719354 0.416321
O O11 0.768664 0.550131 0.419458
O O12 0.745051 0.642928 0.494824
O O13 0.500000 0.759201 0.109002
O O14 0.785309 0.538714 0.659095
O O15 0.731505 0.622483 0.584303
O O16 0.000000 0.551803 0.595843
O O17 0.750000 0.523875 0.750000
O O18 0.500000 0.460718 0.790236
O O19 0.739605 0.218564 0.447396
O O20 0.000000 0.145519 0.463666
O O21 0.000000 0.314624 0.039309
#
# Coordination Sequence:
#
# PCOD8219992 Si02
#       8
#     8   8   8   8   8   8   8   8
#     4  11  21  33  50  72 100 133 165 205 251 298
#     4   8  16  29  51  75  97 127 166 207 244 290
#     4  11  22  34  47  69 102 138 172 208 248 293
#     4  11  19  31  51  75 101 133 170 206 247 300
#     4  11  23  36  52  72  96 133 176 209 246 300
#     4  10  20  34  52  74  97 125 164 207 251 300
#     4   9  16  32  52  72  96 129 170 207 245 290
#     4  11  23  35  48  71 103 136 172 213 256 295
#
# _framework density 16.610692
#
# number of rings (size 3 to 8) (size 9 to 14) (size 15 to 20)
#    0.000    1.750    2.500    4.875    0.000    4.500 
#    0.000    2.500    0.000    0.000    0.000    0.875 
#    0.000    4.000    0.000    0.000    0.000    0.000 
#
# Total GULP energy -793389.122697 kJ/mol
# GULP energy per Si atom -12396.705042 kJ/mol
# Density = 1.657289 g / cm^3
# Si number density = 16.610692 Si / 1000 Ang^3
#
#
#
# Elastic Constant Matrix: (Units=GPa)
#
#
# Indices 1 2 3 4 5 6 
#
# 1 11.9178 4.4237 2.4801 0.0000 0.0000 0.0000
# 2 4.4237 88.8201 43.2412 0.0000 0.0000 0.0000
# 3 2.4801 43.2412 97.7496 0.0000 0.0000 0.0000
# 4 0.0000 0.0000 0.0000 22.4277 0.0000 0.0000
# 5 0.0000 0.0000 0.0000 0.0000 25.4335 0.0000
# 6 0.0000 0.0000 0.0000 0.0000 0.0000 4.2855
#
#
#
# Elastic Compliance Matrix: (Units=1/GPa)
#
#
# Indices 1 2 3 4 5 6 
#
# 1 0.085499 -0.004081 -0.000364 0.000000 0.000000 0.000000
# 2 -0.004081 0.014544 -0.006330 0.000000 0.000000 0.000000
# 3 -0.000364 -0.006330 0.013040 0.000000 0.000000 0.000000
# 4 0.000000 0.000000 0.000000 0.044588 0.000000 0.000000
# 5 0.000000 0.000000 0.000000 0.000000 0.039318 0.000000
# 6 0.000000 0.000000 0.000000 0.000000 0.000000 0.233343
#
#
# Mechanical properties :
#
#
# Convention : Reuss Voigt Hill
#
# Bulk Modulus (GPa) = 10.92516 33.19747 22.06132
# Shear Modulus (GPa) = 10.36502 20.31885 15.34194
#
# Velocity S-wave (km/s) = 2.50070 3.50128 3.04241
# Velocity P-wave (km/s) = 3.86387 6.03111 5.06477
#
# Compressibility (1/GPa) = 0.09153180
#
# Stress axis : x y z
#
# Youngs Moduli (GPa) = 11.69610 68.75814 76.68891
#
# Poissons Ratio (x) = 0.28061 0.02791
# Poissons Ratio (y) = 0.04773 0.48545
# Poissons Ratio (z) = 0.00426 0.43525
#
# Static dielectric constant tensor:
#      x y z
#    x 3.117960 0.000000 0.000000 
#    y 0.000000 3.131650 0.000000 
#    z 0.000000 0.000000 3.289530 
# 
# 
# High freq. dielectric constant tensor:
#      x y z
#    x 1.643450 0.000000 0.000000 
#    y 0.000000 1.621870 0.000000 
#    z 0.000000 0.000000 1.629920 
# 
# From -- ./inp_files/38528.got.cif
#   From: 2010.03.12/outbox.cif.g09.slc.cpg/sg53_20_cif.got.tgz:38528.got - 2010.04.16 14:36:59.
