data_PCOD8219133
_publ_section_title
;
Structure prediction by ZEFSAII (Michael W. Deem and Ramdas Pophale) SiO2 
 PCOD8219133
Probable space group: P M N A
;
_chemical_formula_sum "Si O2"
_cell_formula_units_Z 64
_cell_length_a 17.075324
_cell_length_b 12.259358
_cell_length_c 15.604179
_cell_angle_alpha 90.000000
_cell_angle_beta 90.000000
_cell_angle_gamma 90.000000
_cell_volume 3266.461955
_symmetry_space_group_name_H-M "P M N A"
_symmetry_group_IT_number 53
_symmetry_cell_setting 'orthorhombic'
loop_
_space_group_symop_operation_xyz
x,y,z
1/2-x,-y,1/2+z
x,-y,-z
1/2-x,y,1/2-z
-x,-y,-z
1/2+x,y,1/2-z
-x,y,z
1/2+x,-y,1/2+z
loop_
_atom_site_type_symbol
_atom_site_label
_atom_site_fract_x
_atom_site_fract_y
_atom_site_fract_z
Si Si1 0.341287 0.514870 0.266439
Si Si2 0.870051 0.376862 0.483588
Si Si3 0.219870 0.762775 0.999372
Si Si4 0.711702 0.875060 0.841578
Si Si5 0.409534 0.604950 0.441065
Si Si6 0.086909 0.691917 0.692423
Si Si7 0.792946 0.119330 0.660009
Si Si8 0.414251 0.300802 0.843078
O O1 0.250000 0.501672 0.250000
O O2 0.362859 0.573621 0.355026
O O3 0.376977 0.392136 0.262387
O O4 0.371117 0.592657 0.191553
O O5 0.853589 0.500000 0.500000
O O6 0.783140 0.329032 0.479969
O O7 0.918798 0.372257 0.396413
O O8 0.920943 0.315507 0.554969
O O9 0.134819 0.706190 0.012324
O O10 0.239166 0.830214 0.085252
O O11 0.224795 0.838398 0.913966
O O12 0.750000 0.876621 0.750000
O O13 0.636394 0.798924 0.830208
O O14 0.683324 0.996562 0.866573
O O15 0.408580 0.500000 0.500000
O O16 0.500000 0.639209 0.421787
O O17 0.000000 0.725385 0.724014
O O18 0.750000 0.121151 0.750000
O O19 0.870763 0.188488 0.676257
O O20 0.500000 0.291636 0.801688
#
# Coordination Sequence:
#
# PCOD8219133 Si02
#       8
#     8   8   8   8   8   8   8   8
#     4  12  24  38  59  88 123 161 207 249 305 374
#     4  10  19  33  54  86 121 154 188 225 282 369
#     4  10  21  38  63  86 116 161 204 249 300 363
#     4  10  23  41  62  87 114 157 210 254 304 366
#     4  11  25  40  59  90 129 167 207 257 311 367
#     4  11  23  36  57  87 123 157 189 243 304 369
#     4  10  21  40  62  87 115 152 205 258 303 363
#     4  11  21  34  58  88 121 156 191 244 307 365
#
# _framework density 19.593064999999999
#
# number of rings (size 3 to 8) (size 9 to 14) (size 15 to 20)
#    0.000    1.375    1.250    5.250    5.250    1.000 
#    0.000    0.000    0.000    7.500    0.000    0.000 
#    0.000    0.000    0.000    0.000    0.000    0.000 
#
# Total GULP energy -793316.941458 kJ/mol
# GULP energy per Si atom -12395.577210 kJ/mol
# Density = 1.954847 g / cm^3
# Si number density = 19.593065 Si / 1000 Ang^3
#
#
#
# Elastic Constant Matrix: (Units=GPa)
#
#
# Indices 1 2 3 4 5 6 
#
# 1 131.1123 47.8076 29.0864 0.0000 0.0000 0.0000
# 2 47.8076 124.4808 20.4186 0.0000 0.0000 0.0000
# 3 29.0864 20.4186 59.4598 0.0000 0.0000 0.0000
# 4 0.0000 0.0000 0.0000 25.7848 0.0000 0.0000
# 5 0.0000 0.0000 0.0000 0.0000 11.7781 0.0000
# 6 0.0000 0.0000 0.0000 0.0000 0.0000 19.7740
#
#
#
# Elastic Compliance Matrix: (Units=1/GPa)
#
#
# Indices 1 2 3 4 5 6 
#
# 1 0.009550 -0.003075 -0.003616 0.000000 0.000000 0.000000
# 2 -0.003075 0.009503 -0.001759 0.000000 0.000000 0.000000
# 3 -0.003616 -0.001759 0.019191 0.000000 0.000000 0.000000
# 4 0.000000 0.000000 0.000000 0.038782 0.000000 0.000000
# 5 0.000000 0.000000 0.000000 0.000000 0.084903 0.000000
# 6 0.000000 0.000000 0.000000 0.000000 0.000000 0.050571
#
#
# Mechanical properties :
#
#
# Convention : Reuss Voigt Hill
#
# Bulk Modulus (GPa) = 46.85063 56.63092 51.74078
# Shear Modulus (GPa) = 21.14021 25.98341 23.56181
#
# Velocity S-wave (km/s) = 3.28832 3.64559 3.47156
# Velocity P-wave (km/s) = 6.19525 6.83277 6.52181
#
# Compressibility (1/GPa) = 0.02134443
#
# Stress axis : x y z
#
# Youngs Moduli (GPa) = 104.70794 105.23212 52.10770
#
# Poissons Ratio (x) = 0.32356 0.18842
# Poissons Ratio (y) = 0.32195 0.09167
# Poissons Ratio (z) = 0.37862 0.18512
#
# Static dielectric constant tensor:
#      x y z
#    x 3.500180 0.000000 0.000000 
#    y 0.000000 3.925490 0.000000 
#    z 0.000000 0.000000 3.775060 
# 
# 
# High freq. dielectric constant tensor:
#      x y z
#    x 1.753810 0.000000 0.000000 
#    y 0.000000 1.762520 0.000000 
#    z 0.000000 0.000000 1.776130 
# 
# From -- ./inp_files/28578.got.cif
#   From: 2010.03.12/outbox.cif.g09.slc.cpg/sg53_15_cif.got.tgz:28578.got - 2010.04.16 14:36:59.
