data_PCOD8219380
_publ_section_title
;
Structure prediction by ZEFSAII (Michael W. Deem and Ramdas Pophale) SiO2 
 PCOD8219380
Probable space group: P M N A
;
_chemical_formula_sum "Si O2"
_cell_formula_units_Z 64
_cell_length_a 17.710731
_cell_length_b 15.522594
_cell_length_c 11.693149
_cell_angle_alpha 90.000000
_cell_angle_beta 90.000000
_cell_angle_gamma 90.000000
_cell_volume 3214.639442
_symmetry_space_group_name_H-M "P M N A"
_symmetry_group_IT_number 53
_symmetry_cell_setting 'orthorhombic'
loop_
_space_group_symop_operation_xyz
x,y,z
1/2-x,-y,1/2+z
x,-y,-z
1/2-x,y,1/2-z
-x,-y,-z
1/2+x,y,1/2-z
-x,y,z
1/2+x,-y,1/2+z
loop_
_atom_site_type_symbol
_atom_site_label
_atom_site_fract_x
_atom_site_fract_y
_atom_site_fract_z
Si Si1 0.914835 0.437812 0.145073
Si Si2 0.413880 0.370910 0.703792
Si Si3 0.912834 0.128044 0.573659
Si Si4 0.167536 0.304954 0.582063
Si Si5 0.415457 0.328487 0.144827
Si Si6 0.586743 0.949242 0.825664
Si Si7 0.166106 0.809623 0.793887
Si Si8 0.335917 0.698468 0.494711
O O1 0.897512 0.539122 0.137765
O O2 0.910499 0.414194 0.279148
O O3 0.852542 0.383855 0.075787
O O4 0.000000 0.417704 0.098709
O O5 0.500000 0.363498 0.745556
O O6 0.359433 0.363414 0.812677
O O7 0.396782 0.297608 0.608279
O O8 0.859512 0.207443 0.604777
O O9 0.899273 0.102416 0.442718
O O10 0.000000 0.153574 0.593201
O O11 0.890487 0.048772 0.656265
O O12 0.134850 0.343534 0.465583
O O13 0.256938 0.310214 0.570548
O O14 0.500000 0.308943 0.102850
O O15 0.390673 0.247719 0.220576
O O16 0.500000 0.942718 0.787696
O O17 0.639683 0.908369 0.726382
O O18 0.250000 0.793267 0.750000
O O19 0.160790 0.785005 0.928182
#
# Coordination Sequence:
#
# PCOD8219380 Si02
#       8
#     8   8   8   8   8   8   8   8
#     4   9  21  41  62  84 114 154 205 257 306 371
#     4  11  24  43  62  82 114 165 215 250 301 373
#     4   9  17  32  56  87 121 155 192 242 295 357
#     4  12  22  38  58  89 124 157 198 255 312 367
#     4  10  19  34  59  87 116 154 195 248 309 363
#     4   9  17  30  55  88 117 151 198 242 294 356
#     4  11  19  34  56  87 123 154 195 250 310 362
#     4  11  23  39  58  86 121 158 204 254 309 370
#
# _framework density 19.908919000000001
#
# number of rings (size 3 to 8) (size 9 to 14) (size 15 to 20)
#    0.000    1.750    2.500    3.375    0.000    3.000 
#    6.750    3.125    0.000    2.250    0.000    2.625 
#    0.000    0.000    0.000    0.000    0.000    0.000 
#
# Total GULP energy -793560.591248 kJ/mol
# GULP energy per Si atom -12399.384238 kJ/mol
# Density = 1.986361 g / cm^3
# Si number density = 19.908919 Si / 1000 Ang^3
#
#
#
# Elastic Constant Matrix: (Units=GPa)
#
#
# Indices 1 2 3 4 5 6 
#
# 1 84.9524 46.4217 29.3588 0.0000 0.0000 0.0000
# 2 46.4217 77.4412 22.0322 0.0000 0.0000 0.0000
# 3 29.3588 22.0322 79.0917 0.0000 0.0000 0.0000
# 4 0.0000 0.0000 0.0000 32.1005 0.0000 0.0000
# 5 0.0000 0.0000 0.0000 0.0000 35.0162 0.0000
# 6 0.0000 0.0000 0.0000 0.0000 0.0000 17.3610
#
#
#
# Elastic Compliance Matrix: (Units=1/GPa)
#
#
# Indices 1 2 3 4 5 6 
#
# 1 0.018677 -0.010017 -0.004142 0.000000 0.000000 0.000000
# 2 -0.010017 0.019397 -0.001685 0.000000 0.000000 0.000000
# 3 -0.004142 -0.001685 0.014651 0.000000 0.000000 0.000000
# 4 0.000000 0.000000 0.000000 0.031152 0.000000 0.000000
# 5 0.000000 0.000000 0.000000 0.000000 0.028558 0.000000
# 6 0.000000 0.000000 0.000000 0.000000 0.000000 0.057601
#
#
# Mechanical properties :
#
#
# Convention : Reuss Voigt Hill
#
# Bulk Modulus (GPa) = 47.53890 48.56785 48.05337
# Shear Modulus (GPa) = 23.95369 26.47369 25.21369
#
# Velocity S-wave (km/s) = 3.47243 3.65052 3.56259
# Velocity P-wave (km/s) = 6.32511 6.49741 6.41184
#
# Compressibility (1/GPa) = 0.02103540
#
# Stress axis : x y z
#
# Youngs Moduli (GPa) = 53.54276 51.55398 68.25672
#
# Poissons Ratio (x) = 0.51642 0.28274
# Poissons Ratio (y) = 0.53634 0.11501
# Poissons Ratio (z) = 0.22179 0.08687
#
# Static dielectric constant tensor:
#      x y z
#    x 3.572790 0.000000 0.000000 
#    y 0.000000 3.601800 0.000000 
#    z 0.000000 0.000000 3.646390 
# 
# 
# High freq. dielectric constant tensor:
#      x y z
#    x 1.775710 0.000000 0.000000 
#    y 0.000000 1.760810 0.000000 
#    z 0.000000 0.000000 1.770110 
# 
# From -- ./inp_files/17092.got.cif
#   From: 2010.03.12/outbox.cif.g09.slc.cpg/sg53_9_cif.got.tgz:17092.got - 2010.04.16 14:36:59.
