data_PCOD8219129
_publ_section_title
;
Structure prediction by ZEFSAII (Michael W. Deem and Ramdas Pophale) SiO2 
 PCOD8219129
Probable space group: P M N A
;
_chemical_formula_sum "Si O2"
_cell_formula_units_Z 48
_cell_length_a 8.777888
_cell_length_b 13.420508
_cell_length_c 19.361565
_cell_angle_alpha 90.000000
_cell_angle_beta 90.000000
_cell_angle_gamma 90.000000
_cell_volume 2280.864307
_symmetry_space_group_name_H-M "P M N A"
_symmetry_group_IT_number 53
_symmetry_cell_setting 'orthorhombic'
loop_
_space_group_symop_operation_xyz
x,y,z
1/2-x,-y,1/2+z
x,-y,-z
1/2-x,y,1/2-z
-x,-y,-z
1/2+x,y,1/2-z
-x,y,z
1/2+x,-y,1/2+z
loop_
_atom_site_type_symbol
_atom_site_label
_atom_site_fract_x
_atom_site_fract_y
_atom_site_fract_z
Si Si1 0.178686 0.315140 0.959880
Si Si2 0.679913 0.389159 0.090271
Si Si3 0.180357 0.907491 0.042813
Si Si4 0.321702 0.431417 0.674901
Si Si5 0.318827 0.774492 0.678319
Si Si6 0.177228 0.000895 0.818171
O O1 0.240193 0.202917 0.975726
O O2 0.210897 0.341928 0.879461
O O3 0.000000 0.324040 0.975727
O O4 0.265951 0.393394 0.009982
O O5 0.500000 0.400352 0.093923
O O6 0.754301 0.469980 0.140301
O O7 0.738557 0.282430 0.116066
O O8 0.000000 0.908963 0.031853
O O9 0.227345 0.925872 0.121449
O O10 0.252675 0.000000 0.000000
O O11 0.250000 0.408028 0.750000
O O12 0.500000 0.448108 0.686379
O O13 0.250000 0.733687 0.750000
O O14 0.500000 0.758843 0.676593
O O15 0.268238 0.888499 0.666940
O O16 0.250000 0.046510 0.750000
O O17 0.000000 0.999061 0.806807
#
# Coordination Sequence:
#
# PCOD8219129 Si02
#       6
#     8   8   8   8   8   8
#     4  10  22  40  62  87 116 153 194 236 284 340
#     4  12  24  38  59  86 116 150 191 240 293 345
#     4   9  17  33  58  85 112 147 192 234 275 330
#     4  11  24  42  63  87 117 152 192 235 283 341
#     4  10  19  33  54  82 117 154 194 240 291 345
#     4   9  18  32  53  80 111 149 189 233 284 340
#
# _framework density 21.044654000000001
#
# number of rings (size 3 to 8) (size 9 to 14) (size 15 to 20)
#    0.000    1.833    0.000    4.500    0.000    7.333 
#    0.000    0.833    0.000    2.000    0.000    0.000 
#    0.000    0.000    0.000    0.000    0.000    0.000 
#
# Total GULP energy -595053.096213 kJ/mol
# GULP energy per Si atom -12396.939504 kJ/mol
# Density = 2.099676 g / cm^3
# Si number density = 21.044654 Si / 1000 Ang^3
#
#
#
# Elastic Constant Matrix: (Units=GPa)
#
#
# Indices 1 2 3 4 5 6 
#
# 1 81.8611 29.5376 46.2729 0.0000 0.0000 0.0000
# 2 29.5376 86.7290 48.5028 0.0000 0.0000 0.0000
# 3 46.2729 48.5028 104.6861 0.0000 0.0000 0.0000
# 4 0.0000 0.0000 0.0000 39.0970 0.0000 0.0000
# 5 0.0000 0.0000 0.0000 0.0000 38.9575 0.0000
# 6 0.0000 0.0000 0.0000 0.0000 0.0000 5.2057
#
#
#
# Elastic Compliance Matrix: (Units=1/GPa)
#
#
# Indices 1 2 3 4 5 6 
#
# 1 0.016560 -0.002087 -0.006353 0.000000 0.000000 0.000000
# 2 -0.002087 0.015826 -0.006410 0.000000 0.000000 0.000000
# 3 -0.006353 -0.006410 0.015330 0.000000 0.000000 0.000000
# 4 0.000000 0.000000 0.000000 0.025577 0.000000 0.000000
# 5 0.000000 0.000000 0.000000 0.000000 0.025669 0.000000
# 6 0.000000 0.000000 0.000000 0.000000 0.000000 0.192098
#
#
# Mechanical properties :
#
#
# Convention : Reuss Voigt Hill
#
# Bulk Modulus (GPa) = 55.50489 57.98919 56.74704
# Shear Modulus (GPa) = 15.30153 26.58288 20.94221
#
# Velocity S-wave (km/s) = 2.69940 3.55796 3.15799
# Velocity P-wave (km/s) = 6.01230 6.67037 6.34987
#
# Compressibility (1/GPa) = 0.01801643
#
# Stress axis : x y z
#
# Youngs Moduli (GPa) = 60.38699 63.18880 65.23118
#
# Poissons Ratio (x) = 0.13188 0.41440
# Poissons Ratio (y) = 0.12603 0.41811
# Poissons Ratio (z) = 0.38362 0.40502
#
# Static dielectric constant tensor:
#      x y z
#    x 3.581700 0.000000 0.000000 
#    y 0.000000 3.917570 0.000000 
#    z 0.000000 0.000000 3.689090 
# 
# 
# High freq. dielectric constant tensor:
#      x y z
#    x 1.797920 0.000000 0.000000 
#    y 0.000000 1.824430 0.000000 
#    z 0.000000 0.000000 1.841240 
# 
# From -- ./inp_files/26263.got.cif
#   From: 2010.03.12/outbox.cif.g09.slc.cpg/sg53_14_cif.got.tgz:26263.got - 2010.04.16 14:36:59.
