data_PCOD8219635
_publ_section_title
;
Structure prediction by ZEFSAII (Michael W. Deem and Ramdas Pophale) SiO2 
 PCOD8219635
Probable space group: P M N A
;
_chemical_formula_sum "Si O2"
_cell_formula_units_Z 64
_cell_length_a 17.566099
_cell_length_b 12.144371
_cell_length_c 14.454204
_cell_angle_alpha 90.000000
_cell_angle_beta 90.000000
_cell_angle_gamma 90.000000
_cell_volume 3083.504112
_symmetry_space_group_name_H-M "P M N A"
_symmetry_group_IT_number 53
_symmetry_cell_setting 'orthorhombic'
loop_
_space_group_symop_operation_xyz
x,y,z
1/2-x,-y,1/2+z
x,-y,-z
1/2-x,y,1/2-z
-x,-y,-z
1/2+x,y,1/2-z
-x,y,z
1/2+x,-y,1/2+z
loop_
_atom_site_type_symbol
_atom_site_label
_atom_site_fract_x
_atom_site_fract_y
_atom_site_fract_z
Si Si1 0.090594 0.955809 0.294241
Si Si2 0.588260 0.938672 0.410598
Si Si3 0.087122 0.680190 0.094983
Si Si4 0.236156 0.375431 0.991236
Si Si5 0.411305 0.824732 0.894345
Si Si6 0.860176 0.753960 0.403876
Si Si7 0.915160 0.565442 0.290059
Si Si8 0.686620 0.645396 0.823731
O O1 0.116276 0.985542 0.188939
O O2 0.138452 0.850009 0.327733
O O3 0.000000 0.928561 0.298112
O O4 0.114096 0.054070 0.362480
O O5 0.500000 0.964110 0.418200
O O6 0.604653 0.809289 0.408587
O O7 0.627711 0.000000 0.500000
O O8 0.105066 0.627676 0.194637
O O9 0.000000 0.655940 0.065011
O O10 0.144835 0.625845 0.021319
O O11 0.265110 0.325222 0.085766
O O12 0.265452 0.500000 0.000000
O O13 0.276278 0.302693 0.910348
O O14 0.500000 0.813268 0.884929
O O15 0.378784 0.736909 0.821078
O O16 0.387733 0.803642 0.999482
O O17 0.915744 0.655395 0.371886
O O18 0.852035 0.473682 0.311775
O O19 0.000000 0.513467 0.285382
O O20 0.750000 0.665385 0.750000
#
# Coordination Sequence:
#
# PCOD8219635 Si02
#       8
#     8   8   8   8   8   8   8   8
#     4  10  19  37  62  93 132 168 209 262 322 383
#     4   9  18  35  59  87 119 160 212 268 317 366
#     4  10  22  40  64  93 122 162 224 277 317 378
#     4  11  23  41  59  89 125 165 204 257 335 382
#     4  10  22  38  62  94 129 170 210 257 323 396
#     4  11  21  36  63  95 130 165 206 262 323 392
#     4  11  21  37  66  94 121 163 217 272 314 376
#     4  11  24  42  60  85 129 171 209 262 324 393
#
# _framework density 20.755606
#
# number of rings (size 3 to 8) (size 9 to 14) (size 15 to 20)
#    0.000    1.625    2.500    2.625    0.000    2.250 
#    0.000    8.125    0.000    0.000    0.000    0.000 
#    0.000    0.000    0.000    0.000    0.000    0.000 
#
# Total GULP energy -793101.804757 kJ/mol
# GULP energy per Si atom -12392.215699 kJ/mol
# Density = 2.070837 g / cm^3
# Si number density = 20.755606 Si / 1000 Ang^3
#
#
#
# Elastic Constant Matrix: (Units=GPa)
#
#
# Indices 1 2 3 4 5 6 
#
# 1 75.0643 38.8720 45.4377 0.0000 0.0000 0.0000
# 2 38.8720 97.5787 53.9775 0.0000 0.0000 0.0000
# 3 45.4377 53.9775 103.5856 0.0000 0.0000 0.0000
# 4 0.0000 0.0000 0.0000 78.4123 0.0000 0.0000
# 5 0.0000 0.0000 0.0000 0.0000 30.9208 0.0000
# 6 0.0000 0.0000 0.0000 0.0000 0.0000 23.2226
#
#
#
# Elastic Compliance Matrix: (Units=1/GPa)
#
#
# Indices 1 2 3 4 5 6 
#
# 1 0.019302 -0.004223 -0.006266 0.000000 0.000000 0.000000
# 2 -0.004223 0.015322 -0.006132 0.000000 0.000000 0.000000
# 3 -0.006266 -0.006132 0.015598 0.000000 0.000000 0.000000
# 4 0.000000 0.000000 0.000000 0.012753 0.000000 0.000000
# 5 0.000000 0.000000 0.000000 0.000000 0.032341 0.000000
# 6 0.000000 0.000000 0.000000 0.000000 0.000000 0.043062
#
#
# Mechanical properties :
#
#
# Convention : Reuss Voigt Hill
#
# Bulk Modulus (GPa) = 58.89331 61.42254 60.15792
# Shear Modulus (GPa) = 28.20407 35.70725 31.95566
#
# Velocity S-wave (km/s) = 3.69028 4.15223 3.92805
# Velocity P-wave (km/s) = 6.82596 7.25572 7.04412
#
# Compressibility (1/GPa) = 0.01697986
#
# Stress axis : x y z
#
# Youngs Moduli (GPa) = 51.80878 65.26378 64.11148
#
# Poissons Ratio (x) = 0.27560 0.40173
# Poissons Ratio (y) = 0.21878 0.39313
# Poissons Ratio (z) = 0.32464 0.40020
#
# Static dielectric constant tensor:
#      x y z
#    x 3.383940 0.000000 0.000000 
#    y 0.000000 3.901570 0.000000 
#    z 0.000000 0.000000 3.650020 
# 
# 
# High freq. dielectric constant tensor:
#      x y z
#    x 1.797370 0.000000 0.000000 
#    y 0.000000 1.815590 0.000000 
#    z 0.000000 0.000000 1.814570 
# 
# From -- ./inp_files/23930.got.cif
#   From: 2010.03.12/outbox.cif.g09.slc.cpg/sg53_12_cif.got.tgz:23930.got - 2010.04.16 14:36:59.
