data_PCOD8219854
_publ_section_title
;
Structure prediction by ZEFSAII (Michael W. Deem and Ramdas Pophale) SiO2 
 PCOD8219854
Probable space group: P M N A
;
_chemical_formula_sum "Si O2"
_cell_formula_units_Z 40
_cell_length_a 8.727580
_cell_length_b 12.909315
_cell_length_c 19.706289
_cell_angle_alpha 90.000000
_cell_angle_beta 90.000000
_cell_angle_gamma 90.000000
_cell_volume 2220.250028
_symmetry_space_group_name_H-M "P M N A"
_symmetry_group_IT_number 53
_symmetry_cell_setting 'orthorhombic'
loop_
_space_group_symop_operation_xyz
x,y,z
1/2-x,-y,1/2+z
x,-y,-z
1/2-x,y,1/2-z
-x,-y,-z
1/2+x,y,1/2-z
-x,y,z
1/2+x,-y,1/2+z
loop_
_atom_site_type_symbol
_atom_site_label
_atom_site_fract_x
_atom_site_fract_y
_atom_site_fract_z
Si Si1 0.181244 0.604460 0.074397
Si Si2 0.179590 0.989360 0.323871
Si Si3 0.680221 0.214855 0.675701
Si Si4 0.820586 0.217097 0.323566
Si Si5 0.182292 0.386133 0.430092
O O1 0.230131 0.689422 0.129245
O O2 0.263495 0.498137 0.095914
O O3 0.000000 0.586865 0.071572
O O4 0.239902 0.641913 0.001325
O O5 0.250000 0.989558 0.250000
O O6 0.257424 0.890761 0.361008
O O7 0.000000 0.969276 0.320720
O O8 0.217706 0.102725 0.354968
O O9 0.750000 0.231895 0.750000
O O10 0.500000 0.206464 0.682548
O O11 0.750000 0.235833 0.250000
O O12 0.758164 0.301834 0.376067
O O13 0.000000 0.229211 0.313466
O O14 0.000000 0.384692 0.438650
#
# Coordination Sequence:
#
# PCOD8219854 Si02
#       5
#     8   8   8   8   8
#     4  10  21  36  52  72  99 131 166 203 247 294
#     4   9  16  29  49  72 100 130 160 197 242 290
#     4  10  20  33  51  75 101 129 164 204 244 290
#     4   9  19  33  51  77 103 129 163 202 244 290
#     4  10  20  35  54  74  98 130 167 203 244 294
#
# _framework density 18.015989000000001
#
# number of rings (size 3 to 8) (size 9 to 14) (size 15 to 20)
#    0.000    2.400    0.000    4.800    0.000    6.400 
#    0.000    5.000    0.000    6.000    0.000    0.000 
#    0.000    0.000    0.000    0.000    0.000    0.000 
#
# Total GULP energy -495770.445730 kJ/mol
# GULP energy per Si atom -12394.261143 kJ/mol
# Density = 1.797498 g / cm^3
# Si number density = 18.015989 Si / 1000 Ang^3
#
#
#
# Elastic Constant Matrix: (Units=GPa)
#
#
# Indices 1 2 3 4 5 6 
#
# 1 54.3426 40.8339 25.8700 0.0000 0.0000 0.0000
# 2 40.8339 163.2403 85.7008 0.0000 0.0000 0.0000
# 3 25.8700 85.7008 81.6299 0.0000 0.0000 0.0000
# 4 0.0000 0.0000 0.0000 12.0684 0.0000 0.0000
# 5 0.0000 0.0000 0.0000 0.0000 15.7804 0.0000
# 6 0.0000 0.0000 0.0000 0.0000 0.0000 67.2529
#
#
#
# Elastic Compliance Matrix: (Units=1/GPa)
#
#
# Indices 1 2 3 4 5 6 
#
# 1 0.022940 -0.004281 -0.002775 0.000000 0.000000 0.000000
# 2 -0.004281 0.014448 -0.013812 0.000000 0.000000 0.000000
# 3 -0.002775 -0.013812 0.027630 0.000000 0.000000 0.000000
# 4 0.000000 0.000000 0.000000 0.082861 0.000000 0.000000
# 5 0.000000 0.000000 0.000000 0.000000 0.063370 0.000000
# 6 0.000000 0.000000 0.000000 0.000000 0.000000 0.014869
#
#
# Mechanical properties :
#
#
# Convention : Reuss Voigt Hill
#
# Bulk Modulus (GPa) = 42.95187 67.11356 55.03271
# Shear Modulus (GPa) = 18.14122 28.80756 23.47439
#
# Velocity S-wave (km/s) = 3.17669 4.00309 3.61359
# Velocity P-wave (km/s) = 6.11129 7.66155 6.92991
#
# Compressibility (1/GPa) = 0.02328187
#
# Stress axis : x y z
#
# Youngs Moduli (GPa) = 43.59199 69.21365 36.19199
#
# Poissons Ratio (x) = 0.29633 0.10044
# Poissons Ratio (y) = 0.18663 0.49987
# Poissons Ratio (z) = 0.12098 0.95596
#
# Static dielectric constant tensor:
#      x y z
#    x 3.426120 0.000000 0.000000 
#    y 0.000000 4.229790 0.000000 
#    z 0.000000 0.000000 3.146040 
# 
# 
# High freq. dielectric constant tensor:
#      x y z
#    x 1.710520 0.000000 0.000000 
#    y 0.000000 1.718540 0.000000 
#    z 0.000000 0.000000 1.665880 
# 
# From -- ./inp_files/30360.got.cif
#   From: 2010.03.12/outbox.cif.g09.slc.cpg/sg53_16_cif.got.tgz:30360.got - 2010.04.16 14:36:59.
