data_PCOD8219644
_publ_section_title
;
Structure prediction by ZEFSAII (Michael W. Deem and Ramdas Pophale) SiO2 
 PCOD8219644
Probable space group: P M N A
;
_chemical_formula_sum "Si O2"
_cell_formula_units_Z 40
_cell_length_a 22.630701
_cell_length_b 8.909866
_cell_length_c 9.930045
_cell_angle_alpha 90.000000
_cell_angle_beta 90.000000
_cell_angle_gamma 90.000000
_cell_volume 2002.259652
_symmetry_space_group_name_H-M "P M N A"
_symmetry_group_IT_number 53
_symmetry_cell_setting 'orthorhombic'
loop_
_space_group_symop_operation_xyz
x,y,z
1/2-x,-y,1/2+z
x,-y,-z
1/2-x,y,1/2-z
-x,-y,-z
1/2+x,y,1/2-z
-x,y,z
1/2+x,-y,1/2+z
loop_
_atom_site_type_symbol
_atom_site_label
_atom_site_fract_x
_atom_site_fract_y
_atom_site_fract_z
Si Si1 0.636679 0.322345 0.498951
Si Si2 0.262171 0.644304 0.909991
Si Si3 0.070426 0.670869 0.262343
Si Si4 0.433901 0.324471 0.250404
Si Si5 0.623914 0.175290 0.017648
O O1 0.629157 0.500000 0.500000
O O2 0.705554 0.279598 0.483541
O O3 0.603157 0.262133 0.630567
O O4 0.605097 0.254359 0.368627
O O5 0.250000 0.606116 0.750000
O O6 0.279122 0.500000 0.000000
O O7 0.315453 0.760136 0.921466
O O8 0.084148 0.495277 0.285483
O O9 0.104259 0.756828 0.377853
O O10 0.000000 0.703344 0.257681
O O11 0.500000 0.323267 0.304210
O O12 0.427839 0.217561 0.121722
O O13 0.631500 0.000000 0.000000
#
# Coordination Sequence:
#
# PCOD8219644 Si02
#       5
#     8   8   8   8   8
#     4   9  19  36  63  95 122 150 195 262 317 358
#     4  11  23  42  69  96 120 156 206 257 307 363
#     4  10  21  39  65  95 121 156 210 260 308 363
#     4  10  19  37  65  92 120 157 204 258 307 359
#     4  12  26  41  58  87 130 169 204 249 303 369
#
# _framework density 19.977429999999998
#
# number of rings (size 3 to 8) (size 9 to 14) (size 15 to 20)
#    0.000    1.600    2.000    3.000    5.600    5.600 
#    3.600    1.000    0.000    2.400    0.000    0.000 
#    0.000    0.000    0.000    0.000    0.000    0.000 
#
# Total GULP energy -495817.597322 kJ/mol
# GULP energy per Si atom -12395.439933 kJ/mol
# Density = 1.993196 g / cm^3
# Si number density = 19.977430 Si / 1000 Ang^3
#
#
#
# Elastic Constant Matrix: (Units=GPa)
#
#
# Indices 1 2 3 4 5 6 
#
# 1 89.6926 26.8002 42.7940 0.0000 0.0000 0.0000
# 2 26.8002 69.2685 37.5704 0.0000 0.0000 0.0000
# 3 42.7940 37.5704 141.5677 0.0000 0.0000 0.0000
# 4 0.0000 0.0000 0.0000 -10.9162 0.0000 0.0000
# 5 0.0000 0.0000 0.0000 0.0000 38.5205 0.0000
# 6 0.0000 0.0000 0.0000 0.0000 0.0000 10.3623
#
#
#
# Elastic Compliance Matrix: (Units=1/GPa)
#
#
# Indices 1 2 3 4 5 6 
#
# 1 0.013749 -0.003581 -0.003206 0.000000 0.000000 0.000000
# 2 -0.003581 0.017797 -0.003641 0.000000 0.000000 0.000000
# 3 -0.003206 -0.003641 0.008999 0.000000 0.000000 0.000000
# 4 0.000000 0.000000 0.000000 -0.091607 0.000000 0.000000
# 5 0.000000 0.000000 0.000000 0.000000 0.025960 0.000000
# 6 0.000000 0.000000 0.000000 0.000000 0.000000 0.096504
#
#
# Mechanical properties :
#
#
# Convention : Reuss Voigt Hill
#
# Bulk Modulus (GPa) = 50.78677 57.20643 53.99660
# Shear Modulus (GPa) = 50.59763 20.48426 35.54095
#
# Velocity S-wave (km/s) = 5.03809 3.20561 4.22246
# Velocity P-wave (km/s) = 7.70198 6.51145 7.13160
#
# Compressibility (1/GPa) = 0.01969017
#
# Stress axis : x y z
#
# Youngs Moduli (GPa) = 72.73460 56.19061 111.12350
#
# Poissons Ratio (x) = 0.20120 0.35624
# Poissons Ratio (y) = 0.26043 0.40456
# Poissons Ratio (z) = 0.23317 0.20457
#
# Static dielectric constant tensor:
#      x y z
#    x 3.869570 0.000000 0.000000 
#    y 0.000000 3.273120 0.000000 
#    z 0.000000 0.000000 3.952160 
# 
# 
# High freq. dielectric constant tensor:
#      x y z
#    x 1.800300 0.000000 0.000000 
#    y 0.000000 1.726910 0.000000 
#    z 0.000000 0.000000 1.799570 
# 
# From -- ./inp_files/11518.got.cif
#   From: 2010.03.12/outbox.cif.g09.slc.cpg/sg53_6_cif.got.tgz:11518.got - 2010.04.16 14:36:59.
