data_PCOD8219170
_publ_section_title
;
Structure prediction by ZEFSAII (Michael W. Deem and Ramdas Pophale) SiO2 
 PCOD8219170
Probable space group: P M N A
;
_chemical_formula_sum "Si O2"
_cell_formula_units_Z 64
_cell_length_a 8.710830
_cell_length_b 24.762769
_cell_length_c 14.465528
_cell_angle_alpha 90.000000
_cell_angle_beta 90.000000
_cell_angle_gamma 90.000000
_cell_volume 3120.276173
_symmetry_space_group_name_H-M "P M N A"
_symmetry_group_IT_number 53
_symmetry_cell_setting 'orthorhombic'
loop_
_space_group_symop_operation_xyz
x,y,z
1/2-x,-y,1/2+z
x,-y,-z
1/2-x,y,1/2-z
-x,-y,-z
1/2+x,y,1/2-z
-x,y,z
1/2+x,-y,1/2+z
loop_
_atom_site_type_symbol
_atom_site_label
_atom_site_fract_x
_atom_site_fract_y
_atom_site_fract_z
Si Si1 0.679548 0.632341 0.154848
Si Si2 0.320166 0.407503 0.342411
Si Si3 0.319793 0.026023 0.345110
Si Si4 0.820628 0.874435 0.972299
Si Si5 0.820604 0.677884 0.535392
Si Si6 0.176360 0.513173 0.393275
Si Si7 0.680520 0.225637 0.351579
Si Si8 0.181222 0.910144 0.347186
O O1 0.750000 0.654291 0.250000
O O2 0.500000 0.627635 0.167123
O O3 0.742116 0.572613 0.129674
O O4 0.718282 0.675493 0.074021
O O5 0.250000 0.380552 0.250000
O O6 0.500000 0.395624 0.349167
O O7 0.229469 0.380511 0.426969
O O8 0.285042 0.471245 0.339692
O O9 0.250000 0.049158 0.250000
O O10 0.500000 0.016328 0.332020
O O11 0.284473 0.068101 0.425899
O O12 0.241918 0.969702 0.371341
O O13 0.759238 0.827767 0.904156
O O14 0.000000 0.867134 0.991897
O O15 0.732505 0.870529 0.069991
O O16 0.723632 0.723650 0.585574
O O17 0.000000 0.687639 0.553219
O O18 0.192923 0.500000 0.500000
O O19 0.000000 0.506086 0.361020
O O20 0.750000 0.229566 0.250000
O O21 0.500000 0.223595 0.339061
O O22 0.250000 0.889334 0.250000
O O23 0.000000 0.910819 0.338572
#
# Coordination Sequence:
#
# PCOD8219170 Si02
#       8
#     8   8   8   8   8   8   8   8
#     4  10  22  39  62  87 117 155 193 238 289 345
#     4  12  24  37  57  86 117 153 194 237 288 347
#     4  10  19  33  55  84 121 162 200 243 294 354
#     4  10  22  39  59  85 120 158 198 244 299 355
#     4  11  23  43  64  85 115 154 196 242 296 349
#     4  10  19  37  59  84 120 157 190 232 288 345
#     4  11  24  43  66  93 121 152 190 242 297 352
#     4  11  22  36  57  85 120 160 203 248 295 348
#
# _framework density 20.511005000000001
#
# number of rings (size 3 to 8) (size 9 to 14) (size 15 to 20)
#    0.000    1.375    1.250    5.625    0.000    6.250 
#    0.000    0.625    0.000    1.500    0.000    0.000 
#    0.000    0.000    0.000    0.000    0.000    0.000 
#
# Total GULP energy -793748.892156 kJ/mol
# GULP energy per Si atom -12402.326440 kJ/mol
# Density = 2.046432 g / cm^3
# Si number density = 20.511005 Si / 1000 Ang^3
#
#
#
# Elastic Constant Matrix: (Units=GPa)
#
#
# Indices 1 2 3 4 5 6 
#
# 1 72.1697 27.8139 51.4976 0.0000 0.0000 0.0000
# 2 27.8139 74.5131 51.3695 0.0000 0.0000 0.0000
# 3 51.4976 51.3695 157.6768 0.0000 0.0000 0.0000
# 4 0.0000 0.0000 0.0000 23.0024 0.0000 0.0000
# 5 0.0000 0.0000 0.0000 0.0000 36.7259 0.0000
# 6 0.0000 0.0000 0.0000 0.0000 0.0000 14.0814
#
#
#
# Elastic Compliance Matrix: (Units=1/GPa)
#
#
# Indices 1 2 3 4 5 6 
#
# 1 0.018782 -0.003588 -0.004965 0.000000 0.000000 0.000000
# 2 -0.003588 0.017993 -0.004690 0.000000 0.000000 0.000000
# 3 -0.004965 -0.004690 0.009492 0.000000 0.000000 0.000000
# 4 0.000000 0.000000 0.000000 0.043474 0.000000 0.000000
# 5 0.000000 0.000000 0.000000 0.000000 0.027229 0.000000
# 6 0.000000 0.000000 0.000000 0.000000 0.000000 0.071016
#
#
# Mechanical properties :
#
#
# Convention : Reuss Voigt Hill
#
# Bulk Modulus (GPa) = 50.55535 62.85795 56.70665
# Shear Modulus (GPa) = 22.61775 26.34052 24.47914
#
# Velocity S-wave (km/s) = 3.32431 3.58748 3.45840
# Velocity P-wave (km/s) = 6.27982 6.91900 6.60714
#
# Compressibility (1/GPa) = 0.01978030
#
# Stress axis : x y z
#
# Youngs Moduli (GPa) = 53.24235 55.57680 105.35385
#
# Poissons Ratio (x) = 0.19939 0.52313
# Poissons Ratio (y) = 0.19102 0.49413
# Poissons Ratio (z) = 0.26437 0.26067
#
# Static dielectric constant tensor:
#      x y z
#    x 3.626210 0.000000 0.000000 
#    y 0.000000 3.608900 0.000000 
#    z 0.000000 0.000000 4.041540 
# 
# 
# High freq. dielectric constant tensor:
#      x y z
#    x 1.800850 0.000000 0.000000 
#    y 0.000000 1.781160 0.000000 
#    z 0.000000 0.000000 1.819400 
# 
# From -- ./inp_files/20838.got.cif
#   From: 2010.03.12/outbox.cif.g09.slc.cpg/sg53_11_cif.got.tgz:20838.got - 2010.04.16 14:36:59.
