data_PCOD8219806
_publ_section_title
;
Structure prediction by ZEFSAII (Michael W. Deem and Ramdas Pophale) SiO2 
 PCOD8219806
Probable space group: P M N A
;
_chemical_formula_sum "Si O2"
_cell_formula_units_Z 40
_cell_length_a 8.943686
_cell_length_b 25.518442
_cell_length_c 10.010331
_cell_angle_alpha 90.000000
_cell_angle_beta 90.000000
_cell_angle_gamma 90.000000
_cell_volume 2284.647158
_symmetry_space_group_name_H-M "P M N A"
_symmetry_group_IT_number 53
_symmetry_cell_setting 'orthorhombic'
loop_
_space_group_symop_operation_xyz
x,y,z
1/2-x,-y,1/2+z
x,-y,-z
1/2-x,y,1/2-z
-x,-y,-z
1/2+x,y,1/2-z
-x,y,z
1/2+x,-y,1/2+z
loop_
_atom_site_type_symbol
_atom_site_label
_atom_site_fract_x
_atom_site_fract_y
_atom_site_fract_z
Si Si1 0.174674 0.647041 0.892527
Si Si2 0.323284 0.455029 0.104462
Si Si3 0.823850 0.157760 0.887713
Si Si4 0.325961 0.237582 0.392247
Si Si5 0.324193 0.038706 0.613257
O O1 0.250000 0.650687 0.750000
O O2 0.258306 0.598455 0.964210
O O3 0.201110 0.704451 0.957493
O O4 0.000000 0.633835 0.880748
O O5 0.250000 0.465745 0.250000
O O6 0.500000 0.450375 0.123819
O O7 0.279826 0.500000 0.000000
O O8 0.750000 0.175850 0.750000
O O9 0.778626 0.098172 0.923328
O O10 0.000000 0.164257 0.871560
O O11 0.760976 0.194962 0.004752
O O12 0.250000 0.229819 0.250000
O O13 0.500000 0.228311 0.367378
O O14 0.250000 0.020421 0.750000
O O15 0.500000 0.033037 0.630262
O O16 0.262198 0.000000 0.500000
#
# Coordination Sequence:
#
# PCOD8219806 Si02
#       5
#     8   8   8   8   8
#     4   9  16  28  47  68  92 122 154 189 231 275
#     4  10  20  33  50  72  96 123 156 192 231 276
#     4   9  18  33  49  67  95 127 157 190 232 280
#     4   9  18  31  48  71  95 120 154 194 232 274
#     4   9  18  32  49  69  94 124 157 194 234 276
#
# _framework density 17.508175000000001
#
# number of rings (size 3 to 8) (size 9 to 14) (size 15 to 20)
#    0.000    2.800    0.000    2.400    0.000    4.400 
#    0.000    1.000    0.000    4.800    0.000    0.000 
#    0.000    0.000    0.000    0.000    0.000    0.000 
#
# Total GULP energy -495718.723268 kJ/mol
# GULP energy per Si atom -12392.968082 kJ/mol
# Density = 1.746833 g / cm^3
# Si number density = 17.508175 Si / 1000 Ang^3
#
#
#
# Elastic Constant Matrix: (Units=GPa)
#
#
# Indices 1 2 3 4 5 6 
#
# 1 55.7481 44.6974 39.7575 0.0000 0.0000 0.0000
# 2 44.6974 145.0136 93.8609 0.0000 0.0000 0.0000
# 3 39.7575 93.8609 112.5545 0.0000 0.0000 0.0000
# 4 0.0000 0.0000 0.0000 36.6959 0.0000 0.0000
# 5 0.0000 0.0000 0.0000 0.0000 25.0174 0.0000
# 6 0.0000 0.0000 0.0000 0.0000 0.0000 16.1342
#
#
#
# Elastic Compliance Matrix: (Units=1/GPa)
#
#
# Indices 1 2 3 4 5 6 
#
# 1 0.025184 -0.004356 -0.005263 0.000000 0.000000 0.000000
# 2 -0.004356 0.015736 -0.011584 0.000000 0.000000 0.000000
# 3 -0.005263 -0.011584 0.020404 0.000000 0.000000 0.000000
# 4 0.000000 0.000000 0.000000 0.027251 0.000000 0.000000
# 5 0.000000 0.000000 0.000000 0.000000 0.039972 0.000000
# 6 0.000000 0.000000 0.000000 0.000000 0.000000 0.061980
#
#
# Mechanical properties :
#
#
# Convention : Reuss Voigt Hill
#
# Bulk Modulus (GPa) = 52.86087 74.43865 63.64976
# Shear Modulus (GPa) = 20.89950 24.56953 22.73452
#
# Velocity S-wave (km/s) = 3.45874 3.75015 3.60739
# Velocity P-wave (km/s) = 6.79766 7.83328 7.33378
#
# Compressibility (1/GPa) = 0.01891759
#
# Stress axis : x y z
#
# Youngs Moduli (GPa) = 39.70821 63.54676 49.00968
#
# Poissons Ratio (x) = 0.27678 0.25796
# Poissons Ratio (y) = 0.17295 0.56774
# Poissons Ratio (z) = 0.20900 0.73615
#
# Static dielectric constant tensor:
#      x y z
#    x 3.250520 0.000000 0.000000 
#    y 0.000000 4.015950 0.000000 
#    z 0.000000 0.000000 3.072850 
# 
# 
# High freq. dielectric constant tensor:
#      x y z
#    x 1.678830 0.000000 0.000000 
#    y 0.000000 1.693450 0.000000 
#    z 0.000000 0.000000 1.647500 
# 
# From -- ./inp_files/6423.got.cif
#   From: 2010.03.12/outbox.cif.g09.slc.cpg/sg53_4_cif.got.tgz:6423.got - 2010.04.16 14:36:59.
