data_PCOD8219111
_publ_section_title
;
Structure prediction by ZEFSAII (Michael W. Deem and Ramdas Pophale) SiO2 
 PCOD8219111
Probable space group: P M N A
;
_chemical_formula_sum "Si O2"
_cell_formula_units_Z 48
_cell_length_a 9.019451
_cell_length_b 31.293108
_cell_length_c 9.100534
_cell_angle_alpha 90.000000
_cell_angle_beta 90.000000
_cell_angle_gamma 90.000000
_cell_volume 2568.595273
_symmetry_space_group_name_H-M "P M N A"
_symmetry_group_IT_number 53
_symmetry_cell_setting 'orthorhombic'
loop_
_space_group_symop_operation_xyz
x,y,z
1/2-x,-y,1/2+z
x,-y,-z
1/2-x,y,1/2-z
-x,-y,-z
1/2+x,y,1/2-z
-x,y,z
1/2+x,-y,1/2+z
loop_
_atom_site_type_symbol
_atom_site_label
_atom_site_fract_x
_atom_site_fract_y
_atom_site_fract_z
Si Si1 0.169622 0.788169 0.098711
Si Si2 0.172799 0.539634 0.405733
Si Si3 0.174469 0.040720 0.095014
Si Si4 0.825779 0.119665 0.907320
Si Si5 0.175227 0.304844 0.909760
Si Si6 0.325463 0.622715 0.904728
O O1 0.250000 0.786953 0.250000
O O2 0.210775 0.833292 0.019110
O O3 0.203591 0.742822 0.019458
O O4 0.000000 0.789684 0.141641
O O5 0.235858 0.500000 0.500000
O O6 0.250000 0.541328 0.250000
O O7 0.208360 0.582985 0.490693
O O8 0.000000 0.533368 0.377095
O O9 0.250000 0.036014 0.250000
O O10 0.000000 0.043010 0.118795
O O11 0.235526 0.083544 0.016454
O O12 0.221538 0.000000 0.000000
O O13 0.750000 0.114616 0.750000
O O14 0.000000 0.113146 0.882895
O O15 0.250000 0.310023 0.750000
O O16 0.000000 0.314805 0.894900
O O17 0.251425 0.335866 0.024877
O O18 0.250000 0.612910 0.750000
O O19 0.500000 0.630348 0.883212
#
# Coordination Sequence:
#
# PCOD8219111 Si02
#       6
#     8   8   8   8   8   8
#     4   8  15  28  48  73 101 133 168 209 253 299
#     4  10  22  39  59  84 111 140 175 214 258 309
#     4  10  21  35  51  73 100 130 165 206 251 301
#     4   9  17  31  51  75 102 131 167 208 251 301
#     4  10  19  33  54  79 107 139 177 219 262 308
#     4  11  23  38  56  79 108 142 180 220 265 314
#
# _framework density 18.687255
#
# number of rings (size 3 to 8) (size 9 to 14) (size 15 to 20)
#    0.000    2.333    0.000    2.500    0.000    4.667 
#    0.000    0.833    0.000    2.000    0.000    0.000 
#    0.000    0.000    0.000    0.000    0.000    0.000 
#
# Total GULP energy -594819.151719 kJ/mol
# GULP energy per Si atom -12392.065661 kJ/mol
# Density = 1.864472 g / cm^3
# Si number density = 18.687255 Si / 1000 Ang^3
#
#
#
# Elastic Constant Matrix: (Units=GPa)
#
#
# Indices 1 2 3 4 5 6 
#
# 1 63.1041 61.5096 54.2472 0.0000 0.0000 0.0000
# 2 61.5096 172.2812 74.3572 0.0000 0.0000 0.0000
# 3 54.2472 74.3572 126.7083 0.0000 0.0000 0.0000
# 4 0.0000 0.0000 0.0000 29.7890 0.0000 0.0000
# 5 0.0000 0.0000 0.0000 0.0000 31.1838 0.0000
# 6 0.0000 0.0000 0.0000 0.0000 0.0000 282.5097
#
#
#
# Elastic Compliance Matrix: (Units=1/GPa)
#
#
# Indices 1 2 3 4 5 6 
#
# 1 0.030272 -0.006983 -0.008862 0.000000 0.000000 0.000000
# 2 -0.006983 0.009384 -0.002517 0.000000 0.000000 0.000000
# 3 -0.008862 -0.002517 0.013164 0.000000 0.000000 0.000000
# 4 0.000000 0.000000 0.000000 0.033569 0.000000 0.000000
# 5 0.000000 0.000000 0.000000 0.000000 0.032068 0.000000
# 6 0.000000 0.000000 0.000000 0.000000 0.000000 0.003540
#
#
# Mechanical properties :
#
#
# Convention : Reuss Voigt Hill
#
# Bulk Modulus (GPa) = 62.13386 82.48016 72.30701
# Shear Modulus (GPa) = 30.47173 80.16181 55.31677
#
# Velocity S-wave (km/s) = 4.04247 6.55665 5.44661
# Velocity P-wave (km/s) = 7.42363 10.07732 8.85050
#
# Compressibility (1/GPa) = 0.01609428
#
# Stress axis : x y z
#
# Youngs Moduli (GPa) = 33.03406 106.56344 75.96702
#
# Poissons Ratio (x) = 0.74413 0.67324
# Poissons Ratio (y) = 0.23067 0.19124
# Poissons Ratio (z) = 0.29276 0.26826
#
# Static dielectric constant tensor:
#      x y z
#    x 3.430210 0.000000 0.000000 
#    y 0.000000 4.301420 0.000000 
#    z 0.000000 0.000000 3.157020 
# 
# 
# High freq. dielectric constant tensor:
#      x y z
#    x 1.726950 0.000000 0.000000 
#    y 0.000000 1.756910 0.000000 
#    z 0.000000 0.000000 1.698900 
# 
# From -- ./inp_files/6635.got.cif
#   From: 2010.03.12/outbox.cif.g09.slc.cpg/sg53_4_cif.got.tgz:6635.got - 2010.04.16 14:36:59.
