data_PCOD8219348
_publ_section_title
;
Structure prediction by ZEFSAII (Michael W. Deem and Ramdas Pophale) SiO2 
 PCOD8219348
Probable space group: P M N A
;
_chemical_formula_sum "Si O2"
_cell_formula_units_Z 64
_cell_length_a 8.978955
_cell_length_b 14.575187
_cell_length_c 24.909830
_cell_angle_alpha 90.000000
_cell_angle_beta 90.000000
_cell_angle_gamma 90.000000
_cell_volume 3259.948162
_symmetry_space_group_name_H-M "P M N A"
_symmetry_group_IT_number 53
_symmetry_cell_setting 'orthorhombic'
loop_
_space_group_symop_operation_xyz
x,y,z
1/2-x,-y,1/2+z
x,-y,-z
1/2-x,y,1/2-z
-x,-y,-z
1/2+x,y,1/2-z
-x,y,z
1/2+x,-y,1/2+z
loop_
_atom_site_type_symbol
_atom_site_label
_atom_site_fract_x
_atom_site_fract_y
_atom_site_fract_z
Si Si1 0.175722 0.519294 0.561244
Si Si2 0.826283 0.010477 0.667692
Si Si3 0.166267 0.646002 0.107377
Si Si4 0.323528 0.706757 0.592934
Si Si5 0.177112 0.177297 0.196865
Si Si6 0.322153 0.204214 0.695301
Si Si7 0.330247 0.052245 0.950305
Si Si8 0.335983 0.782231 0.482942
O O1 0.231811 0.500000 0.500000
O O2 0.222693 0.439577 0.603064
O O3 0.244353 0.609759 0.587545
O O4 0.000000 0.529304 0.561407
O O5 0.748705 0.104748 0.684580
O O6 0.808889 0.995958 0.603994
O O7 0.000000 0.012770 0.684884
O O8 0.743023 0.925119 0.693838
O O9 0.223120 0.722418 0.149620
O O10 0.161600 0.685660 0.047226
O O11 0.000000 0.613099 0.123924
O O12 0.500000 0.690796 0.590589
O O13 0.274500 0.759206 0.646934
O O14 0.270403 0.769130 0.542669
O O15 0.250000 0.222771 0.250000
O O16 0.000000 0.171344 0.201855
O O17 0.250000 0.242594 0.750000
O O18 0.500000 0.193653 0.699371
O O19 0.500000 0.069537 0.964537
O O20 0.259684 0.151936 0.945361
O O21 0.251707 0.000000 0.000000
O O22 0.500000 0.825187 0.486857
#
# Coordination Sequence:
#
# PCOD8219348 Si02
#       8
#     8   8   8   8   8   8   8   8
#     4  11  23  37  60  94 125 154 190 236 292 353
#     4  11  22  37  59  86 119 159 200 245 293 345
#     4  10  21  38  61  86 118 155 193 238 289 348
#     4  10  22  40  63  89 118 155 197 240 293 354
#     4  11  24  42  63  87 116 155 202 249 294 343
#     4  11  23  40  61  87 118 156 202 247 292 345
#     4  10  21  34  50  79 119 159 194 235 293 351
#     4  10  19  34  57  85 115 150 190 237 289 344
#
# _framework density 19.632213
#
# number of rings (size 3 to 8) (size 9 to 14) (size 15 to 20)
#    0.000    1.500    2.500    2.625    0.000    4.250 
#    0.000    0.625    0.000    0.000    0.000    0.000 
#    0.000    0.000    0.000    0.000    0.000    0.000 
#
# Total GULP energy -793468.550665 kJ/mol
# GULP energy per Si atom -12397.946104 kJ/mol
# Density = 1.958753 g / cm^3
# Si number density = 19.632213 Si / 1000 Ang^3
#
#
#
# Elastic Constant Matrix: (Units=GPa)
#
#
# Indices 1 2 3 4 5 6 
#
# 1 72.0985 41.4534 43.3498 0.0000 0.0000 0.0000
# 2 41.4534 102.2152 48.3906 0.0000 0.0000 0.0000
# 3 43.3498 48.3906 127.1719 0.0000 0.0000 0.0000
# 4 0.0000 0.0000 0.0000 21.9717 0.0000 0.0000
# 5 0.0000 0.0000 0.0000 0.0000 31.0267 0.0000
# 6 0.0000 0.0000 0.0000 0.0000 0.0000 37.6726
#
#
#
# Elastic Compliance Matrix: (Units=1/GPa)
#
#
# Indices 1 2 3 4 5 6 
#
# 1 0.020045 -0.005970 -0.004561 0.000000 0.000000 0.000000
# 2 -0.005970 0.013711 -0.003182 0.000000 0.000000 0.000000
# 3 -0.004561 -0.003182 0.010629 0.000000 0.000000 0.000000
# 4 0.000000 0.000000 0.000000 0.045513 0.000000 0.000000
# 5 0.000000 0.000000 0.000000 0.000000 0.032230 0.000000
# 6 0.000000 0.000000 0.000000 0.000000 0.000000 0.026544
#
#
# Mechanical properties :
#
#
# Convention : Reuss Voigt Hill
#
# Bulk Modulus (GPa) = 58.96831 63.09703 61.03267
# Shear Modulus (GPa) = 27.51008 29.35366 28.43187
#
# Velocity S-wave (km/s) = 3.74742 3.87095 3.80968
# Velocity P-wave (km/s) = 6.98755 7.22415 7.10683
#
# Compressibility (1/GPa) = 0.01695826
#
# Stress axis : x y z
#
# Youngs Moduli (GPa) = 49.88845 72.93502 94.08195
#
# Poissons Ratio (x) = 0.43541 0.42912
# Poissons Ratio (y) = 0.29782 0.29939
# Poissons Ratio (z) = 0.22755 0.23209
#
# Static dielectric constant tensor:
#      x y z
#    x 3.552390 0.000000 0.000000 
#    y 0.000000 3.457290 0.000000 
#    z 0.000000 0.000000 3.871200 
# 
# 
# High freq. dielectric constant tensor:
#      x y z
#    x 1.764470 0.000000 0.000000 
#    y 0.000000 1.754490 0.000000 
#    z 0.000000 0.000000 1.772990 
# 
# From -- ./inp_files/34190.got.cif
#   From: 2010.03.12/outbox.cif.g09.slc.cpg/sg53_18_cif.got.tgz:34190.got - 2010.04.16 14:36:59.
