data_PCOD8219272
_publ_section_title
;
Structure prediction by ZEFSAII (Michael W. Deem and Ramdas Pophale) SiO2 
 PCOD8219272
Probable space group: P M N A
;
_chemical_formula_sum "Si O2"
_cell_formula_units_Z 64
_cell_length_a 8.919686
_cell_length_b 18.967461
_cell_length_c 20.134238
_cell_angle_alpha 90.000000
_cell_angle_beta 90.000000
_cell_angle_gamma 90.000000
_cell_volume 3406.386821
_symmetry_space_group_name_H-M "P M N A"
_symmetry_group_IT_number 53
_symmetry_cell_setting 'orthorhombic'
loop_
_space_group_symop_operation_xyz
x,y,z
1/2-x,-y,1/2+z
x,-y,-z
1/2-x,y,1/2-z
-x,-y,-z
1/2+x,y,1/2-z
-x,y,z
1/2+x,-y,1/2+z
loop_
_atom_site_type_symbol
_atom_site_label
_atom_site_fract_x
_atom_site_fract_y
_atom_site_fract_z
Si Si1 0.176952 0.214297 0.057755
Si Si2 0.176195 0.978192 0.184476
Si Si3 0.321688 0.439179 0.415302
Si Si4 0.175091 0.688188 0.821658
Si Si5 0.328330 0.731774 0.069656
Si Si6 0.324141 0.817214 0.316616
Si Si7 0.172776 0.574835 0.442781
Si Si8 0.678300 0.053482 0.444769
O O1 0.215181 0.244979 0.130959
O O2 0.233630 0.133831 0.048539
O O3 0.000000 0.221005 0.044143
O O4 0.265227 0.260652 0.004518
O O5 0.250000 0.010163 0.250000
O O6 0.226212 0.897777 0.173242
O O7 0.000000 0.984317 0.191203
O O8 0.238915 0.024877 0.124822
O O9 0.500000 0.439295 0.424133
O O10 0.272455 0.383904 0.358266
O O11 0.260793 0.517553 0.397245
O O12 0.246241 0.418812 0.484745
O O13 0.250000 0.697049 0.750000
O O14 0.000000 0.685160 0.808288
O O15 0.500000 0.757389 0.071998
O O16 0.228661 0.776769 0.118903
O O17 0.314562 0.650588 0.092175
O O18 0.250000 0.785793 0.250000
O O19 0.500000 0.809094 0.309287
O O20 0.000000 0.551924 0.450164
O O21 0.500000 0.051490 0.447853
O O22 0.744441 0.000000 0.500000
#
# Coordination Sequence:
#
# PCOD8219272 Si02
#       8
#     8   8   8   8   8   8   8   8
#     4  10  20  36  56  79 109 145 189 232 276 331
#     4   9  18  33  53  77 102 136 179 221 270 328
#     4  10  19  34  55  80 107 138 180 223 266 323
#     4  10  22  37  55  80 111 149 189 231 279 327
#     4  11  22  35  54  82 113 144 181 225 274 329
#     4  10  20  35  56  79 108 143 180 224 274 332
#     4  10  20  33  54  82 109 139 174 219 271 321
#     4   9  17  31  53  79 105 137 179 226 274 326
#
# _framework density 18.788236000000001
#
# number of rings (size 3 to 8) (size 9 to 14) (size 15 to 20)
#    0.000    2.125    1.250    3.000    0.000    6.000 
#    0.000    1.250    0.000    3.000    0.000    0.000 
#    0.000    0.000    0.000    0.000    0.000    0.000 
#
# Total GULP energy -793460.964086 kJ/mol
# GULP energy per Si atom -12397.827564 kJ/mol
# Density = 1.874547 g / cm^3
# Si number density = 18.788236 Si / 1000 Ang^3
#
#
#
# Elastic Constant Matrix: (Units=GPa)
#
#
# Indices 1 2 3 4 5 6 
#
# 1 55.5774 29.3675 25.0783 0.0000 0.0000 0.0000
# 2 29.3675 116.8357 50.2400 0.0000 0.0000 0.0000
# 3 25.0783 50.2400 101.1679 0.0000 0.0000 0.0000
# 4 0.0000 0.0000 0.0000 30.1695 0.0000 0.0000
# 5 0.0000 0.0000 0.0000 0.0000 33.4191 0.0000
# 6 0.0000 0.0000 0.0000 0.0000 0.0000 1.0649
#
#
#
# Elastic Compliance Matrix: (Units=1/GPa)
#
#
# Indices 1 2 3 4 5 6 
#
# 1 0.021623 -0.003980 -0.003383 0.000000 0.000000 0.000000
# 2 -0.003980 0.011616 -0.004782 0.000000 0.000000 0.000000
# 3 -0.003383 -0.004782 0.013098 0.000000 0.000000 0.000000
# 4 0.000000 0.000000 0.000000 0.033146 0.000000 0.000000
# 5 0.000000 0.000000 0.000000 0.000000 0.029923 0.000000
# 6 0.000000 0.000000 0.000000 0.000000 0.000000 0.939043
#
#
# Mechanical properties :
#
#
# Convention : Reuss Voigt Hill
#
# Bulk Modulus (GPa) = 45.36040 53.66140 49.51090
# Shear Modulus (GPa) = 4.62925 24.19039 14.40982
#
# Velocity S-wave (km/s) = 1.57139 3.59211 2.77241
# Velocity P-wave (km/s) = 5.24288 6.76960 6.05455
#
# Compressibility (1/GPa) = 0.02204566
#
# Stress axis : x y z
#
# Youngs Moduli (GPa) = 46.24749 86.09101 76.34826
#
# Poissons Ratio (x) = 0.34265 0.25832
# Poissons Ratio (y) = 0.18407 0.36507
# Poissons Ratio (z) = 0.15648 0.41166
#
# Static dielectric constant tensor:
#      x y z
#    x 3.336390 0.000000 0.000000 
#    y 0.000000 3.732160 0.000000 
#    z 0.000000 0.000000 3.553330 
# 
# 
# High freq. dielectric constant tensor:
#      x y z
#    x 1.720120 0.000000 0.000000 
#    y 0.000000 1.738660 0.000000 
#    z 0.000000 0.000000 1.718940 
# 
# From -- ./inp_files/31179.got.cif
#   From: 2010.03.12/outbox.cif.g09.slc.cpg/sg53_16_cif.got.tgz:31179.got - 2010.04.16 14:36:59.
