data_PCOD8219412
_publ_section_title
;
Structure prediction by ZEFSAII (Michael W. Deem and Ramdas Pophale) SiO2 
 PCOD8219412
Probable space group: P M N A
;
_chemical_formula_sum "Si O2"
_cell_formula_units_Z 48
_cell_length_a 11.350787
_cell_length_b 13.570453
_cell_length_c 17.591283
_cell_angle_alpha 90.000000
_cell_angle_beta 90.000000
_cell_angle_gamma 90.000000
_cell_volume 2709.678932
_symmetry_space_group_name_H-M "P M N A"
_symmetry_group_IT_number 53
_symmetry_cell_setting 'orthorhombic'
loop_
_space_group_symop_operation_xyz
x,y,z
1/2-x,-y,1/2+z
x,-y,-z
1/2-x,y,1/2-z
-x,-y,-z
1/2+x,y,1/2-z
-x,y,z
1/2+x,-y,1/2+z
loop_
_atom_site_type_symbol
_atom_site_label
_atom_site_fract_x
_atom_site_fract_y
_atom_site_fract_z
Si Si1 0.863472 0.101490 0.468724
Si Si2 0.240926 0.424580 0.833529
Si Si3 0.752716 0.292493 0.976804
Si Si4 0.138770 0.814482 0.694552
Si Si5 0.500000 0.502293 0.383088
Si Si6 0.500000 0.335556 0.488406
Si Si7 0.866173 0.387929 0.386472
O O1 0.816122 0.191028 0.519291
O O2 0.839777 0.116984 0.379301
O O3 0.000000 0.099831 0.486326
O O4 0.805747 0.000000 0.500000
O O5 0.250000 0.377362 0.750000
O O6 0.258401 0.336182 0.892604
O O7 0.337823 0.508891 0.846941
O O8 0.114979 0.477251 0.834361
O O9 0.887404 0.267121 0.998014
O O10 0.709632 0.374627 0.036930
O O11 0.250000 0.841730 0.750000
O O12 0.155632 0.700619 0.672551
O O13 0.000000 0.830435 0.724146
O O14 0.500000 0.386203 0.405193
O O15 0.500000 0.572768 0.455140
O O16 0.000000 0.387412 0.413911
#
# Coordination Sequence:
#
# PCOD8219412 Si02
#       7
#     8   8   8   8   4   4   8
#     4   9  19  38  61  80 101 135 176 218 268 323
#     4  11  22  33  47  74 108 142 174 210 252 305
#     4  10  19  35  55  74 101 135 178 218 256 309
#     4   9  18  35  55  81 111 138 173 217 270 320
#     4   9  18  34  48  66 101 146 181 196 241 308
#     4   9  16  32  55  70  94 142 179 204 245 306
#     4  10  20  33  50  75 105 137 177 218 252 301
#
# _framework density 17.714276999999999
#
# number of rings (size 3 to 8) (size 9 to 14) (size 15 to 20)
#    0.000    2.333    1.667    2.500    1.167    2.000 
#    7.500    1.250    0.000    0.000    0.000    0.000 
#    0.000    0.000    0.000    0.000    0.000    0.000 
#
# Total GULP energy -594871.729455 kJ/mol
# GULP energy per Si atom -12393.161030 kJ/mol
# Density = 1.767396 g / cm^3
# Si number density = 17.714277 Si / 1000 Ang^3
#
#
#
# Elastic Constant Matrix: (Units=GPa)
#
#
# Indices 1 2 3 4 5 6 
#
# 1 95.0041 28.8227 49.9532 0.0000 0.0000 0.0000
# 2 28.8227 86.1652 46.3566 0.0000 0.0000 0.0000
# 3 49.9532 46.3566 112.4511 0.0000 0.0000 0.0000
# 4 0.0000 0.0000 0.0000 18.5017 0.0000 0.0000
# 5 0.0000 0.0000 0.0000 0.0000 57.1538 0.0000
# 6 0.0000 0.0000 0.0000 0.0000 0.0000 20.4146
#
#
#
# Elastic Compliance Matrix: (Units=1/GPa)
#
#
# Indices 1 2 3 4 5 6 
#
# 1 0.013927 -0.001709 -0.005482 0.000000 0.000000 0.000000
# 2 -0.001709 0.015123 -0.005475 0.000000 0.000000 0.000000
# 3 -0.005482 -0.005475 0.013585 0.000000 0.000000 0.000000
# 4 0.000000 0.000000 0.000000 0.054049 0.000000 0.000000
# 5 0.000000 0.000000 0.000000 0.000000 0.017497 0.000000
# 6 0.000000 0.000000 0.000000 0.000000 0.000000 0.048984
#
#
# Mechanical properties :
#
#
# Convention : Reuss Voigt Hill
#
# Bulk Modulus (GPa) = 57.79587 60.43172 59.11380
# Shear Modulus (GPa) = 25.73807 30.44654 28.09231
#
# Velocity S-wave (km/s) = 3.81590 4.15029 3.98660
# Velocity P-wave (km/s) = 7.21889 7.56011 7.39147
#
# Compressibility (1/GPa) = 0.01730227
#
# Stress axis : x y z
#
# Youngs Moduli (GPa) = 71.80360 66.12496 73.61092
#
# Poissons Ratio (x) = 0.11303 0.40353
# Poissons Ratio (y) = 0.12274 0.40301
# Poissons Ratio (z) = 0.39363 0.36203
#
# Static dielectric constant tensor:
#      x y z
#    x 3.693780 0.000000 0.000000 
#    y 0.000000 3.073290 0.000000 
#    z 0.000000 0.000000 3.187620 
# 
# 
# High freq. dielectric constant tensor:
#      x y z
#    x 1.700100 0.000000 0.000000 
#    y 0.000000 1.650280 0.000000 
#    z 0.000000 0.000000 1.675420 
# 
# From -- ./inp_files/21820.got.cif
#   From: 2010.03.12/outbox.cif.g09.slc.cpg/sg53_11_cif.got.tgz:21820.got - 2010.04.16 14:36:59.
