data_PCOD8219584
_publ_section_title
;
Structure prediction by ZEFSAII (Michael W. Deem and Ramdas Pophale) SiO2 
 PCOD8219584
Probable space group: P M N A
;
_chemical_formula_sum "Si O2"
_cell_formula_units_Z 32
_cell_length_a 7.447452
_cell_length_b 10.745810
_cell_length_c 20.995223
_cell_angle_alpha 90.000000
_cell_angle_beta 90.000000
_cell_angle_gamma 90.000000
_cell_volume 1680.224690
_symmetry_space_group_name_H-M "P M N A"
_symmetry_group_IT_number 53
_symmetry_cell_setting 'orthorhombic'
loop_
_space_group_symop_operation_xyz
x,y,z
1/2-x,-y,1/2+z
x,-y,-z
1/2-x,y,1/2-z
-x,-y,-z
1/2+x,y,1/2-z
-x,y,z
1/2+x,-y,1/2+z
loop_
_atom_site_type_symbol
_atom_site_label
_atom_site_fract_x
_atom_site_fract_y
_atom_site_fract_z
Si Si1 0.000000 0.443268 0.903936
Si Si2 0.209710 0.323685 0.679751
Si Si3 0.208748 0.043727 0.679998
Si Si4 0.290151 0.097379 0.056266
Si Si5 0.500000 0.698479 0.535663
O O1 0.182698 0.410449 0.867866
O O2 0.000000 0.591864 0.911052
O O3 0.000000 0.367360 0.968412
O O4 0.250000 0.374793 0.750000
O O5 0.288716 0.182893 0.675029
O O6 0.000000 0.331504 0.662633
O O7 0.250000 0.986045 0.750000
O O8 0.000000 0.054952 0.668847
O O9 0.285343 0.958418 0.623160
O O10 0.500000 0.132486 0.060151
O O11 0.180320 0.221316 0.042191
O O12 0.253652 0.000000 0.000000
#
# Coordination Sequence:
#
# PCOD8219584 Si02
#       5
#     4   8   8   8   4
#     4  11  24  40  58  86 116 157 207 240 286 344
#     4  10  19  36  62  89 117 148 191 249 293 339
#     4   9  19  32  56  89 116 145 187 240 301 356
#     4  10  21  39  61  87 119 153 195 241 301 363
#     4  11  25  40  58  84 119 161 201 240 284 354
#
# _framework density 19.045069999999999
#
# number of rings (size 3 to 8) (size 9 to 14) (size 15 to 20)
#    0.000    2.000    1.250    1.875    3.500    4.000 
#    0.000    3.750    0.000    0.000    0.000    0.000 
#    0.000    0.000    0.000    0.000    0.000    0.000 
#
# Total GULP energy -396803.425996 kJ/mol
# GULP energy per Si atom -12400.107062 kJ/mol
# Density = 1.900172 g / cm^3
# Si number density = 19.045070 Si / 1000 Ang^3
#
#
#
# Elastic Constant Matrix: (Units=GPa)
#
#
# Indices 1 2 3 4 5 6 
#
# 1 101.8017 53.7387 36.1463 0.0000 0.0000 0.0000
# 2 53.7387 118.9145 61.5233 0.0000 0.0000 0.0000
# 3 36.1463 61.5233 123.6919 0.0000 0.0000 0.0000
# 4 0.0000 0.0000 0.0000 30.8798 0.0000 0.0000
# 5 0.0000 0.0000 0.0000 0.0000 29.8416 0.0000
# 6 0.0000 0.0000 0.0000 0.0000 0.0000 51.2595
#
#
#
# Elastic Compliance Matrix: (Units=1/GPa)
#
#
# Indices 1 2 3 4 5 6 
#
# 1 0.013028 -0.005275 -0.001183 0.000000 0.000000 0.000000
# 2 -0.005275 0.013459 -0.005153 0.000000 0.000000 0.000000
# 3 -0.001183 -0.005153 0.010993 0.000000 0.000000 0.000000
# 4 0.000000 0.000000 0.000000 0.032384 0.000000 0.000000
# 5 0.000000 0.000000 0.000000 0.000000 0.033510 0.000000
# 6 0.000000 0.000000 0.000000 0.000000 0.000000 0.019509
#
#
# Mechanical properties :
#
#
# Convention : Reuss Voigt Hill
#
# Bulk Modulus (GPa) = 70.13767 71.91385 71.02576
# Shear Modulus (GPa) = 33.14363 35.26285 34.20324
#
# Velocity S-wave (km/s) = 4.17618 4.30763 4.24242
# Velocity P-wave (km/s) = 7.75636 7.91092 7.83402
#
# Compressibility (1/GPa) = 0.01425767
#
# Stress axis : x y z
#
# Youngs Moduli (GPa) = 76.75887 74.29772 90.96328
#
# Poissons Ratio (x) = 0.39194 0.10763
# Poissons Ratio (y) = 0.40492 0.46873
# Poissons Ratio (z) = 0.09083 0.38286
#
# Static dielectric constant tensor:
#      x y z
#    x 3.439350 0.000000 0.000000 
#    y 0.000000 3.396400 0.000000 
#    z 0.000000 0.000000 3.888510 
# 
# 
# High freq. dielectric constant tensor:
#      x y z
#    x 1.750060 0.000000 0.000000 
#    y 0.000000 1.711090 0.000000 
#    z 0.000000 0.000000 1.754860 
# 
# From -- ./inp_files/30053.got.cif
#   From: 2010.03.12/outbox.cif.g09.slc.cpg/sg53_16_cif.got.tgz:30053.got - 2010.04.16 14:36:59.
