data_PCOD8219480
_publ_section_title
;
Structure prediction by ZEFSAII (Michael W. Deem and Ramdas Pophale) SiO2 
 PCOD8219480
Probable space group: P M N A
;
_chemical_formula_sum "Si O2"
_cell_formula_units_Z 48
_cell_length_a 8.679925
_cell_length_b 9.962776
_cell_length_c 28.822469
_cell_angle_alpha 90.000000
_cell_angle_beta 90.000000
_cell_angle_gamma 90.000000
_cell_volume 2492.456109
_symmetry_space_group_name_H-M "P M N A"
_symmetry_group_IT_number 53
_symmetry_cell_setting 'orthorhombic'
loop_
_space_group_symop_operation_xyz
x,y,z
1/2-x,-y,1/2+z
x,-y,-z
1/2-x,y,1/2-z
-x,-y,-z
1/2+x,y,1/2-z
-x,y,z
1/2+x,-y,1/2+z
loop_
_atom_site_type_symbol
_atom_site_label
_atom_site_fract_x
_atom_site_fract_y
_atom_site_fract_z
Si Si1 0.683221 0.005529 0.800118
Si Si2 0.183686 0.138702 0.520645
Si Si3 0.172238 0.386737 0.461848
Si Si4 0.817802 0.721231 0.799282
Si Si5 0.678564 0.499614 0.626811
Si Si6 0.817911 0.788180 0.377908
O O1 0.750000 0.045447 0.750000
O O2 0.500000 0.002349 0.796976
O O3 0.743351 0.113473 0.837623
O O4 0.743433 0.860480 0.816483
O O5 0.240877 0.253672 0.485627
O O6 0.250718 0.164979 0.572300
O O7 0.000000 0.138959 0.522897
O O8 0.248354 0.000000 0.500000
O O9 0.162491 0.500000 0.500000
O O10 0.287699 0.431046 0.422031
O O11 0.000000 0.361907 0.441528
O O12 0.750000 0.678907 0.750000
O O13 0.769505 0.603358 0.833832
O O14 0.000000 0.741044 0.795930
O O15 0.500000 0.464770 0.630127
O O16 0.771168 0.362960 0.633878
O O17 0.000000 0.794588 0.380233
#
# Coordination Sequence:
#
# PCOD8219480 Si02
#       6
#     8   8   8   8   8   8
#     4  10  21  37  61  87 114 148 186 233 286 341
#     4   9  18  33  55  83 111 140 184 237 276 317
#     4  10  19  35  59  82 110 149 190 231 273 327
#     4  10  22  40  60  84 114 148 189 234 282 339
#     4  11  24  38  56  84 118 152 186 233 289 338
#     4  10  21  38  58  84 113 147 193 233 276 336
#
# _framework density 19.258112000000001
#
# number of rings (size 3 to 8) (size 9 to 14) (size 15 to 20)
#    0.000    2.000    1.667    2.500    2.333    5.000 
#    0.000    3.333    0.000    1.000    0.000    0.000 
#    0.000    0.000    0.000    0.000    0.000    0.000 
#
# Total GULP energy -595270.596964 kJ/mol
# GULP energy per Si atom -12401.470770 kJ/mol
# Density = 1.921428 g / cm^3
# Si number density = 19.258112 Si / 1000 Ang^3
#
#
#
# Elastic Constant Matrix: (Units=GPa)
#
#
# Indices 1 2 3 4 5 6 
#
# 1 31.7839 19.3018 25.1765 0.0000 0.0000 0.0000
# 2 19.3018 160.3698 86.7616 0.0000 0.0000 0.0000
# 3 25.1765 86.7616 124.4163 0.0000 0.0000 0.0000
# 4 0.0000 0.0000 0.0000 42.6235 0.0000 0.0000
# 5 0.0000 0.0000 0.0000 0.0000 28.3563 0.0000
# 6 0.0000 0.0000 0.0000 0.0000 0.0000 25.4488
#
#
#
# Elastic Compliance Matrix: (Units=1/GPa)
#
#
# Indices 1 2 3 4 5 6 
#
# 1 0.037511 -0.000655 -0.007134 0.000000 0.000000 0.000000
# 2 -0.000655 0.010025 -0.006858 0.000000 0.000000 0.000000
# 3 -0.007134 -0.006858 0.014264 0.000000 0.000000 0.000000
# 4 0.000000 0.000000 0.000000 0.023461 0.000000 0.000000
# 5 0.000000 0.000000 0.000000 0.000000 0.035265 0.000000
# 6 0.000000 0.000000 0.000000 0.000000 0.000000 0.039295
#
#
# Mechanical properties :
#
#
# Convention : Reuss Voigt Hill
#
# Bulk Modulus (GPa) = 30.76432 64.33886 47.55159
# Shear Modulus (GPa) = 25.00624 31.64108 28.32366
#
# Velocity S-wave (km/s) = 3.60735 4.05779 3.83918
# Velocity P-wave (km/s) = 5.77582 7.44550 6.66316
#
# Compressibility (1/GPa) = 0.03250519
#
# Stress axis : x y z
#
# Youngs Moduli (GPa) = 26.65877 99.75266 70.10869
#
# Poissons Ratio (x) = 0.06538 0.50012
# Poissons Ratio (y) = 0.01747 0.48082
# Poissons Ratio (z) = 0.19017 0.68412
#
# Static dielectric constant tensor:
#      x y z
#    x 3.335130 0.000000 0.000000 
#    y 0.000000 3.572760 0.000000 
#    z 0.000000 0.000000 3.648840 
# 
# 
# High freq. dielectric constant tensor:
#      x y z
#    x 1.729650 0.000000 0.000000 
#    y 0.000000 1.761520 0.000000 
#    z 0.000000 0.000000 1.756490 
# 
# From -- ./inp_files/37784.got.cif
#   From: 2010.03.12/outbox.cif.g09.slc.cpg/sg53_19_cif.got.tgz:37784.got - 2010.04.16 14:36:59.
