data_PCOD8219099
_publ_section_title
;
Structure prediction by ZEFSAII (Michael W. Deem and Ramdas Pophale) SiO2 
 PCOD8219099
Probable space group: P M N A
;
_chemical_formula_sum "Si O2"
_cell_formula_units_Z 48
_cell_length_a 9.216361
_cell_length_b 16.298664
_cell_length_c 17.899514
_cell_angle_alpha 90.000000
_cell_angle_beta 90.000000
_cell_angle_gamma 90.000000
_cell_volume 2688.764241
_symmetry_space_group_name_H-M "P M N A"
_symmetry_group_IT_number 53
_symmetry_cell_setting 'orthorhombic'
loop_
_space_group_symop_operation_xyz
x,y,z
1/2-x,-y,1/2+z
x,-y,-z
1/2-x,y,1/2-z
-x,-y,-z
1/2+x,y,1/2-z
-x,y,z
1/2+x,-y,1/2+z
loop_
_atom_site_type_symbol
_atom_site_label
_atom_site_fract_x
_atom_site_fract_y
_atom_site_fract_z
Si Si1 0.665878 0.179113 0.093183
Si Si2 0.672175 0.340991 0.173539
Si Si3 0.831328 0.857261 0.173466
Si Si4 0.333230 0.996694 0.087032
Si Si5 0.165141 0.249127 0.962207
Si Si6 0.830560 0.585083 0.963148
O O1 0.500000 0.195151 0.073399
O O2 0.716693 0.246963 0.153496
O O3 0.690637 0.087104 0.123315
O O4 0.745884 0.188593 0.014751
O O5 0.750000 0.365142 0.250000
O O6 0.500000 0.352792 0.181320
O O7 0.733450 0.401431 0.110099
O O8 0.750000 0.841029 0.250000
O O9 0.805034 0.775920 0.123433
O O10 0.000000 0.872448 0.189791
O O11 0.771479 0.936904 0.131518
O O12 0.500000 0.968087 0.096381
O O13 0.290953 0.000000 0.000000
O O14 0.000000 0.232602 0.983918
O O15 0.204701 0.344264 0.975892
O O16 0.000000 0.584800 0.940475
O O17 0.783037 0.500000 0.000000
#
# Coordination Sequence:
#
# PCOD8219099 Si02
#       6
#     8   8   8   8   8   8
#     4   9  18  32  52  77 102 135 174 212 256 310
#     4  10  20  34  53  78 110 141 174 214 262 312
#     4  11  23  36  51  73 104 139 179 221 262 307
#     4  10  19  33  54  77 105 139 177 219 264 311
#     4   9  18  33  53  76 101 133 172 211 255 310
#     4   9  18  35  59  83 107 136 171 213 262 318
#
# _framework density 17.852067000000002
#
# number of rings (size 3 to 8) (size 9 to 14) (size 15 to 20)
#    0.000    2.333    1.667    1.000    0.000    3.333 
#    0.000    2.500    0.000    2.000    0.000    0.000 
#    0.000    0.000    0.000    0.000    0.000    0.000 
#
# Total GULP energy -595165.549766 kJ/mol
# GULP energy per Si atom -12399.282287 kJ/mol
# Density = 1.781143 g / cm^3
# Si number density = 17.852067 Si / 1000 Ang^3
#
#
#
# Elastic Constant Matrix: (Units=GPa)
#
#
# Indices 1 2 3 4 5 6 
#
# 1 85.1585 44.8084 66.5141 0.0000 0.0000 0.0000
# 2 44.8084 102.1430 58.5703 0.0000 0.0000 0.0000
# 3 66.5141 58.5703 128.4625 0.0000 0.0000 0.0000
# 4 0.0000 0.0000 0.0000 18.4542 0.0000 0.0000
# 5 0.0000 0.0000 0.0000 0.0000 32.1019 0.0000
# 6 0.0000 0.0000 0.0000 0.0000 0.0000 24.0809
#
#
#
# Elastic Compliance Matrix: (Units=1/GPa)
#
#
# Indices 1 2 3 4 5 6 
#
# 1 0.020860 -0.004005 -0.008975 0.000000 0.000000 0.000000
# 2 -0.004005 0.014025 -0.004321 0.000000 0.000000 0.000000
# 3 -0.008975 -0.004321 0.014401 0.000000 0.000000 0.000000
# 4 0.000000 0.000000 0.000000 0.054188 0.000000 0.000000
# 5 0.000000 0.000000 0.000000 0.000000 0.031151 0.000000
# 6 0.000000 0.000000 0.000000 0.000000 0.000000 0.041527
#
#
# Mechanical properties :
#
#
# Convention : Reuss Voigt Hill
#
# Bulk Modulus (GPa) = 68.09540 72.83886 70.46713
# Shear Modulus (GPa) = 23.18608 24.65214 23.91911
#
# Velocity S-wave (km/s) = 3.60778 3.72009 3.66437
# Velocity P-wave (km/s) = 7.45532 7.70338 7.58037
#
# Compressibility (1/GPa) = 0.01468528
#
# Stress axis : x y z
#
# Youngs Moduli (GPa) = 47.93916 71.30357 69.43855
#
# Poissons Ratio (x) = 0.28554 0.62319
# Poissons Ratio (y) = 0.19198 0.30003
# Poissons Ratio (z) = 0.43024 0.30809
#
# Static dielectric constant tensor:
#      x y z
#    x 3.337360 0.000000 0.000000 
#    y 0.000000 3.412920 0.000000 
#    z 0.000000 0.000000 3.242960 
# 
# 
# High freq. dielectric constant tensor:
#      x y z
#    x 1.695690 0.000000 0.000000 
#    y 0.000000 1.686240 0.000000 
#    z 0.000000 0.000000 1.678560 
# 
# From -- ./inp_files/20139.got.cif
#   From: 2010.03.12/outbox.cif.g09.slc.cpg/sg53_11_cif.got.tgz:20139.got - 2010.04.16 14:36:59.
