data_PCOD8219811
_publ_section_title
;
Structure prediction by ZEFSAII (Michael W. Deem and Ramdas Pophale) SiO2 
 PCOD8219811
Probable space group: P M N A
;
_chemical_formula_sum "Si O2"
_cell_formula_units_Z 64
_cell_length_a 9.161053
_cell_length_b 17.362577
_cell_length_c 20.138638
_cell_angle_alpha 90.000000
_cell_angle_beta 90.000000
_cell_angle_gamma 90.000000
_cell_volume 3203.241452
_symmetry_space_group_name_H-M "P M N A"
_symmetry_group_IT_number 53
_symmetry_cell_setting 'orthorhombic'
loop_
_space_group_symop_operation_xyz
x,y,z
1/2-x,-y,1/2+z
x,-y,-z
1/2-x,y,1/2-z
-x,-y,-z
1/2+x,y,1/2-z
-x,y,z
1/2+x,-y,1/2+z
loop_
_atom_site_type_symbol
_atom_site_label
_atom_site_fract_x
_atom_site_fract_y
_atom_site_fract_z
Si Si1 0.835455 0.120575 0.482588
Si Si2 0.668920 0.609595 0.316747
Si Si3 0.668698 0.788809 0.315210
Si Si4 0.837396 0.917570 0.373079
Si Si5 0.326549 0.425388 0.537814
Si Si6 0.667871 0.770062 0.686116
Si Si7 0.326747 0.271291 0.461578
Si Si8 0.670311 0.062782 0.360397
O O1 0.846281 0.068127 0.548237
O O2 0.767723 0.205185 0.496699
O O3 0.724945 0.077528 0.434444
O O4 0.000000 0.129328 0.452501
O O5 0.750000 0.579928 0.250000
O O6 0.500000 0.590413 0.305462
O O7 0.695999 0.699587 0.328531
O O8 0.729412 0.572068 0.385270
O O9 0.750000 0.817539 0.250000
O O10 0.500000 0.808789 0.310127
O O11 0.743898 0.839226 0.371584
O O12 0.000000 0.907955 0.342914
O O13 0.758814 0.988114 0.334158
O O14 0.263358 0.500000 0.500000
O O15 0.500000 0.426879 0.540126
O O16 0.276641 0.350454 0.496595
O O17 0.750000 0.734567 0.750000
O O18 0.500000 0.756240 0.700384
O O19 0.711406 0.727157 0.617481
O O20 0.704588 0.861248 0.682465
O O21 0.500000 0.255450 0.471432
O O22 0.500000 0.043268 0.361341
#
# Coordination Sequence:
#
# PCOD8219811 Si02
#       8
#     8   8   8   8   8   8   8   8
#     4  10  20  33  50  73 100 131 169 214 266 321
#     4   9  18  33  55  81 108 143 182 219 262 313
#     4  10  20  34  51  71  97 131 173 216 259 309
#     4  11  22  33  47  71 102 133 168 215 271 326
#     4   9  17  32  57  86 113 142 178 218 260 311
#     4   9  19  34  52  73  97 130 173 221 268 315
#     4   9  18  34  55  79 104 133 177 225 264 314
#     4  10  21  35  50  70  97 132 175 221 269 318
#
# _framework density 19.979761
#
# number of rings (size 3 to 8) (size 9 to 14) (size 15 to 20)
#    0.000    2.375    0.000    3.375    0.000    8.000 
#    0.000    2.500    0.000    1.500    0.000    0.000 
#    0.000    0.000    0.000    0.000    0.000    0.000 
#
# Total GULP energy -793193.965443 kJ/mol
# GULP energy per Si atom -12393.655710 kJ/mol
# Density = 1.993429 g / cm^3
# Si number density = 19.979761 Si / 1000 Ang^3
#
#
#
# Elastic Constant Matrix: (Units=GPa)
#
#
# Indices 1 2 3 4 5 6 
#
# 1 72.7341 28.2482 34.1637 0.0000 0.0000 0.0000
# 2 28.2482 66.6229 34.1470 0.0000 0.0000 0.0000
# 3 34.1637 34.1470 119.6288 0.0000 0.0000 0.0000
# 4 0.0000 0.0000 0.0000 25.5596 0.0000 0.0000
# 5 0.0000 0.0000 0.0000 0.0000 30.6734 0.0000
# 6 0.0000 0.0000 0.0000 0.0000 0.0000 16.0711
#
#
#
# Elastic Compliance Matrix: (Units=1/GPa)
#
#
# Indices 1 2 3 4 5 6 
#
# 1 0.017555 -0.005709 -0.003384 0.000000 0.000000 0.000000
# 2 -0.005709 0.019439 -0.003918 0.000000 0.000000 0.000000
# 3 -0.003384 -0.003918 0.010444 0.000000 0.000000 0.000000
# 4 0.000000 0.000000 0.000000 0.039124 0.000000 0.000000
# 5 0.000000 0.000000 0.000000 0.000000 0.032602 0.000000
# 6 0.000000 0.000000 0.000000 0.000000 0.000000 0.062224
#
#
# Mechanical properties :
#
#
# Convention : Reuss Voigt Hill
#
# Bulk Modulus (GPa) = 46.69464 50.23374 48.46419
# Shear Modulus (GPa) = 23.30473 25.28926 24.29700
#
# Velocity S-wave (km/s) = 3.41899 3.56159 3.49102
# Velocity P-wave (km/s) = 6.24561 6.48923 6.36859
#
# Compressibility (1/GPa) = 0.02141574
#
# Stress axis : x y z
#
# Youngs Moduli (GPa) = 56.96236 51.44356 95.74896
#
# Poissons Ratio (x) = 0.29370 0.32400
# Poissons Ratio (y) = 0.32521 0.37516
# Poissons Ratio (z) = 0.19275 0.20157
#
# Static dielectric constant tensor:
#      x y z
#    x 3.563830 0.000000 0.000000 
#    y 0.000000 3.576740 0.000000 
#    z 0.000000 0.000000 3.276190 
# 
# 
# High freq. dielectric constant tensor:
#      x y z
#    x 1.766860 0.000000 0.000000 
#    y 0.000000 1.757120 0.000000 
#    z 0.000000 0.000000 1.782040 
# 
# From -- ./inp_files/31280.got.cif
#   From: 2010.03.12/outbox.cif.g09.slc.cpg/sg53_16_cif.got.tgz:31280.got - 2010.04.16 14:36:59.
