data_PCOD8219978
_publ_section_title
;
Structure prediction by ZEFSAII (Michael W. Deem and Ramdas Pophale) SiO2 
 PCOD8219978
Probable space group: P M N A
;
_chemical_formula_sum "Si O2"
_cell_formula_units_Z 48
_cell_length_a 9.493610
_cell_length_b 7.974024
_cell_length_c 29.769939
_cell_angle_alpha 90.000000
_cell_angle_beta 90.000000
_cell_angle_gamma 90.000000
_cell_volume 2253.652079
_symmetry_space_group_name_H-M "P M N A"
_symmetry_group_IT_number 53
_symmetry_cell_setting 'orthorhombic'
loop_
_space_group_symop_operation_xyz
x,y,z
1/2-x,-y,1/2+z
x,-y,-z
1/2-x,y,1/2-z
-x,-y,-z
1/2+x,y,1/2-z
-x,y,z
1/2+x,-y,1/2+z
loop_
_atom_site_type_symbol
_atom_site_label
_atom_site_fract_x
_atom_site_fract_y
_atom_site_fract_z
Si Si1 0.156076 0.208899 0.420063
Si Si2 0.835849 0.393862 0.142901
Si Si3 0.663186 0.702746 0.294636
Si Si4 0.844710 0.671315 0.483040
Si Si5 0.156905 0.933733 0.050849
Si Si6 0.837867 0.081694 0.205848
O O1 0.233691 0.375655 0.400537
O O2 0.135301 0.214300 0.473335
O O3 0.000000 0.183249 0.398202
O O4 0.261642 0.051932 0.413614
O O5 0.793742 0.565103 0.168116
O O6 0.000000 0.395640 0.128851
O O7 0.797201 0.225466 0.170585
O O8 0.750000 0.663514 0.250000
O O9 0.500000 0.679773 0.282212
O O10 0.694052 0.892288 0.312409
O O11 0.774800 0.500000 0.500000
O O12 0.739427 0.757004 0.447855
O O13 0.000000 0.639975 0.461025
O O14 0.000000 0.906959 0.070327
O O15 0.147298 0.000000 0.000000
O O16 0.750000 0.118745 0.250000
O O17 0.000000 0.098312 0.219477
#
# Coordination Sequence:
#
# PCOD8219978 Si02
#       6
#     8   8   8   8   8   8
#     4  10  20  34  52  74 101 135 171 210 259 311
#     4  10  20  34  51  73 107 141 169 212 263 309
#     4   9  18  33  53  76 102 135 172 213 258 305
#     4   9  18  34  54  75 102 133 169 214 259 307
#     4   9  17  31  52  74  97 127 166 207 248 301
#     4   9  18  33  53  76 102 133 173 212 256 308
#
# _framework density 21.298763000000001
#
# number of rings (size 3 to 8) (size 9 to 14) (size 15 to 20)
#    0.000    2.667    0.000    1.500    0.000    4.333 
#    3.000    0.000    0.000    0.000    0.000    0.000 
#    0.000    0.000    0.000    0.000    0.000    0.000 
#
# Total GULP energy -594845.897820 kJ/mol
# GULP energy per Si atom -12392.622871 kJ/mol
# Density = 2.125029 g / cm^3
# Si number density = 21.298763 Si / 1000 Ang^3
#
#
#
# Elastic Constant Matrix: (Units=GPa)
#
#
# Indices 1 2 3 4 5 6 
#
# 1 89.7639 11.8155 0.7915 0.0000 0.0000 0.0000
# 2 11.8155 73.3761 -12.2049 0.0000 0.0000 0.0000
# 3 0.7915 -12.2049 10.5364 0.0000 0.0000 0.0000
# 4 0.0000 0.0000 0.0000 16.4388 0.0000 0.0000
# 5 0.0000 0.0000 0.0000 0.0000 22.3771 0.0000
# 6 0.0000 0.0000 0.0000 0.0000 0.0000 22.9429
#
#
#
# Elastic Compliance Matrix: (Units=1/GPa)
#
#
# Indices 1 2 3 4 5 6 
#
# 1 0.011499 -0.002471 -0.003727 0.000000 0.000000 0.000000
# 2 -0.002471 0.017412 0.020355 0.000000 0.000000 0.000000
# 3 -0.003727 0.020355 0.118768 0.000000 0.000000 0.000000
# 4 0.000000 0.000000 0.000000 0.060832 0.000000 0.000000
# 5 0.000000 0.000000 0.000000 0.000000 0.044689 0.000000
# 6 0.000000 0.000000 0.000000 0.000000 0.000000 0.043586
#
#
# Mechanical properties :
#
#
# Convention : Reuss Voigt Hill
#
# Bulk Modulus (GPa) = 5.68204 19.38673 12.53438
# Shear Modulus (GPa) = 15.28418 23.90337 19.59378
#
# Velocity S-wave (km/s) = 2.68173 3.35369 3.03636
# Velocity P-wave (km/s) = 3.50178 4.91105 4.26502
#
# Compressibility (1/GPa) = 0.17599326
#
# Stress axis : x y z
#
# Youngs Moduli (GPa) = 86.96784 57.43120 8.41977
#
# Poissons Ratio (x) = 0.14194 0.03138
# Poissons Ratio (y) = 0.21493 -0.17139
# Poissons Ratio (z) = 0.32409 -1.16903
#
# Static dielectric constant tensor:
#      x y z
#    x 4.102000 0.000000 0.000000 
#    y 0.000000 3.997830 0.000000 
#    z 0.000000 0.000000 3.462200 
# 
# 
# High freq. dielectric constant tensor:
#      x y z
#    x 1.839950 0.000000 0.000000 
#    y 0.000000 1.842340 0.000000 
#    z 0.000000 0.000000 1.797700 
# 
# From -- ./inp_files/37778.got.cif
#   From: 2010.03.12/outbox.cif.g09.slc.cpg/sg53_19_cif.got.tgz:37778.got - 2010.04.16 14:36:59.
