data_PCOD8219880
_publ_section_title
;
Structure prediction by ZEFSAII (Michael W. Deem and Ramdas Pophale) SiO2 
 PCOD8219880
Probable space group: P M N A
;
_chemical_formula_sum "Si O2"
_cell_formula_units_Z 64
_cell_length_a 9.474923
_cell_length_b 12.625326
_cell_length_c 27.802266
_cell_angle_alpha 90.000000
_cell_angle_beta 90.000000
_cell_angle_gamma 90.000000
_cell_volume 3325.818037
_symmetry_space_group_name_H-M "P M N A"
_symmetry_group_IT_number 53
_symmetry_cell_setting 'orthorhombic'
loop_
_space_group_symop_operation_xyz
x,y,z
1/2-x,-y,1/2+z
x,-y,-z
1/2-x,y,1/2-z
-x,-y,-z
1/2+x,y,1/2-z
-x,y,z
1/2+x,-y,1/2+z
loop_
_atom_site_type_symbol
_atom_site_label
_atom_site_fract_x
_atom_site_fract_y
_atom_site_fract_z
Si Si1 0.165463 0.814428 0.298413
Si Si2 0.656944 0.024292 0.448268
Si Si3 0.338278 0.254235 0.142879
Si Si4 0.342159 0.272820 0.445582
Si Si5 0.163272 0.012975 0.359193
Si Si6 0.833708 0.627698 0.368319
Si Si7 0.835232 0.614570 0.477159
Si Si8 0.837703 0.550340 0.703435
O O1 0.250000 0.789824 0.250000
O O2 0.200552 0.934010 0.315597
O O3 0.215553 0.733429 0.340167
O O4 0.000000 0.800031 0.287462
O O5 0.500000 0.973346 0.445334
O O6 0.647235 0.148233 0.441818
O O7 0.726493 0.000000 0.500000
O O8 0.752221 0.974947 0.406287
O O9 0.500000 0.259428 0.124824
O O10 0.243746 0.308473 0.101593
O O11 0.316890 0.326196 0.189992
O O12 0.296375 0.133218 0.156025
O O13 0.500000 0.322764 0.445869
O O14 0.257144 0.302192 0.493282
O O15 0.000000 0.003497 0.372913
O O16 0.774783 0.621149 0.422728
O O17 0.781761 0.524155 0.339565
O O18 0.000000 0.625958 0.372787
O O19 0.808822 0.500000 0.500000
O O20 0.000000 0.645780 0.480163
O O21 0.750000 0.521683 0.750000
O O22 0.000000 0.524692 0.714869
#
# Coordination Sequence:
#
# PCOD8219880 Si02
#       8
#     8   8   8   8   8   8   8   8
#     4  10  21  37  55  77 106 140 180 227 271 316
#     4   9  19  34  51  74 108 144 174 210 261 319
#     4   9  18  35  55  76 105 141 177 213 259 320
#     4  10  20  33  51  78 109 139 173 217 263 310
#     4   9  19  34  53  78 105 136 178 222 261 308
#     4   9  19  35  54  76 104 137 177 219 260 317
#     4  10  20  35  56  79 105 143 183 218 266 326
#     4  10  20  35  56  78 101 131 170 217 265 315
#
# _framework density 19.243386000000001
#
# number of rings (size 3 to 8) (size 9 to 14) (size 15 to 20)
#    0.000    2.500    0.000    1.500    1.750    4.500 
#    0.000    1.250    0.000    0.000    0.000    0.000 
#    0.000    0.000    0.000    0.000    0.000    0.000 
#
# Total GULP energy -793484.026644 kJ/mol
# GULP energy per Si atom -12398.187916 kJ/mol
# Density = 1.919959 g / cm^3
# Si number density = 19.243386 Si / 1000 Ang^3
#
#
#
# Elastic Constant Matrix: (Units=GPa)
#
#
# Indices 1 2 3 4 5 6 
#
# 1 62.8469 24.9136 48.8797 0.0000 0.0000 0.0000
# 2 24.9136 77.3467 45.5794 0.0000 0.0000 0.0000
# 3 48.8797 45.5794 133.9697 0.0000 0.0000 0.0000
# 4 0.0000 0.0000 0.0000 28.2387 0.0000 0.0000
# 5 0.0000 0.0000 0.0000 0.0000 33.2826 0.0000
# 6 0.0000 0.0000 0.0000 0.0000 0.0000 10.7309
#
#
#
# Elastic Compliance Matrix: (Units=1/GPa)
#
#
# Indices 1 2 3 4 5 6 
#
# 1 0.022777 -0.003051 -0.007272 0.000000 0.000000 0.000000
# 2 -0.003051 0.016580 -0.004528 0.000000 0.000000 0.000000
# 3 -0.007272 -0.004528 0.011658 0.000000 0.000000 0.000000
# 4 0.000000 0.000000 0.000000 0.035412 0.000000 0.000000
# 5 0.000000 0.000000 0.000000 0.000000 0.030046 0.000000
# 6 0.000000 0.000000 0.000000 0.000000 0.000000 0.093189
#
#
# Mechanical properties :
#
#
# Convention : Reuss Voigt Hill
#
# Bulk Modulus (GPa) = 46.91973 56.98986 51.95480
# Shear Modulus (GPa) = 20.28657 24.76982 22.52819
#
# Velocity S-wave (km/s) = 3.25038 3.59163 3.42526
# Velocity P-wave (km/s) = 6.20660 6.84685 6.53457
#
# Compressibility (1/GPa) = 0.02131299
#
# Stress axis : x y z
#
# Youngs Moduli (GPa) = 43.90313 60.31514 85.77704
#
# Poissons Ratio (x) = 0.18403 0.62381
# Poissons Ratio (y) = 0.13395 0.38836
# Poissons Ratio (z) = 0.31928 0.27308
#
# Static dielectric constant tensor:
#      x y z
#    x 3.579290 0.000000 0.000000 
#    y 0.000000 3.556710 0.000000 
#    z 0.000000 0.000000 3.556210 
# 
# 
# High freq. dielectric constant tensor:
#      x y z
#    x 1.730060 0.000000 0.000000 
#    y 0.000000 1.749610 0.000000 
#    z 0.000000 0.000000 1.747270 
# 
# From -- ./inp_files/38142.got.cif
#   From: 2010.03.12/outbox.cif.g09.slc.cpg/sg53_20_cif.got.tgz:38142.got - 2010.04.16 14:36:59.
