data_PCOD8219990
_publ_section_title
;
Structure prediction by ZEFSAII (Michael W. Deem and Ramdas Pophale) SiO2 
 PCOD8219990
Probable space group: P M N A
;
_chemical_formula_sum "Si O2"
_cell_formula_units_Z 40
_cell_length_a 9.061005
_cell_length_b 15.497088
_cell_length_c 13.994504
_cell_angle_alpha 90.000000
_cell_angle_beta 90.000000
_cell_angle_gamma 90.000000
_cell_volume 1965.096942
_symmetry_space_group_name_H-M "P M N A"
_symmetry_group_IT_number 53
_symmetry_cell_setting 'orthorhombic'
loop_
_space_group_symop_operation_xyz
x,y,z
1/2-x,-y,1/2+z
x,-y,-z
1/2-x,y,1/2-z
-x,-y,-z
1/2+x,y,1/2-z
-x,y,z
1/2+x,-y,1/2+z
loop_
_atom_site_type_symbol
_atom_site_label
_atom_site_fract_x
_atom_site_fract_y
_atom_site_fract_z
Si Si1 0.326974 0.142458 0.158290
Si Si2 0.325858 0.195178 0.535857
Si Si3 0.661520 0.041075 0.896146
Si Si4 0.672187 0.539114 0.849264
Si Si5 0.673248 0.367850 0.958645
O O1 0.250000 0.186738 0.250000
O O2 0.500000 0.164789 0.154529
O O3 0.297875 0.039556 0.170878
O O4 0.251621 0.180859 0.065170
O O5 0.500000 0.194737 0.523972
O O6 0.279766 0.118805 0.609658
O O7 0.269267 0.286421 0.575734
O O8 0.500000 0.079246 0.870361
O O9 0.656457 0.000000 0.000000
O O10 0.750000 0.562626 0.750000
O O11 0.500000 0.543095 0.829605
O O12 0.717113 0.444378 0.886553
O O13 0.715068 0.607405 0.932028
O O14 0.500000 0.346986 0.951679
#
# Coordination Sequence:
#
# PCOD8219990 Si02
#       5
#     8   8   8   8   8
#     4  10  20  34  52  74 102 136 173 215 263 311
#     4  11  21  32  51  78 104 134 173 215 257 305
#     4   8  16  32  51  69  94 131 167 202 250 300
#     4   9  19  36  59  81 104 138 176 217 268 323
#     4   9  19  37  56  77 108 144 177 213 267 327
#
# _framework density 20.355229000000001
#
# number of rings (size 3 to 8) (size 9 to 14) (size 15 to 20)
#    0.000    2.600    0.000    4.800    0.000    6.800 
#    0.000    5.000    0.000    0.000    0.000    0.000 
#    0.000    0.000    0.000    0.000    0.000    0.000 
#
# Total GULP energy -495780.296826 kJ/mol
# GULP energy per Si atom -12394.507421 kJ/mol
# Density = 2.030890 g / cm^3
# Si number density = 20.355229 Si / 1000 Ang^3
#
#
#
# Elastic Constant Matrix: (Units=GPa)
#
#
# Indices 1 2 3 4 5 6 
#
# 1 95.4766 32.1764 6.9925 0.0000 0.0000 0.0000
# 2 32.1764 75.8440 -20.2938 0.0000 0.0000 0.0000
# 3 6.9925 -20.2938 34.9741 0.0000 0.0000 0.0000
# 4 0.0000 0.0000 0.0000 12.8849 0.0000 0.0000
# 5 0.0000 0.0000 0.0000 0.0000 28.1184 0.0000
# 6 0.0000 0.0000 0.0000 0.0000 0.0000 24.3432
#
#
#
# Elastic Compliance Matrix: (Units=1/GPa)
#
#
# Indices 1 2 3 4 5 6 
#
# 1 0.013589 -0.007685 -0.007176 0.000000 0.000000 0.000000
# 2 -0.007685 0.019955 0.013115 0.000000 0.000000 0.000000
# 3 -0.007176 0.013115 0.037638 0.000000 0.000000 0.000000
# 4 0.000000 0.000000 0.000000 0.077610 0.000000 0.000000
# 5 0.000000 0.000000 0.000000 0.000000 0.035564 0.000000
# 6 0.000000 0.000000 0.000000 0.000000 0.000000 0.041079
#
#
# Mechanical properties :
#
#
# Convention : Reuss Voigt Hill
#
# Bulk Modulus (GPa) = 14.77350 27.11610 20.94480
# Shear Modulus (GPa) = 19.88140 25.56394 22.72267
#
# Velocity S-wave (km/s) = 3.12865 3.54770 3.34474
# Velocity P-wave (km/s) = 4.50831 5.48926 5.02279
#
# Compressibility (1/GPa) = 0.06768875
#
# Stress axis : x y z
#
# Youngs Moduli (GPa) = 73.58666 50.11326 26.56915
#
# Poissons Ratio (x) = 0.38514 0.19067
# Poissons Ratio (y) = 0.56555 -0.34846
# Poissons Ratio (z) = 0.52809 -0.65726
#
# Static dielectric constant tensor:
#      x y z
#    x 3.539360 0.000000 0.000000 
#    y 0.000000 3.822120 0.000000 
#    z 0.000000 0.000000 3.565480 
# 
# 
# High freq. dielectric constant tensor:
#      x y z
#    x 1.788150 0.000000 0.000000 
#    y 0.000000 1.794520 0.000000 
#    z 0.000000 0.000000 1.777310 
# 
# From -- ./inp_files/19864.got.cif
#   From: 2010.03.12/outbox.cif.g09.slc.cpg/sg53_10_cif.got.tgz:19864.got - 2010.04.16 14:36:59.
