data_PCOD8219423
_publ_section_title
;
Structure prediction by ZEFSAII (Michael W. Deem and Ramdas Pophale) SiO2 
 PCOD8219423
Probable space group: P M N A
;
_chemical_formula_sum "Si O2"
_cell_formula_units_Z 48
_cell_length_a 8.674103
_cell_length_b 14.924707
_cell_length_c 19.125733
_cell_angle_alpha 90.000000
_cell_angle_beta 90.000000
_cell_angle_gamma 90.000000
_cell_volume 2475.987668
_symmetry_space_group_name_H-M "P M N A"
_symmetry_group_IT_number 53
_symmetry_cell_setting 'orthorhombic'
loop_
_space_group_symop_operation_xyz
x,y,z
1/2-x,-y,1/2+z
x,-y,-z
1/2-x,y,1/2-z
-x,-y,-z
1/2+x,y,1/2-z
-x,y,z
1/2+x,-y,1/2+z
loop_
_atom_site_type_symbol
_atom_site_label
_atom_site_fract_x
_atom_site_fract_y
_atom_site_fract_z
Si Si1 0.180574 0.953883 0.906899
Si Si2 0.682694 0.371079 0.418191
Si Si3 0.818683 0.535210 0.172898
Si Si4 0.180769 0.212627 0.176739
Si Si5 0.181276 0.311961 0.931657
Si Si6 0.680306 0.876361 0.045372
O O1 0.225700 0.889181 0.842677
O O2 0.000000 0.976368 0.907847
O O3 0.277831 0.045474 0.898683
O O4 0.221247 0.899131 0.976883
O O5 0.500000 0.377740 0.416037
O O6 0.750829 0.456721 0.376700
O O7 0.745455 0.281055 0.381286
O O8 0.736128 0.366490 0.499093
O O9 0.750000 0.531283 0.250000
O O10 0.777541 0.629487 0.136339
O O11 0.000000 0.522938 0.180050
O O12 0.250000 0.240501 0.250000
O O13 0.000000 0.224256 0.181263
O O14 0.272787 0.219304 0.923644
O O15 0.000000 0.290908 0.936552
O O16 0.500000 0.878721 0.028169
#
# Coordination Sequence:
#
# PCOD8219423 Si02
#       6
#     8   8   8   8   8   8
#     4  10  19  35  56  78 108 149 185 219 267 334
#     4   9  17  34  57  83 108 141 189 230 270 327
#     4  10  21  36  58  82 111 148 184 231 281 331
#     4  10  20  33  53  80 113 148 182 225 276 330
#     4  10  19  36  59  82 108 146 193 230 269 332
#     4  11  21  33  54  84 111 138 177 234 283 317
#
# _framework density 19.386202000000001
#
# number of rings (size 3 to 8) (size 9 to 14) (size 15 to 20)
#    0.000    2.000    1.667    4.000    0.000    4.000 
#    0.000    1.667    0.000    2.000    0.000    0.000 
#    0.000    0.000    0.000    0.000    0.000    0.000 
#
# Total GULP energy -595101.174457 kJ/mol
# GULP energy per Si atom -12397.941135 kJ/mol
# Density = 1.934208 g / cm^3
# Si number density = 19.386202 Si / 1000 Ang^3
#
#
#
# Elastic Constant Matrix: (Units=GPa)
#
#
# Indices 1 2 3 4 5 6 
#
# 1 31.3819 31.4234 15.6583 0.0000 0.0000 0.0000
# 2 31.4234 131.8361 41.2981 0.0000 0.0000 0.0000
# 3 15.6583 41.2981 82.8860 0.0000 0.0000 0.0000
# 4 0.0000 0.0000 0.0000 24.6552 0.0000 0.0000
# 5 0.0000 0.0000 0.0000 0.0000 25.1759 0.0000
# 6 0.0000 0.0000 0.0000 0.0000 0.0000 14.8283
#
#
#
# Elastic Compliance Matrix: (Units=1/GPa)
#
#
# Indices 1 2 3 4 5 6 
#
# 1 0.042719 -0.009070 -0.003551 0.000000 0.000000 0.000000
# 2 -0.009070 0.010914 -0.003724 0.000000 0.000000 0.000000
# 3 -0.003551 -0.003724 0.014591 0.000000 0.000000 0.000000
# 4 0.000000 0.000000 0.000000 0.040559 0.000000 0.000000
# 5 0.000000 0.000000 0.000000 0.000000 0.039721 0.000000
# 6 0.000000 0.000000 0.000000 0.000000 0.000000 0.067439
#
#
# Mechanical properties :
#
#
# Convention : Reuss Voigt Hill
#
# Bulk Modulus (GPa) = 28.14245 46.98485 37.56365
# Shear Modulus (GPa) = 19.19547 23.44680 21.32114
#
# Velocity S-wave (km/s) = 3.15010 3.48150 3.31994
# Velocity P-wave (km/s) = 5.27059 6.36003 5.84076
#
# Compressibility (1/GPa) = 0.03553351
#
# Stress axis : x y z
#
# Youngs Moduli (GPa) = 23.40864 91.62842 68.53401
#
# Poissons Ratio (x) = 0.83105 0.24338
# Poissons Ratio (y) = 0.21231 0.25524
# Poissons Ratio (z) = 0.08313 0.34126
#
# Static dielectric constant tensor:
#      x y z
#    x 3.242220 0.000000 0.000000 
#    y 0.000000 3.856440 0.000000 
#    z 0.000000 0.000000 3.384990 
# 
# 
# High freq. dielectric constant tensor:
#      x y z
#    x 1.729170 0.000000 0.000000 
#    y 0.000000 1.769440 0.000000 
#    z 0.000000 0.000000 1.738310 
# 
# From -- ./inp_files/26244.got.cif
#   From: 2010.03.12/outbox.cif.g09.slc.cpg/sg53_14_cif.got.tgz:26244.got - 2010.04.16 14:36:59.
