data_PCOD8219932
_publ_section_title
;
Structure prediction by ZEFSAII (Michael W. Deem and Ramdas Pophale) SiO2 
 PCOD8219932
Probable space group: P M N A
;
_chemical_formula_sum "Si O2"
_cell_formula_units_Z 56
_cell_length_a 18.109829
_cell_length_b 11.525172
_cell_length_c 14.792019
_cell_angle_alpha 90.000000
_cell_angle_beta 90.000000
_cell_angle_gamma 90.000000
_cell_volume 3087.373847
_symmetry_space_group_name_H-M "P M N A"
_symmetry_group_IT_number 53
_symmetry_cell_setting 'orthorhombic'
loop_
_space_group_symop_operation_xyz
x,y,z
1/2-x,-y,1/2+z
x,-y,-z
1/2-x,y,1/2-z
-x,-y,-z
1/2+x,y,1/2-z
-x,y,z
1/2+x,-y,1/2+z
loop_
_atom_site_type_symbol
_atom_site_label
_atom_site_fract_x
_atom_site_fract_y
_atom_site_fract_z
Si Si1 0.085632 0.638953 0.855749
Si Si2 0.415199 0.254194 0.850478
Si Si3 0.087795 0.004292 0.601490
Si Si4 0.915254 0.235018 0.321791
Si Si5 0.648397 0.364048 0.020033
Si Si6 0.669882 0.413036 0.711176
Si Si7 0.189521 0.636023 0.014466
O O1 0.094106 0.743504 0.784731
O O2 0.122337 0.526598 0.810257
O O3 0.000000 0.611659 0.877534
O O4 0.125545 0.682810 0.947574
O O5 0.500000 0.264066 0.820770
O O6 0.386409 0.121157 0.846874
O O7 0.367317 0.333349 0.785549
O O8 0.407063 0.298046 0.953206
O O9 0.000000 0.006071 0.596932
O O10 0.120477 0.000000 0.500000
O O11 0.117573 0.892115 0.655741
O O12 0.874876 0.337202 0.377381
O O13 0.000000 0.240363 0.351097
O O14 0.644737 0.500000 0.000000
O O15 0.730748 0.312024 0.009515
O O16 0.750000 0.450449 0.750000
O O17 0.673834 0.336439 0.619516
O O18 0.193224 0.500000 0.000000
#
# Coordination Sequence:
#
# PCOD8219932 Si02
#       7
#     8   8   8   8   8   8   8
#     4  10  22  37  57  84 112 146 194 232 267 330
#     4  11  21  33  56  82 108 144 186 228 275 336
#     4   9  17  33  53  77 108 147 186 224 277 332
#     4  10  20  33  54  81 113 144 182 234 274 324
#     4  11  20  31  51  82 116 145 174 218 284 338
#     4  11  21  36  55  81 115 148 180 228 284 336
#     4   9  21  36  54  75 108 156 182 216 275 333
#
# _framework density 18.138392
#
# number of rings (size 3 to 8) (size 9 to 14) (size 15 to 20)
#    0.000    1.857    2.857    1.714    4.000    5.429 
#    0.000    0.000    3.143    0.857    0.000    4.000 
#    0.000    0.000    0.000    0.000    0.000    0.000 
#
# Total GULP energy -694264.228959 kJ/mol
# GULP energy per Si atom -12397.575517 kJ/mol
# Density = 1.809711 g / cm^3
# Si number density = 18.138392 Si / 1000 Ang^3
#
#
#
# Elastic Constant Matrix: (Units=GPa)
#
#
# Indices 1 2 3 4 5 6 
#
# 1 77.1876 24.5089 27.4525 0.0000 0.0000 0.0000
# 2 24.5089 71.6710 15.0366 0.0000 0.0000 0.0000
# 3 27.4525 15.0366 89.9609 0.0000 0.0000 0.0000
# 4 0.0000 0.0000 0.0000 18.4994 0.0000 0.0000
# 5 0.0000 0.0000 0.0000 0.0000 32.2429 0.0000
# 6 0.0000 0.0000 0.0000 0.0000 0.0000 4.7379
#
#
#
# Elastic Compliance Matrix: (Units=1/GPa)
#
#
# Indices 1 2 3 4 5 6 
#
# 1 0.015855 -0.004567 -0.004075 0.000000 0.000000 0.000000
# 2 -0.004567 0.015775 -0.001243 0.000000 0.000000 0.000000
# 3 -0.004075 -0.001243 0.012567 0.000000 0.000000 0.000000
# 4 0.000000 0.000000 0.000000 0.054056 0.000000 0.000000
# 5 0.000000 0.000000 0.000000 0.000000 0.031015 0.000000
# 6 0.000000 0.000000 0.000000 0.000000 0.000000 0.211062
#
#
# Mechanical properties :
#
#
# Convention : Reuss Voigt Hill
#
# Bulk Modulus (GPa) = 40.93770 41.42396 41.18083
# Shear Modulus (GPa) = 13.57803 22.55083 18.06443
#
# Velocity S-wave (km/s) = 2.73899 3.52982 3.15925
# Velocity P-wave (km/s) = 5.71151 6.28492 6.00506
#
# Compressibility (1/GPa) = 0.02442736
#
# Stress axis : x y z
#
# Youngs Moduli (GPa) = 63.07231 63.39083 79.57208
#
# Poissons Ratio (x) = 0.28950 0.32425
# Poissons Ratio (y) = 0.28804 0.09892
# Poissons Ratio (z) = 0.25701 0.07880
#
# Static dielectric constant tensor:
#      x y z
#    x 3.398630 0.000000 0.000000 
#    y 0.000000 3.298340 0.000000 
#    z 0.000000 0.000000 3.597420 
# 
# 
# High freq. dielectric constant tensor:
#      x y z
#    x 1.694490 0.000000 0.000000 
#    y 0.000000 1.678510 0.000000 
#    z 0.000000 0.000000 1.708070 
# 
# From -- ./inp_files/22866.got.cif
#   From: 2010.03.12/outbox.cif.g09.slc.cpg/sg53_12_cif.got.tgz:22866.got - 2010.04.16 14:36:59.
