data_PCOD8219775
_publ_section_title
;
Structure prediction by ZEFSAII (Michael W. Deem and Ramdas Pophale) SiO2 
 PCOD8219775
Probable space group: P M N A
;
_chemical_formula_sum "Si O2"
_cell_formula_units_Z 48
_cell_length_a 9.229698
_cell_length_b 16.109154
_cell_length_c 18.928197
_cell_angle_alpha 90.000000
_cell_angle_beta 90.000000
_cell_angle_gamma 90.000000
_cell_volume 2814.294044
_symmetry_space_group_name_H-M "P M N A"
_symmetry_group_IT_number 53
_symmetry_cell_setting 'orthorhombic'
loop_
_space_group_symop_operation_xyz
x,y,z
1/2-x,-y,1/2+z
x,-y,-z
1/2-x,y,1/2-z
-x,-y,-z
1/2+x,y,1/2-z
-x,y,z
1/2+x,-y,1/2+z
loop_
_atom_site_type_symbol
_atom_site_label
_atom_site_fract_x
_atom_site_fract_y
_atom_site_fract_z
Si Si1 0.161483 0.763774 0.983610
Si Si2 0.661147 0.556514 0.102704
Si Si3 0.174186 0.120790 0.819488
Si Si4 0.836584 0.617374 0.557057
Si Si5 0.842152 0.299702 0.858871
Si Si6 0.332991 0.086246 0.960132
O O1 0.148133 0.720385 0.058769
O O2 0.261254 0.845213 0.988784
O O3 0.000000 0.787231 0.956099
O O4 0.235069 0.697585 0.929857
O O5 0.500000 0.552276 0.133160
O O6 0.725073 0.462438 0.100544
O O7 0.747871 0.617871 0.154909
O O8 0.660213 0.594476 0.024943
O O9 0.250000 0.081641 0.750000
O O10 0.219833 0.218017 0.820492
O O11 0.242381 0.076541 0.887824
O O12 0.000000 0.108629 0.819567
O O13 0.000000 0.638468 0.581746
O O14 0.000000 0.320260 0.828498
O O15 0.500000 0.111134 0.943967
O O16 0.324825 0.000000 0.000000
#
# Coordination Sequence:
#
# PCOD8219775 Si02
#       6
#     8   8   8   8   8   8
#     4   9  16  25  38  57  81 111 145 180 222 270
#     4   8  13  20  32  50  73 105 141 173 206 245
#     4  10  20  33  49  69  93 122 155 191 232 279
#     4   8  13  21  32  49  75 106 140 175 210 250
#     4   8  15  25  36  54  80 109 141 176 214 256
#     4  10  20  33  49  68  91 121 155 193 241 293
#
# _framework density 17.055786999999999
#
# number of rings (size 3 to 8) (size 9 to 14) (size 15 to 20)
#    0.000    3.167    0.000    3.500    0.000    6.667 
#    0.000    3.333    0.000    0.000    0.000    0.000 
#    0.000    1.333    0.000    9.333    0.000   17.167 
#
# Total GULP energy -594702.918284 kJ/mol
# GULP energy per Si atom -12389.644131 kJ/mol
# Density = 1.701697 g / cm^3
# Si number density = 17.055787 Si / 1000 Ang^3
#
#
#
# Elastic Constant Matrix: (Units=GPa)
#
#
# Indices 1 2 3 4 5 6 
#
# 1 111.7841 53.2037 26.1847 0.0000 0.0000 0.0000
# 2 53.2037 84.1616 20.5306 0.0000 0.0000 0.0000
# 3 26.1847 20.5306 33.1957 0.0000 0.0000 0.0000
# 4 0.0000 0.0000 0.0000 9.6936 0.0000 0.0000
# 5 0.0000 0.0000 0.0000 0.0000 13.4963 0.0000
# 6 0.0000 0.0000 0.0000 0.0000 0.0000 27.0213
#
#
#
# Elastic Compliance Matrix: (Units=1/GPa)
#
#
# Indices 1 2 3 4 5 6 
#
# 1 0.013896 -0.007196 -0.006510 0.000000 0.000000 0.000000
# 2 -0.007196 0.017720 -0.005283 0.000000 0.000000 0.000000
# 3 -0.006510 -0.005283 0.038527 0.000000 0.000000 0.000000
# 4 0.000000 0.000000 0.000000 0.103161 0.000000 0.000000
# 5 0.000000 0.000000 0.000000 0.000000 0.074094 0.000000
# 6 0.000000 0.000000 0.000000 0.000000 0.000000 0.037008
#
#
# Mechanical properties :
#
#
# Convention : Reuss Voigt Hill
#
# Bulk Modulus (GPa) = 31.09081 47.66438 39.37759
# Shear Modulus (GPa) = 15.01024 18.65708 16.83366
#
# Velocity S-wave (km/s) = 2.96981 3.31098 3.14503
# Velocity P-wave (km/s) = 5.47980 6.52868 6.02710
#
# Compressibility (1/GPa) = 0.03216384
#
# Stress axis : x y z
#
# Youngs Moduli (GPa) = 71.96362 56.43396 25.95584
#
# Poissons Ratio (x) = 0.40612 0.16898
# Poissons Ratio (y) = 0.51787 0.13712
# Poissons Ratio (z) = 0.46851 0.29813
#
# Static dielectric constant tensor:
#      x y z
#    x 3.545480 0.000000 0.000000 
#    y 0.000000 3.212840 0.000000 
#    z 0.000000 0.000000 2.705120 
# 
# 
# High freq. dielectric constant tensor:
#      x y z
#    x 1.669030 0.000000 0.000000 
#    y 0.000000 1.648110 0.000000 
#    z 0.000000 0.000000 1.590800 
# 
# From -- ./inp_files/30473.got.cif
#   From: 2010.03.12/outbox.cif.g09.slc.cpg/sg53_16_cif.got.tgz:30473.got - 2010.04.16 14:36:59.
