data_PCOD8219767
_publ_section_title
;
Structure prediction by ZEFSAII (Michael W. Deem and Ramdas Pophale) SiO2 
 PCOD8219767
Probable space group: P M N A
;
_chemical_formula_sum "Si O2"
_cell_formula_units_Z 48
_cell_length_a 9.511557
_cell_length_b 11.664611
_cell_length_c 25.664535
_cell_angle_alpha 90.000000
_cell_angle_beta 90.000000
_cell_angle_gamma 90.000000
_cell_volume 2847.444546
_symmetry_space_group_name_H-M "P M N A"
_symmetry_group_IT_number 53
_symmetry_cell_setting 'orthorhombic'
loop_
_space_group_symop_operation_xyz
x,y,z
1/2-x,-y,1/2+z
x,-y,-z
1/2-x,y,1/2-z
-x,-y,-z
1/2+x,y,1/2-z
-x,y,z
1/2+x,-y,1/2+z
loop_
_atom_site_type_symbol
_atom_site_label
_atom_site_fract_x
_atom_site_fract_y
_atom_site_fract_z
Si Si1 0.335885 0.298327 0.567806
Si Si2 0.836338 0.032607 0.942243
Si Si3 0.840297 0.524557 0.381330
Si Si4 0.334513 0.328374 0.197111
Si Si5 0.343538 0.345550 0.029151
Si Si6 0.659950 0.851094 0.888245
O O1 0.500000 0.325366 0.570081
O O2 0.304269 0.163876 0.571181
O O3 0.259538 0.363550 0.615851
O O4 0.275771 0.347749 0.514124
O O5 0.000000 0.003056 0.938759
O O6 0.758335 0.960194 0.897703
O O7 0.780010 0.000000 0.000000
O O8 0.789372 0.441663 0.334880
O O9 0.828867 0.458831 0.436223
O O10 0.000000 0.564112 0.371248
O O11 0.250000 0.325183 0.250000
O O12 0.500000 0.331372 0.208335
O O13 0.295229 0.214562 0.164462
O O14 0.500000 0.342544 0.003768
O O15 0.321353 0.233899 0.063740
O O16 0.500000 0.893975 0.883875
#
# Coordination Sequence:
#
# PCOD8219767 Si02
#       6
#     8   8   8   8   8   8
#     4  11  21  30  44  69 101 135 170 203 239 287
#     4  10  20  33  46  67 104 141 170 206 247 287
#     4   9  19  34  49  69  99 130 162 201 246 296
#     4   9  19  36  57  80 101 123 158 208 260 305
#     4   9  17  30  47  67  96 133 166 199 239 286
#     4   9  18  32  51  75  99 128 171 209 240 292
#
# _framework density 16.857220000000002
#
# number of rings (size 3 to 8) (size 9 to 14) (size 15 to 20)
#    0.000    2.500    1.667    3.000    0.000    5.667 
#    0.000    3.333    0.000    1.000    0.000    0.000 
#    0.000    0.000    0.000    0.000    0.000    0.000 
#
# Total GULP energy -595142.357973 kJ/mol
# GULP energy per Si atom -12398.799124 kJ/mol
# Density = 1.681885 g / cm^3
# Si number density = 16.857220 Si / 1000 Ang^3
#
#
#
# Elastic Constant Matrix: (Units=GPa)
#
#
# Indices 1 2 3 4 5 6 
#
# 1 82.5483 64.8148 55.8133 0.0000 0.0000 0.0000
# 2 64.8148 102.7369 53.6290 0.0000 0.0000 0.0000
# 3 55.8133 53.6290 93.6633 0.0000 0.0000 0.0000
# 4 0.0000 0.0000 0.0000 9.4210 0.0000 0.0000
# 5 0.0000 0.0000 0.0000 0.0000 31.1741 0.0000
# 6 0.0000 0.0000 0.0000 0.0000 0.0000 26.6725
#
#
#
# Elastic Compliance Matrix: (Units=1/GPa)
#
#
# Indices 1 2 3 4 5 6 
#
# 1 0.029154 -0.013299 -0.009758 0.000000 0.000000 0.000000
# 2 -0.013299 0.019949 -0.003498 0.000000 0.000000 0.000000
# 3 -0.009758 -0.003498 0.018494 0.000000 0.000000 0.000000
# 4 0.000000 0.000000 0.000000 0.106146 0.000000 0.000000
# 5 0.000000 0.000000 0.000000 0.000000 0.032078 0.000000
# 6 0.000000 0.000000 0.000000 0.000000 0.000000 0.037492
#
#
# Mechanical properties :
#
#
# Convention : Reuss Voigt Hill
#
# Bulk Modulus (GPa) = 69.02293 69.71807 69.37050
# Shear Modulus (GPa) = 16.59744 20.43294 18.51519
#
# Velocity S-wave (km/s) = 3.14122 3.48533 3.31774
# Velocity P-wave (km/s) = 7.36144 7.59239 7.47781
#
# Compressibility (1/GPa) = 0.01448794
#
# Stress axis : x y z
#
# Youngs Moduli (GPa) = 34.30106 50.12673 54.07161
#
# Poissons Ratio (x) = 0.66663 0.52763
# Poissons Ratio (y) = 0.45616 0.18913
# Poissons Ratio (z) = 0.33471 0.17533
#
# Static dielectric constant tensor:
#      x y z
#    x 3.125490 0.000000 0.000000 
#    y 0.000000 3.239670 0.000000 
#    z 0.000000 0.000000 2.905700 
# 
# 
# High freq. dielectric constant tensor:
#      x y z
#    x 1.650270 0.000000 0.000000 
#    y 0.000000 1.652670 0.000000 
#    z 0.000000 0.000000 1.617710 
# 
# From -- ./inp_files/33872.got.cif
#   From: 2010.03.12/outbox.cif.g09.slc.cpg/sg53_17_cif.got.tgz:33872.got - 2010.04.16 14:36:59.
