data_PCOD8219073
_publ_section_title
;
Structure prediction by ZEFSAII (Michael W. Deem and Ramdas Pophale) SiO2 
 PCOD8219073
Probable space group: P M N A
;
_chemical_formula_sum "Si O2"
_cell_formula_units_Z 48
_cell_length_a 8.826407
_cell_length_b 31.223367
_cell_length_c 9.060052
_cell_angle_alpha 90.000000
_cell_angle_beta 90.000000
_cell_angle_gamma 90.000000
_cell_volume 2496.861045
_symmetry_space_group_name_H-M "P M N A"
_symmetry_group_IT_number 53
_symmetry_cell_setting 'orthorhombic'
loop_
_space_group_symop_operation_xyz
x,y,z
1/2-x,-y,1/2+z
x,-y,-z
1/2-x,y,1/2-z
-x,-y,-z
1/2+x,y,1/2-z
-x,y,z
1/2+x,-y,1/2+z
loop_
_atom_site_type_symbol
_atom_site_label
_atom_site_fract_x
_atom_site_fract_y
_atom_site_fract_z
Si Si1 0.176635 0.039046 0.592400
Si Si2 0.179104 0.381742 0.910592
Si Si3 0.178183 0.298767 0.090829
Si Si4 0.177234 0.867749 0.409775
Si Si5 0.325264 0.542758 0.906727
Si Si6 0.679569 0.783684 0.411944
O O1 0.250000 0.038044 0.750000
O O2 0.205504 0.085632 0.513912
O O3 0.000000 0.031361 0.614775
O O4 0.248722 0.000000 0.500000
O O5 0.250000 0.385068 0.750000
O O6 0.000000 0.385407 0.895169
O O7 0.229790 0.337285 0.984965
O O8 0.237923 0.419600 0.012213
O O9 0.250000 0.304685 0.250000
O O10 0.000000 0.298695 0.112461
O O11 0.234600 0.254907 0.015678
O O12 0.250000 0.870692 0.250000
O O13 0.259688 0.827694 0.489789
O O14 0.000000 0.857608 0.397041
O O15 0.250000 0.534174 0.750000
O O16 0.500000 0.555844 0.886026
O O17 0.308094 0.500000 0.000000
O O18 0.750000 0.777686 0.250000
O O19 0.500000 0.785045 0.397076
#
# Coordination Sequence:
#
# PCOD8219073 Si02
#       6
#     8   8   8   8   8   8
#     4   9  18  32  49  71  99 130 167 210 255 307
#     4  11  23  40  62  88 116 148 189 233 278 327
#     4  10  23  39  56  80 110 144 180 220 267 321
#     4   9  16  28  48  72  98 130 168 210 256 305
#     4  11  24  41  62  89 121 156 193 234 280 330
#     4  10  19  33  53  78 104 132 171 215 260 311
#
# _framework density 19.224138
#
# number of rings (size 3 to 8) (size 9 to 14) (size 15 to 20)
#    0.000    2.000    0.000    4.500    0.000    7.667 
#    0.000    0.833    0.000    4.000    0.000    0.000 
#    0.000    0.000    0.000    0.000    0.000    0.000 
#
# Total GULP energy -595028.744666 kJ/mol
# GULP energy per Si atom -12396.432181 kJ/mol
# Density = 1.918038 g / cm^3
# Si number density = 19.224138 Si / 1000 Ang^3
#
#
#
# Elastic Constant Matrix: (Units=GPa)
#
#
# Indices 1 2 3 4 5 6 
#
# 1 78.8632 51.4100 38.3216 0.0000 0.0000 0.0000
# 2 51.4100 147.5980 45.9589 0.0000 0.0000 0.0000
# 3 38.3216 45.9589 98.0201 0.0000 0.0000 0.0000
# 4 0.0000 0.0000 0.0000 20.2939 0.0000 0.0000
# 5 0.0000 0.0000 0.0000 0.0000 25.8750 0.0000
# 6 0.0000 0.0000 0.0000 0.0000 0.0000 33.4054
#
#
#
# Elastic Compliance Matrix: (Units=1/GPa)
#
#
# Indices 1 2 3 4 5 6 
#
# 1 0.018179 -0.004823 -0.004846 0.000000 0.000000 0.000000
# 2 -0.004823 0.009213 -0.002434 0.000000 0.000000 0.000000
# 3 -0.004846 -0.002434 0.013238 0.000000 0.000000 0.000000
# 4 0.000000 0.000000 0.000000 0.049276 0.000000 0.000000
# 5 0.000000 0.000000 0.000000 0.000000 0.038647 0.000000
# 6 0.000000 0.000000 0.000000 0.000000 0.000000 0.029935
#
#
# Mechanical properties :
#
#
# Convention : Reuss Voigt Hill
#
# Bulk Modulus (GPa) = 60.88715 66.20692 63.54704
# Shear Modulus (GPa) = 26.57189 28.50092 27.53640
#
# Velocity S-wave (km/s) = 3.72185 3.85458 3.78879
# Velocity P-wave (km/s) = 7.08594 7.37052 7.22963
#
# Compressibility (1/GPa) = 0.01642383
#
# Stress axis : x y z
#
# Youngs Moduli (GPa) = 55.00857 108.54206 75.54133
#
# Poissons Ratio (x) = 0.52350 0.36606
# Poissons Ratio (y) = 0.26531 0.18388
# Poissons Ratio (z) = 0.26656 0.26421
#
# Static dielectric constant tensor:
#      x y z
#    x 3.604180 0.000000 0.000000 
#    y 0.000000 4.412440 0.000000 
#    z 0.000000 0.000000 3.313680 
# 
# 
# High freq. dielectric constant tensor:
#      x y z
#    x 1.755970 0.000000 0.000000 
#    y 0.000000 1.777440 0.000000 
#    z 0.000000 0.000000 1.723570 
# 
# From -- ./inp_files/6734.got.cif
#   From: 2010.03.12/outbox.cif.g09.slc.cpg/sg53_4_cif.got.tgz:6734.got - 2010.04.16 14:36:59.
