data_PCOD8219564
_publ_section_title
;
Structure prediction by ZEFSAII (Michael W. Deem and Ramdas Pophale) SiO2 
 PCOD8219564
Probable space group: P M N A
;
_chemical_formula_sum "Si O2"
_cell_formula_units_Z 56
_cell_length_a 8.752573
_cell_length_b 18.959967
_cell_length_c 15.993797
_cell_angle_alpha 90.000000
_cell_angle_beta 90.000000
_cell_angle_gamma 90.000000
_cell_volume 2654.146545
_symmetry_space_group_name_H-M "P M N A"
_symmetry_group_IT_number 53
_symmetry_cell_setting 'orthorhombic'
loop_
_space_group_symop_operation_xyz
x,y,z
1/2-x,-y,1/2+z
x,-y,-z
1/2-x,y,1/2-z
-x,-y,-z
1/2+x,y,1/2-z
-x,y,z
1/2+x,-y,1/2+z
loop_
_atom_site_type_symbol
_atom_site_label
_atom_site_fract_x
_atom_site_fract_y
_atom_site_fract_z
Si Si1 0.826397 0.289473 0.097615
Si Si2 0.819288 0.418520 0.334128
Si Si3 0.180227 0.845889 0.663643
Si Si4 0.818043 0.838691 0.163109
Si Si5 0.327393 0.698311 0.410703
Si Si6 0.824265 0.083047 0.003532
Si Si7 0.182438 0.541878 0.081474
O O1 0.743841 0.365668 0.095222
O O2 0.735878 0.234620 0.154675
O O3 0.000000 0.296640 0.130262
O O4 0.823096 0.264671 0.001620
O O5 0.750000 0.385312 0.250000
O O6 0.748736 0.496807 0.342000
O O7 0.000000 0.421580 0.334044
O O8 0.250000 0.877149 0.750000
O O9 0.230722 0.890297 0.583322
O O10 0.000000 0.848012 0.671148
O O11 0.750000 0.868394 0.250000
O O12 0.756494 0.757725 0.150583
O O13 0.761829 0.885725 0.084528
O O14 0.000000 0.841130 0.168278
O O15 0.500000 0.684195 0.382821
O O16 0.247151 0.621125 0.410000
O O17 0.000000 0.105500 0.017113
O O18 0.803791 0.000000 0.000000
O O19 0.000000 0.543464 0.081121
O O20 0.244005 0.500000 0.000000
#
# Coordination Sequence:
#
# PCOD8219564 Si02
#       7
#     8   8   8   8   8   8   8
#     4  11  20  39  65  89 120 161 207 257 315 379
#     4  12  25  39  55  83 119 157 201 253 312 372
#     4  12  25  41  64  97 133 170 212 262 317 380
#     4  10  21  40  64  93 127 165 210 259 314 373
#     4   9  18  35  62  88 116 156 204 255 312 373
#     4  10  22  43  70  98 131 171 213 260 316 376
#     4  10  19  36  60  84 111 153 201 251 316 377
#
# _framework density 21.099060000000001
#
# number of rings (size 3 to 8) (size 9 to 14) (size 15 to 20)
#    0.000    1.429    2.857    3.429    0.000    2.286 
#    0.000    3.571    0.000    0.000    0.000    0.000 
#    0.000    0.000    0.000    0.000    0.000    0.000 
#
# Total GULP energy -694221.016197 kJ/mol
# GULP energy per Si atom -12396.803861 kJ/mol
# Density = 2.105104 g / cm^3
# Si number density = 21.099060 Si / 1000 Ang^3
#
#
#
# Elastic Constant Matrix: (Units=GPa)
#
#
# Indices 1 2 3 4 5 6 
#
# 1 78.3352 39.1891 37.9917 0.0000 0.0000 0.0000
# 2 39.1891 104.0455 49.1693 0.0000 0.0000 0.0000
# 3 37.9917 49.1693 123.8364 0.0000 0.0000 0.0000
# 4 0.0000 0.0000 0.0000 66.9478 0.0000 0.0000
# 5 0.0000 0.0000 0.0000 0.0000 31.9112 0.0000
# 6 0.0000 0.0000 0.0000 0.0000 0.0000 14.5589
#
#
#
# Elastic Compliance Matrix: (Units=1/GPa)
#
#
# Indices 1 2 3 4 5 6 
#
# 1 0.016721 -0.004769 -0.003236 0.000000 0.000000 0.000000
# 2 -0.004769 0.013191 -0.003775 0.000000 0.000000 0.000000
# 3 -0.003236 -0.003775 0.010567 0.000000 0.000000 0.000000
# 4 0.000000 0.000000 0.000000 0.014937 0.000000 0.000000
# 5 0.000000 0.000000 0.000000 0.000000 0.031337 0.000000
# 6 0.000000 0.000000 0.000000 0.000000 0.000000 0.068686
#
#
# Mechanical properties :
#
#
# Convention : Reuss Voigt Hill
#
# Bulk Modulus (GPa) = 59.10306 62.10193 60.60249
# Shear Modulus (GPa) = 27.08001 34.67472 30.87736
#
# Velocity S-wave (km/s) = 3.58644 4.05832 3.82965
# Velocity P-wave (km/s) = 6.72481 7.17337 6.95271
#
# Compressibility (1/GPa) = 0.01691960
#
# Stress axis : x y z
#
# Youngs Moduli (GPa) = 59.80560 75.80911 94.63624
#
# Poissons Ratio (x) = 0.36150 0.30628
# Poissons Ratio (y) = 0.28518 0.35721
# Poissons Ratio (z) = 0.19356 0.28615
#
# Static dielectric constant tensor:
#      x y z
#    x 3.458800 0.000000 0.000000 
#    y 0.000000 3.940380 0.000000 
#    z 0.000000 0.000000 3.933690 
# 
# 
# High freq. dielectric constant tensor:
#      x y z
#    x 1.798360 0.000000 0.000000 
#    y 0.000000 1.832130 0.000000 
#    z 0.000000 0.000000 1.831090 
# 
# From -- ./inp_files/20616.got.cif
#   From: 2010.03.12/outbox.cif.g09.slc.cpg/sg53_11_cif.got.tgz:20616.got - 2010.04.16 14:36:59.
