data_PCOD8219427
_publ_section_title
;
Structure prediction by ZEFSAII (Michael W. Deem and Ramdas Pophale) SiO2 
 PCOD8219427
Probable space group: P M N A
;
_chemical_formula_sum "Si O2"
_cell_formula_units_Z 64
_cell_length_a 8.983669
_cell_length_b 21.227229
_cell_length_c 18.682975
_cell_angle_alpha 90.000000
_cell_angle_beta 90.000000
_cell_angle_gamma 90.000000
_cell_volume 3562.813423
_symmetry_space_group_name_H-M "P M N A"
_symmetry_group_IT_number 53
_symmetry_cell_setting 'orthorhombic'
loop_
_space_group_symop_operation_xyz
x,y,z
1/2-x,-y,1/2+z
x,-y,-z
1/2-x,y,1/2-z
-x,-y,-z
1/2+x,y,1/2-z
-x,y,z
1/2+x,-y,1/2+z
loop_
_atom_site_type_symbol
_atom_site_label
_atom_site_fract_x
_atom_site_fract_y
_atom_site_fract_z
Si Si1 0.166575 0.025711 0.612552
Si Si2 0.332519 0.433269 0.537396
Si Si3 0.673977 0.135932 0.678062
Si Si4 0.827185 0.497193 0.820688
Si Si5 0.324430 0.678518 0.965129
Si Si6 0.167043 0.904575 0.537436
Si Si7 0.325576 0.203936 0.531082
Si Si8 0.176917 0.359304 0.175624
O O1 0.275021 0.063489 0.665588
O O2 0.166648 0.058434 0.536256
O O3 0.000000 0.027144 0.645022
O O4 0.218598 0.952874 0.600589
O O5 0.330074 0.500000 0.500000
O O6 0.500000 0.404517 0.531044
O O7 0.286484 0.446321 0.619113
O O8 0.212952 0.387452 0.502772
O O9 0.750000 0.163075 0.750000
O O10 0.500000 0.136229 0.690351
O O11 0.718812 0.179258 0.610286
O O12 0.750000 0.471620 0.750000
O O13 0.775966 0.568263 0.840425
O O14 0.000000 0.499727 0.805514
O O15 0.500000 0.684685 0.954664
O O16 0.244399 0.682988 0.888011
O O17 0.264778 0.732549 0.017587
O O18 0.279951 0.846204 0.530547
O O19 0.000000 0.879597 0.553713
O O20 0.500000 0.216928 0.525156
O O21 0.250000 0.336792 0.250000
O O22 0.000000 0.349906 0.178711
#
# Coordination Sequence:
#
# PCOD8219427 Si02
#       8
#     8   8   8   8   8   8   8   8
#     4   8  14  26  47  74 103 132 163 203 255 306
#     4  10  19  36  56  76 105 141 175 218 279 330
#     4  10  20  33  52  77 106 142 186 231 275 320
#     4   9  18  32  53  77 104 136 167 207 263 323
#     4  12  24  36  54  81 108 141 183 228 271 325
#     4   8  14  27  48  74 102 131 163 205 254 306
#     4  10  21  36  53  75 104 143 186 229 274 325
#     4  10  19  35  56  81 108 135 167 209 261 321
#
# _framework density 17.963331
#
# number of rings (size 3 to 8) (size 9 to 14) (size 15 to 20)
#    0.000    2.375    1.250    3.000    0.000    3.250 
#    0.000    3.125    0.000    0.750    0.000    1.750 
#    0.000    0.000    0.000    0.000    0.000    0.000 
#
# Total GULP energy -793362.889157 kJ/mol
# GULP energy per Si atom -12396.295143 kJ/mol
# Density = 1.792245 g / cm^3
# Si number density = 17.963331 Si / 1000 Ang^3
#
#
#
# Elastic Constant Matrix: (Units=GPa)
#
#
# Indices 1 2 3 4 5 6 
#
# 1 88.0615 31.3332 57.5581 0.0000 0.0000 0.0000
# 2 31.3332 58.2900 44.5586 0.0000 0.0000 0.0000
# 3 57.5581 44.5586 102.7174 0.0000 0.0000 0.0000
# 4 0.0000 0.0000 0.0000 21.6531 0.0000 0.0000
# 5 0.0000 0.0000 0.0000 0.0000 25.8081 0.0000
# 6 0.0000 0.0000 0.0000 0.0000 0.0000 27.2081
#
#
#
# Elastic Compliance Matrix: (Units=1/GPa)
#
#
# Indices 1 2 3 4 5 6 
#
# 1 0.018259 -0.002983 -0.008937 0.000000 0.000000 0.000000
# 2 -0.002983 0.026154 -0.009674 0.000000 0.000000 0.000000
# 3 -0.008937 -0.009674 0.018940 0.000000 0.000000 0.000000
# 4 0.000000 0.000000 0.000000 0.046183 0.000000 0.000000
# 5 0.000000 0.000000 0.000000 0.000000 0.038747 0.000000
# 6 0.000000 0.000000 0.000000 0.000000 0.000000 0.036754
#
#
# Mechanical properties :
#
#
# Convention : Reuss Voigt Hill
#
# Bulk Modulus (GPa) = 49.59264 57.32987 53.46126
# Shear Modulus (GPa) = 21.28139 22.64180 21.96160
#
# Velocity S-wave (km/s) = 3.44570 3.55413 3.50033
# Velocity P-wave (km/s) = 6.59531 6.98761 6.79429
#
# Compressibility (1/GPa) = 0.02016428
#
# Stress axis : x y z
#
# Youngs Moduli (GPa) = 54.76885 38.23475 52.79775
#
# Poissons Ratio (x) = 0.11404 0.47187
# Poissons Ratio (y) = 0.16336 0.51078
# Poissons Ratio (z) = 0.48949 0.36989
#
# Static dielectric constant tensor:
#      x y z
#    x 3.348610 0.000000 0.000000 
#    y 0.000000 3.444730 0.000000 
#    z 0.000000 0.000000 3.528010 
# 
# 
# High freq. dielectric constant tensor:
#      x y z
#    x 1.696270 0.000000 0.000000 
#    y 0.000000 1.672870 0.000000 
#    z 0.000000 0.000000 1.685520 
# 
# From -- ./inp_files/31388.got.cif
#   From: 2010.03.12/outbox.cif.g09.slc.cpg/sg53_16_cif.got.tgz:31388.got - 2010.04.16 14:36:59.
