data_PCOD8219685
_publ_section_title
;
Structure prediction by ZEFSAII (Michael W. Deem and Ramdas Pophale) SiO2 
 PCOD8219685
Probable space group: P M N A
;
_chemical_formula_sum "Si O2"
_cell_formula_units_Z 40
_cell_length_a 20.619632
_cell_length_b 8.850555
_cell_length_c 11.205351
_cell_angle_alpha 90.000000
_cell_angle_beta 90.000000
_cell_angle_gamma 90.000000
_cell_volume 2044.922627
_symmetry_space_group_name_H-M "P M N A"
_symmetry_group_IT_number 53
_symmetry_cell_setting 'orthorhombic'
loop_
_space_group_symop_operation_xyz
x,y,z
1/2-x,-y,1/2+z
x,-y,-z
1/2-x,y,1/2-z
-x,-y,-z
1/2+x,y,1/2-z
-x,y,z
1/2+x,-y,1/2+z
loop_
_atom_site_type_symbol
_atom_site_label
_atom_site_fract_x
_atom_site_fract_y
_atom_site_fract_z
Si Si1 0.928837 0.190140 0.115492
Si Si2 0.734345 0.000000 0.000000
Si Si3 0.186165 0.746679 0.330906
Si Si4 0.928191 0.845809 0.162294
Si Si5 0.706873 0.257900 0.361444
Si Si6 0.721396 0.500000 0.000000
O O1 0.868918 0.282006 0.173432
O O2 0.000000 0.262863 0.141330
O O3 0.926910 0.025803 0.174337
O O4 0.914083 0.193218 0.974850
O O5 0.688971 0.883436 0.072946
O O6 0.781280 0.086522 0.092950
O O7 0.250000 0.744920 0.250000
O O8 0.123629 0.766726 0.247898
O O9 0.178215 0.583626 0.398335
O O10 0.000000 0.787236 0.198412
O O11 0.750000 0.297083 0.250000
O O12 0.728527 0.371807 0.462017
#
# Coordination Sequence:
#
# PCOD8219685 Si02
#       6
#     8   4   8   8   8   4
#     4   9  17  30  52  84 111 131 170 223 271 323
#     4  10  20  30  52  84 104 130 184 226 260 320
#     4  11  20  35  55  77 107 143 180 224 272 321
#     4   9  17  31  54  82 110 139 171 217 275 322
#     4  11  20  34  54  78 107 141 175 219 270 316
#     4  10  24  36  50  76 106 140 188 224 258 318
#
# _framework density 19.560642000000001
#
# number of rings (size 3 to 8) (size 9 to 14) (size 15 to 20)
#    0.000    2.000    0.000    8.400    0.000    0.000 
#    0.000    1.500    0.000    9.600    0.000    0.000 
#    0.000    0.000    0.000    0.000    0.000    0.000 
#
# Total GULP energy -495717.202222 kJ/mol
# GULP energy per Si atom -12392.930056 kJ/mol
# Density = 1.951612 g / cm^3
# Si number density = 19.560642 Si / 1000 Ang^3
#
#
#
# Elastic Constant Matrix: (Units=GPa)
#
#
# Indices 1 2 3 4 5 6 
#
# 1 174.9305 31.9592 52.7480 0.0000 0.0000 0.0000
# 2 31.9592 72.4678 25.9424 0.0000 0.0000 0.0000
# 3 52.7480 25.9424 64.5516 0.0000 0.0000 0.0000
# 4 0.0000 0.0000 0.0000 29.0061 0.0000 0.0000
# 5 0.0000 0.0000 0.0000 0.0000 34.1313 0.0000
# 6 0.0000 0.0000 0.0000 0.0000 0.0000 -74.5859
#
#
#
# Elastic Compliance Matrix: (Units=1/GPa)
#
#
# Indices 1 2 3 4 5 6 
#
# 1 0.007695 -0.001335 -0.005751 0.000000 0.000000 0.000000
# 2 -0.001335 0.016350 -0.005480 0.000000 0.000000 0.000000
# 3 -0.005751 -0.005480 0.022393 0.000000 0.000000 0.000000
# 4 0.000000 0.000000 0.000000 0.034475 0.000000 0.000000
# 5 0.000000 0.000000 0.000000 0.000000 0.029299 0.000000
# 6 0.000000 0.000000 0.000000 0.000000 0.000000 -0.013407
#
#
# Mechanical properties :
#
#
# Convention : Reuss Voigt Hill
#
# Bulk Modulus (GPa) = 46.93567 59.24990 53.09279
# Shear Modulus (GPa) = 38.74819 11.13032 24.93926
#
# Velocity S-wave (km/s) = 4.45559 2.38799 3.57455
# Velocity P-wave (km/s) = 7.10751 6.16113 6.65117
#
# Compressibility (1/GPa) = 0.02130576
#
# Stress axis : x y z
#
# Youngs Moduli (GPa) = 129.96143 61.16357 44.65583
#
# Poissons Ratio (x) = 0.08163 0.25683
# Poissons Ratio (y) = 0.17344 0.24472
# Poissons Ratio (z) = 0.74744 0.33519
#
# Static dielectric constant tensor:
#      x y z
#    x 3.743500 0.000000 0.000000 
#    y 0.000000 3.526280 0.000000 
#    z 0.000000 0.000000 3.553330 
# 
# 
# High freq. dielectric constant tensor:
#      x y z
#    x 1.758130 0.000000 0.000000 
#    y 0.000000 1.746400 0.000000 
#    z 0.000000 0.000000 1.748710 
# 
# From -- ./inp_files/17690.got.cif
#   From: 2010.03.12/outbox.cif.g09.slc.cpg/sg53_9_cif.got.tgz:17690.got - 2010.04.16 14:36:59.
