data_PCOD8219618
_publ_section_title
;
Structure prediction by ZEFSAII (Michael W. Deem and Ramdas Pophale) SiO2 
 PCOD8219618
Probable space group: P M N A
;
_chemical_formula_sum "Si O2"
_cell_formula_units_Z 48
_cell_length_a 17.886971
_cell_length_b 9.709663
_cell_length_c 14.816341
_cell_angle_alpha 90.000000
_cell_angle_beta 90.000000
_cell_angle_gamma 90.000000
_cell_volume 2573.249662
_symmetry_space_group_name_H-M "P M N A"
_symmetry_group_IT_number 53
_symmetry_cell_setting 'orthorhombic'
loop_
_space_group_symop_operation_xyz
x,y,z
1/2-x,-y,1/2+z
x,-y,-z
1/2-x,y,1/2-z
-x,-y,-z
1/2+x,y,1/2-z
-x,y,z
1/2+x,-y,1/2+z
loop_
_atom_site_type_symbol
_atom_site_label
_atom_site_fract_x
_atom_site_fract_y
_atom_site_fract_z
Si Si1 0.809275 0.397772 0.174349
Si Si2 0.411555 0.061009 0.597864
Si Si3 0.707426 0.344670 0.010408
Si Si4 0.204378 0.713247 0.160417
Si Si5 0.086807 0.870157 0.560434
Si Si6 0.086005 0.832441 0.765022
O O1 0.750000 0.367598 0.250000
O O2 0.776443 0.339001 0.080660
O O3 0.829174 0.559290 0.169704
O O4 0.880994 0.314961 0.207723
O O5 0.500000 0.095539 0.604087
O O6 0.365428 0.194544 0.628960
O O7 0.390534 0.000000 0.500000
O O8 0.383870 0.945876 0.666815
O O9 0.633825 0.263448 0.037046
O O10 0.679472 0.500000 0.000000
O O11 0.733914 0.280783 0.916941
O O12 0.250000 0.760829 0.250000
O O13 0.102837 0.894327 0.666093
O O14 0.000000 0.838277 0.541359
O O15 0.113063 0.000000 0.500000
O O16 0.000000 0.806408 0.779360
#
# Coordination Sequence:
#
# PCOD8219618 Si02
#       6
#     8   8   8   8   8   8
#     4  10  19  37  60  84 115 151 189 237 284 339
#     4  10  22  41  60  83 118 155 193 238 289 346
#     4  10  21  38  59  83 114 148 186 234 286 341
#     4  10  23  38  57  88 118 146 192 242 289 344
#     4  10  22  38  56  83 116 150 191 234 279 340
#     4  10  21  37  59  86 115 151 194 235 282 342
#
# _framework density 18.653458000000001
#
# number of rings (size 3 to 8) (size 9 to 14) (size 15 to 20)
#    0.000    2.000    1.667    1.000    2.333    3.667 
#    0.000    0.000    0.000    6.000    0.000    0.000 
#    0.000    0.000    0.000    0.000    0.000    0.000 
#
# Total GULP energy -594990.810635 kJ/mol
# GULP energy per Si atom -12395.641888 kJ/mol
# Density = 1.861100 g / cm^3
# Si number density = 18.653458 Si / 1000 Ang^3
#
#
#
# Elastic Constant Matrix: (Units=GPa)
#
#
# Indices 1 2 3 4 5 6 
#
# 1 62.6935 57.7017 36.0533 0.0000 0.0000 0.0000
# 2 57.7017 102.5399 45.0600 0.0000 0.0000 0.0000
# 3 36.0533 45.0600 120.8489 0.0000 0.0000 0.0000
# 4 0.0000 0.0000 0.0000 53.4532 0.0000 0.0000
# 5 0.0000 0.0000 0.0000 0.0000 7.2007 0.0000
# 6 0.0000 0.0000 0.0000 0.0000 0.0000 -0.7103
#
#
#
# Elastic Compliance Matrix: (Units=1/GPa)
#
#
# Indices 1 2 3 4 5 6 
#
# 1 0.034375 -0.017744 -0.003639 0.000000 0.000000 0.000000
# 2 -0.017744 0.020823 -0.002470 0.000000 0.000000 0.000000
# 3 -0.003639 -0.002470 0.010282 0.000000 0.000000 0.000000
# 4 0.000000 0.000000 0.000000 0.018708 0.000000 0.000000
# 5 0.000000 0.000000 0.000000 0.000000 0.138876 0.000000
# 6 0.000000 0.000000 0.000000 0.000000 0.000000 -1.407820
#
#
# Mechanical properties :
#
#
# Convention : Reuss Voigt Hill
#
# Bulk Modulus (GPa) = 56.26849 62.63468 59.45158
# Shear Modulus (GPa) = -4.42038 21.80653 8.69308
#
# Velocity S-wave (km/s) = -1.54106 3.42282 2.16112
# Velocity P-wave (km/s) = 5.20232 7.01940 6.17803
#
# Compressibility (1/GPa) = 0.01777194
#
# Stress axis : x y z
#
# Youngs Moduli (GPa) = 29.09099 48.02354 97.26182
#
# Poissons Ratio (x) = 0.85215 0.35393
# Poissons Ratio (y) = 0.51620 0.24027
# Poissons Ratio (z) = 0.10586 0.11864
#
# Static dielectric constant tensor:
#      x y z
#    x 3.097210 0.000000 0.000000 
#    y 0.000000 2.385050 0.000000 
#    z 0.000000 0.000000 4.225360 
# 
# 
# High freq. dielectric constant tensor:
#      x y z
#    x 1.713950 0.000000 0.000000 
#    y 0.000000 1.724080 0.000000 
#    z 0.000000 0.000000 1.748600 
# 
# From -- ./inp_files/23649.got.cif
#   From: 2010.03.12/outbox.cif.g09.slc.cpg/sg53_12_cif.got.tgz:23649.got - 2010.04.16 14:36:59.
