data_PCOD8219614
_publ_section_title
;
Structure prediction by ZEFSAII (Michael W. Deem and Ramdas Pophale) SiO2 
 PCOD8219614
Probable space group: P M N A
;
_chemical_formula_sum "Si O2"
_cell_formula_units_Z 48
_cell_length_a 8.696102
_cell_length_b 12.590961
_cell_length_c 23.547311
_cell_angle_alpha 90.000000
_cell_angle_beta 90.000000
_cell_angle_gamma 90.000000
_cell_volume 2578.248796
_symmetry_space_group_name_H-M "P M N A"
_symmetry_group_IT_number 53
_symmetry_cell_setting 'orthorhombic'
loop_
_space_group_symop_operation_xyz
x,y,z
1/2-x,-y,1/2+z
x,-y,-z
1/2-x,y,1/2-z
-x,-y,-z
1/2+x,y,1/2-z
-x,y,z
1/2+x,-y,1/2+z
loop_
_atom_site_type_symbol
_atom_site_label
_atom_site_fract_x
_atom_site_fract_y
_atom_site_fract_z
Si Si1 0.317492 0.498604 0.810956
Si Si2 0.820744 0.376307 0.490839
Si Si3 0.181209 0.120614 0.690458
Si Si4 0.317774 0.693223 0.112245
Si Si5 0.180650 0.306895 0.125000
Si Si6 0.682131 0.120724 0.189585
O O1 0.250000 0.471611 0.750000
O O2 0.500000 0.500272 0.807805
O O3 0.254408 0.408630 0.853730
O O4 0.260556 0.612074 0.832097
O O5 0.788239 0.500000 0.500000
O O6 0.764881 0.312964 0.546855
O O7 0.719884 0.332204 0.439808
O O8 0.000000 0.357329 0.477073
O O9 0.250000 0.159350 0.750000
O O10 0.243747 0.197968 0.640690
O O11 0.000000 0.130156 0.695984
O O12 0.231169 0.000538 0.676326
O O13 0.500000 0.688605 0.114431
O O14 0.243922 0.190251 0.139724
O O15 0.000000 0.311575 0.134325
O O16 0.750000 0.157104 0.250000
O O17 0.500000 0.135319 0.190629
#
# Coordination Sequence:
#
# PCOD8219614 Si02
#       6
#     8   8   8   8   8   8
#     4  11  21  35  54  81 113 144 177 221 275 330
#     4  10  19  37  60  80 106 148 187 224 272 324
#     4   9  18  34  57  84 111 142 179 222 270 327
#     4   9  18  34  57  82 110 142 181 221 269 329
#     4  12  24  37  54  79 110 144 185 230 273 323
#     4  10  20  36  58  82 110 144 182 224 274 326
#
# _framework density 18.617287000000001
#
# number of rings (size 3 to 8) (size 9 to 14) (size 15 to 20)
#    0.000    1.833    1.667    3.500    0.000    1.000 
#    0.000    2.500    0.000    5.000    0.000    0.000 
#    0.000    0.000    0.000    0.000    0.000    0.000 
#
# Total GULP energy -595319.830423 kJ/mol
# GULP energy per Si atom -12402.496467 kJ/mol
# Density = 1.857491 g / cm^3
# Si number density = 18.617287 Si / 1000 Ang^3
#
#
#
# Elastic Constant Matrix: (Units=GPa)
#
#
# Indices 1 2 3 4 5 6 
#
# 1 65.0639 29.9362 33.2328 0.0000 0.0000 0.0000
# 2 29.9362 96.3243 46.3476 0.0000 0.0000 0.0000
# 3 33.2328 46.3476 105.2308 0.0000 0.0000 0.0000
# 4 0.0000 0.0000 0.0000 33.3042 0.0000 0.0000
# 5 0.0000 0.0000 0.0000 0.0000 33.0860 0.0000
# 6 0.0000 0.0000 0.0000 0.0000 0.0000 15.4234
#
#
#
# Elastic Compliance Matrix: (Units=1/GPa)
#
#
# Indices 1 2 3 4 5 6 
#
# 1 0.019423 -0.003915 -0.004410 0.000000 0.000000 0.000000
# 2 -0.003915 0.013962 -0.004913 0.000000 0.000000 0.000000
# 3 -0.004410 -0.004913 0.013060 0.000000 0.000000 0.000000
# 4 0.000000 0.000000 0.000000 0.030026 0.000000 0.000000
# 5 0.000000 0.000000 0.000000 0.000000 0.030224 0.000000
# 6 0.000000 0.000000 0.000000 0.000000 0.000000 0.064836
#
#
# Mechanical properties :
#
#
# Convention : Reuss Voigt Hill
#
# Bulk Modulus (GPa) = 50.07622 53.96137 52.01879
# Shear Modulus (GPa) = 24.43033 26.83622 25.63328
#
# Velocity S-wave (km/s) = 3.62641 3.80079 3.71462
# Velocity P-wave (km/s) = 6.67013 6.95045 6.81173
#
# Compressibility (1/GPa) = 0.01996956
#
# Stress axis : x y z
#
# Youngs Moduli (GPa) = 51.48520 71.62165 76.57221
#
# Poissons Ratio (x) = 0.28037 0.33767
# Poissons Ratio (y) = 0.20154 0.37622
# Poissons Ratio (z) = 0.22704 0.35190
#
# Static dielectric constant tensor:
#      x y z
#    x 3.260260 0.000000 0.000000 
#    y 0.000000 3.628870 0.000000 
#    z 0.000000 0.000000 3.615360 
# 
# 
# High freq. dielectric constant tensor:
#      x y z
#    x 1.709860 0.000000 0.000000 
#    y 0.000000 1.725970 0.000000 
#    z 0.000000 0.000000 1.725080 
# 
# From -- ./inp_files/33903.got.cif
#   From: 2010.03.12/outbox.cif.g09.slc.cpg/sg53_17_cif.got.tgz:33903.got - 2010.04.16 14:36:59.
