data_PCOD8219534
_publ_section_title
;
Structure prediction by ZEFSAII (Michael W. Deem and Ramdas Pophale) SiO2 
 PCOD8219534
Probable space group: P M N A
;
_chemical_formula_sum "Si O2"
_cell_formula_units_Z 32
_cell_length_a 8.573925
_cell_length_b 10.048992
_cell_length_c 19.908140
_cell_angle_alpha 90.000000
_cell_angle_beta 90.000000
_cell_angle_gamma 90.000000
_cell_volume 1715.271481
_symmetry_space_group_name_H-M "P M N A"
_symmetry_group_IT_number 53
_symmetry_cell_setting 'orthorhombic'
loop_
_space_group_symop_operation_xyz
x,y,z
1/2-x,-y,1/2+z
x,-y,-z
1/2-x,y,1/2-z
-x,-y,-z
1/2+x,y,1/2-z
-x,y,z
1/2+x,-y,1/2+z
loop_
_atom_site_type_symbol
_atom_site_label
_atom_site_fract_x
_atom_site_fract_y
_atom_site_fract_z
Si Si1 0.184237 0.166054 0.176745
Si Si2 0.683974 0.054378 0.572748
Si Si3 0.818180 0.328352 0.549987
Si Si4 0.816801 0.408636 0.089418
O O1 0.250000 0.142125 0.250000
O O2 0.239340 0.308822 0.148038
O O3 0.000000 0.161422 0.178712
O O4 0.245477 0.049068 0.128291
O O5 0.500000 0.077803 0.577293
O O6 0.771467 0.192865 0.587339
O O7 0.732723 0.000000 0.500000
O O8 0.775763 0.452916 0.598102
O O9 0.719420 0.339910 0.481772
O O10 0.000000 0.331548 0.532766
O O11 0.000000 0.436714 0.093403
#
# Coordination Sequence:
#
# PCOD8219534 Si02
#       4
#     8   8   8   8
#     4  10  22  38  59  83 111 149 189 232 282 337
#     4  10  19  37  59  81 111 150 193 228 273 342
#     4  11  21  32  53  88 116 139 179 239 287 316
#     4  10  19  36  57  79 109 151 188 222 275 342
#
# _framework density 18.655939
#
# number of rings (size 3 to 8) (size 9 to 14) (size 15 to 20)
#    0.000    1.750    2.500    4.500    0.000    3.500 
#    0.000    1.250    0.000    0.000    0.000    0.000 
#    0.000    0.000    0.000    0.000    0.000    0.000 
#
# Total GULP energy -396874.650913 kJ/mol
# GULP energy per Si atom -12402.332841 kJ/mol
# Density = 1.861348 g / cm^3
# Si number density = 18.655939 Si / 1000 Ang^3
#
#
#
# Elastic Constant Matrix: (Units=GPa)
#
#
# Indices 1 2 3 4 5 6 
#
# 1 40.0505 33.6899 14.4086 0.0000 0.0000 0.0000
# 2 33.6899 163.2821 70.7202 0.0000 0.0000 0.0000
# 3 14.4086 70.7202 115.1313 0.0000 0.0000 0.0000
# 4 0.0000 0.0000 0.0000 29.5029 0.0000 0.0000
# 5 0.0000 0.0000 0.0000 0.0000 24.7805 0.0000
# 6 0.0000 0.0000 0.0000 0.0000 0.0000 17.3179
#
#
#
# Elastic Compliance Matrix: (Units=1/GPa)
#
#
# Indices 1 2 3 4 5 6 
#
# 1 0.030213 -0.006262 0.000065 0.000000 0.000000 0.000000
# 2 -0.006262 0.009642 -0.005139 0.000000 0.000000 0.000000
# 3 0.000065 -0.005139 0.011834 0.000000 0.000000 0.000000
# 4 0.000000 0.000000 0.000000 0.033895 0.000000 0.000000
# 5 0.000000 0.000000 0.000000 0.000000 0.040354 0.000000
# 6 0.000000 0.000000 0.000000 0.000000 0.000000 0.057744
#
#
# Mechanical properties :
#
#
# Convention : Reuss Voigt Hill
#
# Bulk Modulus (GPa) = 34.46190 61.78905 48.12547
# Shear Modulus (GPa) = 23.14534 27.62992 25.38763
#
# Velocity S-wave (km/s) = 3.52610 3.85258 3.69295
# Velocity P-wave (km/s) = 5.92370 7.27888 6.63598
#
# Compressibility (1/GPa) = 0.02901755
#
# Stress axis : x y z
#
# Youngs Moduli (GPa) = 33.09884 103.71006 84.50017
#
# Poissons Ratio (x) = 0.64944 -0.00553
# Poissons Ratio (y) = 0.20727 0.43426
# Poissons Ratio (z) = -0.00217 0.53298
#
# Static dielectric constant tensor:
#      x y z
#    x 3.267820 0.000000 0.000000 
#    y 0.000000 3.791520 0.000000 
#    z 0.000000 0.000000 2.695860 
# 
# 
# High freq. dielectric constant tensor:
#      x y z
#    x 1.721150 0.000000 0.000000 
#    y 0.000000 1.743700 0.000000 
#    z 0.000000 0.000000 1.689860 
# 
# From -- ./inp_files/19517.got.cif
#   From: 2010.03.12/outbox.cif.g09.slc.cpg/sg53_10_cif.got.tgz:19517.got - 2010.04.16 14:36:59.
