data_PCOD8219210
_publ_section_title
;
Structure prediction by ZEFSAII (Michael W. Deem and Ramdas Pophale) SiO2 
 PCOD8219210
Probable space group: P M N A
;
_chemical_formula_sum "Si O2"
_cell_formula_units_Z 64
_cell_length_a 29.466141
_cell_length_b 12.706674
_cell_length_c 8.618405
_cell_angle_alpha 90.000000
_cell_angle_beta 90.000000
_cell_angle_gamma 90.000000
_cell_volume 3226.874309
_symmetry_space_group_name_H-M "P M N A"
_symmetry_group_IT_number 53
_symmetry_cell_setting 'orthorhombic'
loop_
_space_group_symop_operation_xyz
x,y,z
1/2-x,-y,1/2+z
x,-y,-z
1/2-x,y,1/2-z
-x,-y,-z
1/2+x,y,1/2-z
-x,y,z
1/2+x,-y,1/2+z
loop_
_atom_site_type_symbol
_atom_site_label
_atom_site_fract_x
_atom_site_fract_y
_atom_site_fract_z
Si Si1 0.800025 0.707802 0.687180
Si Si2 0.853437 0.494080 0.314757
Si Si3 0.635870 0.120902 0.837218
Si Si4 0.299878 0.698346 0.181088
Si Si5 0.450110 0.777123 0.278465
Si Si6 0.864858 0.887197 0.698962
Si Si7 0.950347 0.538562 0.322920
Si Si8 0.551004 0.110940 0.416876
O O1 0.750000 0.706147 0.750000
O O2 0.827047 0.606450 0.749057
O O3 0.797063 0.702874 0.503028
O O4 0.825497 0.809274 0.759342
O O5 0.856335 0.500000 0.500000
O O6 0.826244 0.596107 0.255260
O O7 0.905339 0.486081 0.247632
O O8 0.671570 0.201118 0.760283
O O9 0.584965 0.138198 0.782926
O O10 0.652090 0.006613 0.780228
O O11 0.630834 0.137319 0.019001
O O12 0.250000 0.701545 0.250000
O O13 0.500000 0.814698 0.226025
O O14 0.441091 0.662624 0.204230
O O15 0.446521 0.788684 0.465730
O O16 0.912798 0.866116 0.781733
O O17 0.952851 0.500000 0.500000
O O18 0.000000 0.509974 0.246628
O O19 0.500000 0.104975 0.345814
O O20 0.562740 0.000000 0.500000
#
# Coordination Sequence:
#
# PCOD8219210 Si02
#       8
#     8   8   8   8   8   8   8   8
#     4  10  22  39  55  79 115 150 188 237 294 352
#     4   9  17  33  57  81 112 144 184 234 284 335
#     4  10  20  36  55  86 115 146 194 242 292 351
#     4  10  20  35  58  83 107 142 190 245 293 340
#     4  10  19  33  57  86 116 149 193 241 280 346
#     4  10  22  37  56  79 120 157 185 238 299 351
#     4   9  17  30  54  88 117 145 187 237 289 341
#     4  10  20  36  57  84 119 160 199 235 288 355
#
# _framework density 19.833434
#
# number of rings (size 3 to 8) (size 9 to 14) (size 15 to 20)
#    0.000    2.250    2.500    0.375    1.750    2.000 
#    0.000    1.875    0.000    0.000    0.000    2.625 
#    0.000    0.000    0.000    0.000    0.000    0.000 
#
# Total GULP energy -792908.598414 kJ/mol
# GULP energy per Si atom -12389.196850 kJ/mol
# Density = 1.978829 g / cm^3
# Si number density = 19.833434 Si / 1000 Ang^3
#
#
#
# Elastic Constant Matrix: (Units=GPa)
#
#
# Indices 1 2 3 4 5 6 
#
# 1 208.0435 94.3772 27.2642 0.0000 0.0000 0.0000
# 2 94.3772 134.9709 46.8494 0.0000 0.0000 0.0000
# 3 27.2642 46.8494 18.9274 0.0000 0.0000 0.0000
# 4 0.0000 0.0000 0.0000 17.5156 0.0000 0.0000
# 5 0.0000 0.0000 0.0000 0.0000 -23.6862 0.0000
# 6 0.0000 0.0000 0.0000 0.0000 0.0000 -34.3677
#
#
#
# Elastic Compliance Matrix: (Units=1/GPa)
#
#
# Indices 1 2 3 4 5 6 
#
# 1 0.007650 -0.010822 0.015769 0.000000 0.000000 0.000000
# 2 -0.010822 0.067919 -0.152525 0.000000 0.000000 0.000000
# 3 0.015769 -0.152525 0.407653 0.000000 0.000000 0.000000
# 4 0.000000 0.000000 0.000000 0.057092 0.000000 0.000000
# 5 0.000000 0.000000 0.000000 0.000000 -0.042219 0.000000
# 6 0.000000 0.000000 0.000000 0.000000 0.000000 -0.029097
#
#
# Mechanical properties :
#
#
# Convention : Reuss Voigt Hill
#
# Bulk Modulus (GPa) = 5.31736 77.65815 41.48775
# Shear Modulus (GPa) = 6.04709 4.78906 5.41807
#
# Velocity S-wave (km/s) = 1.74802 1.55560 1.65461
# Velocity P-wave (km/s) = 2.60017 6.51665 4.96123
#
# Compressibility (1/GPa) = 0.18806331
#
# Stress axis : x y z
#
# Youngs Moduli (GPa) = 130.72426 14.72337 2.45307
#
# Poissons Ratio (x) = 0.15934 -0.03868
# Poissons Ratio (y) = 1.41476 0.37416
# Poissons Ratio (z) = -2.06137 2.24569
#
# Static dielectric constant tensor:
#      x y z
#    x 3.974960 0.000000 0.000000 
#    y 0.000000 3.891100 0.000000 
#    z 0.000000 0.000000 3.303090 
# 
# 
# High freq. dielectric constant tensor:
#      x y z
#    x 1.792740 0.000000 0.000000 
#    y 0.000000 1.777420 0.000000 
#    z 0.000000 0.000000 1.733330 
# 
# From -- ./inp_files/13235.got.cif
#   From: 2010.03.12/outbox.cif.g09.slc.cpg/sg53_7_cif.got.tgz:13235.got - 2010.04.16 14:36:59.
