data_PCOD8219892
_publ_section_title
;
Structure prediction by ZEFSAII (Michael W. Deem and Ramdas Pophale) SiO2 
 PCOD8219892
Probable space group: P M N A
;
_chemical_formula_sum "Si O2"
_cell_formula_units_Z 64
_cell_length_a 8.951056
_cell_length_b 23.077730
_cell_length_c 15.572855
_cell_angle_alpha 90.000000
_cell_angle_beta 90.000000
_cell_angle_gamma 90.000000
_cell_volume 3216.885492
_symmetry_space_group_name_H-M "P M N A"
_symmetry_group_IT_number 53
_symmetry_cell_setting 'orthorhombic'
loop_
_space_group_symop_operation_xyz
x,y,z
1/2-x,-y,1/2+z
x,-y,-z
1/2-x,y,1/2-z
-x,-y,-z
1/2+x,y,1/2-z
-x,y,z
1/2+x,-y,1/2+z
loop_
_atom_site_type_symbol
_atom_site_label
_atom_site_fract_x
_atom_site_fract_y
_atom_site_fract_z
Si Si1 0.677108 0.244327 0.012124
Si Si2 0.666493 0.447459 0.328341
Si Si3 0.168592 0.074648 0.830327
Si Si4 0.831842 0.542462 0.419112
Si Si5 0.830863 0.637686 0.987000
Si Si6 0.172518 0.800682 0.156699
Si Si7 0.822285 0.150736 0.343910
Si Si8 0.675916 0.973007 0.913001
O O1 0.500000 0.242851 0.003456
O O2 0.735165 0.306824 0.041287
O O3 0.727058 0.199311 0.087098
O O4 0.745528 0.234889 0.917699
O O5 0.750000 0.415614 0.250000
O O6 0.500000 0.462759 0.300617
O O7 0.748463 0.508610 0.343759
O O8 0.669113 0.404654 0.407123
O O9 0.250000 0.103416 0.750000
O O10 0.173468 0.133600 0.885740
O O11 0.000000 0.051468 0.818023
O O12 0.276856 0.020807 0.845489
O O13 0.829806 0.500000 0.500000
O O14 0.746557 0.603098 0.435188
O O15 0.000000 0.557766 0.391766
O O16 0.000000 0.655287 0.012497
O O17 0.250000 0.790828 0.250000
O O18 0.000000 0.781111 0.167213
O O19 0.750000 0.161720 0.250000
O O20 0.763018 0.089606 0.384052
O O21 0.000000 0.149237 0.331108
O O22 0.500000 0.969165 0.923489
O O23 0.749064 0.000000 0.000000
#
# Coordination Sequence:
#
# PCOD8219892 Si02
#       8
#     8   8   8   8   8   8   8   8
#     4  11  23  40  61  84 113 154 203 249 297 352
#     4  10  20  34  55  84 118 153 189 233 283 336
#     4  10  20  33  52  78 105 134 171 218 275 340
#     4   9  17  32  55  81 109 141 177 218 267 323
#     4  10  21  37  57  82 113 150 192 236 284 339
#     4  10  21  38  60  86 115 147 186 237 298 361
#     4  10  23  40  58  82 115 158 203 250 302 357
#     4  10  20  35  55  79 109 144 184 234 293 353
#
# _framework density 19.895019999999999
#
# number of rings (size 3 to 8) (size 9 to 14) (size 15 to 20)
#    0.000    2.000    0.000    3.375    0.000    8.750 
#    0.000    3.125    0.000    0.000    0.000    0.000 
#    0.000    0.000    0.000    0.000    0.000    0.000 
#
# Total GULP energy -792836.925038 kJ/mol
# GULP energy per Si atom -12388.076954 kJ/mol
# Density = 1.984974 g / cm^3
# Si number density = 19.895020 Si / 1000 Ang^3
#
#
#
# Elastic Constant Matrix: (Units=GPa)
#
#
# Indices 1 2 3 4 5 6 
#
# 1 94.4093 37.6457 45.0307 0.0000 0.0000 0.0000
# 2 37.6457 90.2344 30.9666 0.0000 0.0000 0.0000
# 3 45.0307 30.9666 91.6655 0.0000 0.0000 0.0000
# 4 0.0000 0.0000 0.0000 4.1580 0.0000 0.0000
# 5 0.0000 0.0000 0.0000 0.0000 30.5696 0.0000
# 6 0.0000 0.0000 0.0000 0.0000 0.0000 -1.3396
#
#
#
# Elastic Compliance Matrix: (Units=1/GPa)
#
#
# Indices 1 2 3 4 5 6 
#
# 1 0.015156 -0.004262 -0.006006 0.000000 0.000000 0.000000
# 2 -0.004262 0.013734 -0.002546 0.000000 0.000000 0.000000
# 3 -0.006006 -0.002546 0.014720 0.000000 0.000000 0.000000
# 4 0.000000 0.000000 0.000000 0.240499 0.000000 0.000000
# 5 0.000000 0.000000 0.000000 0.000000 0.032712 0.000000
# 6 0.000000 0.000000 0.000000 0.000000 0.000000 -0.746506
#
#
# Mechanical properties :
#
#
# Convention : Reuss Voigt Hill
#
# Bulk Modulus (GPa) = 55.60958 55.95501 55.78230
# Shear Modulus (GPa) = -12.56082 17.52203 2.48060
#
# Velocity S-wave (km/s) = -2.51540 2.97092 1.11783
# Velocity P-wave (km/s) = 4.42446 6.32097 5.45576
#
# Compressibility (1/GPa) = 0.01798251
#
# Stress axis : x y z
#
# Youngs Moduli (GPa) = 65.97939 72.81138 67.93675
#
# Poissons Ratio (x) = 0.31033 0.40801
# Poissons Ratio (y) = 0.28121 0.17296
# Poissons Ratio (z) = 0.39625 0.18537
#
# Static dielectric constant tensor:
#      x y z
#    x 3.710890 0.000000 0.000000 
#    y 0.000000 3.627120 0.000000 
#    z 0.000000 0.000000 3.632020 
# 
# 
# High freq. dielectric constant tensor:
#      x y z
#    x 1.783340 0.000000 0.000000 
#    y 0.000000 1.773540 0.000000 
#    z 0.000000 0.000000 1.766710 
# 
# From -- ./inp_files/20862.got.cif
#   From: 2010.03.12/outbox.cif.g09.slc.cpg/sg53_11_cif.got.tgz:20862.got - 2010.04.16 14:36:59.
