data_PCOD8219677
_publ_section_title
;
Structure prediction by ZEFSAII (Michael W. Deem and Ramdas Pophale) SiO2 
 PCOD8219677
Probable space group: P M N A
;
_chemical_formula_sum "Si O2"
_cell_formula_units_Z 40
_cell_length_a 8.556871
_cell_length_b 10.153896
_cell_length_c 22.811177
_cell_angle_alpha 90.000000
_cell_angle_beta 90.000000
_cell_angle_gamma 90.000000
_cell_volume 1981.962304
_symmetry_space_group_name_H-M "P M N A"
_symmetry_group_IT_number 53
_symmetry_cell_setting 'orthorhombic'
loop_
_space_group_symop_operation_xyz
x,y,z
1/2-x,-y,1/2+z
x,-y,-z
1/2-x,y,1/2-z
-x,-y,-z
1/2+x,y,1/2-z
-x,y,z
1/2+x,-y,1/2+z
loop_
_atom_site_type_symbol
_atom_site_label
_atom_site_fract_x
_atom_site_fract_y
_atom_site_fract_z
Si Si1 0.183920 0.236757 0.884543
Si Si2 0.184305 0.512955 0.184754
Si Si3 0.185472 0.008947 0.188530
Si Si4 0.316536 0.151213 0.489808
Si Si5 0.317741 0.257190 0.128698
O O1 0.256583 0.359827 0.849078
O O2 0.000000 0.243047 0.877117
O O3 0.242888 0.098633 0.858343
O O4 0.228179 0.238053 0.953201
O O5 0.250000 0.501901 0.250000
O O6 0.226734 0.388892 0.145071
O O7 0.000000 0.524028 0.189894
O O8 0.250000 0.957637 0.250000
O O9 0.265990 0.146570 0.174367
O O10 0.000000 0.026999 0.188941
O O11 0.500000 0.157925 0.474769
O O12 0.220951 0.213974 0.437073
O O13 0.266952 0.000000 0.500000
O O14 0.500000 0.283879 0.135386
#
# Coordination Sequence:
#
# PCOD8219677 Si02
#       5
#     8   8   8   8   8
#     4   9  20  38  64  92 120 158 202 247 306 366
#     4  11  23  42  64  89 123 162 204 251 305 365
#     4  11  21  38  61  90 120 156 203 254 306 364
#     4  10  19  39  67  92 122 160 203 252 302 363
#     4  12  25  40  59  89 124 163 205 251 305 358
#
# _framework density 20.182019
#
# number of rings (size 3 to 8) (size 9 to 14) (size 15 to 20)
#    0.000    1.400    2.000    4.200    0.000    1.200 
#    0.000    9.000    0.000    0.000    0.000    0.000 
#    0.000    0.000    0.000    0.000    0.000    0.000 
#
# Total GULP energy -496093.591149 kJ/mol
# GULP energy per Si atom -12402.339779 kJ/mol
# Density = 2.013608 g / cm^3
# Si number density = 20.182019 Si / 1000 Ang^3
#
#
#
# Elastic Constant Matrix: (Units=GPa)
#
#
# Indices 1 2 3 4 5 6 
#
# 1 53.6215 16.6762 24.1825 0.0000 0.0000 0.0000
# 2 16.6762 112.0111 33.2495 0.0000 0.0000 0.0000
# 3 24.1825 33.2495 112.8100 0.0000 0.0000 0.0000
# 4 0.0000 0.0000 0.0000 39.1908 0.0000 0.0000
# 5 0.0000 0.0000 0.0000 0.0000 35.5311 0.0000
# 6 0.0000 0.0000 0.0000 0.0000 0.0000 2.5141
#
#
#
# Elastic Compliance Matrix: (Units=1/GPa)
#
#
# Indices 1 2 3 4 5 6 
#
# 1 0.021032 -0.001965 -0.003929 0.000000 0.000000 0.000000
# 2 -0.001965 0.009967 -0.002517 0.000000 0.000000 0.000000
# 3 -0.003929 -0.002517 0.010449 0.000000 0.000000 0.000000
# 4 0.000000 0.000000 0.000000 0.025516 0.000000 0.000000
# 5 0.000000 0.000000 0.000000 0.000000 0.028144 0.000000
# 6 0.000000 0.000000 0.000000 0.000000 0.000000 0.397762
#
#
# Mechanical properties :
#
#
# Convention : Reuss Voigt Hill
#
# Bulk Modulus (GPa) = 40.60682 47.40656 44.00669
# Shear Modulus (GPa) = 9.65435 29.06947 19.36191
#
# Velocity S-wave (km/s) = 2.18953 3.79933 3.10072
# Velocity P-wave (km/s) = 5.15325 6.54118 5.88825
#
# Compressibility (1/GPa) = 0.02462640
#
# Stress axis : x y z
#
# Youngs Moduli (GPa) = 47.54562 100.32875 95.70732
#
# Poissons Ratio (x) = 0.19713 0.37608
# Poissons Ratio (y) = 0.09342 0.24085
# Poissons Ratio (z) = 0.18683 0.25248
#
# Static dielectric constant tensor:
#      x y z
#    x 3.475760 0.000000 0.000000 
#    y 0.000000 3.865070 0.000000 
#    z 0.000000 0.000000 3.861080 
# 
# 
# High freq. dielectric constant tensor:
#      x y z
#    x 1.769510 0.000000 0.000000 
#    y 0.000000 1.794710 0.000000 
#    z 0.000000 0.000000 1.806640 
# 
# From -- ./inp_files/33630.got.cif
#   From: 2010.03.12/outbox.cif.g09.slc.cpg/sg53_17_cif.got.tgz:33630.got - 2010.04.16 14:36:59.
