data_PCOD8219287
_publ_section_title
;
Structure prediction by ZEFSAII (Michael W. Deem and Ramdas Pophale) SiO2 
 PCOD8219287
Probable space group: P M N A
;
_chemical_formula_sum "Si O2"
_cell_formula_units_Z 48
_cell_length_a 8.694289
_cell_length_b 18.766120
_cell_length_c 15.403290
_cell_angle_alpha 90.000000
_cell_angle_beta 90.000000
_cell_angle_gamma 90.000000
_cell_volume 2513.171079
_symmetry_space_group_name_H-M "P M N A"
_symmetry_group_IT_number 53
_symmetry_cell_setting 'orthorhombic'
loop_
_space_group_symop_operation_xyz
x,y,z
1/2-x,-y,1/2+z
x,-y,-z
1/2-x,y,1/2-z
-x,-y,-z
1/2+x,y,1/2-z
-x,y,z
1/2+x,-y,1/2+z
loop_
_atom_site_type_symbol
_atom_site_label
_atom_site_fract_x
_atom_site_fract_y
_atom_site_fract_z
Si Si1 0.681222 0.167821 0.160478
Si Si2 0.182928 0.579992 0.499154
Si Si3 0.682683 0.677420 0.157828
Si Si4 0.178930 0.083265 0.507324
Si Si5 0.317858 0.670263 0.839668
Si Si6 0.318547 0.829233 0.341974
O O1 0.750000 0.137223 0.250000
O O2 0.500000 0.163672 0.168453
O O3 0.737935 0.248719 0.144758
O O4 0.739891 0.120119 0.080665
O O5 0.250059 0.500000 0.500000
O O6 0.238219 0.619435 0.412069
O O7 0.248035 0.622128 0.582454
O O8 0.000000 0.578836 0.502928
O O9 0.750000 0.653209 0.250000
O O10 0.500000 0.682609 0.163483
O O11 0.746788 0.753981 0.128991
O O12 0.277256 0.111577 0.587577
O O13 0.000000 0.101042 0.523103
O O14 0.209095 0.000000 0.500000
O O15 0.250000 0.640055 0.750000
O O16 0.500000 0.666147 0.835332
O O17 0.250000 0.853970 0.250000
O O18 0.500000 0.820852 0.332787
#
# Coordination Sequence:
#
# PCOD8219287 Si02
#       6
#     8   8   8   8   8   8
#     4   9  18  33  53  76 102 134 172 213 256 304
#     4   9  18  32  51  75 104 139 173 207 257 321
#     4  10  19  34  56  79 105 137 178 224 268 318
#     4  10  21  37  56  80 111 144 176 215 267 322
#     4   9  17  31  51  73  97 128 167 207 247 294
#     4  11  22  37  58  81 107 140 182 228 272 321
#
# _framework density 19.099374999999998
#
# number of rings (size 3 to 8) (size 9 to 14) (size 15 to 20)
#    0.000    2.333    0.000    4.000    0.000    5.000 
#    0.000    6.667    0.000    3.500    0.000    0.000 
#    0.000    0.000    0.000    0.000    0.000    0.000 
#
# Total GULP energy -595305.841264 kJ/mol
# GULP energy per Si atom -12402.205026 kJ/mol
# Density = 1.905590 g / cm^3
# Si number density = 19.099375 Si / 1000 Ang^3
#
#
#
# Elastic Constant Matrix: (Units=GPa)
#
#
# Indices 1 2 3 4 5 6 
#
# 1 60.8894 32.1652 41.6134 0.0000 0.0000 0.0000
# 2 32.1652 116.1985 94.7966 0.0000 0.0000 0.0000
# 3 41.6134 94.7966 169.4793 0.0000 0.0000 0.0000
# 4 0.0000 0.0000 0.0000 17.5670 0.0000 0.0000
# 5 0.0000 0.0000 0.0000 0.0000 31.0233 0.0000
# 6 0.0000 0.0000 0.0000 0.0000 0.0000 9.5479
#
#
#
# Elastic Compliance Matrix: (Units=1/GPa)
#
#
# Indices 1 2 3 4 5 6 
#
# 1 0.020234 -0.002847 -0.003376 0.000000 0.000000 0.000000
# 2 -0.002847 0.016230 -0.008379 0.000000 0.000000 0.000000
# 3 -0.003376 -0.008379 0.011416 0.000000 0.000000 0.000000
# 4 0.000000 0.000000 0.000000 0.056925 0.000000 0.000000
# 5 0.000000 0.000000 0.000000 0.000000 0.032234 0.000000
# 6 0.000000 0.000000 0.000000 0.000000 0.000000 0.104735
#
#
# Mechanical properties :
#
#
# Convention : Reuss Voigt Hill
#
# Bulk Modulus (GPa) = 53.54327 75.96860 64.75594
# Shear Modulus (GPa) = 18.03737 23.49379 20.76558
#
# Velocity S-wave (km/s) = 3.07644 3.51106 3.30091
# Velocity P-wave (km/s) = 6.38077 7.50323 6.96465
#
# Compressibility (1/GPa) = 0.01867648
#
# Stress axis : x y z
#
# Youngs Moduli (GPa) = 49.42102 61.61554 87.59698
#
# Poissons Ratio (x) = 0.17543 0.29571
# Poissons Ratio (y) = 0.14071 0.73396
# Poissons Ratio (z) = 0.16683 0.51627
#
# Static dielectric constant tensor:
#      x y z
#    x 3.254150 0.000000 0.000000 
#    y 0.000000 3.567090 0.000000 
#    z 0.000000 0.000000 3.683970 
# 
# 
# High freq. dielectric constant tensor:
#      x y z
#    x 1.722260 0.000000 0.000000 
#    y 0.000000 1.737490 0.000000 
#    z 0.000000 0.000000 1.757620 
# 
# From -- ./inp_files/20211.got.cif
#   From: 2010.03.12/outbox.cif.g09.slc.cpg/sg53_11_cif.got.tgz:20211.got - 2010.04.16 14:36:59.
