data_PCOD8219491
_publ_section_title
;
Structure prediction by ZEFSAII (Michael W. Deem and Ramdas Pophale) SiO2 
 PCOD8219491
Probable space group: P M N A
;
_chemical_formula_sum "Si O2"
_cell_formula_units_Z 44
_cell_length_a 14.434680
_cell_length_b 11.332670
_cell_length_c 13.609112
_cell_angle_alpha 90.000000
_cell_angle_beta 90.000000
_cell_angle_gamma 90.000000
_cell_volume 2226.225696
_symmetry_space_group_name_H-M "P M N A"
_symmetry_group_IT_number 53
_symmetry_cell_setting 'orthorhombic'
loop_
_space_group_symop_operation_xyz
x,y,z
1/2-x,-y,1/2+z
x,-y,-z
1/2-x,y,1/2-z
-x,-y,-z
1/2+x,y,1/2-z
-x,y,z
1/2+x,-y,1/2+z
loop_
_atom_site_type_symbol
_atom_site_label
_atom_site_fract_x
_atom_site_fract_y
_atom_site_fract_z
Si Si1 0.105034 0.027523 0.613333
Si Si2 0.665722 0.625007 0.465553
Si Si3 0.105149 0.286249 0.165631
Si Si4 0.806031 0.741512 0.341967
Si Si5 0.250000 0.891672 0.750000
Si Si6 0.397234 0.537072 0.264594
O O1 0.112122 0.168779 0.630114
O O2 0.000000 0.988700 0.642991
O O3 0.123896 0.000000 0.500000
O O4 0.185232 0.966694 0.677223
O O5 0.709600 0.500000 0.500000
O O6 0.603497 0.682243 0.550409
O O7 0.744263 0.720896 0.438753
O O8 0.602782 0.602025 0.370031
O O9 0.179195 0.184835 0.185571
O O10 0.136676 0.401604 0.227795
O O11 0.000000 0.247684 0.193875
O O12 0.750000 0.797323 0.250000
O O13 0.836643 0.608982 0.312993
O O14 0.500000 0.538355 0.222837
#
# Coordination Sequence:
#
# PCOD8219491 Si02
#       6
#     8   8   8   8   4   8
#     4  11  24  43  64  85 117 162 207 249 299 354
#     4   9  18  31  56  85 117 150 183 229 293 359
#     4  10  21  36  57  87 119 151 190 242 300 355
#     4  10  19  35  59  86 115 154 193 241 291 349
#     4  12  24  40  64  84 116 158 204 254 292 350
#     4   9  18  32  55  84 116 149 186 232 292 354
#
# _framework density 19.764392999999998
#
# number of rings (size 3 to 8) (size 9 to 14) (size 15 to 20)
#    0.000    2.000    0.909    2.727    6.364    2.182 
#    0.000    0.000    0.000    3.273    0.000    0.000 
#    0.000    0.000    0.000    0.000    0.000    0.000 
#
# Total GULP energy -545298.971748 kJ/mol
# GULP energy per Si atom -12393.158449 kJ/mol
# Density = 1.971941 g / cm^3
# Si number density = 19.764393 Si / 1000 Ang^3
#
#
#
# Elastic Constant Matrix: (Units=GPa)
#
#
# Indices 1 2 3 4 5 6 
#
# 1 121.3183 54.5520 39.3036 0.0000 0.0000 0.0000
# 2 54.5520 89.6479 33.3801 0.0000 0.0000 0.0000
# 3 39.3036 33.3801 70.2103 0.0000 0.0000 0.0000
# 4 0.0000 0.0000 0.0000 20.3696 0.0000 0.0000
# 5 0.0000 0.0000 0.0000 0.0000 26.1439 0.0000
# 6 0.0000 0.0000 0.0000 0.0000 0.0000 33.5358
#
#
#
# Elastic Compliance Matrix: (Units=1/GPa)
#
#
# Indices 1 2 3 4 5 6 
#
# 1 0.012213 -0.005937 -0.004014 0.000000 0.000000 0.000000
# 2 -0.005937 0.016440 -0.004493 0.000000 0.000000 0.000000
# 3 -0.004014 -0.004493 0.018626 0.000000 0.000000 0.000000
# 4 0.000000 0.000000 0.000000 0.049093 0.000000 0.000000
# 5 0.000000 0.000000 0.000000 0.000000 0.038250 0.000000
# 6 0.000000 0.000000 0.000000 0.000000 0.000000 0.029819
#
#
# Mechanical properties :
#
#
# Convention : Reuss Voigt Hill
#
# Bulk Modulus (GPa) = 54.37289 59.51646 56.94468
# Shear Modulus (GPa) = 25.06782 26.27258 25.67020
#
# Velocity S-wave (km/s) = 3.56523 3.64990 3.60781
# Velocity P-wave (km/s) = 6.67219 6.92392 6.79922
#
# Compressibility (1/GPa) = 0.01839152
#
# Stress axis : x y z
#
# Youngs Moduli (GPa) = 81.88066 60.82579 53.68849
#
# Poissons Ratio (x) = 0.36113 0.21551
# Poissons Ratio (y) = 0.48613 0.24121
# Poissons Ratio (z) = 0.32868 0.27327
#
# Static dielectric constant tensor:
#      x y z
#    x 3.547550 0.000000 0.000000 
#    y 0.000000 3.571420 0.000000 
#    z 0.000000 0.000000 3.495880 
# 
# 
# High freq. dielectric constant tensor:
#      x y z
#    x 1.770560 0.000000 0.000000 
#    y 0.000000 1.765000 0.000000 
#    z 0.000000 0.000000 1.761120 
# 
# From -- ./inp_files/22611.got.cif
#   From: 2010.03.12/outbox.cif.g09.slc.cpg/sg53_12_cif.got.tgz:22611.got - 2010.04.16 14:36:59.
