data_PCOD8219162
_publ_section_title
;
Structure prediction by ZEFSAII (Michael W. Deem and Ramdas Pophale) SiO2 
 PCOD8219162
Probable space group: P M N A
;
_chemical_formula_sum "Si O2"
_cell_formula_units_Z 48
_cell_length_a 8.712946
_cell_length_b 11.059890
_cell_length_c 23.647797
_cell_angle_alpha 90.000000
_cell_angle_beta 90.000000
_cell_angle_gamma 90.000000
_cell_volume 2278.801615
_symmetry_space_group_name_H-M "P M N A"
_symmetry_group_IT_number 53
_symmetry_cell_setting 'orthorhombic'
loop_
_space_group_symop_operation_xyz
x,y,z
1/2-x,-y,1/2+z
x,-y,-z
1/2-x,y,1/2-z
-x,-y,-z
1/2+x,y,1/2-z
-x,y,z
1/2+x,-y,1/2+z
loop_
_atom_site_type_symbol
_atom_site_label
_atom_site_fract_x
_atom_site_fract_y
_atom_site_fract_z
Si Si1 0.819722 0.596367 0.865959
Si Si2 0.181864 0.649353 0.188040
Si Si3 0.323443 0.943864 0.916036
Si Si4 0.824086 0.221013 0.588028
Si Si5 0.818934 0.843267 0.809557
Si Si6 0.680943 0.725052 0.523461
O O1 0.749061 0.473884 0.839967
O O2 0.776098 0.704976 0.823910
O O3 0.759155 0.628870 0.929252
O O4 0.000000 0.580629 0.870159
O O5 0.250000 0.670689 0.250000
O O6 0.231106 0.756886 0.145994
O O7 0.000000 0.644992 0.193829
O O8 0.500000 0.902757 0.921737
O O9 0.265451 0.932833 0.852156
O O10 0.220662 0.860547 0.956336
O O11 0.304076 0.083415 0.932752
O O12 0.759406 0.303784 0.536775
O O13 0.000000 0.254020 0.599401
O O14 0.750000 0.878403 0.750000
O O15 0.000000 0.865512 0.811834
O O16 0.500000 0.714969 0.515399
#
# Coordination Sequence:
#
# PCOD8219162 Si02
#       6
#     8   8   8   8   8   8
#     4   8  18  36  58  85 114 145 182 229 283 337
#     4  11  23  41  62  83 112 150 191 232 278 332
#     4  10  21  37  56  80 114 152 189 233 282 334
#     4  11  24  40  57  82 116 153 192 231 276 331
#     4  10  19  33  55  83 113 145 187 236 287 341
#     4  10  20  37  62  90 117 145 183 231 284 338
#
# _framework density 21.063703
#
# number of rings (size 3 to 8) (size 9 to 14) (size 15 to 20)
#    0.000    2.000    0.000    4.500    0.000    6.000 
#    0.000   12.500    0.000    0.000    0.000    0.000 
#    0.000    0.000    0.000    0.000    0.000    0.000 
#
# Total GULP energy -595189.603516 kJ/mol
# GULP energy per Si atom -12399.783407 kJ/mol
# Density = 2.101576 g / cm^3
# Si number density = 21.063703 Si / 1000 Ang^3
#
#
#
# Elastic Constant Matrix: (Units=GPa)
#
#
# Indices 1 2 3 4 5 6 
#
# 1 54.8527 13.9761 18.2256 0.0000 0.0000 0.0000
# 2 13.9761 34.4227 9.9976 0.0000 0.0000 0.0000
# 3 18.2256 9.9976 142.4697 0.0000 0.0000 0.0000
# 4 0.0000 0.0000 0.0000 25.6265 0.0000 0.0000
# 5 0.0000 0.0000 0.0000 0.0000 39.1775 0.0000
# 6 0.0000 0.0000 0.0000 0.0000 0.0000 19.8282
#
#
#
# Elastic Compliance Matrix: (Units=1/GPa)
#
#
# Indices 1 2 3 4 5 6 
#
# 1 0.020947 -0.007887 -0.002126 0.000000 0.000000 0.000000
# 2 -0.007887 0.032625 -0.001280 0.000000 0.000000 0.000000
# 3 -0.002126 -0.001280 0.007381 0.000000 0.000000 0.000000
# 4 0.000000 0.000000 0.000000 0.039022 0.000000 0.000000
# 5 0.000000 0.000000 0.000000 0.000000 0.025525 0.000000
# 6 0.000000 0.000000 0.000000 0.000000 0.000000 0.050433
#
#
# Mechanical properties :
#
#
# Convention : Reuss Voigt Hill
#
# Bulk Modulus (GPa) = 26.06549 35.12707 30.59628
# Shear Modulus (GPa) = 23.66212 29.56283 26.61247
#
# Velocity S-wave (km/s) = 3.35529 3.75039 3.55833
# Velocity P-wave (km/s) = 5.23566 5.95539 5.60709
#
# Compressibility (1/GPa) = 0.03836491
#
# Stress axis : x y z
#
# Youngs Moduli (GPa) = 47.74027 30.65156 135.48525
#
# Poissons Ratio (x) = 0.24175 0.28806
# Poissons Ratio (y) = 0.37653 0.17348
# Poissons Ratio (z) = 0.10150 0.03925
#
# Static dielectric constant tensor:
#      x y z
#    x 3.679860 0.000000 0.000000 
#    y 0.000000 3.802510 0.000000 
#    z 0.000000 0.000000 3.979780 
# 
# 
# High freq. dielectric constant tensor:
#      x y z
#    x 1.816610 0.000000 0.000000 
#    y 0.000000 1.810660 0.000000 
#    z 0.000000 0.000000 1.841470 
# 
# From -- ./inp_files/33844.got.cif
#   From: 2010.03.12/outbox.cif.g09.slc.cpg/sg53_17_cif.got.tgz:33844.got - 2010.04.16 14:36:59.
