data_PCOD8219646
_publ_section_title
;
Structure prediction by ZEFSAII (Michael W. Deem and Ramdas Pophale) SiO2 
 PCOD8219646
Probable space group: P M N A
;
_chemical_formula_sum "Si O2"
_cell_formula_units_Z 48
_cell_length_a 17.759618
_cell_length_b 8.646463
_cell_length_c 14.720480
_cell_angle_alpha 90.000000
_cell_angle_beta 90.000000
_cell_angle_gamma 90.000000
_cell_volume 2260.445700
_symmetry_space_group_name_H-M "P M N A"
_symmetry_group_IT_number 53
_symmetry_cell_setting 'orthorhombic'
loop_
_space_group_symop_operation_xyz
x,y,z
1/2-x,-y,1/2+z
x,-y,-z
1/2-x,y,1/2-z
-x,-y,-z
1/2+x,y,1/2-z
-x,y,z
1/2+x,-y,1/2+z
loop_
_atom_site_type_symbol
_atom_site_label
_atom_site_fract_x
_atom_site_fract_y
_atom_site_fract_z
Si Si1 0.330097 0.321630 0.479448
Si Si2 0.086867 0.707081 0.152953
Si Si3 0.837438 0.677918 0.484920
Si Si4 0.913111 0.639822 0.807023
Si Si5 0.413160 0.847446 0.863207
Si Si6 0.670769 0.142394 0.803581
O O1 0.347653 0.500000 0.500000
O O2 0.366329 0.233952 0.565382
O O3 0.242468 0.286314 0.468494
O O4 0.368132 0.267965 0.385394
O O5 0.112191 0.539106 0.191027
O O6 0.104029 0.826808 0.232614
O O7 0.000000 0.710464 0.126306
O O8 0.859850 0.500000 0.500000
O O9 0.900372 0.779697 0.535874
O O10 0.830115 0.721690 0.378934
O O11 0.895050 0.712744 0.709421
O O12 0.000000 0.655852 0.831695
O O13 0.500000 0.903921 0.855993
O O14 0.352031 0.982123 0.850258
O O15 0.750000 0.136449 0.750000
#
# Coordination Sequence:
#
# PCOD8219646 Si02
#       6
#     8   8   8   8   8   8
#     4   9  18  34  59  94 128 159 201 258 314 366
#     4  10  19  37  65  93 124 164 208 262 316 371
#     4  11  24  43  68  95 124 164 215 268 318 369
#     4   9  19  37  63  94 125 162 211 258 311 373
#     4  11  26  45  64  92 129 171 214 261 317 378
#     4  12  25  42  61  93 130 169 210 258 315 384
#
# _framework density 21.234752
#
# number of rings (size 3 to 8) (size 9 to 14) (size 15 to 20)
#    0.000    1.667    1.667    2.500    2.333    4.333 
#    0.000    0.833    0.000    3.000    0.000    0.000 
#    0.000    0.000    0.000    0.000    0.000    0.000 
#
# Total GULP energy -595225.724379 kJ/mol
# GULP energy per Si atom -12400.535925 kJ/mol
# Density = 2.118642 g / cm^3
# Si number density = 21.234752 Si / 1000 Ang^3
#
#
#
# Elastic Constant Matrix: (Units=GPa)
#
#
# Indices 1 2 3 4 5 6 
#
# 1 59.6997 29.0300 37.0465 0.0000 0.0000 0.0000
# 2 29.0300 65.6713 22.3695 0.0000 0.0000 0.0000
# 3 37.0465 22.3695 108.7405 0.0000 0.0000 0.0000
# 4 0.0000 0.0000 0.0000 25.6488 0.0000 0.0000
# 5 0.0000 0.0000 0.0000 0.0000 41.7531 0.0000
# 6 0.0000 0.0000 0.0000 0.0000 0.0000 27.9406
#
#
#
# Elastic Compliance Matrix: (Units=1/GPa)
#
#
# Indices 1 2 3 4 5 6 
#
# 1 0.025270 -0.008859 -0.006787 0.000000 0.000000 0.000000
# 2 -0.008859 0.019480 -0.000989 0.000000 0.000000 0.000000
# 3 -0.006787 -0.000989 0.011712 0.000000 0.000000 0.000000
# 4 0.000000 0.000000 0.000000 0.038988 0.000000 0.000000
# 5 0.000000 0.000000 0.000000 0.000000 0.023950 0.000000
# 6 0.000000 0.000000 0.000000 0.000000 0.000000 0.035790
#
#
# Mechanical properties :
#
#
# Convention : Reuss Voigt Hill
#
# Bulk Modulus (GPa) = 43.11758 45.66704 44.39231
# Shear Modulus (GPa) = 25.48539 28.77953 27.13246
#
# Velocity S-wave (km/s) = 3.46811 3.68544 3.57842
# Velocity P-wave (km/s) = 6.03211 6.29781 6.16639
#
# Compressibility (1/GPa) = 0.02319240
#
# Stress axis : x y z
#
# Youngs Moduli (GPa) = 39.57315 51.33378 85.38348
#
# Poissons Ratio (x) = 0.45475 0.57947
# Poissons Ratio (y) = 0.35057 0.08447
# Poissons Ratio (z) = 0.26857 0.05079
#
# Static dielectric constant tensor:
#      x y z
#    x 3.681430 0.000000 0.000000 
#    y 0.000000 3.587170 0.000000 
#    z 0.000000 0.000000 3.933420 
# 
# 
# High freq. dielectric constant tensor:
#      x y z
#    x 1.834290 0.000000 0.000000 
#    y 0.000000 1.808330 0.000000 
#    z 0.000000 0.000000 1.845410 
# 
# From -- ./inp_files/23657.got.cif
#   From: 2010.03.12/outbox.cif.g09.slc.cpg/sg53_12_cif.got.tgz:23657.got - 2010.04.16 14:36:59.
