data_PCOD8219848
_publ_section_title
;
Structure prediction by ZEFSAII (Michael W. Deem and Ramdas Pophale) SiO2 
 PCOD8219848
Probable space group: P M N A
;
_chemical_formula_sum "Si O2"
_cell_formula_units_Z 48
_cell_length_a 8.848800
_cell_length_b 17.572420
_cell_length_c 17.794253
_cell_angle_alpha 90.000000
_cell_angle_beta 90.000000
_cell_angle_gamma 90.000000
_cell_volume 2766.914347
_symmetry_space_group_name_H-M "P M N A"
_symmetry_group_IT_number 53
_symmetry_cell_setting 'orthorhombic'
loop_
_space_group_symop_operation_xyz
x,y,z
1/2-x,-y,1/2+z
x,-y,-z
1/2-x,y,1/2-z
-x,-y,-z
1/2+x,y,1/2-z
-x,y,z
1/2+x,-y,1/2+z
loop_
_atom_site_type_symbol
_atom_site_label
_atom_site_fract_x
_atom_site_fract_y
_atom_site_fract_z
Si Si1 0.170157 0.936344 0.436719
Si Si2 0.675791 0.954205 0.670967
Si Si3 0.824712 0.171563 0.045199
Si Si4 0.677138 0.667695 0.946026
Si Si5 0.321066 0.553038 0.669273
Si Si6 0.832953 0.431133 0.942096
O O1 0.267348 0.865680 0.467453
O O2 0.000000 0.909518 0.417504
O O3 0.167633 0.000000 0.500000
O O4 0.247734 0.969444 0.361868
O O5 0.750000 0.932517 0.750000
O O6 0.500000 0.970919 0.682147
O O7 0.703286 0.883984 0.615247
O O8 0.727221 0.245760 0.061062
O O9 0.000000 0.192376 0.036099
O O10 0.500000 0.661059 0.934322
O O11 0.759625 0.621214 0.881217
O O12 0.720403 0.634157 0.028397
O O13 0.250000 0.560918 0.750000
O O14 0.500000 0.561811 0.673302
O O15 0.276475 0.469700 0.635713
O O16 0.000000 0.394857 0.932748
O O17 0.841521 0.500000 0.000000
#
# Coordination Sequence:
#
# PCOD8219848 Si02
#       6
#     8   8   8   8   8   8
#     4   9  17  31  51  73  97 126 164 206 245 291
#     4  10  20  33  51  74 100 132 166 202 245 293
#     4  10  20  34  51  72 101 134 168 205 248 295
#     4  11  21  32  50  75 102 132 167 205 247 295
#     4  10  20  34  52  74 101 132 165 203 247 295
#     4   8  16  32  51  70  95 128 165 203 244 290
#
# _framework density 17.347845
#
# number of rings (size 3 to 8) (size 9 to 14) (size 15 to 20)
#    0.000    2.333    0.000    4.500    0.000    8.333 
#    0.000    1.667    0.000    1.000    0.000    4.667 
#    0.000    0.000    0.000    0.000    0.000    0.000 
#
# Total GULP energy -595129.332612 kJ/mol
# GULP energy per Si atom -12398.527763 kJ/mol
# Density = 1.730836 g / cm^3
# Si number density = 17.347845 Si / 1000 Ang^3
#
#
#
# Elastic Constant Matrix: (Units=GPa)
#
#
# Indices 1 2 3 4 5 6 
#
# 1 101.1823 44.5919 33.8426 0.0000 0.0000 0.0000
# 2 44.5919 60.9599 60.3057 0.0000 0.0000 0.0000
# 3 33.8426 60.3057 52.7791 0.0000 0.0000 0.0000
# 4 0.0000 0.0000 0.0000 18.1552 0.0000 0.0000
# 5 0.0000 0.0000 0.0000 0.0000 27.4815 0.0000
# 6 0.0000 0.0000 0.0000 0.0000 0.0000 28.4704
#
#
#
# Elastic Compliance Matrix: (Units=1/GPa)
#
#
# Indices 1 2 3 4 5 6 
#
# 1 0.011919 0.008885 -0.017795 0.000000 0.000000 0.000000
# 2 0.008885 -0.119230 0.130536 0.000000 0.000000 0.000000
# 3 -0.017795 0.130536 -0.118794 0.000000 0.000000 0.000000
# 4 0.000000 0.000000 0.000000 0.055081 0.000000 0.000000
# 5 0.000000 0.000000 0.000000 0.000000 0.036388 0.000000
# 6 0.000000 0.000000 0.000000 0.000000 0.000000 0.035124
#
#
# Mechanical properties :
#
#
# Convention : Reuss Voigt Hill
#
# Bulk Modulus (GPa) = 58.31817 54.71128 56.51472
# Shear Modulus (GPa) = -14.83471 19.90016 2.53273
#
# Velocity S-wave (km/s) = -2.92744 3.39060 1.20960
# Velocity P-wave (km/s) = 4.71841 6.85087 5.88209
#
# Compressibility (1/GPa) = 0.01714731
#
# Stress axis : x y z
#
# Youngs Moduli (GPa) = 83.89734 -8.38714 -8.41796
#
# Poissons Ratio (x) = 0.07452 -0.14980
# Poissons Ratio (y) = -0.74544 1.09884
# Poissons Ratio (z) = 1.49296 1.09482
#
# Static dielectric constant tensor:
#      x y z
#    x 3.392490 0.000000 0.000000 
#    y 0.000000 3.149600 0.000000 
#    z 0.000000 0.000000 3.366020 
# 
# 
# High freq. dielectric constant tensor:
#      x y z
#    x 1.686070 0.000000 0.000000 
#    y 0.000000 1.652280 0.000000 
#    z 0.000000 0.000000 1.655440 
# 
# From -- ./inp_files/26397.got.cif
#   From: 2010.03.12/outbox.cif.g09.slc.cpg/sg53_14_cif.got.tgz:26397.got - 2010.04.16 14:36:59.
