data_PCOD8219762
_publ_section_title
;
Structure prediction by ZEFSAII (Michael W. Deem and Ramdas Pophale) SiO2 
 PCOD8219762
Probable space group: P M N A
;
_chemical_formula_sum "Si O2"
_cell_formula_units_Z 64
_cell_length_a 9.057580
_cell_length_b 19.983731
_cell_length_c 19.746486
_cell_angle_alpha 90.000000
_cell_angle_beta 90.000000
_cell_angle_gamma 90.000000
_cell_volume 3574.197735
_symmetry_space_group_name_H-M "P M N A"
_symmetry_group_IT_number 53
_symmetry_cell_setting 'orthorhombic'
loop_
_space_group_symop_operation_xyz
x,y,z
1/2-x,-y,1/2+z
x,-y,-z
1/2-x,y,1/2-z
-x,-y,-z
1/2+x,y,1/2-z
-x,y,z
1/2+x,-y,1/2+z
loop_
_atom_site_type_symbol
_atom_site_label
_atom_site_fract_x
_atom_site_fract_y
_atom_site_fract_z
Si Si1 0.674007 0.413957 0.179573
Si Si2 0.324895 0.976669 0.928200
Si Si3 0.825446 0.083928 0.678502
Si Si4 0.672464 0.527456 0.071751
Si Si5 0.669142 0.208338 0.909858
Si Si6 0.673573 0.696496 0.594554
Si Si7 0.827177 0.338164 0.941865
Si Si8 0.830156 0.172962 0.436862
O O1 0.750000 0.432165 0.250000
O O2 0.500000 0.404456 0.189289
O O3 0.711720 0.474209 0.129106
O O4 0.741554 0.345574 0.151028
O O5 0.500000 0.983083 0.933044
O O6 0.280025 0.900240 0.911607
O O7 0.264249 0.024311 0.868952
O O8 0.256257 0.000000 0.000000
O O9 0.750000 0.075941 0.750000
O O10 0.780622 0.155064 0.646275
O O11 0.000000 0.078710 0.686875
O O12 0.500000 0.543174 0.067623
O O13 0.755438 0.595779 0.089733
O O14 0.731084 0.500000 0.000000
O O15 0.500000 0.229834 0.900040
O O16 0.767930 0.274248 0.900936
O O17 0.692770 0.174322 0.982575
O O18 0.500000 0.692884 0.608272
O O19 0.716503 0.667826 0.520842
O O20 0.727242 0.773007 0.600383
O O21 0.000000 0.342127 0.931275
O O22 0.000000 0.188250 0.418242
#
# Coordination Sequence:
#
# PCOD8219762 Si02
#       8
#     8   8   8   8   8   8   8   8
#     4  11  23  39  59  82 111 146 183 224 272 327
#     4   9  15  29  54  81 104 134 184 234 271 317
#     4  10  20  34  53  78 108 143 180 223 275 331
#     4  10  20  36  58  83 110 143 183 224 267 324
#     4   9  17  31  52  76 103 137 178 222 267 320
#     4  10  20  34  52  79 113 144 176 219 270 325
#     4  10  20  32  53  83 112 138 173 226 275 313
#     4   9  16  29  54  81 103 132 178 231 272 313
#
# _framework density 17.906116000000001
#
# number of rings (size 3 to 8) (size 9 to 14) (size 15 to 20)
#    0.000    2.250    2.500    1.125    0.000    2.750 
#    0.000    1.875    0.000    2.250    0.000    0.000 
#    0.000    0.000    0.000    0.000    0.000    0.000 
#
# Total GULP energy -793755.412839 kJ/mol
# GULP energy per Si atom -12402.428326 kJ/mol
# Density = 1.786536 g / cm^3
# Si number density = 17.906116 Si / 1000 Ang^3
#
#
#
# Elastic Constant Matrix: (Units=GPa)
#
#
# Indices 1 2 3 4 5 6 
#
# 1 60.5151 55.2409 45.2523 0.0000 0.0000 0.0000
# 2 55.2409 146.5465 72.3634 0.0000 0.0000 0.0000
# 3 45.2523 72.3634 111.8084 0.0000 0.0000 0.0000
# 4 0.0000 0.0000 0.0000 24.7964 0.0000 0.0000
# 5 0.0000 0.0000 0.0000 0.0000 28.1036 0.0000
# 6 0.0000 0.0000 0.0000 0.0000 0.0000 18.6268
#
#
#
# Elastic Compliance Matrix: (Units=1/GPa)
#
#
# Indices 1 2 3 4 5 6 
#
# 1 0.028213 -0.007343 -0.006666 0.000000 0.000000 0.000000
# 2 -0.007343 0.011940 -0.004756 0.000000 0.000000 0.000000
# 3 -0.006666 -0.004756 0.014720 0.000000 0.000000 0.000000
# 4 0.000000 0.000000 0.000000 0.040328 0.000000 0.000000
# 5 0.000000 0.000000 0.000000 0.000000 0.035583 0.000000
# 6 0.000000 0.000000 0.000000 0.000000 0.000000 0.053686
#
#
# Mechanical properties :
#
#
# Convention : Reuss Voigt Hill
#
# Bulk Modulus (GPa) = 57.66093 73.84259 65.75176
# Shear Modulus (GPa) = 21.95096 24.03959 22.99527
#
# Velocity S-wave (km/s) = 3.50507 3.66804 3.58748
# Velocity P-wave (km/s) = 6.97513 7.69855 7.34575
#
# Compressibility (1/GPa) = 0.01734277
#
# Stress axis : x y z
#
# Youngs Moduli (GPa) = 35.44500 83.75092 67.93587
#
# Poissons Ratio (x) = 0.61500 0.45286
# Poissons Ratio (y) = 0.26028 0.32309
# Poissons Ratio (z) = 0.23627 0.39830
#
# Static dielectric constant tensor:
#      x y z
#    x 3.138580 0.000000 0.000000 
#    y 0.000000 3.434410 0.000000 
#    z 0.000000 0.000000 3.144430 
# 
# 
# High freq. dielectric constant tensor:
#      x y z
#    x 1.679820 0.000000 0.000000 
#    y 0.000000 1.706790 0.000000 
#    z 0.000000 0.000000 1.668820 
# 
# From -- ./inp_files/26871.got.cif
#   From: 2010.03.12/outbox.cif.g09.slc.cpg/sg53_14_cif.got.tgz:26871.got - 2010.04.16 14:36:59.
