data_PCOD8219526
_publ_section_title
;
Structure prediction by ZEFSAII (Michael W. Deem and Ramdas Pophale) SiO2 
 PCOD8219526
Probable space group: P M N A
;
_chemical_formula_sum "Si O2"
_cell_formula_units_Z 64
_cell_length_a 28.570455
_cell_length_b 9.639493
_cell_length_c 12.459276
_cell_angle_alpha 90.000000
_cell_angle_beta 90.000000
_cell_angle_gamma 90.000000
_cell_volume 3431.343181
_symmetry_space_group_name_H-M "P M N A"
_symmetry_group_IT_number 53
_symmetry_cell_setting 'orthorhombic'
loop_
_space_group_symop_operation_xyz
x,y,z
1/2-x,-y,1/2+z
x,-y,-z
1/2-x,y,1/2-z
-x,-y,-z
1/2+x,y,1/2-z
-x,y,z
1/2+x,-y,1/2+z
loop_
_atom_site_type_symbol
_atom_site_label
_atom_site_fract_x
_atom_site_fract_y
_atom_site_fract_z
Si Si1 0.053692 0.664455 0.509462
Si Si2 0.102262 0.649401 0.725736
Si Si3 0.395482 0.669173 0.203592
Si Si4 0.797024 0.643311 0.813009
Si Si5 0.448739 0.142679 0.637531
Si Si6 0.580403 0.155550 0.408912
Si Si7 0.300168 0.328468 0.702534
Si Si8 0.816076 0.153713 0.003463
O O1 0.053910 0.500000 0.500000
O O2 0.082205 0.713902 0.614948
O O3 0.081867 0.724946 0.406967
O O4 0.000000 0.719846 0.512213
O O5 0.089360 0.488059 0.727663
O O6 0.157851 0.679943 0.738698
O O7 0.075578 0.717716 0.826365
O O8 0.412631 0.759442 0.302708
O O9 0.338777 0.678899 0.201550
O O10 0.750000 0.670816 0.750000
O O11 0.800378 0.482567 0.849277
O O12 0.790756 0.741128 0.915823
O O13 0.500000 0.164215 0.688277
O O14 0.452413 0.182299 0.511408
O O15 0.433429 0.983731 0.653731
O O16 0.631484 0.136132 0.457257
O O17 0.250000 0.289690 0.750000
O O18 0.313863 0.216456 0.614543
O O19 0.792573 0.000000 0.000000
#
# Coordination Sequence:
#
# PCOD8219526 Si02
#       8
#     8   8   8   8   8   8   8   8
#     4   9  18  33  52  75 106 142 178 223 277 325
#     4   9  20  34  58  79 106 144 184 231 276 331
#     4  10  19  36  55  81 108 140 186 232 278 331
#     4   9  20  35  55  82 112 141 183 231 282 336
#     4  11  21  35  55  79 110 146 182 223 281 339
#     4  10  19  36  53  78 109 144 180 221 277 335
#     4  10  20  35  55  82 108 144 184 230 284 337
#     4  11  19  34  56  78 109 147 179 227 280 331
#
# _framework density 18.651589000000001
#
# number of rings (size 3 to 8) (size 9 to 14) (size 15 to 20)
#    0.000    2.125    2.500    1.500    0.000    3.500 
#    0.000    5.000    0.000    1.500    0.000    0.000 
#    0.000    0.000    0.000    0.000    0.000    0.000 
#
# Total GULP energy -793373.610036 kJ/mol
# GULP energy per Si atom -12396.462657 kJ/mol
# Density = 1.860914 g / cm^3
# Si number density = 18.651589 Si / 1000 Ang^3
#
#
#
# Elastic Constant Matrix: (Units=GPa)
#
#
# Indices 1 2 3 4 5 6 
#
# 1 103.8459 25.3371 39.0758 0.0000 0.0000 0.0000
# 2 25.3371 55.4523 41.4824 0.0000 0.0000 0.0000
# 3 39.0758 41.4824 102.2404 0.0000 0.0000 0.0000
# 4 0.0000 0.0000 0.0000 15.7051 0.0000 0.0000
# 5 0.0000 0.0000 0.0000 0.0000 22.0393 0.0000
# 6 0.0000 0.0000 0.0000 0.0000 0.0000 17.1776
#
#
#
# Elastic Compliance Matrix: (Units=1/GPa)
#
#
# Indices 1 2 3 4 5 6 
#
# 1 0.011550 -0.002836 -0.003264 0.000000 0.000000 0.000000
# 2 -0.002836 0.026589 -0.009704 0.000000 0.000000 0.000000
# 3 -0.003264 -0.009704 0.014965 0.000000 0.000000 0.000000
# 4 0.000000 0.000000 0.000000 0.063673 0.000000 0.000000
# 5 0.000000 0.000000 0.000000 0.000000 0.045374 0.000000
# 6 0.000000 0.000000 0.000000 0.000000 0.000000 0.058215
#
#
# Mechanical properties :
#
#
# Convention : Reuss Voigt Hill
#
# Bulk Modulus (GPa) = 46.51872 52.59212 49.55542
# Shear Modulus (GPa) = 19.29470 21.36063 20.32766
#
# Velocity S-wave (km/s) = 3.21982 3.38782 3.30489
# Velocity P-wave (km/s) = 6.23041 6.60011 6.41792
#
# Compressibility (1/GPa) = 0.02149672
#
# Stress axis : x y z
#
# Youngs Moduli (GPa) = 86.58300 37.61012 66.82049
#
# Poissons Ratio (x) = 0.10665 0.21808
# Poissons Ratio (y) = 0.24553 0.64843
# Poissons Ratio (z) = 0.28257 0.36497
#
# Static dielectric constant tensor:
#      x y z
#    x 3.482110 0.000000 0.000000 
#    y 0.000000 3.393280 0.000000 
#    z 0.000000 0.000000 3.570170 
# 
# 
# High freq. dielectric constant tensor:
#      x y z
#    x 1.728040 0.000000 0.000000 
#    y 0.000000 1.709850 0.000000 
#    z 0.000000 0.000000 1.715490 
# 
# From -- ./inp_files/19021.got.cif
#   From: 2010.03.12/outbox.cif.g09.slc.cpg/sg53_10_cif.got.tgz:19021.got - 2010.04.16 14:36:59.
