data_PCOD8219445
_publ_section_title
;
Structure prediction by ZEFSAII (Michael W. Deem and Ramdas Pophale) SiO2 
 PCOD8219445
Probable space group: P M N A
;
_chemical_formula_sum "Si O2"
_cell_formula_units_Z 40
_cell_length_a 8.612999
_cell_length_b 14.497432
_cell_length_c 15.711411
_cell_angle_alpha 90.000000
_cell_angle_beta 90.000000
_cell_angle_gamma 90.000000
_cell_volume 1961.826817
_symmetry_space_group_name_H-M "P M N A"
_symmetry_group_IT_number 53
_symmetry_cell_setting 'orthorhombic'
loop_
_space_group_symop_operation_xyz
x,y,z
1/2-x,-y,1/2+z
x,-y,-z
1/2-x,y,1/2-z
-x,-y,-z
1/2+x,y,1/2-z
-x,y,z
1/2+x,-y,1/2+z
loop_
_atom_site_type_symbol
_atom_site_label
_atom_site_fract_x
_atom_site_fract_y
_atom_site_fract_z
Si Si1 0.317891 0.405998 0.912047
Si Si2 0.816636 0.596085 0.902896
Si Si3 0.314969 0.104196 0.000544
Si Si4 0.681033 0.786350 0.161637
Si Si5 0.315744 0.219158 0.162230
O O1 0.500000 0.411680 0.933105
O O2 0.258114 0.500318 0.869224
O O3 0.279793 0.321741 0.849289
O O4 0.227821 0.387594 0.999399
O O5 0.749365 0.677765 0.846100
O O6 0.000000 0.590861 0.892459
O O7 0.500000 0.106359 0.999913
O O8 0.248018 0.156003 0.917244
O O9 0.253838 0.155882 0.084912
O O10 0.251360 0.000000 0.000000
O O11 0.750000 0.822741 0.250000
O O12 0.500000 0.804429 0.164680
O O13 0.250000 0.176680 0.250000
O O14 0.500000 0.221935 0.164213
#
# Coordination Sequence:
#
# PCOD8219445 Si02
#       5
#     8   8   8   8   8
#     4  10  19  35  57  83 118 160 201 240 290 349
#     4  11  21  34  56  87 119 156 199 243 292 345
#     4   9  19  39  64  86 114 153 194 239 297 358
#     4  10  21  37  59  88 117 154 193 235 289 343
#     4  11  22  39  61  88 120 156 198 243 294 353
#
# _framework density 20.38916
#
# number of rings (size 3 to 8) (size 9 to 14) (size 15 to 20)
#    0.000    1.800    2.000    4.200    0.000    3.200 
#    0.000    2.000    0.000    4.200    0.000    0.000 
#    0.000    0.000    0.000    0.000    0.000    0.000 
#
# Total GULP energy -496066.092687 kJ/mol
# GULP energy per Si atom -12401.652317 kJ/mol
# Density = 2.034275 g / cm^3
# Si number density = 20.389160 Si / 1000 Ang^3
#
#
#
# Elastic Constant Matrix: (Units=GPa)
#
#
# Indices 1 2 3 4 5 6 
#
# 1 61.3311 36.5648 27.8609 0.0000 0.0000 0.0000
# 2 36.5648 139.7885 80.3816 0.0000 0.0000 0.0000
# 3 27.8609 80.3816 160.7386 0.0000 0.0000 0.0000
# 4 0.0000 0.0000 0.0000 16.0638 0.0000 0.0000
# 5 0.0000 0.0000 0.0000 0.0000 32.6227 0.0000
# 6 0.0000 0.0000 0.0000 0.0000 0.0000 12.4393
#
#
#
# Elastic Compliance Matrix: (Units=1/GPa)
#
#
# Indices 1 2 3 4 5 6 
#
# 1 0.019471 -0.004425 -0.001162 0.000000 0.000000 0.000000
# 2 -0.004425 0.011047 -0.004757 0.000000 0.000000 0.000000
# 3 -0.001162 -0.004757 0.008802 0.000000 0.000000 0.000000
# 4 0.000000 0.000000 0.000000 0.062252 0.000000 0.000000
# 5 0.000000 0.000000 0.000000 0.000000 0.030653 0.000000
# 6 0.000000 0.000000 0.000000 0.000000 0.000000 0.080391
#
#
# Mechanical properties :
#
#
# Convention : Reuss Voigt Hill
#
# Bulk Modulus (GPa) = 53.67438 72.38587 63.03012
# Shear Modulus (GPa) = 20.87567 26.69523 23.78545
#
# Velocity S-wave (km/s) = 3.20325 3.62233 3.41922
# Velocity P-wave (km/s) = 6.32955 7.28521 6.82413
#
# Compressibility (1/GPa) = 0.01863086
#
# Stress axis : x y z
#
# Youngs Moduli (GPa) = 51.35878 90.52616 113.61483
#
# Poissons Ratio (x) = 0.40056 0.13204
# Poissons Ratio (y) = 0.22725 0.54048
# Poissons Ratio (z) = 0.05969 0.43065
#
# Static dielectric constant tensor:
#      x y z
#    x 3.449740 0.000000 0.000000 
#    y 0.000000 3.904480 0.000000 
#    z 0.000000 0.000000 3.773840 
# 
# 
# High freq. dielectric constant tensor:
#      x y z
#    x 1.777710 0.000000 0.000000 
#    y 0.000000 1.798190 0.000000 
#    z 0.000000 0.000000 1.796900 
# 
# From -- ./inp_files/19886.got.cif
#   From: 2010.03.12/outbox.cif.g09.slc.cpg/sg53_10_cif.got.tgz:19886.got - 2010.04.16 14:36:59.
