data_PCOD8219687
_publ_section_title
;
Structure prediction by ZEFSAII (Michael W. Deem and Ramdas Pophale) SiO2 
 PCOD8219687
Probable space group: P M N A
;
_chemical_formula_sum "Si O2"
_cell_formula_units_Z 56
_cell_length_a 8.987957
_cell_length_b 20.391472
_cell_length_c 16.732283
_cell_angle_alpha 90.000000
_cell_angle_beta 90.000000
_cell_angle_gamma 90.000000
_cell_volume 3066.653901
_symmetry_space_group_name_H-M "P M N A"
_symmetry_group_IT_number 53
_symmetry_cell_setting 'orthorhombic'
loop_
_space_group_symop_operation_xyz
x,y,z
1/2-x,-y,1/2+z
x,-y,-z
1/2-x,y,1/2-z
-x,-y,-z
1/2+x,y,1/2-z
-x,y,z
1/2+x,-y,1/2+z
loop_
_atom_site_type_symbol
_atom_site_label
_atom_site_fract_x
_atom_site_fract_y
_atom_site_fract_z
Si Si1 0.175653 0.851894 0.985389
Si Si2 0.337257 0.043793 0.922422
Si Si3 0.827807 0.344593 0.326035
Si Si4 0.333142 0.535870 0.618526
Si Si5 0.323086 0.081948 0.166005
Si Si6 0.666971 0.597888 0.444664
Si Si7 0.325701 0.283297 0.005434
O O1 0.256175 0.871978 0.903152
O O2 0.230832 0.780941 0.013087
O O3 0.000000 0.853123 0.972108
O O4 0.217177 0.899838 0.059505
O O5 0.500000 0.074681 0.902191
O O6 0.284882 0.994759 0.851601
O O7 0.356057 0.000000 0.000000
O O8 0.750000 0.309997 0.250000
O O9 0.778030 0.420829 0.328682
O O10 0.782531 0.305541 0.405257
O O11 0.000000 0.341931 0.310780
O O12 0.500000 0.541550 0.653556
O O13 0.282357 0.459143 0.617743
O O14 0.330709 0.564498 0.530227
O O15 0.250000 0.101875 0.250000
O O16 0.500000 0.093690 0.168614
O O17 0.500000 0.622062 0.424314
O O18 0.778072 0.660003 0.442612
O O19 0.500000 0.269240 0.995837
#
# Coordination Sequence:
#
# PCOD8219687 Si02
#       7
#     8   8   8   8   8   8   8
#     4  11  21  32  49  71  97 130 165 200 238 285
#     4   8  16  32  51  70  95 125 156 195 240 282
#     4  10  20  31  44  62  87 121 157 191 228 273
#     4   8  14  26  44  63  85 111 141 182 226 267
#     4  10  20  34  52  74 100 128 159 197 239 283
#     4   8  14  26  44  65  86 110 142 181 225 267
#     4  10  20  32  45  64  92 124 157 193 231 274
#
# _framework density 18.260946000000001
#
# number of rings (size 3 to 8) (size 9 to 14) (size 15 to 20)
#    0.000    2.714    0.000    4.286    0.000    6.000 
#    0.000    4.286    0.000    0.000    0.000    1.000 
#    0.000    2.286    0.000    0.000    0.000    0.000 
#
# Total GULP energy -693998.847728 kJ/mol
# GULP energy per Si atom -12392.836567 kJ/mol
# Density = 1.821938 g / cm^3
# Si number density = 18.260946 Si / 1000 Ang^3
#
#
#
# Elastic Constant Matrix: (Units=GPa)
#
#
# Indices 1 2 3 4 5 6 
#
# 1 84.3994 41.9017 1.7168 0.0000 0.0000 0.0000
# 2 41.9017 96.1727 2.0058 0.0000 0.0000 0.0000
# 3 1.7168 2.0058 7.0141 0.0000 0.0000 0.0000
# 4 0.0000 0.0000 0.0000 13.5119 0.0000 0.0000
# 5 0.0000 0.0000 0.0000 0.0000 17.9563 0.0000
# 6 0.0000 0.0000 0.0000 0.0000 0.0000 31.0520
#
#
#
# Elastic Compliance Matrix: (Units=1/GPa)
#
#
# Indices 1 2 3 4 5 6 
#
# 1 0.015142 -0.006559 -0.001831 0.000000 0.000000 0.000000
# 2 -0.006559 0.013302 -0.002198 0.000000 0.000000 0.000000
# 3 -0.001831 -0.002198 0.143646 0.000000 0.000000 0.000000
# 4 0.000000 0.000000 0.000000 0.074009 0.000000 0.000000
# 5 0.000000 0.000000 0.000000 0.000000 0.055691 0.000000
# 6 0.000000 0.000000 0.000000 0.000000 0.000000 0.032204
#
#
# Mechanical properties :
#
#
# Convention : Reuss Voigt Hill
#
# Bulk Modulus (GPa) = 6.62632 30.98167 18.80400
# Shear Modulus (GPa) = 12.33125 21.96815 17.14970
#
# Velocity S-wave (km/s) = 2.60143 3.47221 3.06787
# Velocity P-wave (km/s) = 3.55807 5.75134 4.78214
#
# Compressibility (1/GPa) = 0.15091324
#
# Stress axis : x y z
#
# Youngs Moduli (GPa) = 66.04126 75.17916 6.96157
#
# Poissons Ratio (x) = 0.49311 0.01274
# Poissons Ratio (y) = 0.43317 0.01530
# Poissons Ratio (z) = 0.12089 0.16528
#
# Static dielectric constant tensor:
#      x y z
#    x 3.392670 0.000000 0.000000 
#    y 0.000000 3.543930 0.000000 
#    z 0.000000 0.000000 3.284190 
# 
# 
# High freq. dielectric constant tensor:
#      x y z
#    x 1.711370 0.000000 0.000000 
#    y 0.000000 1.702270 0.000000 
#    z 0.000000 0.000000 1.662830 
# 
# From -- ./inp_files/26697.got.cif
#   From: 2010.03.12/outbox.cif.g09.slc.cpg/sg53_14_cif.got.tgz:26697.got - 2010.04.16 14:36:59.
