data_PCOD8219508
_publ_section_title
;
Structure prediction by ZEFSAII (Michael W. Deem and Ramdas Pophale) SiO2 
 PCOD8219508
Probable space group: P M N A
;
_chemical_formula_sum "Si O2"
_cell_formula_units_Z 64
_cell_length_a 8.975573
_cell_length_b 11.861308
_cell_length_c 30.872911
_cell_angle_alpha 90.000000
_cell_angle_beta 90.000000
_cell_angle_gamma 90.000000
_cell_volume 3286.792957
_symmetry_space_group_name_H-M "P M N A"
_symmetry_group_IT_number 53
_symmetry_cell_setting 'orthorhombic'
loop_
_space_group_symop_operation_xyz
x,y,z
1/2-x,-y,1/2+z
x,-y,-z
1/2-x,y,1/2-z
-x,-y,-z
1/2+x,y,1/2-z
-x,y,z
1/2+x,-y,1/2+z
loop_
_atom_site_type_symbol
_atom_site_label
_atom_site_fract_x
_atom_site_fract_y
_atom_site_fract_z
Si Si1 0.823870 0.521812 0.047329
Si Si2 0.670688 0.248665 0.590431
Si Si3 0.170834 0.009446 0.951178
Si Si4 0.325027 0.517046 0.292904
Si Si5 0.175989 0.633900 0.875006
Si Si6 0.676762 0.125414 0.123629
Si Si7 0.827116 0.741587 0.320439
Si Si8 0.672886 0.009979 0.793033
O O1 0.776315 0.646283 0.061723
O O2 0.766510 0.429853 0.081922
O O3 0.000000 0.511913 0.044662
O O4 0.752506 0.500000 0.000000
O O5 0.500000 0.265537 0.606672
O O6 0.781254 0.239009 0.630259
O O7 0.687715 0.138979 0.561455
O O8 0.266270 0.928687 0.920733
O O9 0.000000 0.968754 0.948239
O O10 0.231356 0.000000 0.000000
O O11 0.250000 0.464047 0.250000
O O12 0.500000 0.519931 0.285986
O O13 0.279707 0.442999 0.334144
O O14 0.269477 0.644549 0.298582
O O15 0.262453 0.749658 0.870911
O O16 0.000000 0.656560 0.876350
O O17 0.500000 0.127400 0.122237
O O18 0.736639 0.052184 0.164293
O O19 0.000000 0.708324 0.318370
O O20 0.794039 0.857276 0.295500
O O21 0.750000 0.960691 0.750000
O O22 0.500000 0.983553 0.788965
#
# Coordination Sequence:
#
# PCOD8219508 Si02
#       8
#     8   8   8   8   8   8   8   8
#     4   9  18  34  60  89 117 150 190 241 292 341
#     4  10  19  35  60  90 120 154 194 243 296 344
#     4  10  22  38  62  93 121 155 203 248 290 352
#     4  11  23  40  61  89 121 155 198 245 297 352
#     4  10  22  40  61  85 116 153 199 245 289 348
#     4  11  24  42  60  84 121 158 197 244 302 358
#     4  11  21  37  60  88 123 157 192 239 294 354
#     4  10  23  40  59  85 116 152 193 240 292 350
#
# _framework density 19.471869999999999
#
# number of rings (size 3 to 8) (size 9 to 14) (size 15 to 20)
#    0.000    1.750    2.500    1.500    1.750    4.750 
#    0.000    2.500    0.000    0.750    0.000    0.000 
#    0.000    0.000    0.000    0.000    0.000    0.000 
#
# Total GULP energy -793803.865910 kJ/mol
# GULP energy per Si atom -12403.185405 kJ/mol
# Density = 1.942755 g / cm^3
# Si number density = 19.471870 Si / 1000 Ang^3
#
#
#
# Elastic Constant Matrix: (Units=GPa)
#
#
# Indices 1 2 3 4 5 6 
#
# 1 51.9490 50.7940 51.8561 0.0000 0.0000 0.0000
# 2 50.7940 90.5317 45.3543 0.0000 0.0000 0.0000
# 3 51.8561 45.3543 167.0684 0.0000 0.0000 0.0000
# 4 0.0000 0.0000 0.0000 46.0675 0.0000 0.0000
# 5 0.0000 0.0000 0.0000 0.0000 29.7692 0.0000
# 6 0.0000 0.0000 0.0000 0.0000 0.0000 20.8927
#
#
#
# Elastic Compliance Matrix: (Units=1/GPa)
#
#
# Indices 1 2 3 4 5 6 
#
# 1 0.053710 -0.025212 -0.009827 0.000000 0.000000 0.000000
# 2 -0.025212 0.024619 0.001142 0.000000 0.000000 0.000000
# 3 -0.009827 0.001142 0.008726 0.000000 0.000000 0.000000
# 4 0.000000 0.000000 0.000000 0.021707 0.000000 0.000000
# 5 0.000000 0.000000 0.000000 0.000000 0.033592 0.000000
# 6 0.000000 0.000000 0.000000 0.000000 0.000000 0.047864
#
#
# Mechanical properties :
#
#
# Convention : Reuss Voigt Hill
#
# Bulk Modulus (GPa) = 51.91586 67.28420 59.60003
# Shear Modulus (GPa) = 18.90857 30.11553 24.51205
#
# Velocity S-wave (km/s) = 3.11958 3.93697 3.55187
# Velocity P-wave (km/s) = 6.30044 7.43612 6.89172
#
# Compressibility (1/GPa) = 0.01926194
#
# Stress axis : x y z
#
# Youngs Moduli (GPa) = 18.61856 40.61894 114.60504
#
# Poissons Ratio (x) = 1.02407 1.12618
# Poissons Ratio (y) = 0.46941 -0.13088
# Poissons Ratio (z) = 0.18296 -0.04639
#
# Static dielectric constant tensor:
#      x y z
#    x 3.422260 0.000000 0.000000 
#    y 0.000000 3.703530 0.000000 
#    z 0.000000 0.000000 3.852530 
# 
# 
# High freq. dielectric constant tensor:
#      x y z
#    x 1.739270 0.000000 0.000000 
#    y 0.000000 1.763000 0.000000 
#    z 0.000000 0.000000 1.774380 
# 
# From -- ./inp_files/38248.got.cif
#   From: 2010.03.12/outbox.cif.g09.slc.cpg/sg53_20_cif.got.tgz:38248.got - 2010.04.16 14:36:59.
