data_PCOD8219689
_publ_section_title
;
Structure prediction by ZEFSAII (Michael W. Deem and Ramdas Pophale) SiO2 
 PCOD8219689
Probable space group: P M N A
;
_chemical_formula_sum "Si O2"
_cell_formula_units_Z 56
_cell_length_a 14.441260
_cell_length_b 9.631199
_cell_length_c 24.821551
_cell_angle_alpha 90.000000
_cell_angle_beta 90.000000
_cell_angle_gamma 90.000000
_cell_volume 3452.346348
_symmetry_space_group_name_H-M "P M N A"
_symmetry_group_IT_number 53
_symmetry_cell_setting 'orthorhombic'
loop_
_space_group_symop_operation_xyz
x,y,z
1/2-x,-y,1/2+z
x,-y,-z
1/2-x,y,1/2-z
-x,-y,-z
1/2+x,y,1/2-z
-x,y,z
1/2+x,-y,1/2+z
loop_
_atom_site_type_symbol
_atom_site_label
_atom_site_fract_x
_atom_site_fract_y
_atom_site_fract_z
Si Si1 0.395221 0.678849 0.216008
Si Si2 0.108528 0.912099 0.449904
Si Si3 0.891476 0.032515 0.670383
Si Si4 0.787089 0.522232 0.642080
Si Si5 0.891495 0.735597 0.705083
Si Si6 0.101682 0.405192 0.550853
Si Si7 0.895938 0.537172 0.803282
O O1 0.500000 0.656947 0.193707
O O2 0.366224 0.839865 0.210338
O O3 0.321059 0.597191 0.181621
O O4 0.390408 0.616345 0.276225
O O5 0.151040 0.952095 0.390529
O O6 0.130836 0.751752 0.462794
O O7 0.000000 0.942101 0.448461
O O8 0.152434 0.000000 0.500000
O O9 0.000000 0.024347 0.662080
O O10 0.858209 0.895535 0.702738
O O11 0.838283 0.665178 0.655655
O O12 0.814747 0.476030 0.582884
O O13 0.676006 0.540811 0.647322
O O14 0.866294 0.659148 0.761231
O O15 0.000000 0.718383 0.694367
O O16 0.089381 0.500000 0.500000
O O17 0.000000 0.401902 0.580583
O O18 0.000000 0.564375 0.824977
#
# Coordination Sequence:
#
# PCOD8219689 Si02
#       7
#     8   8   8   8   8   8   8
#     4   9  15  27  46  68  93 121 152 184 223 276
#     4   9  17  28  41  61  94 130 157 178 214 270
#     4   9  16  26  42  65  96 130 154 181 224 275
#     4  11  18  30  47  65  92 122 158 192 231 275
#     4   9  17  27  44  69  96 125 154 183 224 277
#     4  10  20  31  47  72  98 122 149 183 224 278
#     4   9  19  33  47  63  86 122 162 200 237 269
#
# _framework density 16.220852000000001
#
# number of rings (size 3 to 8) (size 9 to 14) (size 15 to 20)
#    0.000    2.571    1.429    3.857    2.000    0.000 
#    0.000    2.857    0.000    0.429    0.000    0.000 
#    0.000    0.571    0.000    0.143    0.000    0.000 
#
# Total GULP energy -693738.498214 kJ/mol
# GULP energy per Si atom -12388.187468 kJ/mol
# Density = 1.618393 g / cm^3
# Si number density = 16.220852 Si / 1000 Ang^3
#
#
#
# Elastic Constant Matrix: (Units=GPa)
#
#
# Indices 1 2 3 4 5 6 
#
# 1 57.8214 24.4359 26.4672 0.0000 0.0000 0.0000
# 2 24.4359 123.9801 28.5624 0.0000 0.0000 0.0000
# 3 26.4672 28.5624 49.7952 0.0000 0.0000 0.0000
# 4 0.0000 0.0000 0.0000 15.9072 0.0000 0.0000
# 5 0.0000 0.0000 0.0000 0.0000 19.6521 0.0000
# 6 0.0000 0.0000 0.0000 0.0000 0.0000 9.2839
#
#
#
# Elastic Compliance Matrix: (Units=1/GPa)
#
#
# Indices 1 2 3 4 5 6 
#
# 1 0.023279 -0.002002 -0.011225 0.000000 0.000000 0.000000
# 2 -0.002002 0.009466 -0.004366 0.000000 0.000000 0.000000
# 3 -0.011225 -0.004366 0.028552 0.000000 0.000000 0.000000
# 4 0.000000 0.000000 0.000000 0.062865 0.000000 0.000000
# 5 0.000000 0.000000 0.000000 0.000000 0.050885 0.000000
# 6 0.000000 0.000000 0.000000 0.000000 0.000000 0.107714
#
#
# Mechanical properties :
#
#
# Convention : Reuss Voigt Hill
#
# Bulk Modulus (GPa) = 38.29581 43.39195 40.84388
# Shear Modulus (GPa) = 15.30691 19.11072 17.20881
#
# Velocity S-wave (km/s) = 3.07523 3.43615 3.26069
# Velocity P-wave (km/s) = 6.02243 6.52316 6.27779
#
# Compressibility (1/GPa) = 0.02611252
#
# Stress axis : x y z
#
# Youngs Moduli (GPa) = 42.95755 105.63940 35.02325
#
# Poissons Ratio (x) = 0.21151 0.39313
# Poissons Ratio (y) = 0.08601 0.15290
# Poissons Ratio (z) = 0.48219 0.46117
#
# Static dielectric constant tensor:
#      x y z
#    x 2.848170 0.000000 0.000000 
#    y 0.000000 3.465710 0.000000 
#    z 0.000000 0.000000 3.002550 
# 
# 
# High freq. dielectric constant tensor:
#      x y z
#    x 1.582140 0.000000 0.000000 
#    y 0.000000 1.636630 0.000000 
#    z 0.000000 0.000000 1.587720 
# 
# From -- ./inp_files/38927.got.cif
#   From: 2010.03.12/outbox.cif.g09.slc.cpg/sg53_20_cif.got.tgz:38927.got - 2010.04.16 14:36:59.
