data_PCOD8219613
_publ_section_title
;
Structure prediction by ZEFSAII (Michael W. Deem and Ramdas Pophale) SiO2 
 PCOD8219613
Probable space group: P M N A
;
_chemical_formula_sum "Si O2"
_cell_formula_units_Z 32
_cell_length_a 13.701269
_cell_length_b 7.372702
_cell_length_c 17.141110
_cell_angle_alpha 90.000000
_cell_angle_beta 90.000000
_cell_angle_gamma 90.000000
_cell_volume 1731.515626
_symmetry_space_group_name_H-M "P M N A"
_symmetry_group_IT_number 53
_symmetry_cell_setting 'orthorhombic'
loop_
_space_group_symop_operation_xyz
x,y,z
1/2-x,-y,1/2+z
x,-y,-z
1/2-x,y,1/2-z
-x,-y,-z
1/2+x,y,1/2-z
-x,y,z
1/2+x,-y,1/2+z
loop_
_atom_site_type_symbol
_atom_site_label
_atom_site_fract_x
_atom_site_fract_y
_atom_site_fract_z
Si Si1 0.888881 0.705969 0.025151
Si Si2 0.779280 0.111627 0.429414
Si Si3 0.248154 0.764725 0.341079
Si Si4 0.391723 0.469104 0.090872
O O1 0.825076 0.174463 0.034891
O O2 0.848210 0.715232 0.113740
O O3 0.000000 0.776869 0.023303
O O4 0.881373 0.500000 0.000000
O O5 0.769891 0.977533 0.356128
O O6 0.833165 0.000000 0.500000
O O7 0.838342 0.279014 0.394171
O O8 0.250000 0.726838 0.250000
O O9 0.161561 0.640043 0.372472
O O10 0.500000 0.457381 0.127072
O O11 0.395685 0.500000 0.000000
#
# Coordination Sequence:
#
# PCOD8219613 Si02
#       4
#     8   8   8   8
#     4  10  19  38  65  86 110 151 201 243 286 346
#     4  10  19  37  59  89 111 151 198 241 284 340
#     4  11  23  38  59  86 123 153 190 241 298 350
#     4  11  21  38  62  87 115 152 199 240 283 346
#
# _framework density 18.480919
#
# number of rings (size 3 to 8) (size 9 to 14) (size 15 to 20)
#    0.000    1.500    7.500    0.000    0.000    8.000 
#    0.000    0.000    0.000    0.000    0.000    0.000 
#    0.000    0.000    0.000    0.000    0.000    0.000 
#
# Total GULP energy -396619.101928 kJ/mol
# GULP energy per Si atom -12394.346935 kJ/mol
# Density = 1.843886 g / cm^3
# Si number density = 18.480919 Si / 1000 Ang^3
#
#
#
# Elastic Constant Matrix: (Units=GPa)
#
#
# Indices 1 2 3 4 5 6 
#
# 1 145.2187 74.3226 50.9355 0.0000 0.0000 0.0000
# 2 74.3226 122.1506 34.9419 0.0000 0.0000 0.0000
# 3 50.9355 34.9419 90.3797 0.0000 0.0000 0.0000
# 4 0.0000 0.0000 0.0000 21.5793 0.0000 0.0000
# 5 0.0000 0.0000 0.0000 0.0000 15.3505 0.0000
# 6 0.0000 0.0000 0.0000 0.0000 0.0000 11.8647
#
#
#
# Elastic Compliance Matrix: (Units=1/GPa)
#
#
# Indices 1 2 3 4 5 6 
#
# 1 0.011231 -0.005647 -0.004146 0.000000 0.000000 0.000000
# 2 -0.005647 0.012044 -0.001474 0.000000 0.000000 0.000000
# 3 -0.004146 -0.001474 0.013971 0.000000 0.000000 0.000000
# 4 0.000000 0.000000 0.000000 0.046341 0.000000 0.000000
# 5 0.000000 0.000000 0.000000 0.000000 0.065145 0.000000
# 6 0.000000 0.000000 0.000000 0.000000 0.000000 0.084284
#
#
# Mechanical properties :
#
#
# Convention : Reuss Voigt Hill
#
# Bulk Modulus (GPa) = 67.97370 75.34987 71.66179
# Shear Modulus (GPa) = 19.19732 22.92881 21.06307
#
# Velocity S-wave (km/s) = 3.22648 3.52614 3.37964
# Velocity P-wave (km/s) = 7.12324 7.57882 7.35456
#
# Compressibility (1/GPa) = 0.01471157
#
# Stress axis : x y z
#
# Youngs Moduli (GPa) = 89.04216 83.02669 71.57798
#
# Poissons Ratio (x) = 0.46888 0.29676
# Poissons Ratio (y) = 0.50285 0.10549
# Poissons Ratio (z) = 0.36916 0.12237
#
# Static dielectric constant tensor:
#      x y z
#    x 3.820720 0.000000 0.000000 
#    y 0.000000 3.745880 0.000000 
#    z 0.000000 0.000000 3.075640 
# 
# 
# High freq. dielectric constant tensor:
#      x y z
#    x 1.709900 0.000000 0.000000 
#    y 0.000000 1.745180 0.000000 
#    z 0.000000 0.000000 1.684990 
# 
# From -- ./inp_files/23246.got.cif
#   From: 2010.03.12/outbox.cif.g09.slc.cpg/sg53_12_cif.got.tgz:23246.got - 2010.04.16 14:36:59.
