data_PCOD8219710
_publ_section_title
;
Structure prediction by ZEFSAII (Michael W. Deem and Ramdas Pophale) SiO2 
 PCOD8219710
Probable space group: P M N A
;
_chemical_formula_sum "Si O2"
_cell_formula_units_Z 64
_cell_length_a 9.107250
_cell_length_b 12.945888
_cell_length_c 28.992949
_cell_angle_alpha 90.000000
_cell_angle_beta 90.000000
_cell_angle_gamma 90.000000
_cell_volume 3418.310393
_symmetry_space_group_name_H-M "P M N A"
_symmetry_group_IT_number 53
_symmetry_cell_setting 'orthorhombic'
loop_
_space_group_symop_operation_xyz
x,y,z
1/2-x,-y,1/2+z
x,-y,-z
1/2-x,y,1/2-z
-x,-y,-z
1/2+x,y,1/2-z
-x,y,z
1/2+x,-y,1/2+z
loop_
_atom_site_type_symbol
_atom_site_label
_atom_site_fract_x
_atom_site_fract_y
_atom_site_fract_z
Si Si1 0.327863 0.087457 0.371162
Si Si2 0.164504 0.484508 0.646623
Si Si3 0.828240 0.084171 0.798196
Si Si4 0.834685 0.645535 0.436814
Si Si5 0.167605 0.321309 0.127454
Si Si6 0.674237 0.713552 0.353321
Si Si7 0.829760 0.296763 0.021654
Si Si8 0.832239 0.910008 0.536602
O O1 0.500000 0.080516 0.383516
O O2 0.283914 0.013800 0.329186
O O3 0.286292 0.205494 0.358020
O O4 0.237503 0.051003 0.415561
O O5 0.161106 0.462984 0.591170
O O6 0.234589 0.596744 0.655622
O O7 0.260384 0.391958 0.669980
O O8 0.000000 0.483184 0.667360
O O9 0.750000 0.071107 0.750000
O O10 0.000000 0.086856 0.789122
O O11 0.776823 0.189576 0.822606
O O12 0.746144 0.727693 0.404329
O O13 0.750739 0.628259 0.485073
O O14 0.000000 0.686706 0.445706
O O15 0.000000 0.343021 0.140723
O O16 0.193153 0.338527 0.073084
O O17 0.500000 0.704611 0.358161
O O18 0.000000 0.289810 0.008938
O O19 0.758770 0.184604 0.015961
O O20 0.000000 0.876227 0.545397
O O21 0.821482 0.000000 0.500000
#
# Coordination Sequence:
#
# PCOD8219710 Si02
#       8
#     8   8   8   8   8   8   8   8
#     4   9  20  38  56  80 110 145 185 224 272 326
#     4   9  19  32  50  76 105 141 181 225 275 320
#     4  10  22  39  62  89 114 141 176 221 274 335
#     4   9  19  32  47  73 106 140 177 226 273 315
#     4   9  18  33  52  73 103 143 187 230 268 318
#     4   9  18  34  54  79 107 139 177 215 266 328
#     4  10  20  32  47  69 100 144 190 230 271 320
#     4  10  21  33  47  73 106 143 187 231 275 320
#
# _framework density 18.7227
#
# number of rings (size 3 to 8) (size 9 to 14) (size 15 to 20)
#    0.750    1.875    0.000    2.250    1.750    5.500 
#    0.000    2.500    0.000    0.750    0.000    1.750 
#    0.000    0.000    0.000    0.000    0.000    0.000 
#
# Total GULP energy -793250.054482 kJ/mol
# GULP energy per Si atom -12394.532101 kJ/mol
# Density = 1.868009 g / cm^3
# Si number density = 18.722700 Si / 1000 Ang^3
#
#
#
# Elastic Constant Matrix: (Units=GPa)
#
#
# Indices 1 2 3 4 5 6 
#
# 1 105.9272 51.3487 33.8748 0.0000 0.0000 0.0000
# 2 51.3487 112.8609 43.1274 0.0000 0.0000 0.0000
# 3 33.8748 43.1274 59.5030 0.0000 0.0000 0.0000
# 4 0.0000 0.0000 0.0000 13.9144 0.0000 0.0000
# 5 0.0000 0.0000 0.0000 0.0000 26.7271 0.0000
# 6 0.0000 0.0000 0.0000 0.0000 0.0000 23.5553
#
#
#
# Elastic Compliance Matrix: (Units=1/GPa)
#
#
# Indices 1 2 3 4 5 6 
#
# 1 0.012846 -0.004218 -0.004256 0.000000 0.000000 0.000000
# 2 -0.004218 0.013640 -0.007485 0.000000 0.000000 0.000000
# 3 -0.004256 -0.007485 0.024653 0.000000 0.000000 0.000000
# 4 0.000000 0.000000 0.000000 0.071868 0.000000 0.000000
# 5 0.000000 0.000000 0.000000 0.000000 0.037415 0.000000
# 6 0.000000 0.000000 0.000000 0.000000 0.000000 0.042453
#
#
# Mechanical properties :
#
#
# Convention : Reuss Voigt Hill
#
# Bulk Modulus (GPa) = 52.02382 59.44366 55.73374
# Shear Modulus (GPa) = 20.72959 22.83537 21.78248
#
# Velocity S-wave (km/s) = 3.33106 3.49616 3.41460
# Velocity P-wave (km/s) = 6.53004 6.93656 6.73637
#
# Compressibility (1/GPa) = 0.01922196
#
# Stress axis : x y z
#
# Youngs Moduli (GPa) = 77.84302 73.31485 40.56226
#
# Poissons Ratio (x) = 0.30928 0.17263
# Poissons Ratio (y) = 0.32838 0.30359
# Poissons Ratio (z) = 0.33129 0.54873
#
# Static dielectric constant tensor:
#      x y z
#    x 3.527790 0.000000 0.000000 
#    y 0.000000 3.390590 0.000000 
#    z 0.000000 0.000000 3.083460 
# 
# 
# High freq. dielectric constant tensor:
#      x y z
#    x 1.737160 0.000000 0.000000 
#    y 0.000000 1.722540 0.000000 
#    z 0.000000 0.000000 1.688390 
# 
# From -- ./inp_files/38258.got.cif
#   From: 2010.03.12/outbox.cif.g09.slc.cpg/sg53_20_cif.got.tgz:38258.got - 2010.04.16 14:36:59.
