data_PCOD8219737
_publ_section_title
;
Structure prediction by ZEFSAII (Michael W. Deem and Ramdas Pophale) SiO2 
 PCOD8219737
Probable space group: P M N A
;
_chemical_formula_sum "Si O2"
_cell_formula_units_Z 48
_cell_length_a 9.676556
_cell_length_b 10.235836
_cell_length_c 27.212953
_cell_angle_alpha 90.000000
_cell_angle_beta 90.000000
_cell_angle_gamma 90.000000
_cell_volume 2695.378779
_symmetry_space_group_name_H-M "P M N A"
_symmetry_group_IT_number 53
_symmetry_cell_setting 'orthorhombic'
loop_
_space_group_symop_operation_xyz
x,y,z
1/2-x,-y,1/2+z
x,-y,-z
1/2-x,y,1/2-z
-x,-y,-z
1/2+x,y,1/2-z
-x,y,z
1/2+x,-y,1/2+z
loop_
_atom_site_type_symbol
_atom_site_label
_atom_site_fract_x
_atom_site_fract_y
_atom_site_fract_z
Si Si1 0.840644 0.352048 0.057145
Si Si2 0.341812 0.495660 0.203401
Si Si3 0.660670 0.008179 0.798454
Si Si4 0.839909 0.750896 0.641040
Si Si5 0.341573 0.254180 0.862028
Si Si6 0.340860 0.347091 0.555045
O O1 0.747789 0.260706 0.091406
O O2 0.796226 0.502766 0.063003
O O3 0.000000 0.334429 0.072095
O O4 0.816658 0.306240 0.001287
O O5 0.250000 0.528391 0.250000
O O6 0.500000 0.489107 0.220946
O O7 0.293586 0.359431 0.179793
O O8 0.318661 0.607856 0.163785
O O9 0.750000 0.988900 0.750000
O O10 0.500000 0.012828 0.783225
O O11 0.691109 0.890401 0.835467
O O12 0.707589 0.140433 0.825420
O O13 0.000000 0.732839 0.627143
O O14 0.500000 0.231611 0.877369
O O15 0.250843 0.251919 0.911368
O O16 0.500000 0.328554 0.569805
#
# Coordination Sequence:
#
# PCOD8219737 Si02
#       6
#     8   8   8   8   8   8
#     4   9  18  33  54  81 109 136 171 216 264 313
#     4  10  20  32  49  74 101 129 170 217 257 304
#     4  10  22  38  55  76 107 143 178 217 261 312
#     4  10  20  35  53  77 106 137 175 216 260 311
#     4  10  20  35  53  77 106 137 175 216 260 311
#     4   9  18  33  54  81 109 136 171 216 264 313
#
# _framework density 17.808257000000001
#
# number of rings (size 3 to 8) (size 9 to 14) (size 15 to 20)
#    0.000    2.333    1.667    2.000    0.000    3.333 
#    0.000    2.500    0.000    5.000    0.000    0.000 
#    0.000    0.000    0.000    0.000    0.000    0.000 
#
# Total GULP energy -595361.627452 kJ/mol
# GULP energy per Si atom -12403.367239 kJ/mol
# Density = 1.776772 g / cm^3
# Si number density = 17.808257 Si / 1000 Ang^3
#
#
#
# Elastic Constant Matrix: (Units=GPa)
#
#
# Indices 1 2 3 4 5 6 
#
# 1 71.8920 23.4078 62.9190 0.0000 0.0000 0.0000
# 2 23.4078 55.8772 14.5496 0.0000 0.0000 0.0000
# 3 62.9190 14.5496 95.4839 0.0000 0.0000 0.0000
# 4 0.0000 0.0000 0.0000 26.5524 0.0000 0.0000
# 5 0.0000 0.0000 0.0000 0.0000 43.4888 0.0000
# 6 0.0000 0.0000 0.0000 0.0000 0.0000 22.2476
#
#
#
# Elastic Compliance Matrix: (Units=1/GPa)
#
#
# Indices 1 2 3 4 5 6 
#
# 1 0.037213 -0.009584 -0.023061 0.000000 0.000000 0.000000
# 2 -0.009584 0.021104 0.003100 0.000000 0.000000 0.000000
# 3 -0.023061 0.003100 0.025197 0.000000 0.000000 0.000000
# 4 0.000000 0.000000 0.000000 0.037661 0.000000 0.000000
# 5 0.000000 0.000000 0.000000 0.000000 0.022994 0.000000
# 6 0.000000 0.000000 0.000000 0.000000 0.000000 0.044949
#
#
# Mechanical properties :
#
#
# Convention : Reuss Voigt Hill
#
# Bulk Modulus (GPa) = 40.94542 47.22289 44.08415
# Shear Modulus (GPa) = 19.50451 26.61623 23.06037
#
# Velocity S-wave (km/s) = 3.31305 3.87020 3.60241
# Velocity P-wave (km/s) = 6.13819 6.82248 6.48936
#
# Compressibility (1/GPa) = 0.02442276
#
# Stress axis : x y z
#
# Youngs Moduli (GPa) = 26.87219 47.38372 39.68768
#
# Poissons Ratio (x) = 0.45414 0.91524
# Poissons Ratio (y) = 0.25755 -0.12302
# Poissons Ratio (z) = 0.61970 -0.14688
#
# Static dielectric constant tensor:
#      x y z
#    x 3.263740 0.000000 0.000000 
#    y 0.000000 3.243640 0.000000 
#    z 0.000000 0.000000 3.167810 
# 
# 
# High freq. dielectric constant tensor:
#      x y z
#    x 1.687230 0.000000 0.000000 
#    y 0.000000 1.680010 0.000000 
#    z 0.000000 0.000000 1.689930 
# 
# From -- ./inp_files/12964.got.cif
#   From: 2010.03.12/outbox.cif.g09.slc.cpg/sg53_7_cif.got.tgz:12964.got - 2010.04.16 14:36:59.
