data_PCOD8219252
_publ_section_title
;
Structure prediction by ZEFSAII (Michael W. Deem and Ramdas Pophale) SiO2 
 PCOD8219252
Probable space group: P M N A
;
_chemical_formula_sum "Si O2"
_cell_formula_units_Z 64
_cell_length_a 9.167289
_cell_length_b 19.802591
_cell_length_c 19.636969
_cell_angle_alpha 90.000000
_cell_angle_beta 90.000000
_cell_angle_gamma 90.000000
_cell_volume 3564.818270
_symmetry_space_group_name_H-M "P M N A"
_symmetry_group_IT_number 53
_symmetry_cell_setting 'orthorhombic'
loop_
_space_group_symop_operation_xyz
x,y,z
1/2-x,-y,1/2+z
x,-y,-z
1/2-x,y,1/2-z
-x,-y,-z
1/2+x,y,1/2-z
-x,y,z
1/2+x,-y,1/2+z
loop_
_atom_site_type_symbol
_atom_site_label
_atom_site_fract_x
_atom_site_fract_y
_atom_site_fract_z
Si Si1 0.827463 0.135404 0.181431
Si Si2 0.830831 0.069941 0.962709
Si Si3 0.330258 0.820957 0.950755
Si Si4 0.831428 0.020513 0.816304
Si Si5 0.662236 0.449606 0.812980
Si Si6 0.166178 0.440458 0.946707
Si Si7 0.330028 0.693063 0.039885
Si Si8 0.340684 0.290078 0.812077
O O1 0.750000 0.161731 0.250000
O O2 0.760916 0.176442 0.118584
O O3 0.788618 0.057068 0.169494
O O4 0.000000 0.148256 0.185807
O O5 0.000000 0.089968 0.973168
O O6 0.790453 0.063570 0.882950
O O7 0.727946 0.126491 0.993821
O O8 0.798132 0.000000 0.000000
O O9 0.500000 0.836145 0.936639
O O10 0.306729 0.746195 0.979960
O O11 0.750000 0.049574 0.750000
O O12 0.000000 0.025819 0.799437
O O13 0.750000 0.482440 0.750000
O O14 0.500000 0.481340 0.816473
O O15 0.748720 0.467141 0.881117
O O16 0.650644 0.369960 0.802264
O O17 0.240081 0.373808 0.978715
O O18 0.000000 0.422926 0.926770
O O19 0.173761 0.500000 0.000000
O O20 0.500000 0.673132 0.048996
O O21 0.273911 0.724033 0.112564
O O22 0.250000 0.257119 0.750000
O O23 0.500000 0.256852 0.806872
#
# Coordination Sequence:
#
# PCOD8219252 Si02
#       8
#     8   8   8   8   8   8   8   8
#     4  10  19  34  54  78 104 134 173 218 265 315
#     4  10  19  35  53  73 103 138 173 214 265 314
#     4  11  22  35  53  79 107 138 176 220 265 313
#     4   9  18  32  51  73 101 135 172 216 261 310
#     4   9  16  27  46  72 102 134 168 207 252 301
#     4  10  20  33  52  79 107 135 173 218 263 314
#     4   9  20  36  51  72 105 140 175 214 260 315
#     4   8  14  26  44  66  92 125 163 203 241 285
#
# _framework density 17.953230000000001
#
# number of rings (size 3 to 8) (size 9 to 14) (size 15 to 20)
#    0.000    2.500    1.250    2.250    0.000    6.250 
#    0.000    0.625    0.000    3.750    0.000    5.250 
#    0.000    0.000    0.000    0.000    0.000    0.000 
#
# Total GULP energy -793505.249935 kJ/mol
# GULP energy per Si atom -12398.519530 kJ/mol
# Density = 1.791237 g / cm^3
# Si number density = 17.953230 Si / 1000 Ang^3
#
#
#
# Elastic Constant Matrix: (Units=GPa)
#
#
# Indices 1 2 3 4 5 6 
#
# 1 115.9151 39.3880 68.0629 0.0000 0.0000 0.0000
# 2 39.3880 44.7112 37.8628 0.0000 0.0000 0.0000
# 3 68.0629 37.8628 130.1667 0.0000 0.0000 0.0000
# 4 0.0000 0.0000 0.0000 19.1122 0.0000 0.0000
# 5 0.0000 0.0000 0.0000 0.0000 37.3084 0.0000
# 6 0.0000 0.0000 0.0000 0.0000 0.0000 10.4643
#
#
#
# Elastic Compliance Matrix: (Units=1/GPa)
#
#
# Indices 1 2 3 4 5 6 
#
# 1 0.014506 -0.008433 -0.005132 0.000000 0.000000 0.000000
# 2 -0.008433 0.034578 -0.005649 0.000000 0.000000 0.000000
# 3 -0.005132 -0.005649 0.012009 0.000000 0.000000 0.000000
# 4 0.000000 0.000000 0.000000 0.052323 0.000000 0.000000
# 5 0.000000 0.000000 0.000000 0.000000 0.026804 0.000000
# 6 0.000000 0.000000 0.000000 0.000000 0.000000 0.095563
#
#
# Mechanical properties :
#
#
# Convention : Reuss Voigt Hill
#
# Bulk Modulus (GPa) = 44.11905 64.60225 54.36065
# Shear Modulus (GPa) = 17.74530 23.07560 20.41045
#
# Velocity S-wave (km/s) = 3.14732 3.58902 3.37541
# Velocity P-wave (km/s) = 6.15104 7.29634 6.74803
#
# Compressibility (1/GPa) = 0.02266595
#
# Stress axis : x y z
#
# Youngs Moduli (GPa) = 68.93728 28.92013 83.27086
#
# Poissons Ratio (x) = 0.24388 0.42735
# Poissons Ratio (y) = 0.58134 0.47036
# Poissons Ratio (z) = 0.35379 0.16336
#
# Static dielectric constant tensor:
#      x y z
#    x 3.516520 0.000000 0.000000 
#    y 0.000000 2.873090 0.000000 
#    z 0.000000 0.000000 3.521510 
# 
# 
# High freq. dielectric constant tensor:
#      x y z
#    x 1.704400 0.000000 0.000000 
#    y 0.000000 1.643990 0.000000 
#    z 0.000000 0.000000 1.707490 
# 
# From -- ./inp_files/31172.got.cif
#   From: 2010.03.12/outbox.cif.g09.slc.cpg/sg53_16_cif.got.tgz:31172.got - 2010.04.16 14:36:59.
