data_PCOD8219240
_publ_section_title
;
Structure prediction by ZEFSAII (Michael W. Deem and Ramdas Pophale) SiO2 
 PCOD8219240
Probable space group: P M N A
;
_chemical_formula_sum "Si O2"
_cell_formula_units_Z 64
_cell_length_a 8.922263
_cell_length_b 19.337385
_cell_length_c 20.800777
_cell_angle_alpha 90.000000
_cell_angle_beta 90.000000
_cell_angle_gamma 90.000000
_cell_volume 3588.825340
_symmetry_space_group_name_H-M "P M N A"
_symmetry_group_IT_number 53
_symmetry_cell_setting 'orthorhombic'
loop_
_space_group_symop_operation_xyz
x,y,z
1/2-x,-y,1/2+z
x,-y,-z
1/2-x,y,1/2-z
-x,-y,-z
1/2+x,y,1/2-z
-x,y,z
1/2+x,-y,1/2+z
loop_
_atom_site_type_symbol
_atom_site_label
_atom_site_fract_x
_atom_site_fract_y
_atom_site_fract_z
Si Si1 0.676232 0.175110 0.133255
Si Si2 0.322001 0.041650 0.315022
Si Si3 0.675528 0.316045 0.373602
Si Si4 0.176641 0.545139 0.061900
Si Si5 0.822996 0.041719 0.938780
Si Si6 0.328535 0.171992 0.984313
Si Si7 0.824799 0.672708 0.491430
Si Si8 0.825788 0.460338 0.184728
O O1 0.500000 0.170490 0.146714
O O2 0.762738 0.119193 0.175429
O O3 0.734690 0.250521 0.154132
O O4 0.716169 0.163082 0.058777
O O5 0.250000 0.011110 0.250000
O O6 0.500000 0.042607 0.309402
O O7 0.265086 0.993682 0.373472
O O8 0.500000 0.298759 0.377719
O O9 0.731248 0.337930 0.443839
O O10 0.709235 0.379652 0.326401
O O11 0.265993 0.617478 0.060177
O O12 0.234437 0.505330 0.125003
O O13 0.000000 0.559922 0.063572
O O14 0.220220 0.500000 0.000000
O O15 0.769516 0.120932 0.940742
O O16 0.000000 0.040460 0.941054
O O17 0.756586 0.000000 0.000000
O O18 0.500000 0.151593 0.973737
O O19 0.296866 0.250669 0.962634
O O20 0.000000 0.662789 0.507117
O O21 0.750000 0.486140 0.250000
O O22 0.000000 0.473463 0.191815
#
# Coordination Sequence:
#
# PCOD8219240 Si02
#       8
#     8   8   8   8   8   8   8   8
#     4  10  20  34  52  79 111 144 183 224 264 318
#     4  11  23  38  55  78 109 145 182 223 271 324
#     4  10  19  34  53  75 108 150 185 220 265 318
#     4  10  19  36  57  79 107 141 181 223 271 324
#     4  10  20  35  56  82 107 136 180 226 266 316
#     4   9  19  33  52  80 112 140 172 217 270 320
#     4  10  20  33  52  84 113 138 177 225 273 319
#     4  10  22  37  54  77 107 143 181 221 268 321
#
# _framework density 17.833131999999999
#
# number of rings (size 3 to 8) (size 9 to 14) (size 15 to 20)
#    0.000    2.000    2.500    2.250    0.000    6.000 
#    0.000    1.250    0.000    0.750    0.000    0.000 
#    0.000    0.000    0.000    0.000    0.000    0.000 
#
# Total GULP energy -793765.905372 kJ/mol
# GULP energy per Si atom -12402.592271 kJ/mol
# Density = 1.779254 g / cm^3
# Si number density = 17.833132 Si / 1000 Ang^3
#
#
#
# Elastic Constant Matrix: (Units=GPa)
#
#
# Indices 1 2 3 4 5 6 
#
# 1 48.4959 32.7114 34.7377 0.0000 0.0000 0.0000
# 2 32.7114 96.1270 56.3009 0.0000 0.0000 0.0000
# 3 34.7377 56.3009 116.6899 0.0000 0.0000 0.0000
# 4 0.0000 0.0000 0.0000 23.2723 0.0000 0.0000
# 5 0.0000 0.0000 0.0000 0.0000 28.3221 0.0000
# 6 0.0000 0.0000 0.0000 0.0000 0.0000 32.4326
#
#
#
# Elastic Compliance Matrix: (Units=1/GPa)
#
#
# Indices 1 2 3 4 5 6 
#
# 1 0.029015 -0.006711 -0.005399 0.000000 0.000000 0.000000
# 2 -0.006711 0.016053 -0.005747 0.000000 0.000000 0.000000
# 3 -0.005399 -0.005747 0.012950 0.000000 0.000000 0.000000
# 4 0.000000 0.000000 0.000000 0.042970 0.000000 0.000000
# 5 0.000000 0.000000 0.000000 0.000000 0.035308 0.000000
# 6 0.000000 0.000000 0.000000 0.000000 0.000000 0.030833
#
#
# Mechanical properties :
#
#
# Convention : Reuss Voigt Hill
#
# Bulk Modulus (GPa) = 44.83944 56.53475 50.68709
# Shear Modulus (GPa) = 23.77798 25.97623 24.87711
#
# Velocity S-wave (km/s) = 3.65548 3.82072 3.73901
# Velocity P-wave (km/s) = 6.55860 7.15785 6.86476
#
# Compressibility (1/GPa) = 0.02230180
#
# Stress axis : x y z
#
# Youngs Moduli (GPa) = 34.46526 62.29419 77.21924
#
# Poissons Ratio (x) = 0.41806 0.41694
# Poissons Ratio (y) = 0.23130 0.44381
# Poissons Ratio (z) = 0.18609 0.35803
#
# Static dielectric constant tensor:
#      x y z
#    x 3.230400 0.000000 0.000000 
#    y 0.000000 3.355940 0.000000 
#    z 0.000000 0.000000 3.233500 
# 
# 
# High freq. dielectric constant tensor:
#      x y z
#    x 1.693390 0.000000 0.000000 
#    y 0.000000 1.690620 0.000000 
#    z 0.000000 0.000000 1.666990 
# 
# From -- ./inp_files/31322.got.cif
#   From: 2010.03.12/outbox.cif.g09.slc.cpg/sg53_16_cif.got.tgz:31322.got - 2010.04.16 14:36:59.
