data_PCOD8219202
_publ_section_title
;
Structure prediction by ZEFSAII (Michael W. Deem and Ramdas Pophale) SiO2 
 PCOD8219202
Probable space group: P M N A
;
_chemical_formula_sum "Si O2"
_cell_formula_units_Z 52
_cell_length_a 13.357393
_cell_length_b 9.357901
_cell_length_c 20.365279
_cell_angle_alpha 90.000000
_cell_angle_beta 90.000000
_cell_angle_gamma 90.000000
_cell_volume 2545.602064
_symmetry_space_group_name_H-M "P M N A"
_symmetry_group_IT_number 53
_symmetry_cell_setting 'orthorhombic'
loop_
_space_group_symop_operation_xyz
x,y,z
1/2-x,-y,1/2+z
x,-y,-z
1/2-x,y,1/2-z
-x,-y,-z
1/2+x,y,1/2-z
-x,y,z
1/2+x,-y,1/2+z
loop_
_atom_site_type_symbol
_atom_site_label
_atom_site_fract_x
_atom_site_fract_y
_atom_site_fract_z
Si Si1 0.889871 0.678061 0.917581
Si Si2 0.109622 0.402380 0.838728
Si Si3 0.690500 0.321729 0.886755
Si Si4 0.738221 0.500000 0.500000
Si Si5 0.235685 0.812060 0.673905
Si Si6 0.112886 0.539303 0.706146
Si Si7 0.616907 0.017460 0.924820
O O1 0.902790 0.513006 0.897337
O O2 0.841212 0.782638 0.862854
O O3 0.000000 0.742274 0.934154
O O4 0.821940 0.648830 0.981814
O O5 0.196513 0.289485 0.858280
O O6 0.148619 0.502592 0.779555
O O7 0.000000 0.329338 0.824358
O O8 0.621049 0.389481 0.831149
O O9 0.635553 0.181327 0.909288
O O10 0.691191 0.445144 0.941870
O O11 0.250000 0.866653 0.750000
O O12 0.178393 0.662524 0.673935
O O13 0.175932 0.924603 0.629121
O O14 0.000000 0.595932 0.707475
O O15 0.500000 0.978673 0.919252
O O16 0.654950 0.000000 0.000000
#
# Coordination Sequence:
#
# PCOD8219202 Si02
#       7
#     8   8   8   4   8   8   8
#     4  10  19  33  56  88 121 155 197 250 309 368
#     4   9  18  33  59  91 123 148 185 251 317 365
#     4  11  21  39  60  88 117 158 206 256 308 365
#     4  10  19  34  61  86 118 156 205 250 313 368
#     4  12  22  40  64  95 125 166 213 266 317 377
#     4  11  20  35  62  95 125 154 202 260 314 374
#     4  11  27  47  62  85 130 179 216 259 318 382
#
# _framework density 20.427387
#
# number of rings (size 3 to 8) (size 9 to 14) (size 15 to 20)
#    0.000    1.385    4.615    2.538    0.000    2.462 
#    0.000    1.538    0.000    1.846    0.000    0.000 
#    0.000    0.000    0.000    0.000    0.000    0.000 
#
# Total GULP energy -644284.361985 kJ/mol
# GULP energy per Si atom -12390.083884 kJ/mol
# Density = 2.038089 g / cm^3
# Si number density = 20.427387 Si / 1000 Ang^3
#
#
#
# Elastic Constant Matrix: (Units=GPa)
#
#
# Indices 1 2 3 4 5 6 
#
# 1 49.3076 11.9172 28.5702 0.0000 0.0000 0.0000
# 2 11.9172 63.3788 29.3368 0.0000 0.0000 0.0000
# 3 28.5702 29.3368 83.2599 0.0000 0.0000 0.0000
# 4 0.0000 0.0000 0.0000 27.8634 0.0000 0.0000
# 5 0.0000 0.0000 0.0000 0.0000 23.3251 0.0000
# 6 0.0000 0.0000 0.0000 0.0000 0.0000 23.8514
#
#
#
# Elastic Compliance Matrix: (Units=1/GPa)
#
#
# Indices 1 2 3 4 5 6 
#
# 1 0.025355 -0.000885 -0.008389 0.000000 0.000000 0.000000
# 2 -0.000885 0.018884 -0.006350 0.000000 0.000000 0.000000
# 3 -0.008389 -0.006350 0.017127 0.000000 0.000000 0.000000
# 4 0.000000 0.000000 0.000000 0.035889 0.000000 0.000000
# 5 0.000000 0.000000 0.000000 0.000000 0.042872 0.000000
# 6 0.000000 0.000000 0.000000 0.000000 0.000000 0.041926
#
#
# Mechanical properties :
#
#
# Convention : Reuss Voigt Hill
#
# Bulk Modulus (GPa) = 33.20207 37.28830 35.24519
# Shear Modulus (GPa) = 22.38730 23.41611 22.90170
#
# Velocity S-wave (km/s) = 3.31410 3.38939 3.35196
# Velocity P-wave (km/s) = 5.56177 5.79750 5.68086
#
# Compressibility (1/GPa) = 0.03011860
#
# Stress axis : x y z
#
# Youngs Moduli (GPa) = 39.43931 52.95524 58.38831
#
# Poissons Ratio (x) = 0.04684 0.48981
# Poissons Ratio (y) = 0.03489 0.37078
# Poissons Ratio (z) = 0.33085 0.33628
#
# Static dielectric constant tensor:
#      x y z
#    x 4.125070 0.000000 0.000000 
#    y 0.000000 3.219370 0.000000 
#    z 0.000000 0.000000 3.986130 
# 
# 
# High freq. dielectric constant tensor:
#      x y z
#    x 1.808660 0.000000 0.000000 
#    y 0.000000 1.747250 0.000000 
#    z 0.000000 0.000000 1.817190 
# 
# From -- ./inp_files/32372.got.cif
#   From: 2010.03.12/outbox.cif.g09.slc.cpg/sg53_17_cif.got.tgz:32372.got - 2010.04.16 14:36:59.
