data_PCOD8219960
_publ_section_title
;
Structure prediction by ZEFSAII (Michael W. Deem and Ramdas Pophale) SiO2 
 PCOD8219960
Probable space group: P M N A
;
_chemical_formula_sum "Si O2"
_cell_formula_units_Z 52
_cell_length_a 9.392034
_cell_length_b 11.726841
_cell_length_c 25.671623
_cell_angle_alpha 90.000000
_cell_angle_beta 90.000000
_cell_angle_gamma 90.000000
_cell_volume 2827.444046
_symmetry_space_group_name_H-M "P M N A"
_symmetry_group_IT_number 53
_symmetry_cell_setting 'orthorhombic'
loop_
_space_group_symop_operation_xyz
x,y,z
1/2-x,-y,1/2+z
x,-y,-z
1/2-x,y,1/2-z
-x,-y,-z
1/2+x,y,1/2-z
-x,y,z
1/2+x,-y,1/2+z
loop_
_atom_site_type_symbol
_atom_site_label
_atom_site_fract_x
_atom_site_fract_y
_atom_site_fract_z
Si Si1 0.250000 0.202652 0.250000
Si Si2 0.158481 0.619400 0.669437
Si Si3 0.833122 0.879673 0.481412
Si Si4 0.331652 0.208409 0.088493
Si Si5 0.833990 0.162390 0.633668
Si Si6 0.665678 0.622146 0.200361
Si Si7 0.162335 0.044723 0.159761
O O1 0.347232 0.286524 0.215393
O O2 0.159541 0.121700 0.211895
O O3 0.225155 0.676640 0.617135
O O4 0.235590 0.501161 0.684794
O O5 0.000000 0.581957 0.655321
O O6 0.800246 0.785945 0.526578
O O7 0.773100 0.840023 0.425630
O O8 0.000000 0.895874 0.474381
O O9 0.766092 0.000000 0.500000
O O10 0.500000 0.190342 0.099603
O O11 0.248710 0.101452 0.112467
O O12 0.810243 0.290679 0.653265
O O13 0.741814 0.075812 0.669305
O O14 0.000000 0.127859 0.637788
O O15 0.750000 0.669271 0.250000
O O16 0.500000 0.611101 0.215429
O O17 0.000000 0.023807 0.142773
#
# Coordination Sequence:
#
# PCOD8219960 Si02
#       7
#     4   8   8   8   8   8   8
#     4  10  20  34  50  70 106 136 170 206 262 314
#     4   9  17  32  53  76 100 130 170 214 258 302
#     4   9  15  29  53  76 100 138 178 207 252 312
#     4   9  17  32  55  78 104 136 171 211 258 311
#     4  10  21  36  53  74 105 142 177 211 253 312
#     4  10  21  37  55  76 103 138 175 213 255 306
#     4  11  22  33  50  79 108 134 170 216 263 307
#
# _framework density 18.391169000000001
#
# number of rings (size 3 to 8) (size 9 to 14) (size 15 to 20)
#    0.000    2.308    2.308    0.923    1.077    2.462 
#    0.000    2.308    0.000    4.615    0.000    0.000 
#    0.000    5.231    0.000    0.000    0.000    0.000 
#
# Total GULP energy -644392.629121 kJ/mol
# GULP energy per Si atom -12392.165945 kJ/mol
# Density = 1.834931 g / cm^3
# Si number density = 18.391169 Si / 1000 Ang^3
#
#
#
# Elastic Constant Matrix: (Units=GPa)
#
#
# Indices 1 2 3 4 5 6 
#
# 1 59.2452 33.0088 23.8307 0.0000 0.0000 0.0000
# 2 33.0088 113.9367 67.1887 0.0000 0.0000 0.0000
# 3 23.8307 67.1887 123.7492 0.0000 0.0000 0.0000
# 4 0.0000 0.0000 0.0000 25.4546 0.0000 0.0000
# 5 0.0000 0.0000 0.0000 0.0000 16.9983 0.0000
# 6 0.0000 0.0000 0.0000 0.0000 0.0000 16.4159
#
#
#
# Elastic Compliance Matrix: (Units=1/GPa)
#
#
# Indices 1 2 3 4 5 6 
#
# 1 0.020220 -0.005239 -0.001049 0.000000 0.000000 0.000000
# 2 -0.005239 0.014268 -0.006738 0.000000 0.000000 0.000000
# 3 -0.001049 -0.006738 0.011941 0.000000 0.000000 0.000000
# 4 0.000000 0.000000 0.000000 0.039286 0.000000 0.000000
# 5 0.000000 0.000000 0.000000 0.000000 0.058829 0.000000
# 6 0.000000 0.000000 0.000000 0.000000 0.000000 0.060917
#
#
# Mechanical properties :
#
#
# Convention : Reuss Voigt Hill
#
# Bulk Modulus (GPa) = 49.07563 60.55420 54.81491
# Shear Modulus (GPa) = 20.98147 23.30062 22.14104
#
# Velocity S-wave (km/s) = 3.38130 3.56328 3.47348
# Velocity P-wave (km/s) = 6.47970 7.06587 6.77912
#
# Compressibility (1/GPa) = 0.02037671
#
# Stress axis : x y z
#
# Youngs Moduli (GPa) = 49.45569 70.08718 83.74430
#
# Poissons Ratio (x) = 0.36721 0.08787
# Poissons Ratio (y) = 0.25911 0.56425
# Poissons Ratio (z) = 0.05189 0.47223
#
# Static dielectric constant tensor:
#      x y z
#    x 3.005710 0.000000 0.000000 
#    y 0.000000 3.476500 0.000000 
#    z 0.000000 0.000000 3.534950 
# 
# 
# High freq. dielectric constant tensor:
#      x y z
#    x 1.673540 0.000000 0.000000 
#    y 0.000000 1.707550 0.000000 
#    z 0.000000 0.000000 1.714620 
# 
# From -- ./inp_files/36246.got.cif
#   From: 2010.03.12/outbox.cif.g09.slc.cpg/sg53_19_cif.got.tgz:36246.got - 2010.04.16 14:36:59.
