data_PCOD8219769
_publ_section_title
;
Structure prediction by ZEFSAII (Michael W. Deem and Ramdas Pophale) SiO2 
 PCOD8219769
Probable space group: P M N A
;
_chemical_formula_sum "Si O2"
_cell_formula_units_Z 48
_cell_length_a 9.899443
_cell_length_b 15.103429
_cell_length_c 19.823382
_cell_angle_alpha 90.000000
_cell_angle_beta 90.000000
_cell_angle_gamma 90.000000
_cell_volume 2963.903555
_symmetry_space_group_name_H-M "P M N A"
_symmetry_group_IT_number 53
_symmetry_cell_setting 'orthorhombic'
loop_
_space_group_symop_operation_xyz
x,y,z
1/2-x,-y,1/2+z
x,-y,-z
1/2-x,y,1/2-z
-x,-y,-z
1/2+x,y,1/2-z
-x,y,z
1/2+x,-y,1/2+z
loop_
_atom_site_type_symbol
_atom_site_label
_atom_site_fract_x
_atom_site_fract_y
_atom_site_fract_z
Si Si1 0.346465 0.768034 0.605646
Si Si2 0.151433 0.918153 0.590216
Si Si3 0.341733 0.408828 0.314677
Si Si4 0.151694 0.112320 0.568395
Si Si5 0.159807 0.460787 0.931215
Si Si6 0.844216 0.736391 0.050374
O O1 0.500000 0.799964 0.613524
O O2 0.253225 0.850985 0.627097
O O3 0.313231 0.687653 0.655039
O O4 0.318731 0.735908 0.529692
O O5 0.159252 0.902979 0.510905
O O6 0.000000 0.899169 0.616518
O O7 0.191618 0.020314 0.605654
O O8 0.250000 0.422587 0.250000
O O9 0.500000 0.420396 0.296922
O O10 0.291069 0.482585 0.367576
O O11 0.255759 0.189483 0.588824
O O12 0.000000 0.140589 0.589232
O O13 0.202942 0.358739 0.921503
O O14 0.000000 0.467874 0.937793
O O15 0.224625 0.500000 0.000000
O O16 0.000000 0.756053 0.067098
#
# Coordination Sequence:
#
# PCOD8219769 Si02
#       6
#     8   8   8   8   8   8
#     4   9  16  26  42  64  87 113 147 187 225 261
#     4   8  14  24  38  56  84 121 149 170 210 268
#     4  10  20  33  48  67  93 123 154 190 232 279
#     4   8  14  24  36  56  89 121 143 171 218 269
#     4   9  15  28  49  68  88 119 157 193 230 274
#     4   9  15  24  43  67  86 111 151 191 225 262
#
# _framework density 16.194859999999998
#
# number of rings (size 3 to 8) (size 9 to 14) (size 15 to 20)
#    0.000    3.167    1.667    1.000    0.000    1.333 
#    0.000    4.167    0.000    1.000    0.000    1.167 
#    0.000    2.667    0.000    0.000    0.000    0.000 
#
# Total GULP energy -594944.388874 kJ/mol
# GULP energy per Si atom -12394.674768 kJ/mol
# Density = 1.615800 g / cm^3
# Si number density = 16.194860 Si / 1000 Ang^3
#
#
#
# Elastic Constant Matrix: (Units=GPa)
#
#
# Indices 1 2 3 4 5 6 
#
# 1 80.8885 80.0052 38.8555 0.0000 0.0000 0.0000
# 2 80.0052 145.8291 54.2131 0.0000 0.0000 0.0000
# 3 38.8555 54.2131 52.5885 0.0000 0.0000 0.0000
# 4 0.0000 0.0000 0.0000 13.5456 0.0000 0.0000
# 5 0.0000 0.0000 0.0000 0.0000 18.3512 0.0000
# 6 0.0000 0.0000 0.0000 0.0000 0.0000 23.8527
#
#
#
# Elastic Compliance Matrix: (Units=1/GPa)
#
#
# Indices 1 2 3 4 5 6 
#
# 1 0.029040 -0.012899 -0.008159 0.000000 0.000000 0.000000
# 2 -0.012899 0.016848 -0.007838 0.000000 0.000000 0.000000
# 3 -0.008159 -0.007838 0.033124 0.000000 0.000000 0.000000
# 4 0.000000 0.000000 0.000000 0.073825 0.000000 0.000000
# 5 0.000000 0.000000 0.000000 0.000000 0.054492 0.000000
# 6 0.000000 0.000000 0.000000 0.000000 0.000000 0.041924
#
#
# Mechanical properties :
#
#
# Convention : Reuss Voigt Hill
#
# Bulk Modulus (GPa) = 47.12509 69.49485 58.30997
# Shear Modulus (GPa) = 15.91763 18.23206 17.07485
#
# Velocity S-wave (km/s) = 3.13850 3.35892 3.25058
# Velocity P-wave (km/s) = 6.50350 7.61892 7.08320
#
# Compressibility (1/GPa) = 0.02122012
#
# Stress axis : x y z
#
# Youngs Moduli (GPa) = 34.43536 59.35558 30.18970
#
# Poissons Ratio (x) = 0.76561 0.24632
# Poissons Ratio (y) = 0.44417 0.23662
# Poissons Ratio (z) = 0.28096 0.46521
#
# Static dielectric constant tensor:
#      x y z
#    x 3.033400 0.000000 0.000000 
#    y 0.000000 3.419840 0.000000 
#    z 0.000000 0.000000 2.611950 
# 
# 
# High freq. dielectric constant tensor:
#      x y z
#    x 1.608310 0.000000 0.000000 
#    y 0.000000 1.636620 0.000000 
#    z 0.000000 0.000000 1.566490 
# 
# From -- ./inp_files/30494.got.cif
#   From: 2010.03.12/outbox.cif.g09.slc.cpg/sg53_16_cif.got.tgz:30494.got - 2010.04.16 14:36:59.
