data_PCOD8219352
_publ_section_title
;
Structure prediction by ZEFSAII (Michael W. Deem and Ramdas Pophale) SiO2 
 PCOD8219352
Probable space group: P M N A
;
_chemical_formula_sum "Si O2"
_cell_formula_units_Z 48
_cell_length_a 8.631903
_cell_length_b 10.259626
_cell_length_c 28.076588
_cell_angle_alpha 90.000000
_cell_angle_beta 90.000000
_cell_angle_gamma 90.000000
_cell_volume 2486.465341
_symmetry_space_group_name_H-M "P M N A"
_symmetry_group_IT_number 53
_symmetry_cell_setting 'orthorhombic'
loop_
_space_group_symop_operation_xyz
x,y,z
1/2-x,-y,1/2+z
x,-y,-z
1/2-x,y,1/2-z
-x,-y,-z
1/2+x,y,1/2-z
-x,y,z
1/2+x,-y,1/2+z
loop_
_atom_site_type_symbol
_atom_site_label
_atom_site_fract_x
_atom_site_fract_y
_atom_site_fract_z
Si Si1 0.182506 0.247015 0.608884
Si Si2 0.819703 0.735000 0.603512
Si Si3 0.183985 0.997386 0.552953
Si Si4 0.182586 0.141352 0.800425
Si Si5 0.680624 0.511690 0.445031
Si Si6 0.319604 0.138857 0.200696
O O1 0.263056 0.246773 0.660522
O O2 0.221940 0.375089 0.579414
O O3 0.000000 0.239050 0.616390
O O4 0.249121 0.122575 0.580527
O O5 0.760834 0.866014 0.578221
O O6 0.715228 0.619985 0.583469
O O7 0.791710 0.752675 0.660087
O O8 0.000000 0.706887 0.592466
O O9 0.000000 0.004529 0.551939
O O10 0.253735 0.000000 0.500000
O O11 0.250000 0.187098 0.750000
O O12 0.000000 0.138692 0.797168
O O13 0.242513 0.997501 0.814281
O O14 0.733502 0.500000 0.500000
O O15 0.500000 0.544529 0.441521
O O16 0.250000 0.193612 0.250000
O O17 0.500000 0.109672 0.207477
#
# Coordination Sequence:
#
# PCOD8219352 Si02
#       6
#     8   8   8   8   8   8
#     4  11  21  38  62  87 117 154 199 247 295 350
#     4  10  20  37  59  85 115 151 199 244 290 351
#     4   9  17  31  55  85 113 142 187 245 293 341
#     4  11  21  35  58  88 123 157 194 239 295 352
#     4  11  25  42  58  83 121 160 198 243 298 358
#     4  10  19  34  57  87 120 152 193 241 291 348
#
# _framework density 19.304513
#
# number of rings (size 3 to 8) (size 9 to 14) (size 15 to 20)
#    0.000    1.667    1.667    5.000    0.000    4.000 
#    0.000    0.833    0.000    5.500    0.000    0.000 
#    0.000    0.000    0.000    0.000    0.000    0.000 
#
# Total GULP energy -595340.330646 kJ/mol
# GULP energy per Si atom -12402.923555 kJ/mol
# Density = 1.926058 g / cm^3
# Si number density = 19.304513 Si / 1000 Ang^3
#
#
#
# Elastic Constant Matrix: (Units=GPa)
#
#
# Indices 1 2 3 4 5 6 
#
# 1 94.0587 24.3960 49.4360 0.0000 0.0000 0.0000
# 2 24.3960 101.7481 55.9837 0.0000 0.0000 0.0000
# 3 49.4360 55.9837 152.2372 0.0000 0.0000 0.0000
# 4 0.0000 0.0000 0.0000 32.8995 0.0000 0.0000
# 5 0.0000 0.0000 0.0000 0.0000 27.1125 0.0000
# 6 0.0000 0.0000 0.0000 0.0000 0.0000 26.4097
#
#
#
# Elastic Compliance Matrix: (Units=1/GPa)
#
#
# Indices 1 2 3 4 5 6 
#
# 1 0.012898 -0.000988 -0.003825 0.000000 0.000000 0.000000
# 2 -0.000988 0.012397 -0.004238 0.000000 0.000000 0.000000
# 3 -0.003825 -0.004238 0.009369 0.000000 0.000000 0.000000
# 4 0.000000 0.000000 0.000000 0.030396 0.000000 0.000000
# 5 0.000000 0.000000 0.000000 0.000000 0.036883 0.000000
# 6 0.000000 0.000000 0.000000 0.000000 0.000000 0.037865
#
#
# Mechanical properties :
#
#
# Convention : Reuss Voigt Hill
#
# Bulk Modulus (GPa) = 60.37801 67.51950 63.94875
# Shear Modulus (GPa) = 30.59387 31.83291 31.21339
#
# Velocity S-wave (km/s) = 3.98528 4.06518 4.02543
# Velocity P-wave (km/s) = 7.24715 7.55554 7.40295
#
# Compressibility (1/GPa) = 0.01656232
#
# Stress axis : x y z
#
# Youngs Moduli (GPa) = 77.52923 80.66529 106.73116
#
# Poissons Ratio (x) = 0.07969 0.40827
# Poissons Ratio (y) = 0.07659 0.45233
# Poissons Ratio (z) = 0.29656 0.34186
#
# Static dielectric constant tensor:
#      x y z
#    x 3.358010 0.000000 0.000000 
#    y 0.000000 3.394620 0.000000 
#    z 0.000000 0.000000 3.864810 
# 
# 
# High freq. dielectric constant tensor:
#      x y z
#    x 1.743360 0.000000 0.000000 
#    y 0.000000 1.732320 0.000000 
#    z 0.000000 0.000000 1.770930 
# 
# From -- ./inp_files/37759.got.cif
#   From: 2010.03.12/outbox.cif.g09.slc.cpg/sg53_19_cif.got.tgz:37759.got - 2010.04.16 14:36:59.
