data_PCOD8219898
_publ_section_title
;
Structure prediction by ZEFSAII (Michael W. Deem and Ramdas Pophale) SiO2 
 PCOD8219898
Probable space group: P M N A
;
_chemical_formula_sum "Si O2"
_cell_formula_units_Z 56
_cell_length_a 9.056762
_cell_length_b 19.917915
_cell_length_c 15.596342
_cell_angle_alpha 90.000000
_cell_angle_beta 90.000000
_cell_angle_gamma 90.000000
_cell_volume 2813.452452
_symmetry_space_group_name_H-M "P M N A"
_symmetry_group_IT_number 53
_symmetry_cell_setting 'orthorhombic'
loop_
_space_group_symop_operation_xyz
x,y,z
1/2-x,-y,1/2+z
x,-y,-z
1/2-x,y,1/2-z
-x,-y,-z
1/2+x,y,1/2-z
-x,y,z
1/2+x,-y,1/2+z
loop_
_atom_site_type_symbol
_atom_site_label
_atom_site_fract_x
_atom_site_fract_y
_atom_site_fract_z
Si Si1 0.668273 0.920684 0.999832
Si Si2 0.161427 0.746933 0.366646
Si Si3 0.825940 0.423846 0.998158
Si Si4 0.170669 0.300395 0.442252
Si Si5 0.327794 0.127555 0.667601
Si Si6 0.325762 0.170205 0.159366
Si Si7 0.335697 0.398353 0.828176
O O1 0.500000 0.897948 0.016313
O O2 0.769574 0.897897 0.077378
O O3 0.722765 0.886197 0.910816
O O4 0.683121 0.000000 0.000000
O O5 0.201233 0.731447 0.465283
O O6 0.289559 0.793385 0.327910
O O7 0.146838 0.680399 0.309321
O O8 0.000000 0.783571 0.363800
O O9 0.757324 0.371864 0.068200
O O10 0.000000 0.421398 0.009303
O O11 0.765738 0.500000 0.000000
O O12 0.774701 0.399927 0.906487
O O13 0.222035 0.244943 0.372493
O O14 0.000000 0.318743 0.430934
O O15 0.250000 0.091801 0.750000
O O16 0.500000 0.114322 0.674416
O O17 0.250000 0.153877 0.250000
O O18 0.500000 0.167112 0.173328
O O19 0.250000 0.434656 0.750000
O O20 0.500000 0.430258 0.842901
#
# Coordination Sequence:
#
# PCOD8219898 Si02
#       7
#     8   8   8   8   8   8   8
#     4  10  22  43  66  86 118 161 200 249 311 365
#     4   9  17  33  55  80 112 145 184 228 281 342
#     4  10  21  36  55  81 114 151 193 239 292 357
#     4   9  18  35  59  83 113 152 195 246 296 352
#     4  12  24  36  56  85 119 155 193 238 289 351
#     4  10  21  39  63  92 122 156 204 257 309 367
#     4  10  20  33  52  78 109 144 182 228 279 340
#
# _framework density 19.904368999999999
#
# number of rings (size 3 to 8) (size 9 to 14) (size 15 to 20)
#    0.000    2.000    1.429    3.429    0.000    7.143 
#    0.000    2.143    0.000    1.714    0.000    0.000 
#    0.000    0.000    0.000    0.000    0.000    0.000 
#
# Total GULP energy -693874.902643 kJ/mol
# GULP energy per Si atom -12390.623261 kJ/mol
# Density = 1.985907 g / cm^3
# Si number density = 19.904369 Si / 1000 Ang^3
#
#
#
# Elastic Constant Matrix: (Units=GPa)
#
#
# Indices 1 2 3 4 5 6 
#
# 1 91.1685 42.3233 52.2565 0.0000 0.0000 0.0000
# 2 42.3233 101.7501 39.6802 0.0000 0.0000 0.0000
# 3 52.2565 39.6802 116.9546 0.0000 0.0000 0.0000
# 4 0.0000 0.0000 0.0000 7.6069 0.0000 0.0000
# 5 0.0000 0.0000 0.0000 0.0000 28.5512 0.0000
# 6 0.0000 0.0000 0.0000 0.0000 0.0000 19.7336
#
#
#
# Elastic Compliance Matrix: (Units=1/GPa)
#
#
# Indices 1 2 3 4 5 6 
#
# 1 0.016402 -0.004569 -0.005778 0.000000 0.000000 0.000000
# 2 -0.004569 0.012599 -0.002233 0.000000 0.000000 0.000000
# 3 -0.005778 -0.002233 0.011890 0.000000 0.000000 0.000000
# 4 0.000000 0.000000 0.000000 0.131460 0.000000 0.000000
# 5 0.000000 0.000000 0.000000 0.000000 0.035025 0.000000
# 6 0.000000 0.000000 0.000000 0.000000 0.000000 0.050675
#
#
# Mechanical properties :
#
#
# Convention : Reuss Voigt Hill
#
# Bulk Modulus (GPa) = 63.57305 64.26592 63.91948
# Shear Modulus (GPa) = 17.33371 22.88589 20.10980
#
# Velocity S-wave (km/s) = 2.95422 3.39454 3.18200
# Velocity P-wave (km/s) = 6.60644 6.90806 6.75893
#
# Compressibility (1/GPa) = 0.01572994
#
# Stress axis : x y z
#
# Youngs Moduli (GPa) = 60.96880 79.36891 84.10540
#
# Poissons Ratio (x) = 0.36263 0.48599
# Poissons Ratio (y) = 0.27856 0.18783
# Poissons Ratio (z) = 0.35230 0.17725
#
# Static dielectric constant tensor:
#      x y z
#    x 3.654650 0.000000 0.000000 
#    y 0.000000 3.994320 0.000000 
#    z 0.000000 0.000000 3.707770 
# 
# 
# High freq. dielectric constant tensor:
#      x y z
#    x 1.772040 0.000000 0.000000 
#    y 0.000000 1.763900 0.000000 
#    z 0.000000 0.000000 1.770030 
# 
# From -- ./inp_files/20613.got.cif
#   From: 2010.03.12/outbox.cif.g09.slc.cpg/sg53_11_cif.got.tgz:20613.got - 2010.04.16 14:36:59.
