data_PCOD8219070
_publ_section_title
;
Structure prediction by ZEFSAII (Michael W. Deem and Ramdas Pophale) SiO2 
 PCOD8219070
Probable space group: P M N A
;
_chemical_formula_sum "Si O2"
_cell_formula_units_Z 40
_cell_length_a 8.679265
_cell_length_b 25.919859
_cell_length_c 9.881984
_cell_angle_alpha 90.000000
_cell_angle_beta 90.000000
_cell_angle_gamma 90.000000
_cell_volume 2223.103742
_symmetry_space_group_name_H-M "P M N A"
_symmetry_group_IT_number 53
_symmetry_cell_setting 'orthorhombic'
loop_
_space_group_symop_operation_xyz
x,y,z
1/2-x,-y,1/2+z
x,-y,-z
1/2-x,y,1/2-z
-x,-y,-z
1/2+x,y,1/2-z
-x,y,z
1/2+x,-y,1/2+z
loop_
_atom_site_type_symbol
_atom_site_label
_atom_site_fract_x
_atom_site_fract_y
_atom_site_fract_z
Si Si1 0.818370 0.543336 0.392713
Si Si2 0.817439 0.042882 0.398843
Si Si3 0.317742 0.347300 0.605115
Si Si4 0.821373 0.845618 0.605483
Si Si5 0.182203 0.266206 0.400291
O O1 0.773434 0.500000 0.500000
O O2 0.750000 0.525237 0.250000
O O3 0.743918 0.596931 0.440300
O O4 0.000000 0.551124 0.379106
O O5 0.750000 0.034390 0.250000
O O6 0.768583 0.099664 0.460745
O O7 0.000000 0.036981 0.388351
O O8 0.748221 0.000000 0.500000
O O9 0.250000 0.331003 0.750000
O O10 0.500000 0.349043 0.616273
O O11 0.267155 0.306744 0.493636
O O12 0.750000 0.841437 0.750000
O O13 0.782535 0.790930 0.532986
O O14 0.000000 0.849478 0.630076
O O15 0.250000 0.271032 0.250000
O O16 0.000000 0.277241 0.395992
#
# Coordination Sequence:
#
# PCOD8219070 Si02
#       5
#     8   8   8   8   8
#     4  10  21  37  57  80 106 136 171 209 250 298
#     4   9  17  30  48  70  97 128 163 203 248 297
#     4  11  22  37  56  77 105 139 172 208 255 305
#     4   8  15  28  47  69  95 128 163 203 248 294
#     4  10  19  33  53  77 103 131 170 214 255 301
#
# _framework density 17.992861000000001
#
# number of rings (size 3 to 8) (size 9 to 14) (size 15 to 20)
#    0.000    2.400    0.000    4.200    0.000    3.600 
#    0.000    3.000    0.000    2.400    0.000    0.000 
#    0.000    0.000    0.000    0.000    0.000    0.000 
#
# Total GULP energy -495540.287816 kJ/mol
# GULP energy per Si atom -12388.507195 kJ/mol
# Density = 1.795191 g / cm^3
# Si number density = 17.992861 Si / 1000 Ang^3
#
#
#
# Elastic Constant Matrix: (Units=GPa)
#
#
# Indices 1 2 3 4 5 6 
#
# 1 76.9000 58.7418 37.9784 0.0000 0.0000 0.0000
# 2 58.7418 168.2961 92.1769 0.0000 0.0000 0.0000
# 3 37.9784 92.1769 89.6545 0.0000 0.0000 0.0000
# 4 0.0000 0.0000 0.0000 39.2485 0.0000 0.0000
# 5 0.0000 0.0000 0.0000 0.0000 28.1732 0.0000
# 6 0.0000 0.0000 0.0000 0.0000 0.0000 0.6290
#
#
#
# Elastic Compliance Matrix: (Units=1/GPa)
#
#
# Indices 1 2 3 4 5 6 
#
# 1 0.018006 -0.004823 -0.002669 0.000000 0.000000 0.000000
# 2 -0.004823 0.014893 -0.013268 0.000000 0.000000 0.000000
# 3 -0.002669 -0.013268 0.025926 0.000000 0.000000 0.000000
# 4 0.000000 0.000000 0.000000 0.025479 0.000000 0.000000
# 5 0.000000 0.000000 0.000000 0.000000 0.035495 0.000000
# 6 0.000000 0.000000 0.000000 0.000000 0.000000 1.589700
#
#
# Mechanical properties :
#
#
# Convention : Reuss Voigt Hill
#
# Bulk Modulus (GPa) = 57.78912 79.18276 68.48594
# Shear Modulus (GPa) = 2.84610 23.34039 13.09325
#
# Velocity S-wave (km/s) = 1.25906 3.60558 2.70050
# Velocity P-wave (km/s) = 5.85672 7.83818 6.91875
#
# Compressibility (1/GPa) = 0.01730430
#
# Stress axis : x y z
#
# Youngs Moduli (GPa) = 55.53651 67.14735 38.57102
#
# Poissons Ratio (x) = 0.32386 0.10293
# Poissons Ratio (y) = 0.26786 0.51178
# Poissons Ratio (z) = 0.14821 0.89094
#
# Static dielectric constant tensor:
#      x y z
#    x 3.484220 0.000000 0.000000 
#    y 0.000000 4.041940 0.000000 
#    z 0.000000 0.000000 3.013100 
# 
# 
# High freq. dielectric constant tensor:
#      x y z
#    x 1.706960 0.000000 0.000000 
#    y 0.000000 1.721460 0.000000 
#    z 0.000000 0.000000 1.664980 
# 
# From -- ./inp_files/6431.got.cif
#   From: 2010.03.12/outbox.cif.g09.slc.cpg/sg53_4_cif.got.tgz:6431.got - 2010.04.16 14:36:59.
