data_PCOD8219483
_publ_section_title
;
Structure prediction by ZEFSAII (Michael W. Deem and Ramdas Pophale) SiO2 
 PCOD8219483
Probable space group: P M N A
;
_chemical_formula_sum "Si O2"
_cell_formula_units_Z 56
_cell_length_a 8.955219
_cell_length_b 16.094458
_cell_length_c 19.579341
_cell_angle_alpha 90.000000
_cell_angle_beta 90.000000
_cell_angle_gamma 90.000000
_cell_volume 2821.958594
_symmetry_space_group_name_H-M "P M N A"
_symmetry_group_IT_number 53
_symmetry_cell_setting 'orthorhombic'
loop_
_space_group_symop_operation_xyz
x,y,z
1/2-x,-y,1/2+z
x,-y,-z
1/2-x,y,1/2-z
-x,-y,-z
1/2+x,y,1/2-z
-x,y,z
1/2+x,-y,1/2+z
loop_
_atom_site_type_symbol
_atom_site_label
_atom_site_fract_x
_atom_site_fract_y
_atom_site_fract_z
Si Si1 0.828239 0.316406 0.566198
Si Si2 0.828275 0.065380 0.057340
Si Si3 0.321243 0.355651 0.174897
Si Si4 0.671058 0.500039 0.924271
Si Si5 0.674285 0.993601 0.182210
Si Si6 0.673406 0.255470 0.436892
Si Si7 0.323870 0.805188 0.181204
O O1 0.812927 0.405868 0.603106
O O2 0.735653 0.315174 0.496115
O O3 0.762834 0.248681 0.618323
O O4 0.000000 0.297181 0.547614
O O5 0.802170 0.160992 0.036690
O O6 0.000000 0.048263 0.076723
O O7 0.723713 0.052326 0.121691
O O8 0.775604 0.000000 0.000000
O O9 0.250000 0.358463 0.250000
O O10 0.500000 0.352488 0.182047
O O11 0.261596 0.436100 0.131534
O O12 0.261855 0.274694 0.133584
O O13 0.500000 0.527833 0.933846
O O14 0.746889 0.500000 0.000000
O O15 0.750000 0.028761 0.250000
O O16 0.500000 0.998650 0.192738
O O17 0.727168 0.899493 0.167450
O O18 0.500000 0.274075 0.424220
O O19 0.250000 0.770753 0.250000
O O20 0.500000 0.796016 0.188792
#
# Coordination Sequence:
#
# PCOD8219483 Si02
#       7
#     8   8   8   8   8   8   8
#     4  10  19  35  59  84 113 150 191 230 278 337
#     4  10  22  39  58  82 114 148 186 236 291 342
#     4  11  23  41  63  87 119 155 195 240 287 340
#     4   9  17  34  60  85 110 149 190 226 277 336
#     4  10  20  35  55  79 108 145 187 229 279 337
#     4  11  23  38  58  86 115 148 190 235 287 343
#     4   9  19  33  52  80 113 147 184 230 281 335
#
# _framework density 19.844373999999998
#
# number of rings (size 3 to 8) (size 9 to 14) (size 15 to 20)
#    0.000    2.000    1.429    2.143    0.000    3.714 
#    0.000    2.143    0.000    0.000    0.000    0.000 
#    0.000    0.000    0.000    0.000    0.000    0.000 
#
# Total GULP energy -694349.754347 kJ/mol
# GULP energy per Si atom -12399.102756 kJ/mol
# Density = 1.979921 g / cm^3
# Si number density = 19.844374 Si / 1000 Ang^3
#
#
#
# Elastic Constant Matrix: (Units=GPa)
#
#
# Indices 1 2 3 4 5 6 
#
# 1 61.8674 29.5272 40.4118 0.0000 0.0000 0.0000
# 2 29.5272 82.0017 40.9665 0.0000 0.0000 0.0000
# 3 40.4118 40.9665 123.6022 0.0000 0.0000 0.0000
# 4 0.0000 0.0000 0.0000 26.2202 0.0000 0.0000
# 5 0.0000 0.0000 0.0000 0.0000 36.8539 0.0000
# 6 0.0000 0.0000 0.0000 0.0000 0.0000 19.3048
#
#
#
# Elastic Compliance Matrix: (Units=1/GPa)
#
#
# Indices 1 2 3 4 5 6 
#
# 1 0.022296 -0.005257 -0.005547 0.000000 0.000000 0.000000
# 2 -0.005257 0.015854 -0.003536 0.000000 0.000000 0.000000
# 3 -0.005547 -0.003536 0.011076 0.000000 0.000000 0.000000
# 4 0.000000 0.000000 0.000000 0.038139 0.000000 0.000000
# 5 0.000000 0.000000 0.000000 0.000000 0.027134 0.000000
# 6 0.000000 0.000000 0.000000 0.000000 0.000000 0.051801
#
#
# Mechanical properties :
#
#
# Convention : Reuss Voigt Hill
#
# Bulk Modulus (GPa) = 48.67147 54.36470 51.51808
# Shear Modulus (GPa) = 24.77342 26.91350 25.84346
#
# Velocity S-wave (km/s) = 3.53708 3.68670 3.61266
# Velocity P-wave (km/s) = 6.42348 6.75110 6.58932
#
# Compressibility (1/GPa) = 0.02054592
#
# Stress axis : x y z
#
# Youngs Moduli (GPa) = 44.85087 63.07436 90.28430
#
# Poissons Ratio (x) = 0.33158 0.50084
# Poissons Ratio (y) = 0.23578 0.31924
# Poissons Ratio (z) = 0.24880 0.22303
#
# Static dielectric constant tensor:
#      x y z
#    x 3.410280 0.000000 0.000000 
#    y 0.000000 3.714700 0.000000 
#    z 0.000000 0.000000 3.686930 
# 
# 
# High freq. dielectric constant tensor:
#      x y z
#    x 1.756090 0.000000 0.000000 
#    y 0.000000 1.778570 0.000000 
#    z 0.000000 0.000000 1.773170 
# 
# From -- ./inp_files/30769.got.cif
#   From: 2010.03.12/outbox.cif.g09.slc.cpg/sg53_16_cif.got.tgz:30769.got - 2010.04.16 14:36:59.
