data_PCOD8219066
_publ_section_title
;
Structure prediction by ZEFSAII (Michael W. Deem and Ramdas Pophale) SiO2 
 PCOD8219066
Probable space group: P M N A
;
_chemical_formula_sum "Si O2"
_cell_formula_units_Z 48
_cell_length_a 8.973504
_cell_length_b 17.912500
_cell_length_c 15.309701
_cell_angle_alpha 90.000000
_cell_angle_beta 90.000000
_cell_angle_gamma 90.000000
_cell_volume 2460.849041
_symmetry_space_group_name_H-M "P M N A"
_symmetry_group_IT_number 53
_symmetry_cell_setting 'orthorhombic'
loop_
_space_group_symop_operation_xyz
x,y,z
1/2-x,-y,1/2+z
x,-y,-z
1/2-x,y,1/2-z
-x,-y,-z
1/2+x,y,1/2-z
-x,y,z
1/2+x,-y,1/2+z
loop_
_atom_site_type_symbol
_atom_site_label
_atom_site_fract_x
_atom_site_fract_y
_atom_site_fract_z
Si Si1 0.166819 0.536169 0.094676
Si Si2 0.826889 0.893361 0.839631
Si Si3 0.671359 0.332924 0.981861
Si Si4 0.673544 0.161628 0.989664
Si Si5 0.827188 0.068301 0.839533
Si Si6 0.325078 0.399575 0.164579
O O1 0.266352 0.484584 0.156951
O O2 0.000000 0.541729 0.132874
O O3 0.167021 0.500000 0.000000
O O4 0.235118 0.619255 0.088103
O O5 0.750000 0.868081 0.750000
O O6 0.747996 0.848734 0.916596
O O7 0.000000 0.871942 0.836072
O O8 0.804140 0.980965 0.855678
O O9 0.500000 0.356583 0.971695
O O10 0.697409 0.246674 0.960130
O O11 0.722711 0.350290 0.081094
O O12 0.500000 0.140850 0.996119
O O13 0.751622 0.109148 0.919957
O O14 0.750000 0.094231 0.750000
O O15 0.000000 0.090089 0.834759
O O16 0.250000 0.362471 0.250000
O O17 0.500000 0.401014 0.178133
#
# Coordination Sequence:
#
# PCOD8219066 Si02
#       6
#     8   8   8   8   8   8
#     4   9  17  31  52  75  97 126 166 207 248 298
#     4  10  21  37  57  82 112 146 187 232 278 330
#     4   9  20  36  52  74 106 142 175 212 262 317
#     4  11  22  36  56  83 115 150 186 225 276 335
#     4  10  21  38  59  82 108 142 186 235 283 331
#     4  10  19  33  53  76 104 136 172 215 261 311
#
# _framework density 19.505462000000001
#
# number of rings (size 3 to 8) (size 9 to 14) (size 15 to 20)
#    0.000    2.167    0.000    3.000    0.000    8.667 
#    0.000    2.500    0.000    4.000    0.000    0.000 
#    0.000    0.000    0.000    0.000    0.000    0.000 
#
# Total GULP energy -595338.248170 kJ/mol
# GULP energy per Si atom -12402.880170 kJ/mol
# Density = 1.946107 g / cm^3
# Si number density = 19.505462 Si / 1000 Ang^3
#
#
#
# Elastic Constant Matrix: (Units=GPa)
#
#
# Indices 1 2 3 4 5 6 
#
# 1 108.3572 24.7930 19.9421 0.0000 0.0000 0.0000
# 2 24.7930 39.8156 0.7847 0.0000 0.0000 0.0000
# 3 19.9421 0.7847 47.6878 0.0000 0.0000 0.0000
# 4 0.0000 0.0000 0.0000 13.8048 0.0000 0.0000
# 5 0.0000 0.0000 0.0000 0.0000 39.0768 0.0000
# 6 0.0000 0.0000 0.0000 0.0000 0.0000 23.8852
#
#
#
# Elastic Compliance Matrix: (Units=1/GPa)
#
#
# Indices 1 2 3 4 5 6 
#
# 1 0.011767 -0.007233 -0.004802 0.000000 0.000000 0.000000
# 2 -0.007233 0.029570 0.002538 0.000000 0.000000 0.000000
# 3 -0.004802 0.002538 0.022936 0.000000 0.000000 0.000000
# 4 0.000000 0.000000 0.000000 0.072439 0.000000 0.000000
# 5 0.000000 0.000000 0.000000 0.000000 0.025591 0.000000
# 6 0.000000 0.000000 0.000000 0.000000 0.000000 0.041867
#
#
# Mechanical properties :
#
#
# Convention : Reuss Voigt Hill
#
# Bulk Modulus (GPa) = 22.08499 31.87782 26.98141
# Shear Modulus (GPa) = 20.98584 25.37608 23.18096
#
# Velocity S-wave (km/s) = 3.28364 3.61081 3.45111
# Velocity P-wave (km/s) = 5.07183 5.81055 5.45371
#
# Compressibility (1/GPa) = 0.04527962
#
# Stress axis : x y z
#
# Youngs Moduli (GPa) = 84.98051 33.81853 43.59960
#
# Poissons Ratio (x) = 0.24460 0.20936
# Poissons Ratio (y) = 0.61465 -0.11066
# Poissons Ratio (z) = 0.40807 -0.08583
#
# Static dielectric constant tensor:
#      x y z
#    x 3.723970 0.000000 0.000000 
#    y 0.000000 3.426150 0.000000 
#    z 0.000000 0.000000 3.495050 
# 
# 
# High freq. dielectric constant tensor:
#      x y z
#    x 1.773760 0.000000 0.000000 
#    y 0.000000 1.747500 0.000000 
#    z 0.000000 0.000000 1.753740 
# 
# From -- ./inp_files/20136.got.cif
#   From: 2010.03.12/outbox.cif.g09.slc.cpg/sg53_11_cif.got.tgz:20136.got - 2010.04.16 14:36:59.
