data_PCOD8219919
_publ_section_title
;
Structure prediction by ZEFSAII (Michael W. Deem and Ramdas Pophale) SiO2 
 PCOD8219919
Probable space group: P M N A
;
_chemical_formula_sum "Si O2"
_cell_formula_units_Z 40
_cell_length_a 24.707818
_cell_length_b 5.005136
_cell_length_c 16.635661
_cell_angle_alpha 90.000000
_cell_angle_beta 90.000000
_cell_angle_gamma 90.000000
_cell_volume 2057.265476
_symmetry_space_group_name_H-M "P M N A"
_symmetry_group_IT_number 53
_symmetry_cell_setting 'orthorhombic'
loop_
_space_group_symop_operation_xyz
x,y,z
1/2-x,-y,1/2+z
x,-y,-z
1/2-x,y,1/2-z
-x,-y,-z
1/2+x,y,1/2-z
-x,y,z
1/2+x,-y,1/2+z
loop_
_atom_site_type_symbol
_atom_site_label
_atom_site_fract_x
_atom_site_fract_y
_atom_site_fract_z
Si Si1 0.186918 0.907476 0.241101
Si Si2 0.062817 0.601142 0.865774
Si Si3 0.939637 0.757014 0.553940
Si Si4 0.376129 0.891636 0.415864
Si Si5 0.874542 0.413925 0.291867
O O1 0.250000 0.860795 0.250000
O O2 0.172626 0.862708 0.147356
O O3 0.154839 0.701022 0.299181
O O4 0.171278 0.207406 0.264002
O O5 0.095024 0.395981 0.923690
O O6 0.077461 0.550964 0.772614
O O7 0.000000 0.553949 0.879307
O O8 0.077875 0.903665 0.886624
O O9 0.944007 0.500000 0.500000
O O10 0.899118 0.692564 0.625743
O O11 0.000000 0.832499 0.586388
O O12 0.916469 0.000000 0.500000
O O13 0.351915 0.000000 0.500000
#
# Coordination Sequence:
#
# PCOD8219919 Si02
#       5
#     8   8   8   8   8
#     4  10  21  38  58  77 101 141 185 226 273 317
#     4  10  20  33  53  79 107 142 174 205 255 319
#     4  10  20  34  54  81 114 147 176 217 275 329
#     4  10  21  35  52  77 108 137 172 218 263 311
#     4  10  20  36  56  78 107 139 181 225 262 323
#
# _framework density 19.443287000000002
#
# number of rings (size 3 to 8) (size 9 to 14) (size 15 to 20)
#    0.000    2.000    0.000    3.600    0.000    2.400 
#    0.000    9.000    0.000    2.400    0.000    0.000 
#    0.000    0.000    0.000    0.000    0.000    0.000 
#
# Total GULP energy -496017.316949 kJ/mol
# GULP energy per Si atom -12400.432924 kJ/mol
# Density = 1.939903 g / cm^3
# Si number density = 19.443287 Si / 1000 Ang^3
#
#
#
# Elastic Constant Matrix: (Units=GPa)
#
#
# Indices 1 2 3 4 5 6 
#
# 1 106.2520 19.4760 51.5966 0.0000 0.0000 0.0000
# 2 19.4760 95.5257 22.2073 0.0000 0.0000 0.0000
# 3 51.5966 22.2073 103.4381 0.0000 0.0000 0.0000
# 4 0.0000 0.0000 0.0000 37.3258 0.0000 0.0000
# 5 0.0000 0.0000 0.0000 0.0000 15.4885 0.0000
# 6 0.0000 0.0000 0.0000 0.0000 0.0000 19.3381
#
#
#
# Elastic Compliance Matrix: (Units=1/GPa)
#
#
# Indices 1 2 3 4 5 6 
#
# 1 0.012541 -0.001161 -0.006007 0.000000 0.000000 0.000000
# 2 -0.001161 0.011126 -0.001810 0.000000 0.000000 0.000000
# 3 -0.006007 -0.001810 0.013052 0.000000 0.000000 0.000000
# 4 0.000000 0.000000 0.000000 0.026791 0.000000 0.000000
# 5 0.000000 0.000000 0.000000 0.000000 0.064564 0.000000
# 6 0.000000 0.000000 0.000000 0.000000 0.000000 0.051711
#
#
# Mechanical properties :
#
#
# Convention : Reuss Voigt Hill
#
# Bulk Modulus (GPa) = 53.28912 54.64172 53.96542
# Shear Modulus (GPa) = 24.51047 28.55954 26.53500
#
# Velocity S-wave (km/s) = 3.55436 3.83673 3.69824
# Velocity P-wave (km/s) = 6.65670 6.91314 6.78613
#
# Compressibility (1/GPa) = 0.01876556
#
# Stress axis : x y z
#
# Youngs Moduli (GPa) = 79.73765 89.88194 76.61474
#
# Poissons Ratio (x) = 0.10431 0.46019
# Poissons Ratio (y) = 0.09254 0.13865
# Poissons Ratio (z) = 0.47895 0.16266
#
# Static dielectric constant tensor:
#      x y z
#    x 3.252030 0.000000 0.000000 
#    y 0.000000 3.769500 0.000000 
#    z 0.000000 0.000000 3.465720 
# 
# 
# High freq. dielectric constant tensor:
#      x y z
#    x 1.732040 0.000000 0.000000 
#    y 0.000000 1.781500 0.000000 
#    z 0.000000 0.000000 1.750820 
# 
# From -- ./inp_files/24548.got.cif
#   From: 2010.03.12/outbox.cif.g09.slc.cpg/sg53_13_cif.got.tgz:24548.got - 2010.04.16 14:36:59.
