data_PCOD8219664
_publ_section_title
;
Structure prediction by ZEFSAII (Michael W. Deem and Ramdas Pophale) SiO2 
 PCOD8219664
Probable space group: P M N A
;
_chemical_formula_sum "Si O2"
_cell_formula_units_Z 64
_cell_length_a 8.849881
_cell_length_b 23.731440
_cell_length_c 15.474411
_cell_angle_alpha 90.000000
_cell_angle_beta 90.000000
_cell_angle_gamma 90.000000
_cell_volume 3249.942297
_symmetry_space_group_name_H-M "P M N A"
_symmetry_group_IT_number 53
_symmetry_cell_setting 'orthorhombic'
loop_
_space_group_symop_operation_xyz
x,y,z
1/2-x,-y,1/2+z
x,-y,-z
1/2-x,y,1/2-z
-x,-y,-z
1/2+x,y,1/2-z
-x,y,z
1/2+x,-y,1/2+z
loop_
_atom_site_type_symbol
_atom_site_label
_atom_site_fract_x
_atom_site_fract_y
_atom_site_fract_z
Si Si1 0.822258 0.618302 0.162465
Si Si2 0.824390 0.005565 0.399598
Si Si3 0.822414 0.305478 0.999341
Si Si4 0.676749 0.117275 0.838343
Si Si5 0.322198 0.380570 0.337688
Si Si6 0.821378 0.882013 0.839875
Si Si7 0.178696 0.814617 0.504553
Si Si8 0.319905 0.500518 0.596990
O O1 0.750000 0.642452 0.250000
O O2 0.760037 0.555099 0.145680
O O3 0.000000 0.617417 0.173537
O O4 0.775534 0.658066 0.083525
O O5 0.722679 0.053477 0.357452
O O6 0.000000 0.021293 0.386772
O O7 0.785729 0.000000 0.500000
O O8 0.780127 0.947724 0.352957
O O9 0.775850 0.340052 0.084184
O O10 0.721898 0.250129 0.997058
O O11 0.000000 0.290699 0.999107
O O12 0.750000 0.139526 0.750000
O O13 0.500000 0.125542 0.829783
O O14 0.737480 0.153891 0.918502
O O15 0.250000 0.356685 0.250000
O O16 0.500000 0.381868 0.326637
O O17 0.259287 0.443587 0.355338
O O18 0.750000 0.861458 0.750000
O O19 0.760785 0.841400 0.913884
O O20 0.000000 0.876670 0.834216
O O21 0.000000 0.822374 0.515993
O O22 0.255146 0.500000 0.500000
O O23 0.500000 0.500769 0.593112
#
# Coordination Sequence:
#
# PCOD8219664 Si02
#       8
#     8   8   8   8   8   8   8   8
#     4  10  20  35  58  85 116 151 193 239 290 350
#     4  10  19  38  64  91 127 162 194 241 297 353
#     4  10  22  40  59  82 112 153 198 242 289 351
#     4  10  22  39  62  89 120 157 195 240 295 349
#     4  10  20  35  58  85 115 148 189 234 288 347
#     4  12  25  41  64  94 125 159 200 245 297 358
#     4  11  24  44  64  85 116 158 202 251 303 349
#     4   9  15  30  57  84 111 151 191 230 282 350
#
# _framework density 19.692657000000001
#
# number of rings (size 3 to 8) (size 9 to 14) (size 15 to 20)
#    0.000    1.750    2.500    2.250    0.000    4.750 
#    0.000    3.750    0.000    0.750    0.000    0.000 
#    0.000    0.000    0.000    0.000    0.000    0.000 
#
# Total GULP energy -793817.989321 kJ/mol
# GULP energy per Si atom -12403.406083 kJ/mol
# Density = 1.964784 g / cm^3
# Si number density = 19.692657 Si / 1000 Ang^3
#
#
#
# Elastic Constant Matrix: (Units=GPa)
#
#
# Indices 1 2 3 4 5 6 
#
# 1 60.9888 37.3881 49.1668 0.0000 0.0000 0.0000
# 2 37.3881 98.7336 53.5039 0.0000 0.0000 0.0000
# 3 49.1668 53.5039 176.0228 0.0000 0.0000 0.0000
# 4 0.0000 0.0000 0.0000 5.9371 0.0000 0.0000
# 5 0.0000 0.0000 0.0000 0.0000 33.4420 0.0000
# 6 0.0000 0.0000 0.0000 0.0000 0.0000 -20.2964
#
#
#
# Elastic Compliance Matrix: (Units=1/GPa)
#
#
# Indices 1 2 3 4 5 6 
#
# 1 0.024303 -0.006614 -0.004778 0.000000 0.000000 0.000000
# 2 -0.006614 0.013925 -0.002385 0.000000 0.000000 0.000000
# 3 -0.004778 -0.002385 0.007741 0.000000 0.000000 0.000000
# 4 0.000000 0.000000 0.000000 0.168432 0.000000 0.000000
# 5 0.000000 0.000000 0.000000 0.000000 0.029903 0.000000
# 6 0.000000 0.000000 0.000000 0.000000 0.000000 -0.049270
#
#
# Mechanical properties :
#
#
# Convention : Reuss Voigt Hill
#
# Bulk Modulus (GPa) = 54.30452 68.42919 61.36686
# Shear Modulus (GPa) = 21.86020 16.86230 19.36125
#
# Velocity S-wave (km/s) = 3.33538 2.92939 3.13896
# Velocity P-wave (km/s) = 6.51682 6.80190 6.66088
#
# Compressibility (1/GPa) = 0.01841467
#
# Stress axis : x y z
#
# Youngs Moduli (GPa) = 41.14783 71.81133 129.18683
#
# Poissons Ratio (x) = 0.47494 0.61725
# Poissons Ratio (y) = 0.27214 0.30816
# Poissons Ratio (z) = 0.19660 0.17130
#
# Static dielectric constant tensor:
#      x y z
#    x 3.287800 0.000000 0.000000 
#    y 0.000000 3.660660 0.000000 
#    z 0.000000 0.000000 3.957130 
# 
# 
# High freq. dielectric constant tensor:
#      x y z
#    x 1.745020 0.000000 0.000000 
#    y 0.000000 1.768100 0.000000 
#    z 0.000000 0.000000 1.786300 
# 
# From -- ./inp_files/20995.got.cif
#   From: 2010.03.12/outbox.cif.g09.slc.cpg/sg53_11_cif.got.tgz:20995.got - 2010.04.16 14:36:59.
