data_PCOD8219944
_publ_section_title
;
Structure prediction by ZEFSAII (Michael W. Deem and Ramdas Pophale) SiO2 
 PCOD8219944
Probable space group: P M N A
;
_chemical_formula_sum "Si O2"
_cell_formula_units_Z 60
_cell_length_a 9.112019
_cell_length_b 19.286928
_cell_length_c 16.659611
_cell_angle_alpha 90.000000
_cell_angle_beta 90.000000
_cell_angle_gamma 90.000000
_cell_volume 2927.807590
_symmetry_space_group_name_H-M "P M N A"
_symmetry_group_IT_number 53
_symmetry_cell_setting 'orthorhombic'
loop_
_space_group_symop_operation_xyz
x,y,z
1/2-x,-y,1/2+z
x,-y,-z
1/2-x,y,1/2-z
-x,-y,-z
1/2+x,y,1/2-z
-x,y,z
1/2+x,-y,1/2+z
loop_
_atom_site_type_symbol
_atom_site_label
_atom_site_fract_x
_atom_site_fract_y
_atom_site_fract_z
Si Si1 0.337547 0.392866 0.134178
Si Si2 0.750000 0.723209 0.750000
Si Si3 0.671642 0.626828 0.051404
Si Si4 0.825171 0.527134 0.169993
Si Si5 0.170790 0.039309 0.166871
Si Si6 0.836125 0.182026 0.110249
Si Si7 0.826018 0.236457 0.946337
Si Si8 0.169506 0.112152 0.833554
O O1 0.500000 0.427296 0.137064
O O2 0.344965 0.324768 0.190467
O O3 0.214688 0.445618 0.166396
O O4 0.296754 0.373684 0.043332
O O5 0.657187 0.773827 0.692436
O O6 0.500000 0.621856 0.071771
O O7 0.756803 0.562799 0.091550
O O8 0.740174 0.697037 0.087884
O O9 0.750000 0.559266 0.250000
O O10 0.000000 0.536530 0.173006
O O11 0.250000 0.033561 0.250000
O O12 0.238609 0.105761 0.120057
O O13 0.000000 0.053989 0.182569
O O14 0.196016 0.964024 0.125217
O O15 0.000000 0.167853 0.080288
O O16 0.763361 0.223451 0.036607
O O17 0.776584 0.170224 0.895059
O O18 0.000000 0.251324 0.942259
O O19 0.250000 0.121850 0.750000
O O20 0.000000 0.121898 0.813686
#
# Coordination Sequence:
#
# PCOD8219944 Si02
#       8
#     8   4   8   8   8   8   8   8
#     4  11  24  41  63  93 127 161 199 247 301 360
#     4  12  20  36  62  92 124 158 196 240 298 356
#     4  11  24  43  64  90 125 162 201 251 305 358
#     4  12  26  44  68  95 123 159 203 249 300 359
#     4   9  17  32  53  81 113 153 196 244 296 352
#     4  10  20  33  55  86 121 157 197 242 295 358
#     4  10  21  38  57  85 118 155 201 251 302 359
#     4   9  19  35  58  82 112 151 199 250 301 356
#
# _framework density 20.49315
#
# number of rings (size 3 to 8) (size 9 to 14) (size 15 to 20)
#    0.000    1.600    2.667    2.400    0.000    4.800 
#    0.000    4.667    0.000    0.000    0.000    4.667 
#    0.000    0.000    0.000    0.000    0.000    0.000 
#
# Total GULP energy -743643.865246 kJ/mol
# GULP energy per Si atom -12394.064421 kJ/mol
# Density = 2.044651 g / cm^3
# Si number density = 20.493150 Si / 1000 Ang^3
#
#
#
# Elastic Constant Matrix: (Units=GPa)
#
#
# Indices 1 2 3 4 5 6 
#
# 1 86.8554 36.4687 32.0945 0.0000 0.0000 0.0000
# 2 36.4687 125.3175 44.5233 0.0000 0.0000 0.0000
# 3 32.0945 44.5233 95.9462 0.0000 0.0000 0.0000
# 4 0.0000 0.0000 0.0000 36.3317 0.0000 0.0000
# 5 0.0000 0.0000 0.0000 0.0000 23.8752 0.0000
# 6 0.0000 0.0000 0.0000 0.0000 0.0000 23.6459
#
#
#
# Elastic Compliance Matrix: (Units=1/GPa)
#
#
# Indices 1 2 3 4 5 6 
#
# 1 0.013953 -0.002876 -0.003332 0.000000 0.000000 0.000000
# 2 -0.002876 0.010148 -0.003747 0.000000 0.000000 0.000000
# 3 -0.003332 -0.003747 0.013276 0.000000 0.000000 0.000000
# 4 0.000000 0.000000 0.000000 0.027524 0.000000 0.000000
# 5 0.000000 0.000000 0.000000 0.000000 0.041884 0.000000
# 6 0.000000 0.000000 0.000000 0.000000 0.000000 0.042291
#
#
# Mechanical properties :
#
#
# Convention : Reuss Voigt Hill
#
# Bulk Modulus (GPa) = 57.25742 59.36578 58.31160
# Shear Modulus (GPa) = 28.60264 29.77272 29.18768
#
# Velocity S-wave (km/s) = 3.73998 3.81571 3.77804
# Velocity P-wave (km/s) = 6.83011 6.96020 6.89546
#
# Compressibility (1/GPa) = 0.01746498
#
# Stress axis : x y z
#
# Youngs Moduli (GPa) = 71.67172 98.54140 75.32401
#
# Poissons Ratio (x) = 0.28344 0.25101
# Poissons Ratio (y) = 0.20615 0.28224
# Poissons Ratio (z) = 0.23884 0.36923
#
# Static dielectric constant tensor:
#      x y z
#    x 3.848120 0.000000 0.000000 
#    y 0.000000 4.069270 0.000000 
#    z 0.000000 0.000000 3.792580 
# 
# 
# High freq. dielectric constant tensor:
#      x y z
#    x 1.781210 0.000000 0.000000 
#    y 0.000000 1.817050 0.000000 
#    z 0.000000 0.000000 1.796990 
# 
# From -- ./inp_files/26568.got.cif
#   From: 2010.03.12/outbox.cif.g09.slc.cpg/sg53_14_cif.got.tgz:26568.got - 2010.04.16 14:36:59.
