data_PCOD8219958
_publ_section_title
;
Structure prediction by ZEFSAII (Michael W. Deem and Ramdas Pophale) SiO2 
 PCOD8219958
Probable space group: P M N A
;
_chemical_formula_sum "Si O2"
_cell_formula_units_Z 64
_cell_length_a 9.725856
_cell_length_b 19.854341
_cell_length_c 19.002375
_cell_angle_alpha 90.000000
_cell_angle_beta 90.000000
_cell_angle_gamma 90.000000
_cell_volume 3669.367383
_symmetry_space_group_name_H-M "P M N A"
_symmetry_group_IT_number 53
_symmetry_cell_setting 'orthorhombic'
loop_
_space_group_symop_operation_xyz
x,y,z
1/2-x,-y,1/2+z
x,-y,-z
1/2-x,y,1/2-z
-x,-y,-z
1/2+x,y,1/2-z
-x,y,z
1/2+x,-y,1/2+z
loop_
_atom_site_type_symbol
_atom_site_label
_atom_site_fract_x
_atom_site_fract_y
_atom_site_fract_z
Si Si1 0.343857 0.128126 0.586652
Si Si2 0.655807 0.879979 0.814661
Si Si3 0.850156 0.311484 0.537492
Si Si4 0.713914 0.741727 0.329604
Si Si5 0.354291 0.594279 0.309583
Si Si6 0.156409 0.825378 0.535283
Si Si7 0.660473 0.566947 0.462692
Si Si8 0.162084 0.963194 0.317893
O O1 0.500000 0.099338 0.577756
O O2 0.361068 0.195813 0.633327
O O3 0.275379 0.140278 0.510932
O O4 0.236653 0.075689 0.619467
O O5 0.750000 0.856622 0.750000
O O6 0.500000 0.866299 0.791145
O O7 0.695180 0.837461 0.883524
O O8 0.676796 0.958140 0.833441
O O9 0.836062 0.280363 0.616855
O O10 0.838880 0.253856 0.479100
O O11 0.739965 0.366558 0.512739
O O12 0.000000 0.345447 0.535671
O O13 0.750000 0.765081 0.250000
O O14 0.623868 0.674313 0.322314
O O15 0.250000 0.574882 0.250000
O O16 0.500000 0.565595 0.284409
O O17 0.308857 0.556812 0.380298
O O18 0.000000 0.852797 0.519599
O O19 0.716650 0.500000 0.500000
O O20 0.500000 0.578728 0.478678
O O21 0.250000 0.942429 0.250000
O O22 0.000000 0.942268 0.310327
#
# Coordination Sequence:
#
# PCOD8219958 Si02
#       8
#     8   8   8   8   8   8   8   8
#     4  11  21  31  46  70  99 132 168 201 235 281
#     4   9  19  36  57  75  92 119 157 203 254 306
#     4   9  18  31  49  73  98 124 158 198 235 276
#     4   9  18  29  44  65  95 130 161 192 231 274
#     4   9  17  29  45  65  90 119 153 191 226 264
#     4   9  19  36  53  71  98 128 156 194 248 298
#     4   9  18  32  49  69  96 130 161 189 228 277
#     4  10  20  34  50  69  95 127 163 203 247 294
#
# _framework density 17.441697999999999
#
# number of rings (size 3 to 8) (size 9 to 14) (size 15 to 20)
#    0.000    2.625    0.000    1.500    0.000   10.250 
#    0.000    2.500    0.000    0.750    0.000    5.250 
#    0.000    0.000    0.000    0.000    0.000    0.000 
#
# Total GULP energy -792938.163015 kJ/mol
# GULP energy per Si atom -12389.658797 kJ/mol
# Density = 1.740200 g / cm^3
# Si number density = 17.441698 Si / 1000 Ang^3
#
#
#
# Elastic Constant Matrix: (Units=GPa)
#
#
# Indices 1 2 3 4 5 6 
#
# 1 121.6720 41.3633 66.6826 0.0000 0.0000 0.0000
# 2 41.3633 54.9905 52.3118 0.0000 0.0000 0.0000
# 3 66.6826 52.3118 124.8541 0.0000 0.0000 0.0000
# 4 0.0000 0.0000 0.0000 27.3802 0.0000 0.0000
# 5 0.0000 0.0000 0.0000 0.0000 25.4098 0.0000
# 6 0.0000 0.0000 0.0000 0.0000 0.0000 20.2213
#
#
#
# Elastic Compliance Matrix: (Units=1/GPa)
#
#
# Indices 1 2 3 4 5 6 
#
# 1 0.012406 -0.005035 -0.004516 0.000000 0.000000 0.000000
# 2 -0.005035 0.032280 -0.010836 0.000000 0.000000 0.000000
# 3 -0.004516 -0.010836 0.014961 0.000000 0.000000 0.000000
# 4 0.000000 0.000000 0.000000 0.036523 0.000000 0.000000
# 5 0.000000 0.000000 0.000000 0.000000 0.039355 0.000000
# 6 0.000000 0.000000 0.000000 0.000000 0.000000 0.049453
#
#
# Mechanical properties :
#
#
# Convention : Reuss Voigt Hill
#
# Bulk Modulus (GPa) = 52.98504 69.13688 61.06096
# Shear Modulus (GPa) = 21.54781 24.01285 22.78033
#
# Velocity S-wave (km/s) = 3.51867 3.71448 3.61790
# Velocity P-wave (km/s) = 6.85218 7.62374 7.24823
#
# Compressibility (1/GPa) = 0.01887325
#
# Stress axis : x y z
#
# Youngs Moduli (GPa) = 80.60881 30.97869 66.83998
#
# Poissons Ratio (x) = 0.15599 0.30184
# Poissons Ratio (y) = 0.40590 0.72425
# Poissons Ratio (z) = 0.36402 0.33567
#
# Static dielectric constant tensor:
#      x y z
#    x 3.352570 0.000000 0.000000 
#    y 0.000000 3.085040 0.000000 
#    z 0.000000 0.000000 3.334530 
# 
# 
# High freq. dielectric constant tensor:
#      x y z
#    x 1.682330 0.000000 0.000000 
#    y 0.000000 1.646530 0.000000 
#    z 0.000000 0.000000 1.665260 
# 
# From -- ./inp_files/26793.got.cif
#   From: 2010.03.12/outbox.cif.g09.slc.cpg/sg53_14_cif.got.tgz:26793.got - 2010.04.16 14:36:59.
