data_PCOD8219882
_publ_section_title
;
Structure prediction by ZEFSAII (Michael W. Deem and Ramdas Pophale) SiO2 
 PCOD8219882
Probable space group: P M N A
;
_chemical_formula_sum "Si O2"
_cell_formula_units_Z 56
_cell_length_a 8.773002
_cell_length_b 20.005833
_cell_length_c 15.755001
_cell_angle_alpha 90.000000
_cell_angle_beta 90.000000
_cell_angle_gamma 90.000000
_cell_volume 2765.179335
_symmetry_space_group_name_H-M "P M N A"
_symmetry_group_IT_number 53
_symmetry_cell_setting 'orthorhombic'
loop_
_space_group_symop_operation_xyz
x,y,z
1/2-x,-y,1/2+z
x,-y,-z
1/2-x,y,1/2-z
-x,-y,-z
1/2+x,y,1/2-z
-x,y,z
1/2+x,-y,1/2+z
loop_
_atom_site_type_symbol
_atom_site_label
_atom_site_fract_x
_atom_site_fract_y
_atom_site_fract_z
Si Si1 0.681396 0.924402 0.508096
Si Si2 0.174819 0.129040 0.832307
Si Si3 0.822114 0.575366 0.999446
Si Si4 0.818226 0.174538 0.157495
Si Si5 0.330495 0.600859 0.169449
Si Si6 0.666327 0.254306 0.870014
Si Si7 0.677979 0.703752 0.939094
O O1 0.500000 0.922151 0.509250
O O2 0.747900 0.892328 0.421922
O O3 0.739290 0.883131 0.590960
O O4 0.741952 0.000000 0.500000
O O5 0.250000 0.093404 0.750000
O O6 0.204348 0.208395 0.827589
O O7 0.000000 0.109993 0.829201
O O8 0.789468 0.597265 0.094370
O O9 0.000000 0.576722 0.977988
O O10 0.755840 0.500000 0.000000
O O11 0.739984 0.626779 0.933827
O O12 0.750000 0.157645 0.250000
O O13 0.762233 0.247748 0.127515
O O14 0.000000 0.175400 0.163349
O O15 0.250000 0.565652 0.250000
O O16 0.500000 0.569834 0.151730
O O17 0.349060 0.679422 0.186047
O O18 0.500000 0.217982 0.868153
O O19 0.711904 0.269462 0.967164
O O20 0.500000 0.702220 0.917035
#
# Coordination Sequence:
#
# PCOD8219882 Si02
#       7
#     8   8   8   8   8   8   8
#     4   9  20  39  60  83 116 158 201 247 305 370
#     4  11  21  33  53  81 112 149 186 229 284 343
#     4  10  21  37  58  84 116 155 197 242 297 362
#     4  11  22  39  64  92 121 160 209 261 315 371
#     4  10  20  33  51  78 110 147 185 230 281 339
#     4   9  18  32  52  79 111 143 178 223 274 332
#     4  10  20  36  60  87 117 153 196 248 300 354
#
# _framework density 20.251852
#
# number of rings (size 3 to 8) (size 9 to 14) (size 15 to 20)
#    0.000    2.000    1.429    3.429    0.000    5.714 
#    0.000    0.714    0.000    9.429    0.000    0.000 
#    0.000    0.000    0.000    0.000    0.000    0.000 
#
# Total GULP energy -693823.331512 kJ/mol
# GULP energy per Si atom -12389.702348 kJ/mol
# Density = 2.020576 g / cm^3
# Si number density = 20.251852 Si / 1000 Ang^3
#
#
#
# Elastic Constant Matrix: (Units=GPa)
#
#
# Indices 1 2 3 4 5 6 
#
# 1 72.2301 30.1532 36.7760 0.0000 0.0000 0.0000
# 2 30.1532 119.4822 45.8167 0.0000 0.0000 0.0000
# 3 36.7760 45.8167 126.0254 0.0000 0.0000 0.0000
# 4 0.0000 0.0000 0.0000 11.6731 0.0000 0.0000
# 5 0.0000 0.0000 0.0000 0.0000 29.8441 0.0000
# 6 0.0000 0.0000 0.0000 0.0000 0.0000 16.1957
#
#
#
# Elastic Compliance Matrix: (Units=1/GPa)
#
#
# Indices 1 2 3 4 5 6 
#
# 1 0.017019 -0.002778 -0.003956 0.000000 0.000000 0.000000
# 2 -0.002778 0.010179 -0.002890 0.000000 0.000000 0.000000
# 3 -0.003956 -0.002890 0.010140 0.000000 0.000000 0.000000
# 4 0.000000 0.000000 0.000000 0.085667 0.000000 0.000000
# 5 0.000000 0.000000 0.000000 0.000000 0.033507 0.000000
# 6 0.000000 0.000000 0.000000 0.000000 0.000000 0.061745
#
#
# Mechanical properties :
#
#
# Convention : Reuss Voigt Hill
#
# Bulk Modulus (GPa) = 55.28156 60.35883 57.82019
# Shear Modulus (GPa) = 20.53095 25.20869 22.86982
#
# Velocity S-wave (km/s) = 3.18745 3.53194 3.36411
# Velocity P-wave (km/s) = 6.39552 6.81921 6.61076
#
# Compressibility (1/GPa) = 0.01808921
#
# Stress axis : x y z
#
# Youngs Moduli (GPa) = 58.75898 98.24521 98.61878
#
# Poissons Ratio (x) = 0.27291 0.39018
# Poissons Ratio (y) = 0.16322 0.28499
# Poissons Ratio (z) = 0.23247 0.28391
#
# Static dielectric constant tensor:
#      x y z
#    x 3.581270 0.000000 0.000000 
#    y 0.000000 3.789200 0.000000 
#    z 0.000000 0.000000 3.731540 
# 
# 
# High freq. dielectric constant tensor:
#      x y z
#    x 1.783630 0.000000 0.000000 
#    y 0.000000 1.774040 0.000000 
#    z 0.000000 0.000000 1.788030 
# 
# From -- ./inp_files/20590.got.cif
#   From: 2010.03.12/outbox.cif.g09.slc.cpg/sg53_11_cif.got.tgz:20590.got - 2010.04.16 14:36:59.
