data_PCOD8219736
_publ_section_title
;
Structure prediction by ZEFSAII (Michael W. Deem and Ramdas Pophale) SiO2 
 PCOD8219736
Probable space group: P M N A
;
_chemical_formula_sum "Si O2"
_cell_formula_units_Z 64
_cell_length_a 9.832752
_cell_length_b 10.961029
_cell_length_c 33.278819
_cell_angle_alpha 90.000000
_cell_angle_beta 90.000000
_cell_angle_gamma 90.000000
_cell_volume 3586.693932
_symmetry_space_group_name_H-M "P M N A"
_symmetry_group_IT_number 53
_symmetry_cell_setting 'orthorhombic'
loop_
_space_group_symop_operation_xyz
x,y,z
1/2-x,-y,1/2+z
x,-y,-z
1/2-x,y,1/2-z
-x,-y,-z
1/2+x,y,1/2-z
-x,y,z
1/2+x,-y,1/2+z
loop_
_atom_site_type_symbol
_atom_site_label
_atom_site_fract_x
_atom_site_fract_y
_atom_site_fract_z
Si Si1 0.346846 0.545512 0.069560
Si Si2 0.653593 0.467285 0.715086
Si Si3 0.654389 0.643593 0.368416
Si Si4 0.156502 0.893833 0.090950
Si Si5 0.842456 0.748100 0.787366
Si Si6 0.845249 0.728694 0.561312
Si Si7 0.657439 0.790615 0.026125
Si Si8 0.341832 0.153997 0.373625
O O1 0.500000 0.565323 0.085118
O O2 0.249354 0.550469 0.107884
O O3 0.330287 0.413536 0.049303
O O4 0.307596 0.651273 0.038135
O O5 0.750000 0.419454 0.750000
O O6 0.500000 0.457606 0.730764
O O7 0.680157 0.376477 0.678406
O O8 0.686812 0.606457 0.702875
O O9 0.500000 0.611238 0.380065
O O10 0.689747 0.783063 0.378964
O O11 0.249856 0.884603 0.051200
O O12 0.000000 0.892589 0.076792
O O13 0.192107 0.014752 0.115640
O O14 0.750000 0.792732 0.750000
O O15 0.801665 0.823565 0.827222
O O16 0.000000 0.770269 0.776017
O O17 0.808935 0.805252 0.521150
O O18 0.745054 0.759733 0.597461
O O19 0.000000 0.756777 0.574814
O O20 0.500000 0.821839 0.034644
O O21 0.500000 0.185779 0.380435
#
# Coordination Sequence:
#
# PCOD8219736 Si02
#       8
#     8   8   8   8   8   8   8   8
#     4   9  17  30  49  72  97 125 158 198 245 294
#     4   9  17  29  47  71  97 122 149 187 237 292
#     4   9  17  31  50  70  94 125 160 197 239 286
#     4   9  19  35  52  69  93 129 169 205 240 280
#     4   9  18  33  52  73  97 125 155 191 239 289
#     4  10  20  32  49  74 101 129 162 201 244 290
#     4   9  18  33  51  71  98 130 162 200 246 291
#     4  10  21  36  52  71  98 131 167 205 242 281
#
# _framework density 17.843730999999998
#
# number of rings (size 3 to 8) (size 9 to 14) (size 15 to 20)
#    0.000    2.750    0.000    1.125    0.000    5.500 
#    0.000    5.625    0.000    3.750    0.000    0.000 
#    0.000    0.000    0.000    0.000    0.000    0.000 
#
# Total GULP energy -793580.990214 kJ/mol
# GULP energy per Si atom -12399.702972 kJ/mol
# Density = 1.780312 g / cm^3
# Si number density = 17.843731 Si / 1000 Ang^3
#
#
#
# Elastic Constant Matrix: (Units=GPa)
#
#
# Indices 1 2 3 4 5 6 
#
# 1 74.8469 27.4301 64.8332 0.0000 0.0000 0.0000
# 2 27.4301 50.6634 32.7673 0.0000 0.0000 0.0000
# 3 64.8332 32.7673 116.1033 0.0000 0.0000 0.0000
# 4 0.0000 0.0000 0.0000 22.4061 0.0000 0.0000
# 5 0.0000 0.0000 0.0000 0.0000 35.6724 0.0000
# 6 0.0000 0.0000 0.0000 0.0000 0.0000 16.4731
#
#
#
# Elastic Compliance Matrix: (Units=1/GPa)
#
#
# Indices 1 2 3 4 5 6 
#
# 1 0.027300 -0.006020 -0.013546 0.000000 0.000000 0.000000
# 2 -0.006020 0.025473 -0.003827 0.000000 0.000000 0.000000
# 3 -0.013546 -0.003827 0.017257 0.000000 0.000000 0.000000
# 4 0.000000 0.000000 0.000000 0.044631 0.000000 0.000000
# 5 0.000000 0.000000 0.000000 0.000000 0.028033 0.000000
# 6 0.000000 0.000000 0.000000 0.000000 0.000000 0.060705
#
#
# Mechanical properties :
#
#
# Convention : Reuss Voigt Hill
#
# Bulk Modulus (GPa) = 43.02166 54.63051 48.82608
# Shear Modulus (GPa) = 19.38483 22.68252 21.03368
#
# Velocity S-wave (km/s) = 3.29958 3.56922 3.43705
# Velocity P-wave (km/s) = 6.21924 6.90423 6.57066
#
# Compressibility (1/GPa) = 0.02324410
#
# Stress axis : x y z
#
# Youngs Moduli (GPa) = 36.62959 39.25733 57.94645
#
# Poissons Ratio (x) = 0.23633 0.78493
# Poissons Ratio (y) = 0.22051 0.22179
# Poissons Ratio (z) = 0.49618 0.15026
#
# Static dielectric constant tensor:
#      x y z
#    x 3.377130 0.000000 0.000000 
#    y 0.000000 3.216420 0.000000 
#    z 0.000000 0.000000 3.251990 
# 
# 
# High freq. dielectric constant tensor:
#      x y z
#    x 1.691230 0.000000 0.000000 
#    y 0.000000 1.680390 0.000000 
#    z 0.000000 0.000000 1.683350 
# 
# From -- ./inp_files/38306.got.cif
#   From: 2010.03.12/outbox.cif.g09.slc.cpg/sg53_20_cif.got.tgz:38306.got - 2010.04.16 14:36:59.
