data_PCOD8219973
_publ_section_title
;
Structure prediction by ZEFSAII (Michael W. Deem and Ramdas Pophale) SiO2 
 PCOD8219973
Probable space group: P M N A
;
_chemical_formula_sum "Si O2"
_cell_formula_units_Z 64
_cell_length_a 17.777457
_cell_length_b 21.181776
_cell_length_c 9.267969
_cell_angle_alpha 90.000000
_cell_angle_beta 90.000000
_cell_angle_gamma 90.000000
_cell_volume 3489.928909
_symmetry_space_group_name_H-M "P M N A"
_symmetry_group_IT_number 53
_symmetry_cell_setting 'orthorhombic'
loop_
_space_group_symop_operation_xyz
x,y,z
1/2-x,-y,1/2+z
x,-y,-z
1/2-x,y,1/2-z
-x,-y,-z
1/2+x,y,1/2-z
-x,y,z
1/2+x,-y,1/2+z
loop_
_atom_site_type_symbol
_atom_site_label
_atom_site_fract_x
_atom_site_fract_y
_atom_site_fract_z
Si Si1 0.586525 0.262460 0.226213
Si Si2 0.161855 0.543379 0.739574
Si Si3 0.170689 0.011066 0.173776
Si Si4 0.162492 0.603452 0.237304
Si Si5 0.089239 0.372412 0.475988
Si Si6 0.586611 0.362128 0.455867
Si Si7 0.583309 0.939184 0.100922
Si Si8 0.910117 0.875896 0.679776
O O1 0.500000 0.253151 0.186900
O O2 0.620150 0.310753 0.108102
O O3 0.597469 0.293708 0.382765
O O4 0.623280 0.192944 0.222166
O O5 0.250000 0.558364 0.750000
O O6 0.144669 0.470561 0.767940
O O7 0.131781 0.564971 0.582998
O O8 0.114530 0.581500 0.855764
O O9 0.250000 0.021926 0.250000
O O10 0.122383 0.073695 0.206011
O O11 0.133632 0.950410 0.255822
O O12 0.176678 0.000000 0.000000
O O13 0.250000 0.616789 0.250000
O O14 0.113684 0.636411 0.360667
O O15 0.136676 0.639431 0.096204
O O16 0.000000 0.381029 0.457134
O O17 0.500000 0.375102 0.492929
O O18 0.500000 0.921249 0.156654
O O19 0.614789 0.886451 0.988618
O O20 0.579968 0.000000 0.000000
O O21 0.000000 0.881232 0.692609
#
# Coordination Sequence:
#
# PCOD8219973 Si02
#       8
#     8   8   8   8   8   8   8   8
#     4   8  17  35  56  76  98 130 170 209 250 299
#     4  10  20  34  51  72 100 133 168 209 264 325
#     4  11  21  33  51  77 111 142 169 207 253 297
#     4  11  22  34  49  72 103 135 167 212 269 316
#     4  10  20  34  53  75  98 129 172 216 258 309
#     4  10  20  34  53  76 102 132 170 214 260 311
#     4   8  15  29  51  77 102 131 166 203 246 296
#     4   9  17  34  58  78 101 134 172 210 251 306
#
# _framework density 18.338481999999999
#
# number of rings (size 3 to 8) (size 9 to 14) (size 15 to 20)
#    0.000    2.375    0.000    5.250    0.000    6.000 
#    0.000    5.000    0.000    6.000    0.000    0.000 
#    0.000    0.000    0.000    0.000    0.000    0.000 
#
# Total GULP energy -793229.926215 kJ/mol
# GULP energy per Si atom -12394.217597 kJ/mol
# Density = 1.829674 g / cm^3
# Si number density = 18.338482 Si / 1000 Ang^3
#
#
#
# Elastic Constant Matrix: (Units=GPa)
#
#
# Indices 1 2 3 4 5 6 
#
# 1 66.4206 41.2006 26.9827 0.0000 0.0000 0.0000
# 2 41.2006 99.4574 39.6954 0.0000 0.0000 0.0000
# 3 26.9827 39.6954 96.4085 0.0000 0.0000 0.0000
# 4 0.0000 0.0000 0.0000 10.1658 0.0000 0.0000
# 5 0.0000 0.0000 0.0000 0.0000 32.4201 0.0000
# 6 0.0000 0.0000 0.0000 0.0000 0.0000 10.1488
#
#
#
# Elastic Compliance Matrix: (Units=1/GPa)
#
#
# Indices 1 2 3 4 5 6 
#
# 1 0.020844 -0.007547 -0.002727 0.000000 0.000000 0.000000
# 2 -0.007547 0.014764 -0.003967 0.000000 0.000000 0.000000
# 3 -0.002727 -0.003967 0.012769 0.000000 0.000000 0.000000
# 4 0.000000 0.000000 0.000000 0.098369 0.000000 0.000000
# 5 0.000000 0.000000 0.000000 0.000000 0.030845 0.000000
# 6 0.000000 0.000000 0.000000 0.000000 0.000000 0.098534
#
#
# Mechanical properties :
#
#
# Convention : Reuss Voigt Hill
#
# Bulk Modulus (GPa) = 50.25833 53.11600 51.68716
# Shear Modulus (GPa) = 16.06488 20.84079 18.45283
#
# Velocity S-wave (km/s) = 2.96297 3.37479 3.17556
# Velocity P-wave (km/s) = 6.25868 6.64926 6.45692
#
# Compressibility (1/GPa) = 0.01989720
#
# Stress axis : x y z
#
# Youngs Moduli (GPa) = 47.97444 67.73225 78.31490
#
# Poissons Ratio (x) = 0.51115 0.21354
# Poissons Ratio (y) = 0.36205 0.31066
# Poissons Ratio (z) = 0.13081 0.26868
#
# Static dielectric constant tensor:
#      x y z
#    x 3.325770 0.000000 0.000000 
#    y 0.000000 3.530030 0.000000 
#    z 0.000000 0.000000 3.473010 
# 
# 
# High freq. dielectric constant tensor:
#      x y z
#    x 1.708000 0.000000 0.000000 
#    y 0.000000 1.692190 0.000000 
#    z 0.000000 0.000000 1.711260 
# 
# From -- ./inp_files/10247.got.cif
#   From: 2010.03.12/outbox.cif.g09.slc.cpg/sg53_6_cif.got.tgz:10247.got - 2010.04.16 14:36:59.
