data_PCOD8219620
_publ_section_title
;
Structure prediction by ZEFSAII (Michael W. Deem and Ramdas Pophale) SiO2 
 PCOD8219620
Probable space group: P M N A
;
_chemical_formula_sum "Si O2"
_cell_formula_units_Z 48
_cell_length_a 18.030782
_cell_length_b 11.394136
_cell_length_c 12.202284
_cell_angle_alpha 90.000000
_cell_angle_beta 90.000000
_cell_angle_gamma 90.000000
_cell_volume 2506.900461
_symmetry_space_group_name_H-M "P M N A"
_symmetry_group_IT_number 53
_symmetry_cell_setting 'orthorhombic'
loop_
_space_group_symop_operation_xyz
x,y,z
1/2-x,-y,1/2+z
x,-y,-z
1/2-x,y,1/2-z
-x,-y,-z
1/2+x,y,1/2-z
-x,y,z
1/2+x,-y,1/2+z
loop_
_atom_site_type_symbol
_atom_site_label
_atom_site_fract_x
_atom_site_fract_y
_atom_site_fract_z
Si Si1 0.416792 0.615091 0.852473
Si Si2 0.835258 0.211004 0.777547
Si Si3 0.133264 0.364166 0.585426
Si Si4 0.676617 0.762034 0.689440
Si Si5 0.087433 0.987033 0.873248
Si Si6 0.800871 0.374034 0.969571
O O1 0.500000 0.645990 0.815749
O O2 0.409427 0.475843 0.866550
O O3 0.360831 0.659287 0.759955
O O4 0.399823 0.676983 0.969138
O O5 0.750000 0.183550 0.750000
O O6 0.876378 0.257308 0.669137
O O7 0.845371 0.308622 0.872849
O O8 0.875710 0.092419 0.808243
O O9 0.218737 0.401114 0.573367
O O10 0.750000 0.809462 0.750000
O O11 0.618896 0.866691 0.674711
O O12 0.700916 0.710849 0.573251
O O13 0.000000 0.988575 0.854370
O O14 0.108567 0.000000 0.000000
O O15 0.838256 0.500000 0.000000
#
# Coordination Sequence:
#
# PCOD8219620 Si02
#       6
#     8   8   8   8   8   8
#     4  11  22  37  59  92 129 164 194 233 303 369
#     4  10  22  39  63  91 116 155 206 251 297 348
#     4  10  19  37  60  89 124 162 190 242 296 357
#     4  12  22  39  64  89 118 157 205 254 296 349
#     4  11  24  43  62  82 117 161 201 250 309 357
#     4  11  19  35  61  93 122 151 203 250 294 350
#
# _framework density 19.14715
#
# number of rings (size 3 to 8) (size 9 to 14) (size 15 to 20)
#    0.000    1.167    5.000    3.000    0.000    2.667 
#    0.000    0.833    0.000    4.500    0.000    0.000 
#    0.000    0.000    0.000    0.000    0.000    0.000 
#
# Total GULP energy -595355.462149 kJ/mol
# GULP energy per Si atom -12403.238795 kJ/mol
# Density = 1.910357 g / cm^3
# Si number density = 19.147150 Si / 1000 Ang^3
#
#
#
# Elastic Constant Matrix: (Units=GPa)
#
#
# Indices 1 2 3 4 5 6 
#
# 1 72.1012 20.7183 30.6957 0.0000 0.0000 0.0000
# 2 20.7183 92.4591 34.2667 0.0000 0.0000 0.0000
# 3 30.6957 34.2667 94.1203 0.0000 0.0000 0.0000
# 4 0.0000 0.0000 0.0000 34.7611 0.0000 0.0000
# 5 0.0000 0.0000 0.0000 0.0000 22.0836 0.0000
# 6 0.0000 0.0000 0.0000 0.0000 0.0000 -8.3963
#
#
#
# Elastic Compliance Matrix: (Units=1/GPa)
#
#
# Indices 1 2 3 4 5 6 
#
# 1 0.016406 -0.001957 -0.004638 0.000000 0.000000 0.000000
# 2 -0.001957 0.012736 -0.003998 0.000000 0.000000 0.000000
# 3 -0.004638 -0.003998 0.013593 0.000000 0.000000 0.000000
# 4 0.000000 0.000000 0.000000 0.028768 0.000000 0.000000
# 5 0.000000 0.000000 0.000000 0.000000 0.045283 0.000000
# 6 0.000000 0.000000 0.000000 0.000000 0.000000 -0.119101
#
#
# Mechanical properties :
#
#
# Convention : Reuss Voigt Hill
#
# Bulk Modulus (GPa) = 46.40872 47.78245 47.09559
# Shear Modulus (GPa) = 191.89611 21.22300 106.55956
#
# Velocity S-wave (km/s) = 10.02194 3.33290 7.46818
# Velocity P-wave (km/s) = 12.57814 6.31035 9.95063
#
# Compressibility (1/GPa) = 0.02154767
#
# Stress axis : x y z
#
# Youngs Moduli (GPa) = 60.95182 78.51683 73.56697
#
# Poissons Ratio (x) = 0.15369 0.34120
# Poissons Ratio (y) = 0.11931 0.29416
# Poissons Ratio (z) = 0.28270 0.31395
#
# Static dielectric constant tensor:
#      x y z
#    x 3.381820 0.000000 0.000000 
#    y 0.000000 3.428730 0.000000 
#    z 0.000000 0.000000 3.799170 
# 
# 
# High freq. dielectric constant tensor:
#      x y z
#    x 1.736200 0.000000 0.000000 
#    y 0.000000 1.736690 0.000000 
#    z 0.000000 0.000000 1.759450 
# 
# From -- ./inp_files/16897.got.cif
#   From: 2010.03.12/outbox.cif.g09.slc.cpg/sg53_9_cif.got.tgz:16897.got - 2010.04.16 14:36:59.
