data_PCOD8219605
_publ_section_title
;
Structure prediction by ZEFSAII (Michael W. Deem and Ramdas Pophale) SiO2 
 PCOD8219605
Probable space group: P M N A
;
_chemical_formula_sum "Si O2"
_cell_formula_units_Z 64
_cell_length_a 8.771845
_cell_length_b 11.936150
_cell_length_c 31.221873
_cell_angle_alpha 90.000000
_cell_angle_beta 90.000000
_cell_angle_gamma 90.000000
_cell_volume 3268.994348
_symmetry_space_group_name_H-M "P M N A"
_symmetry_group_IT_number 53
_symmetry_cell_setting 'orthorhombic'
loop_
_space_group_symop_operation_xyz
x,y,z
1/2-x,-y,1/2+z
x,-y,-z
1/2-x,y,1/2-z
-x,-y,-z
1/2+x,y,1/2-z
-x,y,z
1/2+x,-y,1/2+z
loop_
_atom_site_type_symbol
_atom_site_label
_atom_site_fract_x
_atom_site_fract_y
_atom_site_fract_z
Si Si1 0.674243 0.877587 0.012927
Si Si2 0.822598 0.506452 0.794424
Si Si3 0.679057 0.626572 0.377049
Si Si4 0.179323 0.896977 0.628457
Si Si5 0.679273 0.234072 0.294485
Si Si6 0.673332 0.853613 0.113189
Si Si7 0.178430 0.253226 0.057218
Si Si8 0.819377 0.513949 0.549064
O O1 0.500000 0.861690 0.997387
O O2 0.691473 0.861268 0.062704
O O3 0.778263 0.783285 0.990808
O O4 0.734210 0.000000 0.000000
O O5 0.750000 0.463446 0.750000
O O6 0.757850 0.439739 0.835445
O O7 0.784547 0.636065 0.802560
O O8 0.000000 0.484711 0.789602
O O9 0.500000 0.608234 0.382280
O O10 0.717054 0.756836 0.369057
O O11 0.759504 0.585639 0.420702
O O12 0.231098 0.836269 0.670904
O O13 0.266032 0.844528 0.588344
O O14 0.000000 0.883398 0.620476
O O15 0.223418 0.027609 0.633123
O O16 0.750000 0.194239 0.250000
O O17 0.500000 0.208827 0.296245
O O18 0.500000 0.824520 0.125869
O O19 0.258582 0.370089 0.068729
O O20 0.000000 0.271332 0.062403
O O21 0.760753 0.500000 0.500000
O O22 0.000000 0.512091 0.550252
#
# Coordination Sequence:
#
# PCOD8219605 Si02
#       8
#     8   8   8   8   8   8   8   8
#     4  10  19  37  58  78 110 154 198 243 288 341
#     4   9  20  38  61  89 118 148 186 234 291 353
#     4  11  23  39  60  88 122 155 193 247 306 355
#     4  11  22  39  60  84 114 153 197 239 285 344
#     4  10  20  37  61  90 120 149 184 234 294 355
#     4  10  22  39  59  82 113 156 202 241 286 348
#     4  12  24  36  56  87 118 148 190 245 298 347
#     4  11  24  41  60  83 115 159 204 242 290 355
#
# _framework density 19.577885999999999
#
# number of rings (size 3 to 8) (size 9 to 14) (size 15 to 20)
#    0.000    1.500    1.250    4.125    0.000    8.250 
#    0.000    0.625    0.000    1.500    0.000    0.000 
#    0.000    0.000    0.000    0.000    0.000    0.000 
#
# Total GULP energy -793883.451018 kJ/mol
# GULP energy per Si atom -12404.428922 kJ/mol
# Density = 1.953333 g / cm^3
# Si number density = 19.577886 Si / 1000 Ang^3
#
#
#
# Elastic Constant Matrix: (Units=GPa)
#
#
# Indices 1 2 3 4 5 6 
#
# 1 61.9359 33.1268 34.5668 0.0000 0.0000 0.0000
# 2 33.1268 96.9896 41.3267 0.0000 0.0000 0.0000
# 3 34.5668 41.3267 107.5190 0.0000 0.0000 0.0000
# 4 0.0000 0.0000 0.0000 35.0102 0.0000 0.0000
# 5 0.0000 0.0000 0.0000 0.0000 27.9329 0.0000
# 6 0.0000 0.0000 0.0000 0.0000 0.0000 24.5437
#
#
#
# Elastic Compliance Matrix: (Units=1/GPa)
#
#
# Indices 1 2 3 4 5 6 
#
# 1 0.021754 -0.005322 -0.004948 0.000000 0.000000 0.000000
# 2 -0.005322 0.013631 -0.003529 0.000000 0.000000 0.000000
# 3 -0.004948 -0.003529 0.012248 0.000000 0.000000 0.000000
# 4 0.000000 0.000000 0.000000 0.028563 0.000000 0.000000
# 5 0.000000 0.000000 0.000000 0.000000 0.035800 0.000000
# 6 0.000000 0.000000 0.000000 0.000000 0.000000 0.040744
#
#
# Mechanical properties :
#
#
# Convention : Reuss Voigt Hill
#
# Bulk Modulus (GPa) = 49.91002 53.83170 51.87086
# Shear Modulus (GPa) = 26.73577 27.99230 27.36404
#
# Velocity S-wave (km/s) = 3.69943 3.78536 3.74264
# Velocity P-wave (km/s) = 6.61786 6.83090 6.72522
#
# Compressibility (1/GPa) = 0.02003606
#
# Stress axis : x y z
#
# Youngs Moduli (GPa) = 45.96932 73.35961 81.64728
#
# Poissons Ratio (x) = 0.39039 0.40401
# Poissons Ratio (y) = 0.24463 0.28810
# Poissons Ratio (z) = 0.22747 0.25886
#
# Static dielectric constant tensor:
#      x y z
#    x 3.582960 0.000000 0.000000 
#    y 0.000000 3.359880 0.000000 
#    z 0.000000 0.000000 3.643230 
# 
# 
# High freq. dielectric constant tensor:
#      x y z
#    x 1.761570 0.000000 0.000000 
#    y 0.000000 1.767440 0.000000 
#    z 0.000000 0.000000 1.760970 
# 
# From -- ./inp_files/38286.got.cif
#   From: 2010.03.12/outbox.cif.g09.slc.cpg/sg53_20_cif.got.tgz:38286.got - 2010.04.16 14:36:59.
