data_PCOD8219583
_publ_section_title
;
Structure prediction by ZEFSAII (Michael W. Deem and Ramdas Pophale) SiO2 
 PCOD8219583
Probable space group: P M N A
;
_chemical_formula_sum "Si O2"
_cell_formula_units_Z 64
_cell_length_a 8.737838
_cell_length_b 14.770263
_cell_length_c 25.099962
_cell_angle_alpha 90.000000
_cell_angle_beta 90.000000
_cell_angle_gamma 90.000000
_cell_volume 3239.405245
_symmetry_space_group_name_H-M "P M N A"
_symmetry_group_IT_number 53
_symmetry_cell_setting 'orthorhombic'
loop_
_space_group_symop_operation_xyz
x,y,z
1/2-x,-y,1/2+z
x,-y,-z
1/2-x,y,1/2-z
-x,-y,-z
1/2+x,y,1/2-z
-x,y,z
1/2+x,-y,1/2+z
loop_
_atom_site_type_symbol
_atom_site_label
_atom_site_fract_x
_atom_site_fract_y
_atom_site_fract_z
Si Si1 0.678323 0.846670 0.896914
Si Si2 0.182194 0.706434 0.694156
Si Si3 0.179482 0.213125 0.905098
Si Si4 0.318341 0.017637 0.560564
Si Si5 0.671203 0.555276 0.946641
Si Si6 0.180560 0.516908 0.842737
Si Si7 0.179998 0.321404 0.804537
Si Si8 0.176450 0.269414 0.018863
O O1 0.500000 0.862971 0.890737
O O2 0.736921 0.778799 0.850410
O O3 0.718119 0.806309 0.954592
O O4 0.760952 0.943862 0.896305
O O5 0.250000 0.741050 0.750000
O O6 0.246790 0.606485 0.682720
O O7 0.000000 0.700371 0.697030
O O8 0.246130 0.113181 0.916964
O O9 0.251827 0.262418 0.853298
O O10 0.000000 0.205484 0.896072
O O11 0.215823 0.275738 0.956389
O O12 0.500000 0.018014 0.559573
O O13 0.257688 0.000000 0.500000
O O14 0.500000 0.590232 0.931578
O O15 0.741891 0.495597 0.899643
O O16 0.788338 0.636902 0.952820
O O17 0.663017 0.500000 0.000000
O O18 0.220730 0.427944 0.808707
O O19 0.000000 0.530472 0.848880
O O20 0.250000 0.283280 0.750000
O O21 0.000000 0.307830 0.803444
O O22 0.000000 0.242307 0.028064
#
# Coordination Sequence:
#
# PCOD8219583 Si02
#       8
#     8   8   8   8   8   8   8   8
#     4  11  23  38  57  87 124 154 187 242 302 351
#     4  11  24  41  61  85 119 157 199 247 297 353
#     4   9  19  37  60  87 117 149 193 245 291 347
#     4  10  19  36  62  89 116 154 199 239 288 354
#     4  11  23  36  51  80 123 162 196 242 299 353
#     4  11  22  37  60  86 114 154 204 248 293 349
#     4  10  22  40  60  84 115 152 196 246 293 340
#     4  11  20  35  60  85 115 154 196 238 290 357
#
# _framework density 19.756713999999999
#
# number of rings (size 3 to 8) (size 9 to 14) (size 15 to 20)
#    0.000    1.500    2.500    3.000    0.000    5.750 
#    0.000    2.500    0.000    3.000    0.000    0.000 
#    0.000    0.000    0.000    0.000    0.000    0.000 
#
# Total GULP energy -793469.332090 kJ/mol
# GULP energy per Si atom -12397.958314 kJ/mol
# Density = 1.971175 g / cm^3
# Si number density = 19.756714 Si / 1000 Ang^3
#
#
#
# Elastic Constant Matrix: (Units=GPa)
#
#
# Indices 1 2 3 4 5 6 
#
# 1 43.1834 33.0219 36.2819 0.0000 0.0000 0.0000
# 2 33.0219 98.1997 45.9298 0.0000 0.0000 0.0000
# 3 36.2819 45.9298 132.9458 0.0000 0.0000 0.0000
# 4 0.0000 0.0000 0.0000 24.1942 0.0000 0.0000
# 5 0.0000 0.0000 0.0000 0.0000 27.3359 0.0000
# 6 0.0000 0.0000 0.0000 0.0000 0.0000 24.3635
#
#
#
# Elastic Compliance Matrix: (Units=1/GPa)
#
#
# Indices 1 2 3 4 5 6 
#
# 1 0.035481 -0.008829 -0.006633 0.000000 0.000000 0.000000
# 2 -0.008829 0.014343 -0.002546 0.000000 0.000000 0.000000
# 3 -0.006633 -0.002546 0.010211 0.000000 0.000000 0.000000
# 4 0.000000 0.000000 0.000000 0.041332 0.000000 0.000000
# 5 0.000000 0.000000 0.000000 0.000000 0.036582 0.000000
# 6 0.000000 0.000000 0.000000 0.000000 0.000000 0.041045
#
#
# Mechanical properties :
#
#
# Convention : Reuss Voigt Hill
#
# Bulk Modulus (GPa) = 41.63097 56.08845 48.85971
# Shear Modulus (GPa) = 22.41979 25.78506 24.10242
#
# Velocity S-wave (km/s) = 3.37232 3.61658 3.49658
# Velocity P-wave (km/s) = 6.02337 6.77427 6.40982
#
# Compressibility (1/GPa) = 0.02402058
#
# Stress axis : x y z
#
# Youngs Moduli (GPa) = 28.18379 69.72060 97.92894
#
# Poissons Ratio (x) = 0.61557 0.64955
# Poissons Ratio (y) = 0.24884 0.24929
# Poissons Ratio (z) = 0.18694 0.17748
#
# Static dielectric constant tensor:
#      x y z
#    x 3.530040 0.000000 0.000000 
#    y 0.000000 3.915840 0.000000 
#    z 0.000000 0.000000 3.890540 
# 
# 
# High freq. dielectric constant tensor:
#      x y z
#    x 1.757340 0.000000 0.000000 
#    y 0.000000 1.768530 0.000000 
#    z 0.000000 0.000000 1.771970 
# 
# From -- ./inp_files/34260.got.cif
#   From: 2010.03.12/outbox.cif.g09.slc.cpg/sg53_18_cif.got.tgz:34260.got - 2010.04.16 14:36:59.
