data_PCOD8219343
_publ_section_title
;
Structure prediction by ZEFSAII (Michael W. Deem and Ramdas Pophale) SiO2 
 PCOD8219343
Probable space group: P M N A
;
_chemical_formula_sum "Si O2"
_cell_formula_units_Z 48
_cell_length_a 9.175394
_cell_length_b 9.803155
_cell_length_c 27.865098
_cell_angle_alpha 90.000000
_cell_angle_beta 90.000000
_cell_angle_gamma 90.000000
_cell_volume 2506.404528
_symmetry_space_group_name_H-M "P M N A"
_symmetry_group_IT_number 53
_symmetry_cell_setting 'orthorhombic'
loop_
_space_group_symop_operation_xyz
x,y,z
1/2-x,-y,1/2+z
x,-y,-z
1/2-x,y,1/2-z
-x,-y,-z
1/2+x,y,1/2-z
-x,y,z
1/2+x,-y,1/2+z
loop_
_atom_site_type_symbol
_atom_site_label
_atom_site_fract_x
_atom_site_fract_y
_atom_site_fract_z
Si Si1 0.669651 0.776634 0.608233
Si Si2 0.831804 0.046703 0.949045
Si Si3 0.828763 0.840498 0.701690
Si Si4 0.332056 0.273966 0.896016
Si Si5 0.668729 0.158481 0.796897
Si Si6 0.331836 0.449713 0.052517
O O1 0.500000 0.744935 0.617136
O O2 0.693129 0.930264 0.590318
O O3 0.758974 0.757726 0.657481
O O4 0.730913 0.675620 0.567752
O O5 0.000000 0.084648 0.954871
O O6 0.750904 0.183816 0.934676
O O7 0.766834 0.000000 0.000000
O O8 0.750000 0.789275 0.750000
O O9 0.797076 0.000041 0.693945
O O10 0.000000 0.808149 0.704776
O O11 0.500000 0.230532 0.898966
O O12 0.308318 0.431456 0.908481
O O13 0.273218 0.244567 0.842380
O O14 0.750000 0.213734 0.750000
O O15 0.500000 0.183815 0.787684
O O16 0.500000 0.402126 0.051175
O O17 0.282663 0.500000 0.000000
#
# Coordination Sequence:
#
# PCOD8219343 Si02
#       6
#     8   8   8   8   8   8
#     4  11  22  36  56  83 114 149 190 232 282 340
#     4  10  21  35  53  80 111 142 182 233 282 331
#     4  10  19  34  57  84 115 146 182 229 282 335
#     4  10  20  36  56  81 109 142 186 231 280 334
#     4   9  18  32  53  81 110 140 175 222 276 329
#     4  10  22  39  58  80 111 153 195 236 286 341
#
# _framework density 19.150939000000001
#
# number of rings (size 3 to 8) (size 9 to 14) (size 15 to 20)
#    0.000    2.000    1.667    2.000    0.000    3.333 
#    0.000    0.833    0.000    2.000    0.000    0.000 
#    0.000    0.000    0.000    0.000    0.000    0.000 
#
# Total GULP energy -595396.495199 kJ/mol
# GULP energy per Si atom -12404.093650 kJ/mol
# Density = 1.910735 g / cm^3
# Si number density = 19.150939 Si / 1000 Ang^3
#
#
#
# Elastic Constant Matrix: (Units=GPa)
#
#
# Indices 1 2 3 4 5 6 
#
# 1 74.2520 19.4277 36.0496 0.0000 0.0000 0.0000
# 2 19.4277 31.1094 1.8731 0.0000 0.0000 0.0000
# 3 36.0496 1.8731 112.2786 0.0000 0.0000 0.0000
# 4 0.0000 0.0000 0.0000 32.7824 0.0000 0.0000
# 5 0.0000 0.0000 0.0000 0.0000 37.1748 0.0000
# 6 0.0000 0.0000 0.0000 0.0000 0.0000 21.8274
#
#
#
# Elastic Compliance Matrix: (Units=1/GPa)
#
#
# Indices 1 2 3 4 5 6 
#
# 1 0.019503 -0.011815 -0.006065 0.000000 0.000000 0.000000
# 2 -0.011815 0.039334 0.003137 0.000000 0.000000 0.000000
# 3 -0.006065 0.003137 0.010801 0.000000 0.000000 0.000000
# 4 0.000000 0.000000 0.000000 0.030504 0.000000 0.000000
# 5 0.000000 0.000000 0.000000 0.000000 0.026900 0.000000
# 6 0.000000 0.000000 0.000000 0.000000 0.000000 0.045814
#
#
# Mechanical properties :
#
#
# Convention : Reuss Voigt Hill
#
# Bulk Modulus (GPa) = 24.90413 36.92675 30.91544
# Shear Modulus (GPa) = 23.17750 29.04289 26.11020
#
# Velocity S-wave (km/s) = 3.48264 3.89848 3.69642
# Velocity P-wave (km/s) = 5.40408 6.29190 5.86482
#
# Compressibility (1/GPa) = 0.04015398
#
# Stress axis : x y z
#
# Youngs Moduli (GPa) = 51.27294 25.42328 92.58088
#
# Poissons Ratio (x) = 0.30037 0.56150
# Poissons Ratio (y) = 0.60577 -0.29044
# Poissons Ratio (z) = 0.31097 -0.07976
#
# Static dielectric constant tensor:
#      x y z
#    x 3.432030 0.000000 0.000000 
#    y 0.000000 3.214060 0.000000 
#    z 0.000000 0.000000 3.673620 
# 
# 
# High freq. dielectric constant tensor:
#      x y z
#    x 1.742780 0.000000 0.000000 
#    y 0.000000 1.720210 0.000000 
#    z 0.000000 0.000000 1.760640 
# 
# From -- ./inp_files/37760.got.cif
#   From: 2010.03.12/outbox.cif.g09.slc.cpg/sg53_19_cif.got.tgz:37760.got - 2010.04.16 14:36:59.
