data_PCOD8219853
_publ_section_title
;
Structure prediction by ZEFSAII (Michael W. Deem and Ramdas Pophale) SiO2 
 PCOD8219853
Probable space group: P M N A
;
_chemical_formula_sum "Si O2"
_cell_formula_units_Z 40
_cell_length_a 9.018729
_cell_length_b 13.068926
_cell_length_c 18.766969
_cell_angle_alpha 90.000000
_cell_angle_beta 90.000000
_cell_angle_gamma 90.000000
_cell_volume 2211.970714
_symmetry_space_group_name_H-M "P M N A"
_symmetry_group_IT_number 53
_symmetry_cell_setting 'orthorhombic'
loop_
_space_group_symop_operation_xyz
x,y,z
1/2-x,-y,1/2+z
x,-y,-z
1/2-x,y,1/2-z
-x,-y,-z
1/2+x,y,1/2-z
-x,y,z
1/2+x,-y,1/2+z
loop_
_atom_site_type_symbol
_atom_site_label
_atom_site_fract_x
_atom_site_fract_y
_atom_site_fract_z
Si Si1 0.672412 0.675204 0.173950
Si Si2 0.825566 0.493870 0.918220
Si Si3 0.671686 0.097928 0.825729
Si Si4 0.172373 0.683458 0.825060
Si Si5 0.326470 0.908308 0.673479
O O1 0.750000 0.660634 0.250000
O O2 0.500000 0.650884 0.185600
O O3 0.740734 0.600141 0.116426
O O4 0.694271 0.789471 0.140634
O O5 0.773578 0.599148 0.881218
O O6 0.000000 0.475322 0.909701
O O7 0.777704 0.500000 0.000000
O O8 0.750000 0.103147 0.750000
O O9 0.500000 0.071162 0.816904
O O10 0.750451 0.003909 0.869658
O O11 0.250000 0.664878 0.750000
O O12 0.205130 0.795860 0.859725
O O13 0.000000 0.672245 0.808765
O O14 0.250000 0.906292 0.750000
O O15 0.500000 0.930051 0.679921
#
# Coordination Sequence:
#
# PCOD8219853 Si02
#       5
#     8   8   8   8   8
#     4  10  20  33  51  75 101 128 161 201 241 286
#     4  10  21  36  52  70  96 130 166 205 248 292
#     4   9  16  26  42  67  97 124 152 189 234 281
#     4   9  18  31  48  72  98 124 157 197 239 284
#     4   9  15  24  41  66  95 122 150 187 232 281
#
# _framework density 18.083421999999999
#
# number of rings (size 3 to 8) (size 9 to 14) (size 15 to 20)
#    0.000    2.600    0.000    3.600    0.000    6.000 
#    0.000    0.000    0.000    1.200    0.000    8.400 
#    0.000    0.000    0.000    0.000    0.000    0.000 
#
# Total GULP energy -495571.546561 kJ/mol
# GULP energy per Si atom -12389.288664 kJ/mol
# Density = 1.804226 g / cm^3
# Si number density = 18.083422 Si / 1000 Ang^3
#
#
#
# Elastic Constant Matrix: (Units=GPa)
#
#
# Indices 1 2 3 4 5 6 
#
# 1 95.5944 76.6097 38.5606 0.0000 0.0000 0.0000
# 2 76.6097 193.9660 68.0657 0.0000 0.0000 0.0000
# 3 38.5606 68.0657 76.7962 0.0000 0.0000 0.0000
# 4 0.0000 0.0000 0.0000 0.1690 0.0000 0.0000
# 5 0.0000 0.0000 0.0000 0.0000 16.8362 0.0000
# 6 0.0000 0.0000 0.0000 0.0000 0.0000 38.1406
#
#
#
# Elastic Compliance Matrix: (Units=1/GPa)
#
#
# Indices 1 2 3 4 5 6 
#
# 1 0.015934 -0.005059 -0.003517 0.000000 0.000000 0.000000
# 2 -0.005059 0.009089 -0.005516 0.000000 0.000000 0.000000
# 3 -0.003517 -0.005516 0.019676 0.000000 0.000000 0.000000
# 4 0.000000 0.000000 0.000000 5.918319 0.000000 0.000000
# 5 0.000000 0.000000 0.000000 0.000000 0.059396 0.000000
# 6 0.000000 0.000000 0.000000 0.000000 0.000000 0.026219
#
#
# Mechanical properties :
#
#
# Convention : Reuss Voigt Hill
#
# Bulk Modulus (GPa) = 60.54718 81.42543 70.98631
# Shear Modulus (GPa) = 0.82205 23.23720 12.02963
#
# Velocity S-wave (km/s) = 0.67496 3.58858 2.58200
# Velocity P-wave (km/s) = 5.84485 7.89278 6.94472
#
# Compressibility (1/GPa) = 0.01651604
#
# Stress axis : x y z
#
# Youngs Moduli (GPa) = 62.75918 110.01911 50.82395
#
# Poissons Ratio (x) = 0.55662 0.17872
# Poissons Ratio (y) = 0.31752 0.28033
# Poissons Ratio (z) = 0.22069 0.60683
#
# Static dielectric constant tensor:
#      x y z
#    x 3.436230 0.000000 0.000000 
#    y 0.000000 4.908600 0.000000 
#    z 0.000000 0.000000 2.832680 
# 
# 
# High freq. dielectric constant tensor:
#      x y z
#    x 1.710700 0.000000 0.000000 
#    y 0.000000 1.736220 0.000000 
#    z 0.000000 0.000000 1.630400 
# 
# From -- ./inp_files/25981.got.cif
#   From: 2010.03.12/outbox.cif.g09.slc.cpg/sg53_13_cif.got.tgz:25981.got - 2010.04.16 14:36:59.
