data_PCOD8219219
_publ_section_title
;
Structure prediction by ZEFSAII (Michael W. Deem and Ramdas Pophale) SiO2 
 PCOD8219219
Probable space group: P M N A
;
_chemical_formula_sum "Si O2"
_cell_formula_units_Z 48
_cell_length_a 17.089769
_cell_length_b 9.530258
_cell_length_c 14.123800
_cell_angle_alpha 90.000000
_cell_angle_beta 90.000000
_cell_angle_gamma 90.000000
_cell_volume 2300.342003
_symmetry_space_group_name_H-M "P M N A"
_symmetry_group_IT_number 53
_symmetry_cell_setting 'orthorhombic'
loop_
_space_group_symop_operation_xyz
x,y,z
1/2-x,-y,1/2+z
x,-y,-z
1/2-x,y,1/2-z
-x,-y,-z
1/2+x,y,1/2-z
-x,y,z
1/2+x,-y,1/2+z
loop_
_atom_site_type_symbol
_atom_site_label
_atom_site_fract_x
_atom_site_fract_y
_atom_site_fract_z
Si Si1 0.174818 0.564924 0.190007
Si Si2 0.281079 0.654069 0.027242
Si Si3 0.837713 0.730327 0.883104
Si Si4 0.835955 0.020112 0.782717
Si Si5 0.083043 0.855186 0.050408
Si Si6 0.409265 0.236626 0.834549
O O1 0.250000 0.528451 0.250000
O O2 0.204259 0.643182 0.095108
O O3 0.137323 0.413851 0.166923
O O4 0.112929 0.657978 0.248273
O O5 0.353920 0.735978 0.074215
O O6 0.312319 0.500000 0.000000
O O7 0.250200 0.729281 0.930255
O O8 0.845470 0.855825 0.806430
O O9 0.897303 0.743486 0.969803
O O10 0.750000 0.059024 0.750000
O O11 0.849029 0.120477 0.873157
O O12 0.894927 0.075467 0.700515
O O13 0.000000 0.809750 0.098891
O O14 0.069030 0.000000 0.000000
O O15 0.500000 0.256485 0.862991
#
# Coordination Sequence:
#
# PCOD8219219 Si02
#       6
#     8   8   8   8   8   8
#     4   9  18  35  56  82 110 140 183 231 273 320
#     4   9  19  37  60  82 108 144 191 235 271 322
#     4  10  19  33  58  84 105 137 182 234 277 317
#     4  11  21  34  54  79 107 142 184 226 273 326
#     4   9  18  31  47  71 104 137 166 204 263 327
#     4  11  22  36  56  82 115 151 182 221 278 339
#
# _framework density 20.866463
#
# number of rings (size 3 to 8) (size 9 to 14) (size 15 to 20)
#    0.000    2.167    0.000    4.500    0.000    1.667 
#    0.000    0.000    0.000    8.000    0.000    0.000 
#    0.000    0.000    0.000    0.000    0.000    0.000 
#
# Total GULP energy -594670.223764 kJ/mol
# GULP energy per Si atom -12388.962995 kJ/mol
# Density = 2.081897 g / cm^3
# Si number density = 20.866463 Si / 1000 Ang^3
#
#
#
# Elastic Constant Matrix: (Units=GPa)
#
#
# Indices 1 2 3 4 5 6 
#
# 1 110.0969 34.0917 25.2484 0.0000 0.0000 0.0000
# 2 34.0917 109.4483 31.4107 0.0000 0.0000 0.0000
# 3 25.2484 31.4107 56.1474 0.0000 0.0000 0.0000
# 4 0.0000 0.0000 0.0000 37.0910 0.0000 0.0000
# 5 0.0000 0.0000 0.0000 0.0000 20.8317 0.0000
# 6 0.0000 0.0000 0.0000 0.0000 0.0000 14.7185
#
#
#
# Elastic Compliance Matrix: (Units=1/GPa)
#
#
# Indices 1 2 3 4 5 6 
#
# 1 0.010593 -0.002302 -0.003476 0.000000 0.000000 0.000000
# 2 -0.002302 0.011385 -0.005334 0.000000 0.000000 0.000000
# 3 -0.003476 -0.005334 0.022357 0.000000 0.000000 0.000000
# 4 0.000000 0.000000 0.000000 0.026961 0.000000 0.000000
# 5 0.000000 0.000000 0.000000 0.000000 0.048004 0.000000
# 6 0.000000 0.000000 0.000000 0.000000 0.000000 0.067942
#
#
# Mechanical properties :
#
#
# Convention : Reuss Voigt Hill
#
# Bulk Modulus (GPa) = 45.22483 50.79936 48.01209
# Shear Modulus (GPa) = 23.05919 26.85770 24.95844
#
# Velocity S-wave (km/s) = 3.32789 3.59154 3.46222
# Velocity P-wave (km/s) = 6.04044 6.44955 6.24835
#
# Compressibility (1/GPa) = 0.02211175
#
# Stress axis : x y z
#
# Youngs Moduli (GPa) = 94.40389 87.83863 44.72882
#
# Poissons Ratio (x) = 0.20221 0.15546
# Poissons Ratio (y) = 0.21732 0.23857
# Poissons Ratio (z) = 0.32810 0.46850
#
# Static dielectric constant tensor:
#      x y z
#    x 4.083150 0.000000 0.000000 
#    y 0.000000 3.805290 0.000000 
#    z 0.000000 0.000000 3.985070 
# 
# 
# High freq. dielectric constant tensor:
#      x y z
#    x 1.792750 0.000000 0.000000 
#    y 0.000000 1.820450 0.000000 
#    z 0.000000 0.000000 1.811650 
# 
# From -- ./inp_files/22704.got.cif
#   From: 2010.03.12/outbox.cif.g09.slc.cpg/sg53_12_cif.got.tgz:22704.got - 2010.04.16 14:36:59.
