data_PCOD8219794
_publ_section_title
;
Structure prediction by ZEFSAII (Michael W. Deem and Ramdas Pophale) SiO2 
 PCOD8219794
Probable space group: P M N A
;
_chemical_formula_sum "Si O2"
_cell_formula_units_Z 40
_cell_length_a 9.089803
_cell_length_b 15.675460
_cell_length_c 14.031303
_cell_angle_alpha 90.000000
_cell_angle_beta 90.000000
_cell_angle_gamma 90.000000
_cell_volume 1999.276072
_symmetry_space_group_name_H-M "P M N A"
_symmetry_group_IT_number 53
_symmetry_cell_setting 'orthorhombic'
loop_
_space_group_symop_operation_xyz
x,y,z
1/2-x,-y,1/2+z
x,-y,-z
1/2-x,y,1/2-z
-x,-y,-z
1/2+x,y,1/2-z
-x,y,z
1/2+x,-y,1/2+z
loop_
_atom_site_type_symbol
_atom_site_label
_atom_site_fract_x
_atom_site_fract_y
_atom_site_fract_z
Si Si1 0.172416 0.631623 0.462276
Si Si2 0.671413 0.536129 0.848994
Si Si3 0.164489 0.034374 0.605911
Si Si4 0.328587 0.127514 0.338201
Si Si5 0.827634 0.194975 0.954907
O O1 0.220095 0.602423 0.568598
O O2 0.209711 0.558510 0.385744
O O3 0.267065 0.712232 0.429397
O O4 0.000000 0.653960 0.460940
O O5 0.750000 0.557494 0.750000
O O6 0.500000 0.544873 0.830034
O O7 0.244409 0.125993 0.610262
O O8 0.000000 0.042438 0.649318
O O9 0.154065 0.000000 0.500000
O O10 0.262814 0.967824 0.663563
O O11 0.250000 0.176915 0.250000
O O12 0.500000 0.121135 0.318665
O O13 0.292904 0.177793 0.434344
O O14 0.000000 0.189248 0.932911
#
# Coordination Sequence:
#
# PCOD8219794 Si02
#       5
#     8   8   8   8   8
#     4   9  19  36  55  77 107 141 175 213 264 322
#     4   9  19  36  57  79 105 138 174 215 264 318
#     4   9  17  31  51  71  94 129 167 202 247 299
#     4  10  20  33  49  72 103 135 170 213 258 305
#     4  10  20  33  51  76 103 132 170 215 257 302
#
# _framework density 20.007242000000002
#
# number of rings (size 3 to 8) (size 9 to 14) (size 15 to 20)
#    0.000    2.600    0.000    3.000    0.000    7.200 
#    0.000    7.000    0.000    2.400    0.000    0.000 
#    0.000    0.000    0.000    0.000    0.000    0.000 
#
# Total GULP energy -495929.156747 kJ/mol
# GULP energy per Si atom -12398.228919 kJ/mol
# Density = 1.996170 g / cm^3
# Si number density = 20.007242 Si / 1000 Ang^3
#
#
#
# Elastic Constant Matrix: (Units=GPa)
#
#
# Indices 1 2 3 4 5 6 
#
# 1 73.1667 16.2026 0.0118 0.0000 0.0000 0.0000
# 2 16.2026 75.5055 -23.6008 0.0000 0.0000 0.0000
# 3 0.0118 -23.6008 35.5414 0.0000 0.0000 0.0000
# 4 0.0000 0.0000 0.0000 13.2218 0.0000 0.0000
# 5 0.0000 0.0000 0.0000 0.0000 26.7329 0.0000
# 6 0.0000 0.0000 0.0000 0.0000 0.0000 28.0721
#
#
#
# Elastic Compliance Matrix: (Units=1/GPa)
#
#
# Indices 1 2 3 4 5 6 
#
# 1 0.014540 -0.003939 -0.002621 0.000000 0.000000 0.000000
# 2 -0.003939 0.017780 0.011808 0.000000 0.000000 0.000000
# 3 -0.002621 0.011808 0.035978 0.000000 0.000000 0.000000
# 4 0.000000 0.000000 0.000000 0.075633 0.000000 0.000000
# 5 0.000000 0.000000 0.000000 0.000000 0.037407 0.000000
# 6 0.000000 0.000000 0.000000 0.000000 0.000000 0.035623
#
#
# Mechanical properties :
#
#
# Convention : Reuss Voigt Hill
#
# Bulk Modulus (GPa) = 12.69124 18.82677 15.75901
# Shear Modulus (GPa) = 21.48417 26.37870 23.93143
#
# Velocity S-wave (km/s) = 3.28047 3.63500 3.46228
# Velocity P-wave (km/s) = 4.55036 5.20077 4.88640
#
# Compressibility (1/GPa) = 0.07879448
#
# Stress axis : x y z
#
# Youngs Moduli (GPa) = 68.77493 56.24229 27.79480
#
# Poissons Ratio (x) = 0.22155 0.07284
# Poissons Ratio (y) = 0.27092 -0.32820
# Poissons Ratio (z) = 0.18023 -0.66411
#
# Static dielectric constant tensor:
#      x y z
#    x 3.627280 0.000000 0.000000 
#    y 0.000000 3.499760 0.000000 
#    z 0.000000 0.000000 3.641150 
# 
# 
# High freq. dielectric constant tensor:
#      x y z
#    x 1.783780 0.000000 0.000000 
#    y 0.000000 1.770460 0.000000 
#    z 0.000000 0.000000 1.772320 
# 
# From -- ./inp_files/19851.got.cif
#   From: 2010.03.12/outbox.cif.g09.slc.cpg/sg53_10_cif.got.tgz:19851.got - 2010.04.16 14:36:59.
