data_PCOD8219858
_publ_section_title
;
Structure prediction by ZEFSAII (Michael W. Deem and Ramdas Pophale) SiO2 
 PCOD8219858
Probable space group: P M N A
;
_chemical_formula_sum "Si O2"
_cell_formula_units_Z 48
_cell_length_a 8.851407
_cell_length_b 30.320561
_cell_length_c 9.548527
_cell_angle_alpha 90.000000
_cell_angle_beta 90.000000
_cell_angle_gamma 90.000000
_cell_volume 2562.630104
_symmetry_space_group_name_H-M "P M N A"
_symmetry_group_IT_number 53
_symmetry_cell_setting 'orthorhombic'
loop_
_space_group_symop_operation_xyz
x,y,z
1/2-x,-y,1/2+z
x,-y,-z
1/2-x,y,1/2-z
-x,-y,-z
1/2+x,y,1/2-z
-x,y,z
1/2+x,-y,1/2+z
loop_
_atom_site_type_symbol
_atom_site_label
_atom_site_fract_x
_atom_site_fract_y
_atom_site_fract_z
Si Si1 0.323560 0.891726 0.396149
Si Si2 0.677475 0.041122 0.098850
Si Si3 0.675555 0.722760 0.900101
Si Si4 0.175210 0.210775 0.893052
Si Si5 0.321465 0.459724 0.402840
Si Si6 0.675720 0.626287 0.900607
O O1 0.250000 0.907578 0.250000
O O2 0.500000 0.902954 0.388828
O O3 0.248488 0.915829 0.527579
O O4 0.292057 0.840388 0.422043
O O5 0.750000 0.032840 0.250000
O O6 0.500000 0.048305 0.117598
O O7 0.715629 0.000000 0.000000
O O8 0.750000 0.722563 0.750000
O O9 0.500000 0.733715 0.884518
O O10 0.698755 0.674355 0.973336
O O11 0.753386 0.761289 0.984483
O O12 0.250000 0.226479 0.750000
O O13 0.000000 0.221069 0.883039
O O14 0.270457 0.500000 0.500000
O O15 0.250000 0.466275 0.250000
O O16 0.500000 0.456760 0.388403
O O17 0.258730 0.414704 0.477338
O O18 0.750000 0.629599 0.750000
O O19 0.500000 0.614928 0.885800
#
# Coordination Sequence:
#
# PCOD8219858 Si02
#       6
#     8   8   8   8   8   8
#     4  10  21  38  60  84 111 145 184 224 269 321
#     4  11  24  40  60  86 115 148 185 226 272 321
#     4  10  20  34  54  80 107 138 178 221 265 315
#     4  10  21  37  57  81 110 145 181 220 269 322
#     4  10  20  33  51  75 101 132 170 211 258 311
#     4   9  17  30  50  74 100 133 171 211 258 310
#
# _framework density 18.730757000000001
#
# number of rings (size 3 to 8) (size 9 to 14) (size 15 to 20)
#    0.000    2.000    0.000    4.500    0.000    8.667 
#    0.000    0.833    0.000    2.000    0.000    0.000 
#    0.000    0.000    0.000    0.000    0.000    0.000 
#
# Total GULP energy -595097.403458 kJ/mol
# GULP energy per Si atom -12397.862572 kJ/mol
# Density = 1.868812 g / cm^3
# Si number density = 18.730757 Si / 1000 Ang^3
#
#
#
# Elastic Constant Matrix: (Units=GPa)
#
#
# Indices 1 2 3 4 5 6 
#
# 1 121.4785 68.8430 56.7688 0.0000 0.0000 0.0000
# 2 68.8430 104.9206 62.6845 0.0000 0.0000 0.0000
# 3 56.7688 62.6845 100.5324 0.0000 0.0000 0.0000
# 4 0.0000 0.0000 0.0000 34.2271 0.0000 0.0000
# 5 0.0000 0.0000 0.0000 0.0000 32.9747 0.0000
# 6 0.0000 0.0000 0.0000 0.0000 0.0000 -206.1852
#
#
#
# Elastic Compliance Matrix: (Units=1/GPa)
#
#
# Indices 1 2 3 4 5 6 
#
# 1 0.013806 -0.007014 -0.003423 0.000000 0.000000 0.000000
# 2 -0.007014 0.018753 -0.007732 0.000000 0.000000 0.000000
# 3 -0.003423 -0.007732 0.016701 0.000000 0.000000 0.000000
# 4 0.000000 0.000000 0.000000 0.029217 0.000000 0.000000
# 5 0.000000 0.000000 0.000000 0.000000 0.030326 0.000000
# 6 0.000000 0.000000 0.000000 0.000000 0.000000 -0.004850
#
#
# Mechanical properties :
#
#
# Convention : Reuss Voigt Hill
#
# Bulk Modulus (GPa) = 77.38589 78.16936 77.77762
# Shear Modulus (GPa) = 34.57858 -18.55434 8.01212
#
# Velocity S-wave (km/s) = 4.30127 -3.15076 2.07046
# Velocity P-wave (km/s) = 8.12850 5.34671 6.87967
#
# Compressibility (1/GPa) = 0.01292225
#
# Stress axis : x y z
#
# Youngs Moduli (GPa) = 72.43055 53.32555 59.87670
#
# Poissons Ratio (x) = 0.37403 0.20494
# Poissons Ratio (y) = 0.50803 0.46297
# Poissons Ratio (z) = 0.24791 0.41232
#
# Static dielectric constant tensor:
#      x y z
#    x 3.623190 0.000000 0.000000 
#    y 0.000000 3.958180 0.000000 
#    z 0.000000 0.000000 3.349580 
# 
# 
# High freq. dielectric constant tensor:
#      x y z
#    x 1.748540 0.000000 0.000000 
#    y 0.000000 1.745210 0.000000 
#    z 0.000000 0.000000 1.700300 
# 
# From -- ./inp_files/6608.got.cif
#   From: 2010.03.12/outbox.cif.g09.slc.cpg/sg53_4_cif.got.tgz:6608.got - 2010.04.16 14:36:59.
