data_PCOD8219578
_publ_section_title
;
Structure prediction by ZEFSAII (Michael W. Deem and Ramdas Pophale) SiO2 
 PCOD8219578
Probable space group: P M N A
;
_chemical_formula_sum "Si O2"
_cell_formula_units_Z 48
_cell_length_a 15.174319
_cell_length_b 15.397748
_cell_length_c 9.952085
_cell_angle_alpha 90.000000
_cell_angle_beta 90.000000
_cell_angle_gamma 90.000000
_cell_volume 2325.308044
_symmetry_space_group_name_H-M "P M N A"
_symmetry_group_IT_number 53
_symmetry_cell_setting 'orthorhombic'
loop_
_space_group_symop_operation_xyz
x,y,z
1/2-x,-y,1/2+z
x,-y,-z
1/2-x,y,1/2-z
-x,-y,-z
1/2+x,y,1/2-z
-x,y,z
1/2+x,-y,1/2+z
loop_
_atom_site_type_symbol
_atom_site_label
_atom_site_fract_x
_atom_site_fract_y
_atom_site_fract_z
Si Si1 0.897672 0.343366 0.745992
Si Si2 0.245999 0.917163 0.091680
Si Si3 0.150476 0.289101 0.264222
Si Si4 0.103644 0.523117 0.652262
Si Si5 0.099128 0.777173 0.018234
Si Si6 0.600457 0.205742 0.965026
O O1 0.860393 0.441131 0.738643
O O2 0.857397 0.278807 0.633438
O O3 0.000000 0.349749 0.709792
O O4 0.877228 0.306789 0.892483
O O5 0.250000 0.940652 0.250000
O O6 0.340460 0.879512 0.049002
O O7 0.166719 0.852296 0.056196
O O8 0.227674 0.000000 0.000000
O O9 0.250000 0.256258 0.250000
O O10 0.151062 0.392189 0.289474
O O11 0.100295 0.258025 0.132173
O O12 0.101841 0.240956 0.384708
O O13 0.129055 0.500000 0.500000
O O14 0.000000 0.540051 0.666959
O O15 0.000000 0.810564 0.050947
O O16 0.500000 0.181615 0.925530
#
# Coordination Sequence:
#
# PCOD8219578 Si02
#       6
#     8   8   8   8   8   8
#     4   9  19  38  66  92 125 179 226 264 323 383
#     4  12  28  47  72 103 138 168 212 276 335 406
#     4  12  24  40  62  99 137 177 227 281 327 385
#     4  10  19  36  61  92 130 174 229 280 319 378
#     4  11  24  45  69  95 135 180 218 271 339 393
#     4  11  22  44  72  94 129 181 226 265 326 403
#
# _framework density 20.642426
#
# number of rings (size 3 to 8) (size 9 to 14) (size 15 to 20)
#    0.000    1.167    5.000    1.500    2.333    1.333 
#    6.000    2.500    0.000    0.000    0.000    0.000 
#    0.000    0.000    0.000    0.000    0.000    0.000 
#
# Total GULP energy -595202.153438 kJ/mol
# GULP energy per Si atom -12400.044863 kJ/mol
# Density = 2.059544 g / cm^3
# Si number density = 20.642426 Si / 1000 Ang^3
#
#
#
# Elastic Constant Matrix: (Units=GPa)
#
#
# Indices 1 2 3 4 5 6 
#
# 1 95.5861 36.7836 19.2722 0.0000 0.0000 0.0000
# 2 36.7836 103.3655 46.9057 0.0000 0.0000 0.0000
# 3 19.2722 46.9057 153.2085 0.0000 0.0000 0.0000
# 4 0.0000 0.0000 0.0000 30.3004 0.0000 0.0000
# 5 0.0000 0.0000 0.0000 0.0000 7.7563 0.0000
# 6 0.0000 0.0000 0.0000 0.0000 0.0000 25.6102
#
#
#
# Elastic Compliance Matrix: (Units=1/GPa)
#
#
# Indices 1 2 3 4 5 6 
#
# 1 0.012129 -0.004209 -0.000237 0.000000 0.000000 0.000000
# 2 -0.004209 0.012696 -0.003357 0.000000 0.000000 0.000000
# 3 -0.000237 -0.003357 0.007585 0.000000 0.000000 0.000000
# 4 0.000000 0.000000 0.000000 0.033003 0.000000 0.000000
# 5 0.000000 0.000000 0.000000 0.000000 0.128927 0.000000
# 6 0.000000 0.000000 0.000000 0.000000 0.000000 0.039047
#
#
# Mechanical properties :
#
#
# Convention : Reuss Voigt Hill
#
# Bulk Modulus (GPa) = 59.51317 62.00922 60.76120
# Shear Modulus (GPa) = 19.63909 29.34662 24.49285
#
# Velocity S-wave (km/s) = 3.08781 3.77459 3.44834
# Velocity P-wave (km/s) = 6.45026 7.00725 6.73452
#
# Compressibility (1/GPa) = 0.01680300
#
# Stress axis : x y z
#
# Youngs Moduli (GPa) = 82.44581 78.76713 131.84267
#
# Poissons Ratio (x) = 0.33150 0.03128
# Poissons Ratio (y) = 0.34698 0.44265
# Poissons Ratio (z) = 0.01956 0.26446
#
# Static dielectric constant tensor:
#      x y z
#    x 3.651930 0.000000 0.000000 
#    y 0.000000 3.719910 0.000000 
#    z 0.000000 0.000000 3.814620 
# 
# 
# High freq. dielectric constant tensor:
#      x y z
#    x 1.806000 0.000000 0.000000 
#    y 0.000000 1.796840 0.000000 
#    z 0.000000 0.000000 1.819370 
# 
# From -- ./inp_files/8613.got.cif
#   From: 2010.03.12/outbox.cif.g09.slc.cpg/sg53_5_cif.got.tgz:8613.got - 2010.04.16 14:36:59.
