data_PCOD8219386
_publ_section_title
;
Structure prediction by ZEFSAII (Michael W. Deem and Ramdas Pophale) SiO2 
 PCOD8219386
Probable space group: P M N A
;
_chemical_formula_sum "Si O2"
_cell_formula_units_Z 48
_cell_length_a 14.333568
_cell_length_b 7.283812
_cell_length_c 21.582888
_cell_angle_alpha 90.000000
_cell_angle_beta 90.000000
_cell_angle_gamma 90.000000
_cell_volume 2253.318571
_symmetry_space_group_name_H-M "P M N A"
_symmetry_group_IT_number 53
_symmetry_cell_setting 'orthorhombic'
loop_
_space_group_symop_operation_xyz
x,y,z
1/2-x,-y,1/2+z
x,-y,-z
1/2-x,y,1/2-z
-x,-y,-z
1/2+x,y,1/2-z
-x,y,z
1/2+x,-y,1/2+z
loop_
_atom_site_type_symbol
_atom_site_label
_atom_site_fract_x
_atom_site_fract_y
_atom_site_fract_z
Si Si1 0.896555 0.771552 0.044698
Si Si2 0.606274 0.166895 0.129350
Si Si3 0.105953 0.298452 0.506905
Si Si4 0.225281 0.837176 0.382332
Si Si5 0.262457 0.551248 0.822179
Si Si6 0.895320 0.645785 0.912851
O O1 0.826496 0.887084 0.088474
O O2 0.892412 0.561027 0.063548
O O3 0.000000 0.853091 0.055196
O O4 0.870348 0.780753 0.971109
O O5 0.500000 0.126605 0.150372
O O6 0.612759 0.180919 0.055308
O O7 0.638770 0.359538 0.158788
O O8 0.677217 0.007677 0.153509
O O9 0.152475 0.500000 0.500000
O O10 0.158466 0.196158 0.560344
O O11 0.000000 0.322319 0.529021
O O12 0.233960 0.664787 0.336615
O O13 0.250000 0.579053 0.750000
O O14 0.180317 0.662608 0.858085
O O15 0.000000 0.690920 0.888313
#
# Coordination Sequence:
#
# PCOD8219386 Si02
#       6
#     8   8   8   8   8   8
#     4   8  15  29  55  87 116 144 184 242 306 368
#     4  11  24  40  61  92 127 161 199 249 306 371
#     4  10  19  34  59  91 124 155 192 242 310 382
#     4  11  21  36  62  89 122 160 200 248 311 371
#     4  11  24  40  60  83 116 163 211 255 298 351
#     4   8  15  31  55  83 112 147 192 243 301 360
#
# _framework density 21.301915999999999
#
# number of rings (size 3 to 8) (size 9 to 14) (size 15 to 20)
#    0.000    2.167    1.667    3.000    2.333    3.333 
#    0.000    0.833    0.000    8.000    0.000    0.000 
#    0.000    0.000    0.000    0.000    0.000    0.000 
#
# Total GULP energy -595049.507916 kJ/mol
# GULP energy per Si atom -12396.864748 kJ/mol
# Density = 2.125343 g / cm^3
# Si number density = 21.301916 Si / 1000 Ang^3
#
#
#
# Elastic Constant Matrix: (Units=GPa)
#
#
# Indices 1 2 3 4 5 6 
#
# 1 134.0473 36.5244 49.6348 0.0000 0.0000 0.0000
# 2 36.5244 43.7737 -0.9892 0.0000 0.0000 0.0000
# 3 49.6348 -0.9892 93.7517 0.0000 0.0000 0.0000
# 4 0.0000 0.0000 0.0000 14.2234 0.0000 0.0000
# 5 0.0000 0.0000 0.0000 0.0000 -5.6524 0.0000
# 6 0.0000 0.0000 0.0000 0.0000 0.0000 72.2737
#
#
#
# Elastic Compliance Matrix: (Units=1/GPa)
#
#
# Indices 1 2 3 4 5 6 
#
# 1 0.013088 -0.011080 -0.007046 0.000000 0.000000 0.000000
# 2 -0.011080 0.032230 0.006206 0.000000 0.000000 0.000000
# 3 -0.007046 0.006206 0.014462 0.000000 0.000000 0.000000
# 4 0.000000 0.000000 0.000000 0.070307 0.000000 0.000000
# 5 0.000000 0.000000 0.000000 0.000000 -0.176918 0.000000
# 6 0.000000 0.000000 0.000000 0.000000 0.000000 0.013836
#
#
# Mechanical properties :
#
#
# Convention : Reuss Voigt Hill
#
# Bulk Modulus (GPa) = 27.82369 49.10140 38.46254
# Shear Modulus (GPa) = 1769.60376 28.59579 899.09977
#
# Velocity S-wave (km/s) = 28.85357 3.66786 20.56674
# Velocity P-wave (km/s) = 33.51310 6.40608 24.12640
#
# Compressibility (1/GPa) = 0.03594060
#
# Stress axis : x y z
#
# Youngs Moduli (GPa) = 76.40584 31.02714 69.14502
#
# Poissons Ratio (x) = 0.34377 0.48720
# Poissons Ratio (y) = 0.84656 -0.42911
# Poissons Ratio (z) = 0.53836 -0.19255
#
# Static dielectric constant tensor:
#      x y z
#    x 4.382020 0.000000 0.000000 
#    y 0.000000 3.943490 0.000000 
#    z 0.000000 0.000000 3.442520 
# 
# 
# High freq. dielectric constant tensor:
#      x y z
#    x 1.849070 0.000000 0.000000 
#    y 0.000000 1.836820 0.000000 
#    z 0.000000 0.000000 1.785940 
# 
# From -- ./inp_files/28252.got.cif
#   From: 2010.03.12/outbox.cif.g09.slc.cpg/sg53_15_cif.got.tgz:28252.got - 2010.04.16 14:36:59.
