data_PCOD8219305
_publ_section_title
;
Structure prediction by ZEFSAII (Michael W. Deem and Ramdas Pophale) SiO2 
 PCOD8219305
Probable space group: P M N A
;
_chemical_formula_sum "Si O2"
_cell_formula_units_Z 48
_cell_length_a 8.602718
_cell_length_b 31.208993
_cell_length_c 9.032299
_cell_angle_alpha 90.000000
_cell_angle_beta 90.000000
_cell_angle_gamma 90.000000
_cell_volume 2425.011198
_symmetry_space_group_name_H-M "P M N A"
_symmetry_group_IT_number 53
_symmetry_cell_setting 'orthorhombic'
loop_
_space_group_symop_operation_xyz
x,y,z
1/2-x,-y,1/2+z
x,-y,-z
1/2-x,y,1/2-z
-x,-y,-z
1/2+x,y,1/2-z
-x,y,z
1/2+x,-y,1/2+z
loop_
_atom_site_type_symbol
_atom_site_label
_atom_site_fract_x
_atom_site_fract_y
_atom_site_fract_z
Si Si1 0.821035 0.543077 0.591517
Si Si2 0.183608 0.697336 0.588340
Si Si3 0.181446 0.868380 0.089786
Si Si4 0.683054 0.380553 0.589376
Si Si5 0.815495 0.224861 0.915322
Si Si6 0.816240 0.040039 0.912433
O O1 0.803961 0.500000 0.500000
O O2 0.750000 0.533234 0.750000
O O3 0.721574 0.580379 0.517832
O O4 0.000000 0.557779 0.603538
O O5 0.250000 0.687090 0.750000
O O6 0.241555 0.662619 0.471329
O O7 0.238883 0.743413 0.532239
O O8 0.000000 0.696022 0.597879
O O9 0.250000 0.870616 0.250000
O O10 0.231380 0.822619 0.019567
O O11 0.228763 0.913596 0.009754
O O12 0.000000 0.867264 0.110494
O O13 0.750000 0.391148 0.750000
O O14 0.500000 0.374131 0.599761
O O15 0.750000 0.232133 0.750000
O O16 0.000000 0.232112 0.910664
O O17 0.750000 0.038148 0.750000
O O18 0.000000 0.035041 0.904209
O O19 0.742073 0.000000 0.000000
#
# Coordination Sequence:
#
# PCOD8219305 Si02
#       6
#     8   8   8   8   8   8
#     4  11  24  42  65  94 128 165 204 246 293 343
#     4  12  25  42  61  84 115 150 188 230 282 338
#     4   8  15  28  48  72 100 134 173 218 265 317
#     4  12  25  43  66  92 122 156 197 242 288 338
#     4  10  19  34  56  82 109 140 181 227 276 329
#     4   9  17  30  48  71 100 134 173 217 265 318
#
# _framework density 19.793721999999999
#
# number of rings (size 3 to 8) (size 9 to 14) (size 15 to 20)
#    0.000    1.667    0.000    5.500    0.000    3.667 
#    0.000    0.833    0.000    2.000    0.000    0.000 
#    0.000    0.000    0.000    0.000    0.000    0.000 
#
# Total GULP energy -594852.179975 kJ/mol
# GULP energy per Si atom -12392.753749 kJ/mol
# Density = 1.974867 g / cm^3
# Si number density = 19.793722 Si / 1000 Ang^3
#
#
#
# Elastic Constant Matrix: (Units=GPa)
#
#
# Indices 1 2 3 4 5 6 
#
# 1 102.5229 41.1504 31.6087 0.0000 0.0000 0.0000
# 2 41.1504 131.2290 31.6568 0.0000 0.0000 0.0000
# 3 31.6087 31.6568 85.1920 0.0000 0.0000 0.0000
# 4 0.0000 0.0000 0.0000 8.9426 0.0000 0.0000
# 5 0.0000 0.0000 0.0000 0.0000 28.4464 0.0000
# 6 0.0000 0.0000 0.0000 0.0000 0.0000 24.3965
#
#
#
# Elastic Compliance Matrix: (Units=1/GPa)
#
#
# Indices 1 2 3 4 5 6 
#
# 1 0.011968 -0.002946 -0.003346 0.000000 0.000000 0.000000
# 2 -0.002946 0.009096 -0.002287 0.000000 0.000000 0.000000
# 3 -0.003346 -0.002287 0.013829 0.000000 0.000000 0.000000
# 4 0.000000 0.000000 0.000000 0.111824 0.000000 0.000000
# 5 0.000000 0.000000 0.000000 0.000000 0.035154 0.000000
# 6 0.000000 0.000000 0.000000 0.000000 0.000000 0.040990
#
#
# Mechanical properties :
#
#
# Convention : Reuss Voigt Hill
#
# Bulk Modulus (GPa) = 56.38267 58.64176 57.51222
# Shear Modulus (GPa) = 20.33108 26.65897 23.49503
#
# Velocity S-wave (km/s) = 3.20839 3.67391 3.44902
# Velocity P-wave (km/s) = 6.50169 6.90562 6.70670
#
# Compressibility (1/GPa) = 0.01773595
#
# Stress axis : x y z
#
# Youngs Moduli (GPa) = 83.55761 109.94257 72.30975
#
# Poissons Ratio (x) = 0.32386 0.24193
# Poissons Ratio (y) = 0.24614 0.16537
# Poissons Ratio (z) = 0.27957 0.25143
#
# Static dielectric constant tensor:
#      x y z
#    x 3.875990 0.000000 0.000000 
#    y 0.000000 4.488480 0.000000 
#    z 0.000000 0.000000 3.501480 
# 
# 
# High freq. dielectric constant tensor:
#      x y z
#    x 1.781190 0.000000 0.000000 
#    y 0.000000 1.804440 0.000000 
#    z 0.000000 0.000000 1.746710 
# 
# From -- ./inp_files/6637.got.cif
#   From: 2010.03.12/outbox.cif.g09.slc.cpg/sg53_4_cif.got.tgz:6637.got - 2010.04.16 14:36:59.
