data_PCOD8219419
_publ_section_title
;
Structure prediction by ZEFSAII (Michael W. Deem and Ramdas Pophale) SiO2 
 PCOD8219419
Probable space group: P M N A
;
_chemical_formula_sum "Si O2"
_cell_formula_units_Z 64
_cell_length_a 8.950435
_cell_length_b 20.084029
_cell_length_c 19.680985
_cell_angle_alpha 90.000000
_cell_angle_beta 90.000000
_cell_angle_gamma 90.000000
_cell_volume 3537.869532
_symmetry_space_group_name_H-M "P M N A"
_symmetry_group_IT_number 53
_symmetry_cell_setting 'orthorhombic'
loop_
_space_group_symop_operation_xyz
x,y,z
1/2-x,-y,1/2+z
x,-y,-z
1/2-x,y,1/2-z
-x,-y,-z
1/2+x,y,1/2-z
-x,y,z
1/2+x,-y,1/2+z
loop_
_atom_site_type_symbol
_atom_site_label
_atom_site_fract_x
_atom_site_fract_y
_atom_site_fract_z
Si Si1 0.677351 0.418089 0.178202
Si Si2 0.322672 0.975197 0.928338
Si Si3 0.822271 0.083626 0.677571
Si Si4 0.827153 0.517057 0.076920
Si Si5 0.672682 0.206109 0.909551
Si Si6 0.676488 0.695614 0.596281
Si Si7 0.827718 0.333456 0.944486
Si Si8 0.826345 0.173604 0.435972
O O1 0.750000 0.435939 0.250000
O O2 0.500000 0.414211 0.185094
O O3 0.720659 0.476572 0.126452
O O4 0.740295 0.347464 0.153020
O O5 0.500000 0.979024 0.933879
O O6 0.274104 0.899471 0.911827
O O7 0.263981 0.022651 0.868549
O O8 0.254028 0.000000 0.000000
O O9 0.750000 0.074462 0.750000
O O10 0.765698 0.152916 0.644730
O O11 0.000000 0.082781 0.683207
O O12 0.796752 0.595149 0.089094
O O13 0.000000 0.498004 0.090991
O O14 0.785013 0.500000 0.000000
O O15 0.500000 0.217985 0.897533
O O16 0.748977 0.277657 0.898614
O O17 0.705796 0.177360 0.983932
O O18 0.500000 0.689488 0.607425
O O19 0.728694 0.668012 0.522621
O O20 0.727961 0.772158 0.604191
O O21 0.000000 0.315304 0.945285
O O22 0.000000 0.186936 0.420198
#
# Coordination Sequence:
#
# PCOD8219419 Si02
#       8
#     8   8   8   8   8   8   8   8
#     4  12  25  40  59  84 114 150 191 233 281 337
#     4   9  15  29  54  79 104 138 184 232 277 322
#     4  10  20  34  52  76 106 144 181 222 276 334
#     4  10  19  37  60  84 116 151 185 226 279 334
#     4   9  17  30  50  76 105 135 177 227 269 315
#     4  10  19  35  55  80 113 147 179 221 277 334
#     4   9  18  32  55  82 110 142 176 219 275 324
#     4   9  16  29  53  82 105 132 179 234 275 318
#
# _framework density 18.089984000000001
#
# number of rings (size 3 to 8) (size 9 to 14) (size 15 to 20)
#    0.000    2.250    2.500    1.500    0.000    1.750 
#    0.000    1.875    0.000    3.750    0.000    0.000 
#    0.000    0.000    0.000    0.000    0.000    0.000 
#
# Total GULP energy -793628.381555 kJ/mol
# GULP energy per Si atom -12400.443462 kJ/mol
# Density = 1.804881 g / cm^3
# Si number density = 18.089984 Si / 1000 Ang^3
#
#
#
# Elastic Constant Matrix: (Units=GPa)
#
#
# Indices 1 2 3 4 5 6 
#
# 1 67.1453 50.3183 40.3079 0.0000 0.0000 0.0000
# 2 50.3183 139.4082 63.5011 0.0000 0.0000 0.0000
# 3 40.3079 63.5011 94.8216 0.0000 0.0000 0.0000
# 4 0.0000 0.0000 0.0000 25.7421 0.0000 0.0000
# 5 0.0000 0.0000 0.0000 0.0000 26.2322 0.0000
# 6 0.0000 0.0000 0.0000 0.0000 0.0000 27.7703
#
#
#
# Elastic Compliance Matrix: (Units=1/GPa)
#
#
# Indices 1 2 3 4 5 6 
#
# 1 0.022525 -0.005423 -0.005944 0.000000 0.000000 0.000000
# 2 -0.005423 0.011627 -0.005482 0.000000 0.000000 0.000000
# 3 -0.005944 -0.005482 0.016744 0.000000 0.000000 0.000000
# 4 0.000000 0.000000 0.000000 0.038847 0.000000 0.000000
# 5 0.000000 0.000000 0.000000 0.000000 0.038121 0.000000
# 6 0.000000 0.000000 0.000000 0.000000 0.000000 0.036010
#
#
# Mechanical properties :
#
#
# Convention : Reuss Voigt Hill
#
# Bulk Modulus (GPa) = 58.13941 67.73662 62.93802
# Shear Modulus (GPa) = 24.59388 25.76545 25.17966
#
# Velocity S-wave (km/s) = 3.69118 3.77808 3.73488
# Velocity P-wave (km/s) = 7.09755 7.52046 7.31206
#
# Compressibility (1/GPa) = 0.01720004
#
# Stress axis : x y z
#
# Youngs Moduli (GPa) = 44.39532 86.00387 59.72434
#
# Poissons Ratio (x) = 0.46639 0.35497
# Poissons Ratio (y) = 0.24075 0.32738
# Poissons Ratio (z) = 0.26386 0.47143
#
# Static dielectric constant tensor:
#      x y z
#    x 3.151460 0.000000 0.000000 
#    y 0.000000 3.611260 0.000000 
#    z 0.000000 0.000000 3.183330 
# 
# 
# High freq. dielectric constant tensor:
#      x y z
#    x 1.682520 0.000000 0.000000 
#    y 0.000000 1.717470 0.000000 
#    z 0.000000 0.000000 1.674900 
# 
# From -- ./inp_files/26870.got.cif
#   From: 2010.03.12/outbox.cif.g09.slc.cpg/sg53_14_cif.got.tgz:26870.got - 2010.04.16 14:36:59.
