data_PCOD8219720
_publ_section_title
;
Structure prediction by ZEFSAII (Michael W. Deem and Ramdas Pophale) SiO2 
 PCOD8219720
Probable space group: P M N A
;
_chemical_formula_sum "Si O2"
_cell_formula_units_Z 64
_cell_length_a 8.607773
_cell_length_b 21.681720
_cell_length_c 19.255993
_cell_angle_alpha 90.000000
_cell_angle_beta 90.000000
_cell_angle_gamma 90.000000
_cell_volume 3593.771469
_symmetry_space_group_name_H-M "P M N A"
_symmetry_group_IT_number 53
_symmetry_cell_setting 'orthorhombic'
loop_
_space_group_symop_operation_xyz
x,y,z
1/2-x,-y,1/2+z
x,-y,-z
1/2-x,y,1/2-z
-x,-y,-z
1/2+x,y,1/2-z
-x,y,z
1/2+x,-y,1/2+z
loop_
_atom_site_type_symbol
_atom_site_label
_atom_site_fract_x
_atom_site_fract_y
_atom_site_fract_z
Si Si1 0.674315 0.021796 0.609793
Si Si2 0.324817 0.905981 0.533286
Si Si3 0.181579 0.330308 0.957920
Si Si4 0.684425 0.380614 0.823533
Si Si5 0.318829 0.201068 0.960952
Si Si6 0.817943 0.559645 0.543863
Si Si7 0.180840 0.868266 0.322801
Si Si8 0.183137 0.514563 0.821979
O O1 0.500000 0.020354 0.639971
O O2 0.676934 0.055677 0.536856
O O3 0.778932 0.059487 0.664389
O O4 0.733283 0.951242 0.596007
O O5 0.500000 0.883230 0.549023
O O6 0.211913 0.847491 0.523424
O O7 0.236552 0.335818 0.878712
O O8 0.221149 0.261272 0.981277
O O9 0.000000 0.344065 0.965844
O O10 0.277861 0.378306 0.003699
O O11 0.750000 0.358777 0.750000
O O12 0.500000 0.374044 0.826419
O O13 0.731565 0.450650 0.839613
O O14 0.500000 0.217057 0.957770
O O15 0.258191 0.173717 0.886984
O O16 0.764654 0.500000 0.500000
O O17 0.723392 0.561366 0.616167
O O18 0.000000 0.557183 0.559745
O O19 0.250000 0.844667 0.250000
O O20 0.000000 0.860892 0.317232
O O21 0.250000 0.541846 0.750000
O O22 0.000000 0.503360 0.815187
#
# Coordination Sequence:
#
# PCOD8219720 Si02
#       8
#     8   8   8   8   8   8   8   8
#     4   8  14  26  46  70  96 124 158 201 246 290
#     4   8  14  27  47  70  94 123 158 199 247 294
#     4  12  24  37  54  76 103 139 181 225 271 326
#     4  11  21  35  52  73 101 135 173 215 262 315
#     4  10  21  35  49  69  99 135 174 216 257 306
#     4  11  22  37  58  81 108 139 173 222 279 327
#     4  10  20  32  48  70 100 138 177 214 252 296
#     4  11  21  35  56  81 108 136 170 210 261 321
#
# _framework density 17.808589999999999
#
# number of rings (size 3 to 8) (size 9 to 14) (size 15 to 20)
#    0.000    1.875    1.250    6.000    0.000    3.000 
#    0.000    3.750    0.000    0.000    0.000    0.875 
#    0.000    4.000    0.000    0.000    0.000    0.000 
#
# Total GULP energy -793477.863043 kJ/mol
# GULP energy per Si atom -12398.091610 kJ/mol
# Density = 1.776806 g / cm^3
# Si number density = 17.808590 Si / 1000 Ang^3
#
#
#
# Elastic Constant Matrix: (Units=GPa)
#
#
# Indices 1 2 3 4 5 6 
#
# 1 65.3998 16.5943 16.0060 0.0000 0.0000 0.0000
# 2 16.5943 89.3069 31.3273 0.0000 0.0000 0.0000
# 3 16.0060 31.3273 52.4358 0.0000 0.0000 0.0000
# 4 0.0000 0.0000 0.0000 19.0454 0.0000 0.0000
# 5 0.0000 0.0000 0.0000 0.0000 28.0213 0.0000
# 6 0.0000 0.0000 0.0000 0.0000 0.0000 25.7020
#
#
#
# Elastic Compliance Matrix: (Units=1/GPa)
#
#
# Indices 1 2 3 4 5 6 
#
# 1 0.016719 -0.001665 -0.004108 0.000000 0.000000 0.000000
# 2 -0.001665 0.014332 -0.008054 0.000000 0.000000 0.000000
# 3 -0.004108 -0.008054 0.025137 0.000000 0.000000 0.000000
# 4 0.000000 0.000000 0.000000 0.052506 0.000000 0.000000
# 5 0.000000 0.000000 0.000000 0.000000 0.035687 0.000000
# 6 0.000000 0.000000 0.000000 0.000000 0.000000 0.038908
#
#
# Mechanical properties :
#
#
# Convention : Reuss Voigt Hill
#
# Bulk Modulus (GPa) = 35.04875 37.22196 36.13536
# Shear Modulus (GPa) = 22.68036 24.10138 23.39087
#
# Velocity S-wave (km/s) = 3.57257 3.68279 3.62810
# Velocity P-wave (km/s) = 6.06146 6.24743 6.15515
#
# Compressibility (1/GPa) = 0.02853168
#
# Stress axis : x y z
#
# Youngs Moduli (GPa) = 59.81350 69.77362 39.78211
#
# Poissons Ratio (x) = 0.11620 0.16344
# Poissons Ratio (y) = 0.09961 0.32041
# Poissons Ratio (z) = 0.24574 0.56197
#
# Static dielectric constant tensor:
#      x y z
#    x 3.317500 0.000000 0.000000 
#    y 0.000000 3.315130 0.000000 
#    z 0.000000 0.000000 3.402110 
# 
# 
# High freq. dielectric constant tensor:
#      x y z
#    x 1.697670 0.000000 0.000000 
#    y 0.000000 1.670340 0.000000 
#    z 0.000000 0.000000 1.664880 
# 
# From -- ./inp_files/31342.got.cif
#   From: 2010.03.12/outbox.cif.g09.slc.cpg/sg53_16_cif.got.tgz:31342.got - 2010.04.16 14:36:59.
