data_PCOD8219793
_publ_section_title
;
Structure prediction by ZEFSAII (Michael W. Deem and Ramdas Pophale) SiO2 
 PCOD8219793
Probable space group: P M N A
;
_chemical_formula_sum "Si O2"
_cell_formula_units_Z 64
_cell_length_a 8.631398
_cell_length_b 14.596642
_cell_length_c 30.112759
_cell_angle_alpha 90.000000
_cell_angle_beta 90.000000
_cell_angle_gamma 90.000000
_cell_volume 3793.889239
_symmetry_space_group_name_H-M "P M N A"
_symmetry_group_IT_number 53
_symmetry_cell_setting 'orthorhombic'
loop_
_space_group_symop_operation_xyz
x,y,z
1/2-x,-y,1/2+z
x,-y,-z
1/2-x,y,1/2-z
-x,-y,-z
1/2+x,y,1/2-z
-x,y,z
1/2+x,-y,1/2+z
loop_
_atom_site_type_symbol
_atom_site_label
_atom_site_fract_x
_atom_site_fract_y
_atom_site_fract_z
Si Si1 0.322557 0.740113 0.472548
Si Si2 0.817042 0.941965 0.042106
Si Si3 0.176198 0.241210 0.074475
Si Si4 0.181665 0.412639 0.381708
Si Si5 0.678404 0.067083 0.112320
Si Si6 0.183792 0.845358 0.703453
Si Si7 0.181350 0.551912 0.456765
Si Si8 0.184249 0.645183 0.797125
O O1 0.500000 0.736097 0.457937
O O2 0.249836 0.838357 0.458587
O O3 0.299898 0.726305 0.524612
O O4 0.238550 0.655180 0.449324
O O5 0.000000 0.937279 0.036415
O O6 0.774740 0.985306 0.089728
O O7 0.749581 0.000000 0.000000
O O8 0.216956 0.325935 0.104842
O O9 0.291138 0.158518 0.084501
O O10 0.000000 0.208672 0.083219
O O11 0.227627 0.498680 0.411953
O O12 0.236534 0.427323 0.331092
O O13 0.000000 0.390566 0.385431
O O14 0.500000 0.040663 0.108492
O O15 0.724774 0.082899 0.164053
O O16 0.250000 0.884696 0.750000
O O17 0.264171 0.749137 0.691907
O O18 0.000000 0.829413 0.707147
O O19 0.254542 0.500000 0.500000
O O20 0.000000 0.555766 0.463774
O O21 0.250000 0.614606 0.750000
O O22 0.000000 0.638071 0.798304
#
# Coordination Sequence:
#
# PCOD8219793 Si02
#       8
#     8   8   8   8   8   8   8   8
#     4  10  21  35  51  72 100 135 175 219 253 295
#     4  10  20  36  52  71 101 135 174 213 252 300
#     4  11  20  31  49  72 101 138 174 211 253 296
#     4  11  21  34  50  73 104 137 175 212 252 303
#     4  11  22  33  49  75 103 135 172 212 252 302
#     4  10  20  33  49  72 103 133 168 208 251 302
#     4  10  21  35  51  73 102 137 172 211 255 300
#     4  11  21  33  51  74 102 135 170 207 256 305
#
# _framework density 16.869233999999999
#
# number of rings (size 3 to 8) (size 9 to 14) (size 15 to 20)
#    0.000    1.500    3.750    3.375    0.000    4.000 
#    0.000    0.000    0.000    0.000    0.000    0.875 
#    0.000    4.000    0.000    0.000    0.000    0.000 
#
# Total GULP energy -793501.818203 kJ/mol
# GULP energy per Si atom -12398.465909 kJ/mol
# Density = 1.683084 g / cm^3
# Si number density = 16.869234 Si / 1000 Ang^3
#
#
#
# Elastic Constant Matrix: (Units=GPa)
#
#
# Indices 1 2 3 4 5 6 
#
# 1 38.3495 17.7166 33.7116 0.0000 0.0000 0.0000
# 2 17.7166 105.6458 55.8402 0.0000 0.0000 0.0000
# 3 33.7116 55.8402 115.7836 0.0000 0.0000 0.0000
# 4 0.0000 0.0000 0.0000 22.4403 0.0000 0.0000
# 5 0.0000 0.0000 0.0000 0.0000 27.4753 0.0000
# 6 0.0000 0.0000 0.0000 0.0000 0.0000 24.5907
#
#
#
# Elastic Compliance Matrix: (Units=1/GPa)
#
#
# Indices 1 2 3 4 5 6 
#
# 1 0.035079 -0.000650 -0.009900 0.000000 0.000000 0.000000
# 2 -0.000650 0.012716 -0.005944 0.000000 0.000000 0.000000
# 3 -0.009900 -0.005944 0.014386 0.000000 0.000000 0.000000
# 4 0.000000 0.000000 0.000000 0.044563 0.000000 0.000000
# 5 0.000000 0.000000 0.000000 0.000000 0.036396 0.000000
# 6 0.000000 0.000000 0.000000 0.000000 0.000000 0.040666
#
#
# Mechanical properties :
#
#
# Convention : Reuss Voigt Hill
#
# Bulk Modulus (GPa) = 34.25386 52.70176 43.47781
# Shear Modulus (GPa) = 22.07271 25.06864 23.57068
#
# Velocity S-wave (km/s) = 3.62119 3.85912 3.74205
# Velocity P-wave (km/s) = 6.15090 7.15306 6.67083
#
# Compressibility (1/GPa) = 0.02919379
#
# Stress axis : x y z
#
# Youngs Moduli (GPa) = 28.50705 78.64058 69.51299
#
# Poissons Ratio (x) = 0.05110 0.68819
# Poissons Ratio (y) = 0.01852 0.41315
# Poissons Ratio (z) = 0.28223 0.46740
#
# Static dielectric constant tensor:
#      x y z
#    x 3.164090 0.000000 0.000000 
#    y 0.000000 3.166930 0.000000 
#    z 0.000000 0.000000 3.353790 
# 
# 
# High freq. dielectric constant tensor:
#      x y z
#    x 1.655010 0.000000 0.000000 
#    y 0.000000 1.619820 0.000000 
#    z 0.000000 0.000000 1.648530 
# 
# From -- ./inp_files/38447.got.cif
#   From: 2010.03.12/outbox.cif.g09.slc.cpg/sg53_20_cif.got.tgz:38447.got - 2010.04.16 14:36:59.
