data_PCOD8219203
_publ_section_title
;
Structure prediction by ZEFSAII (Michael W. Deem and Ramdas Pophale) SiO2 
 PCOD8219203
Probable space group: P M N A
;
_chemical_formula_sum "Si O2"
_cell_formula_units_Z 64
_cell_length_a 17.416998
_cell_length_b 21.000660
_cell_length_c 9.125361
_cell_angle_alpha 90.000000
_cell_angle_beta 90.000000
_cell_angle_gamma 90.000000
_cell_volume 3337.769178
_symmetry_space_group_name_H-M "P M N A"
_symmetry_group_IT_number 53
_symmetry_cell_setting 'orthorhombic'
loop_
_space_group_symop_operation_xyz
x,y,z
1/2-x,-y,1/2+z
x,-y,-z
1/2-x,y,1/2-z
-x,-y,-z
1/2+x,y,1/2-z
-x,y,z
1/2+x,-y,1/2+z
loop_
_atom_site_type_symbol
_atom_site_label
_atom_site_fract_x
_atom_site_fract_y
_atom_site_fract_z
Si Si1 0.586959 0.255650 0.267951
Si Si2 0.160421 0.544277 0.777386
Si Si3 0.166053 0.998488 0.177256
Si Si4 0.161067 0.602129 0.262878
Si Si5 0.086045 0.364093 0.448839
Si Si6 0.590109 0.364329 0.482649
Si Si7 0.588453 0.931807 0.074892
Si Si8 0.837487 0.874907 0.697598
O O1 0.500000 0.237132 0.302964
O O2 0.594142 0.293180 0.115058
O O3 0.619019 0.301658 0.396415
O O4 0.633632 0.191253 0.261176
O O5 0.250000 0.556101 0.750000
O O6 0.137932 0.471257 0.757269
O O7 0.105973 0.583553 0.670927
O O8 0.138345 0.572102 0.936856
O O9 0.250000 0.995467 0.250000
O O10 0.119127 0.939976 0.255785
O O11 0.123454 0.064695 0.221106
O O12 0.169475 0.000000 0.000000
O O13 0.250000 0.613674 0.250000
O O14 0.144681 0.628632 0.421493
O O15 0.111115 0.645057 0.152059
O O16 0.000000 0.376942 0.503659
O O17 0.500000 0.375062 0.455149
O O18 0.500000 0.907059 0.077410
O O19 0.641984 0.883045 0.977388
O O20 0.594942 0.000000 0.000000
O O21 0.750000 0.877406 0.750000
#
# Coordination Sequence:
#
# PCOD8219203 Si02
#       8
#     8   8   8   8   8   8   8   8
#     4   9  20  38  56  75 102 139 182 225 268 318
#     4  10  20  34  52  76 105 135 170 216 273 333
#     4  10  19  34  56  85 120 151 185 229 273 320
#     4  11  22  34  51  77 107 136 169 219 280 330
#     4  10  21  36  54  75 100 137 183 225 268 323
#     4  10  21  36  54  76 103 137 176 218 267 322
#     4   9  18  33  54  81 114 150 184 223 273 322
#     4  10  19  33  57  84 107 143 188 224 269 327
#
# _framework density 19.174484
#
# number of rings (size 3 to 8) (size 9 to 14) (size 15 to 20)
#    0.000    2.125    0.000    5.250    0.000    8.750 
#    0.000    1.250    0.000    3.000    0.000    0.000 
#    0.000    0.000    0.000    0.000    0.000    0.000 
#
# Total GULP energy -793052.801572 kJ/mol
# GULP energy per Si atom -12391.450025 kJ/mol
# Density = 1.913084 g / cm^3
# Si number density = 19.174484 Si / 1000 Ang^3
#
#
#
# Elastic Constant Matrix: (Units=GPa)
#
#
# Indices 1 2 3 4 5 6 
#
# 1 80.6597 38.2659 26.4196 0.0000 0.0000 0.0000
# 2 38.2659 80.9954 16.9438 0.0000 0.0000 0.0000
# 3 26.4196 16.9438 77.4369 0.0000 0.0000 0.0000
# 4 0.0000 0.0000 0.0000 10.1967 0.0000 0.0000
# 5 0.0000 0.0000 0.0000 0.0000 34.5748 0.0000
# 6 0.0000 0.0000 0.0000 0.0000 0.0000 19.7182
#
#
#
# Elastic Compliance Matrix: (Units=1/GPa)
#
#
# Indices 1 2 3 4 5 6 
#
# 1 0.017244 -0.007248 -0.004297 0.000000 0.000000 0.000000
# 2 -0.007248 0.015985 -0.001025 0.000000 0.000000 0.000000
# 3 -0.004297 -0.001025 0.014604 0.000000 0.000000 0.000000
# 4 0.000000 0.000000 0.000000 0.098071 0.000000 0.000000
# 5 0.000000 0.000000 0.000000 0.000000 0.028923 0.000000
# 6 0.000000 0.000000 0.000000 0.000000 0.000000 0.050715
#
#
# Mechanical properties :
#
#
# Convention : Reuss Voigt Hill
#
# Bulk Modulus (GPa) = 44.06649 44.70562 44.38605
# Shear Modulus (GPa) = 19.36140 23.39543 21.37842
#
# Velocity S-wave (km/s) = 3.18110 3.49683 3.34270
# Velocity P-wave (km/s) = 6.04353 6.29838 6.17227
#
# Compressibility (1/GPa) = 0.02269298
#
# Stress axis : x y z
#
# Youngs Moduli (GPa) = 57.99208 62.55891 68.47382
#
# Poissons Ratio (x) = 0.45341 0.29425
# Poissons Ratio (y) = 0.42031 0.07018
# Poissons Ratio (z) = 0.24921 0.06411
#
# Static dielectric constant tensor:
#      x y z
#    x 3.519270 0.000000 0.000000 
#    y 0.000000 3.480270 0.000000 
#    z 0.000000 0.000000 3.352130 
# 
# 
# High freq. dielectric constant tensor:
#      x y z
#    x 1.749290 0.000000 0.000000 
#    y 0.000000 1.723990 0.000000 
#    z 0.000000 0.000000 1.746720 
# 
# From -- ./inp_files/10249.got.cif
#   From: 2010.03.12/outbox.cif.g09.slc.cpg/sg53_6_cif.got.tgz:10249.got - 2010.04.16 14:36:59.
