data_PCOD8219065
_publ_section_title
;
Structure prediction by ZEFSAII (Michael W. Deem and Ramdas Pophale) SiO2 
 PCOD8219065
Probable space group: P M N A
;
_chemical_formula_sum "Si O2"
_cell_formula_units_Z 64
_cell_length_a 8.645627
_cell_length_b 18.561334
_cell_length_c 20.684566
_cell_angle_alpha 90.000000
_cell_angle_beta 90.000000
_cell_angle_gamma 90.000000
_cell_volume 3319.342706
_symmetry_space_group_name_H-M "P M N A"
_symmetry_group_IT_number 53
_symmetry_cell_setting 'orthorhombic'
loop_
_space_group_symop_operation_xyz
x,y,z
1/2-x,-y,1/2+z
x,-y,-z
1/2-x,y,1/2-z
-x,-y,-z
1/2+x,y,1/2-z
-x,y,z
1/2+x,-y,1/2+z
loop_
_atom_site_type_symbol
_atom_site_label
_atom_site_fract_x
_atom_site_fract_y
_atom_site_fract_z
Si Si1 0.815964 0.794076 0.437657
Si Si2 0.315448 0.043575 0.938386
Si Si3 0.316326 0.706313 0.940443
Si Si4 0.816484 0.699534 0.318227
Si Si5 0.816942 0.791141 0.683005
Si Si6 0.817040 0.045192 0.316858
Si Si7 0.182730 0.455719 0.818570
Si Si8 0.682285 0.541997 0.935330
O O1 0.750185 0.875183 0.440068
O O2 0.748276 0.749489 0.498248
O O3 0.760465 0.756405 0.371733
O O4 0.000000 0.795152 0.440954
O O5 0.500000 0.043950 0.938899
O O6 0.252119 0.004308 0.874361
O O7 0.251712 0.000000 0.000000
O O8 0.500000 0.711458 0.941336
O O9 0.251074 0.742372 0.875044
O O10 0.262684 0.623943 0.944518
O O11 0.750000 0.726376 0.250000
O O12 0.751977 0.621599 0.337378
O O13 0.000000 0.694098 0.314290
O O14 0.750000 0.760453 0.750000
O O15 0.760319 0.873003 0.671463
O O16 0.000000 0.787077 0.686120
O O17 0.750000 0.014534 0.250000
O O18 0.000000 0.041672 0.313959
O O19 0.250000 0.482718 0.750000
O O20 0.227482 0.511698 0.873901
O O21 0.000000 0.449335 0.812258
O O22 0.500000 0.535435 0.922227
O O23 0.730474 0.500000 0.000000
#
# Coordination Sequence:
#
# PCOD8219065 Si02
#       8
#     8   8   8   8   8   8   8   8
#     4   9  17  29  48  74 101 131 168 209 250 293
#     4   9  16  27  46  73 102 130 166 211 251 288
#     4   9  17  30  49  72  98 129 165 205 247 292
#     4  10  19  33  53  76 103 134 169 208 254 307
#     4   9  17  30  48  70  97 128 163 201 243 291
#     4   9  17  29  47  71  98 129 162 200 245 291
#     4  11  22  37  57  79 105 136 172 213 259 311
#     4  10  20  35  55  78 105 137 172 211 258 310
#
# _framework density 19.280925
#
# number of rings (size 3 to 8) (size 9 to 14) (size 15 to 20)
#    0.000    2.500    0.000    3.750    0.000    6.250 
#    0.000    1.875    0.000    2.625    0.000    0.000 
#    0.000    0.000    0.000    0.000    0.000    0.000 
#
# Total GULP energy -793649.863482 kJ/mol
# GULP energy per Si atom -12400.779117 kJ/mol
# Density = 1.923704 g / cm^3
# Si number density = 19.280925 Si / 1000 Ang^3
#
#
#
# Elastic Constant Matrix: (Units=GPa)
#
#
# Indices 1 2 3 4 5 6 
#
# 1 40.0649 21.8779 28.6570 0.0000 0.0000 0.0000
# 2 21.8779 155.6069 113.3895 0.0000 0.0000 0.0000
# 3 28.6570 113.3895 192.7339 0.0000 0.0000 0.0000
# 4 0.0000 0.0000 0.0000 44.3636 0.0000 0.0000
# 5 0.0000 0.0000 0.0000 0.0000 28.6004 0.0000
# 6 0.0000 0.0000 0.0000 0.0000 0.0000 48.3708
#
#
#
# Elastic Compliance Matrix: (Units=1/GPa)
#
#
# Indices 1 2 3 4 5 6 
#
# 1 0.028153 -0.001589 -0.003251 0.000000 0.000000 0.000000
# 2 -0.001589 0.011339 -0.006434 0.000000 0.000000 0.000000
# 3 -0.003251 -0.006434 0.009457 0.000000 0.000000 0.000000
# 4 0.000000 0.000000 0.000000 0.022541 0.000000 0.000000
# 5 0.000000 0.000000 0.000000 0.000000 0.034965 0.000000
# 6 0.000000 0.000000 0.000000 0.000000 0.000000 0.020674
#
#
# Mechanical properties :
#
#
# Convention : Reuss Voigt Hill
#
# Bulk Modulus (GPa) = 37.87972 79.58384 58.73178
# Shear Modulus (GPa) = 31.55034 39.23238 35.39136
#
# Velocity S-wave (km/s) = 4.04957 4.51574 4.28900
# Velocity P-wave (km/s) = 6.44626 8.27978 7.41987
#
# Compressibility (1/GPa) = 0.02639935
#
# Stress axis : x y z
#
# Youngs Moduli (GPa) = 35.52070 88.19398 105.73728
#
# Poissons Ratio (x) = 0.14016 0.34374
# Poissons Ratio (y) = 0.05645 0.68036
# Poissons Ratio (z) = 0.11547 0.56748
#
# Static dielectric constant tensor:
#      x y z
#    x 3.067840 0.000000 0.000000 
#    y 0.000000 3.665410 0.000000 
#    z 0.000000 0.000000 3.760750 
# 
# 
# High freq. dielectric constant tensor:
#      x y z
#    x 1.706260 0.000000 0.000000 
#    y 0.000000 1.752870 0.000000 
#    z 0.000000 0.000000 1.767800 
# 
# From -- ./inp_files/31119.got.cif
#   From: 2010.03.12/outbox.cif.g09.slc.cpg/sg53_16_cif.got.tgz:31119.got - 2010.04.16 14:36:59.
