data_PCOD8219371
_publ_section_title
;
Structure prediction by ZEFSAII (Michael W. Deem and Ramdas Pophale) SiO2 
 PCOD8219371
Probable space group: P M N A
;
_chemical_formula_sum "Si O2"
_cell_formula_units_Z 48
_cell_length_a 13.850518
_cell_length_b 6.561685
_cell_length_c 27.555312
_cell_angle_alpha 90.000000
_cell_angle_beta 90.000000
_cell_angle_gamma 90.000000
_cell_volume 2504.302151
_symmetry_space_group_name_H-M "P M N A"
_symmetry_group_IT_number 53
_symmetry_cell_setting 'orthorhombic'
loop_
_space_group_symop_operation_xyz
x,y,z
1/2-x,-y,1/2+z
x,-y,-z
1/2-x,y,1/2-z
-x,-y,-z
1/2+x,y,1/2-z
-x,y,z
1/2+x,-y,1/2+z
loop_
_atom_site_type_symbol
_atom_site_label
_atom_site_fract_x
_atom_site_fract_y
_atom_site_fract_z
Si Si1 0.893950 0.688291 0.468062
Si Si2 0.759169 0.863748 0.193032
Si Si3 0.892588 0.581664 0.356809
Si Si4 0.284633 0.062334 0.549485
Si Si5 0.737317 0.748221 0.633507
Si Si6 0.613706 0.361358 0.624117
O O1 0.857344 0.500000 0.500000
O O2 0.901234 0.623938 0.412812
O O3 0.816403 0.864179 0.472861
O O4 0.000000 0.761650 0.486183
O O5 0.750000 0.841427 0.250000
O O6 0.663265 0.769462 0.168424
O O7 0.853239 0.741410 0.174525
O O8 0.776204 0.098431 0.178512
O O9 0.834774 0.370436 0.352267
O O10 0.000000 0.559407 0.333698
O O11 0.339347 0.240666 0.578713
O O12 0.343816 0.000000 0.500000
O O13 0.258808 0.872186 0.583488
O O14 0.647705 0.595072 0.626159
O O15 0.500000 0.352239 0.618666
#
# Coordination Sequence:
#
# PCOD8219371 Si02
#       6
#     8   8   8   8   8   8
#     4  10  19  34  58  89 123 159 196 236 293 361
#     4  10  22  41  63  88 118 155 199 249 304 359
#     4  10  20  37  59  87 123 156 191 240 298 359
#     4  11  22  36  62  88 123 160 204 248 300 354
#     4  10  20  38  59  89 115 160 196 247 296 361
#     4  10  23  43  62  85 119 159 202 255 304 353
#
# _framework density 19.167017000000001
#
# number of rings (size 3 to 8) (size 9 to 14) (size 15 to 20)
#    0.000    1.833    5.000    1.000    0.000    8.000 
#    0.000    0.833    0.000    0.000    0.000    0.000 
#    0.000    0.000    0.000    0.000    0.000    0.000 
#
# Total GULP energy -594894.178787 kJ/mol
# GULP energy per Si atom -12393.628725 kJ/mol
# Density = 1.912339 g / cm^3
# Si number density = 19.167017 Si / 1000 Ang^3
#
#
#
# Elastic Constant Matrix: (Units=GPa)
#
#
# Indices 1 2 3 4 5 6 
#
# 1 140.9828 60.9052 29.6007 0.0000 0.0000 0.0000
# 2 60.9052 134.3582 51.8184 0.0000 0.0000 0.0000
# 3 29.6007 51.8184 127.8168 0.0000 0.0000 0.0000
# 4 0.0000 0.0000 0.0000 19.1282 0.0000 0.0000
# 5 0.0000 0.0000 0.0000 0.0000 34.1648 0.0000
# 6 0.0000 0.0000 0.0000 0.0000 0.0000 10.3827
#
#
#
# Elastic Compliance Matrix: (Units=1/GPa)
#
#
# Indices 1 2 3 4 5 6 
#
# 1 0.008847 -0.003817 -0.000501 0.000000 0.000000 0.000000
# 2 -0.003817 0.010469 -0.003360 0.000000 0.000000 0.000000
# 3 -0.000501 -0.003360 0.009302 0.000000 0.000000 0.000000
# 4 0.000000 0.000000 0.000000 0.052279 0.000000 0.000000
# 5 0.000000 0.000000 0.000000 0.000000 0.029270 0.000000
# 6 0.000000 0.000000 0.000000 0.000000 0.000000 0.096314
#
#
# Mechanical properties :
#
#
# Convention : Reuss Voigt Hill
#
# Bulk Modulus (GPa) = 75.40992 76.42292 75.91642
# Shear Modulus (GPa) = 22.09853 30.12404 26.11129
#
# Velocity S-wave (km/s) = 3.39919 3.96872 3.69494
# Velocity P-wave (km/s) = 7.40506 7.80766 7.60903
#
# Compressibility (1/GPa) = 0.01326086
#
# Stress axis : x y z
#
# Youngs Moduli (GPa) = 113.02783 95.51911 107.50234
#
# Poissons Ratio (x) = 0.36461 0.05390
# Poissons Ratio (y) = 0.43145 0.36124
# Poissons Ratio (z) = 0.05667 0.32097
#
# Static dielectric constant tensor:
#      x y z
#    x 3.822810 0.000000 0.000000 
#    y 0.000000 3.759560 0.000000 
#    z 0.000000 0.000000 3.420270 
# 
# 
# High freq. dielectric constant tensor:
#      x y z
#    x 1.734220 0.000000 0.000000 
#    y 0.000000 1.756100 0.000000 
#    z 0.000000 0.000000 1.741780 
# 
# From -- ./inp_files/37005.got.cif
#   From: 2010.03.12/outbox.cif.g09.slc.cpg/sg53_19_cif.got.tgz:37005.got - 2010.04.16 14:36:59.
