data_PCOD8219475
_publ_section_title
;
Structure prediction by ZEFSAII (Michael W. Deem and Ramdas Pophale) SiO2 
 PCOD8219475
Probable space group: P M N A
;
_chemical_formula_sum "Si O2"
_cell_formula_units_Z 64
_cell_length_a 8.865288
_cell_length_b 12.400151
_cell_length_c 28.415758
_cell_angle_alpha 90.000000
_cell_angle_beta 90.000000
_cell_angle_gamma 90.000000
_cell_volume 3123.770131
_symmetry_space_group_name_H-M "P M N A"
_symmetry_group_IT_number 53
_symmetry_cell_setting 'orthorhombic'
loop_
_space_group_symop_operation_xyz
x,y,z
1/2-x,-y,1/2+z
x,-y,-z
1/2-x,y,1/2-z
-x,-y,-z
1/2+x,y,1/2-z
-x,y,z
1/2+x,-y,1/2+z
loop_
_atom_site_type_symbol
_atom_site_label
_atom_site_fract_x
_atom_site_fract_y
_atom_site_fract_z
Si Si1 0.170891 0.489821 0.431902
Si Si2 0.171392 0.537869 0.322978
Si Si3 0.677864 0.837179 0.861994
Si Si4 0.676263 0.745906 0.959332
Si Si5 0.676760 0.750081 0.344358
Si Si6 0.177757 0.979017 0.199249
Si Si7 0.323139 0.705229 0.449545
Si Si8 0.178253 0.670743 0.796510
O O1 0.181766 0.505579 0.376765
O O2 0.235993 0.372208 0.443926
O O3 0.266848 0.582654 0.457469
O O4 0.000000 0.502330 0.449688
O O5 0.234259 0.658307 0.315648
O O6 0.278086 0.455352 0.295126
O O7 0.000000 0.530860 0.304013
O O8 0.500000 0.840616 0.852162
O O9 0.712597 0.832279 0.918042
O O10 0.745404 0.727489 0.840919
O O11 0.757545 0.939846 0.839424
O O12 0.500000 0.742351 0.968797
O O13 0.756696 0.779246 0.008282
O O14 0.500000 0.724619 0.341648
O O15 0.719691 0.860931 0.319226
O O16 0.730015 0.752473 0.399025
O O17 0.250000 0.999850 0.250000
O O18 0.000000 0.997131 0.203372
O O19 0.500000 0.707619 0.453351
O O20 0.250000 0.725958 0.750000
O O21 0.000000 0.687354 0.797245
#
# Coordination Sequence:
#
# PCOD8219475 Si02
#       8
#     8   8   8   8   8   8   8   8
#     4   9  17  32  52  77 115 160 197 234 285 342
#     4  10  19  35  58  86 119 156 196 240 294 353
#     4  11  23  42  63  87 119 153 198 248 298 356
#     4  10  20  35  55  81 118 160 197 239 292 350
#     4   9  21  41  61  85 122 160 198 248 301 356
#     4  11  24  44  68  91 115 150 198 250 306 360
#     4  10  20  33  53  85 119 156 201 245 289 343
#     4  12  24  38  58  84 118 156 194 239 299 363
#
# _framework density 20.488064000000001
#
# number of rings (size 3 to 8) (size 9 to 14) (size 15 to 20)
#    0.000    1.750    1.250    3.375    0.000    5.500 
#    0.000    1.875    0.000    3.750    0.000    0.000 
#    0.000    0.000    0.000    0.000    0.000    0.000 
#
# Total GULP energy -793632.247336 kJ/mol
# GULP energy per Si atom -12400.503865 kJ/mol
# Density = 2.044143 g / cm^3
# Si number density = 20.488064 Si / 1000 Ang^3
#
#
#
# Elastic Constant Matrix: (Units=GPa)
#
#
# Indices 1 2 3 4 5 6 
#
# 1 69.8242 28.9363 16.0866 0.0000 0.0000 0.0000
# 2 28.9363 76.1237 9.1993 0.0000 0.0000 0.0000
# 3 16.0866 9.1993 47.6882 0.0000 0.0000 0.0000
# 4 0.0000 0.0000 0.0000 23.4879 0.0000 0.0000
# 5 0.0000 0.0000 0.0000 0.0000 33.8260 0.0000
# 6 0.0000 0.0000 0.0000 0.0000 0.0000 28.6436
#
#
#
# Elastic Compliance Matrix: (Units=1/GPa)
#
#
# Indices 1 2 3 4 5 6 
#
# 1 0.018043 -0.006269 -0.004877 0.000000 0.000000 0.000000
# 2 -0.006269 0.015628 -0.000900 0.000000 0.000000 0.000000
# 3 -0.004877 -0.000900 0.022788 0.000000 0.000000 0.000000
# 4 0.000000 0.000000 0.000000 0.042575 0.000000 0.000000
# 5 0.000000 0.000000 0.000000 0.000000 0.029563 0.000000
# 6 0.000000 0.000000 0.000000 0.000000 0.000000 0.034912
#
#
# Mechanical properties :
#
#
# Convention : Reuss Voigt Hill
#
# Bulk Modulus (GPa) = 30.89545 33.56451 32.22998
# Shear Modulus (GPa) = 25.20258 26.48573 25.84416
#
# Velocity S-wave (km/s) = 3.51110 3.59937 3.55551
# Velocity P-wave (km/s) = 5.61690 5.80448 5.71146
#
# Compressibility (1/GPa) = 0.03236723
#
# Stress axis : x y z
#
# Youngs Moduli (GPa) = 55.42175 63.98611 43.88200
#
# Poissons Ratio (x) = 0.40115 0.21402
# Poissons Ratio (y) = 0.34746 0.03949
# Poissons Ratio (z) = 0.27030 0.05759
#
# Static dielectric constant tensor:
#      x y z
#    x 3.665110 0.000000 0.000000 
#    y 0.000000 3.604230 0.000000 
#    z 0.000000 0.000000 3.913520 
# 
# 
# High freq. dielectric constant tensor:
#      x y z
#    x 1.800060 0.000000 0.000000 
#    y 0.000000 1.779780 0.000000 
#    z 0.000000 0.000000 1.815090 
# 
# From -- ./inp_files/38234.got.cif
#   From: 2010.03.12/outbox.cif.g09.slc.cpg/sg53_20_cif.got.tgz:38234.got - 2010.04.16 14:36:59.
