data_PCOD8219404
_publ_section_title
;
Structure prediction by ZEFSAII (Michael W. Deem and Ramdas Pophale) SiO2 
 PCOD8219404
Probable space group: P M N A
;
_chemical_formula_sum "Si O2"
_cell_formula_units_Z 56
_cell_length_a 9.080114
_cell_length_b 14.760548
_cell_length_c 22.386954
_cell_angle_alpha 90.000000
_cell_angle_beta 90.000000
_cell_angle_gamma 90.000000
_cell_volume 3000.466549
_symmetry_space_group_name_H-M "P M N A"
_symmetry_group_IT_number 53
_symmetry_cell_setting 'orthorhombic'
loop_
_space_group_symop_operation_xyz
x,y,z
1/2-x,-y,1/2+z
x,-y,-z
1/2-x,y,1/2-z
-x,-y,-z
1/2+x,y,1/2-z
-x,y,z
1/2+x,-y,1/2+z
loop_
_atom_site_type_symbol
_atom_site_label
_atom_site_fract_x
_atom_site_fract_y
_atom_site_fract_z
Si Si1 0.332150 0.710949 0.910142
Si Si2 0.828692 0.194768 0.810050
Si Si3 0.668366 0.403711 0.973925
Si Si4 0.826289 0.117395 0.054294
Si Si5 0.174396 0.916536 0.077574
Si Si6 0.828966 0.393246 0.853762
Si Si7 0.324833 0.570962 0.810047
O O1 0.500000 0.733655 0.895331
O O2 0.313200 0.671942 0.976121
O O3 0.242333 0.803722 0.905295
O O4 0.273085 0.637657 0.862763
O O5 0.750000 0.160820 0.750000
O O6 0.760544 0.140511 0.866858
O O7 0.800931 0.301288 0.817813
O O8 0.000000 0.172176 0.803896
O O9 0.500000 0.409698 0.950362
O O10 0.717055 0.500000 0.000000
O O11 0.777970 0.376814 0.921365
O O12 0.000000 0.129230 0.054975
O O13 0.779957 0.021777 0.083835
O O14 0.766229 0.121843 0.985889
O O15 0.000000 0.907140 0.076551
O O16 0.732439 0.470427 0.823067
O O17 0.000000 0.421007 0.853027
O O18 0.250000 0.608091 0.750000
O O19 0.500000 0.567123 0.803274
#
# Coordination Sequence:
#
# PCOD8219404 Si02
#       7
#     8   8   8   8   8   8   8
#     4  10  21  36  54  78 111 143 173 218 272 319
#     4  10  21  36  53  77 110 143 180 221 267 321
#     4  10  19  35  54  76 109 148 177 212 274 326
#     4   9  17  33  60  84 104 136 176 218 271 326
#     4   8  16  34  57  81 108 137 171 219 271 320
#     4  11  22  35  55  83 109 140 183 229 268 316
#     4  11  23  40  56  73 104 146 186 224 267 318
#
# _framework density 18.663765000000001
#
# number of rings (size 3 to 8) (size 9 to 14) (size 15 to 20)
#    0.000    2.143    1.429    3.000    0.000    5.429 
#    0.000    3.571    0.000    3.429    0.000    0.000 
#    0.000    0.000    0.000    0.000    0.000    0.000 
#
# Total GULP energy -694455.259055 kJ/mol
# GULP energy per Si atom -12400.986769 kJ/mol
# Density = 1.862129 g / cm^3
# Si number density = 18.663765 Si / 1000 Ang^3
#
#
#
# Elastic Constant Matrix: (Units=GPa)
#
#
# Indices 1 2 3 4 5 6 
#
# 1 53.2268 37.7801 35.8530 0.0000 0.0000 0.0000
# 2 37.7801 106.4692 40.0963 0.0000 0.0000 0.0000
# 3 35.8530 40.0963 103.3873 0.0000 0.0000 0.0000
# 4 0.0000 0.0000 0.0000 23.6918 0.0000 0.0000
# 5 0.0000 0.0000 0.0000 0.0000 32.4027 0.0000
# 6 0.0000 0.0000 0.0000 0.0000 0.0000 24.4882
#
#
#
# Elastic Compliance Matrix: (Units=1/GPa)
#
#
# Indices 1 2 3 4 5 6 
#
# 1 0.028965 -0.007606 -0.007095 0.000000 0.000000 0.000000
# 2 -0.007606 0.012996 -0.002403 0.000000 0.000000 0.000000
# 3 -0.007095 -0.002403 0.013064 0.000000 0.000000 0.000000
# 4 0.000000 0.000000 0.000000 0.042209 0.000000 0.000000
# 5 0.000000 0.000000 0.000000 0.000000 0.030862 0.000000
# 6 0.000000 0.000000 0.000000 0.000000 0.000000 0.040836
#
#
# Mechanical properties :
#
#
# Convention : Reuss Voigt Hill
#
# Bulk Modulus (GPa) = 48.03340 54.50467 51.26903
# Shear Modulus (GPa) = 23.80052 26.07348 24.93700
#
# Velocity S-wave (km/s) = 3.57490 3.74172 3.65926
# Velocity P-wave (km/s) = 6.54461 6.92345 6.73669
#
# Compressibility (1/GPa) = 0.02081885
#
# Stress axis : x y z
#
# Youngs Moduli (GPa) = 34.52385 76.94514 76.54343
#
# Poissons Ratio (x) = 0.58527 0.54306
# Poissons Ratio (y) = 0.26260 0.18390
# Poissons Ratio (z) = 0.24494 0.18486
#
# Static dielectric constant tensor:
#      x y z
#    x 3.222580 0.000000 0.000000 
#    y 0.000000 3.441700 0.000000 
#    z 0.000000 0.000000 3.622460 
# 
# 
# High freq. dielectric constant tensor:
#      x y z
#    x 1.706310 0.000000 0.000000 
#    y 0.000000 1.725220 0.000000 
#    z 0.000000 0.000000 1.723940 
# 
# From -- ./inp_files/30872.got.cif
#   From: 2010.03.12/outbox.cif.g09.slc.cpg/sg53_16_cif.got.tgz:30872.got - 2010.04.16 14:36:59.
