data_PCOD8219765
_publ_section_title
;
Structure prediction by ZEFSAII (Michael W. Deem and Ramdas Pophale) SiO2 
 PCOD8219765
Probable space group: P M N A
;
_chemical_formula_sum "Si O2"
_cell_formula_units_Z 32
_cell_length_a 7.805684
_cell_length_b 10.695199
_cell_length_c 21.090930
_cell_angle_alpha 90.000000
_cell_angle_beta 90.000000
_cell_angle_gamma 90.000000
_cell_volume 1760.741358
_symmetry_space_group_name_H-M "P M N A"
_symmetry_group_IT_number 53
_symmetry_cell_setting 'orthorhombic'
loop_
_space_group_symop_operation_xyz
x,y,z
1/2-x,-y,1/2+z
x,-y,-z
1/2-x,y,1/2-z
-x,-y,-z
1/2+x,y,1/2-z
-x,y,z
1/2+x,-y,1/2+z
loop_
_atom_site_type_symbol
_atom_site_label
_atom_site_fract_x
_atom_site_fract_y
_atom_site_fract_z
Si Si1 0.704041 0.327285 0.320497
Si Si2 0.000000 0.436248 0.401656
Si Si3 0.500000 0.695031 0.035200
Si Si4 0.693302 0.048990 0.316815
Si Si5 0.188595 0.930558 0.440516
O O1 0.750000 0.372015 0.250000
O O2 0.500000 0.345093 0.335408
O O3 0.821456 0.410782 0.366086
O O4 0.776094 0.185053 0.329645
O O5 0.000000 0.354397 0.464600
O O6 0.000000 0.583780 0.414874
O O7 0.330257 0.781779 0.046599
O O8 0.750000 0.987086 0.250000
O O9 0.500000 0.084017 0.307542
O O10 0.715364 0.952308 0.374378
O O11 0.000000 0.993525 0.433210
O O12 0.282559 0.000000 0.500000
#
# Coordination Sequence:
#
# PCOD8219765 Si02
#       5
#     8   4   4   8   8
#     4  10  20  34  57  89 111 143 191 235 281 332
#     4  11  20  38  62  76 118 151 189 238 272 326
#     4   9  21  36  56  86 103 159 191 216 286 338
#     4  10  20  32  54  85 112 142 182 233 286 336
#     4   9  18  34  56  79 110 141 181 227 275 342
#
# _framework density 18.174161999999999
#
# number of rings (size 3 to 8) (size 9 to 14) (size 15 to 20)
#    0.750    1.500    1.250    2.250    3.500    0.500 
#    0.000    6.250    0.000    0.000    0.000    0.000 
#    0.000    0.000    0.000    0.000    0.000    0.000 
#
# Total GULP energy -396441.013436 kJ/mol
# GULP energy per Si atom -12388.781670 kJ/mol
# Density = 1.813280 g / cm^3
# Si number density = 18.174162 Si / 1000 Ang^3
#
#
#
# Elastic Constant Matrix: (Units=GPa)
#
#
# Indices 1 2 3 4 5 6 
#
# 1 75.2392 28.7335 36.2828 0.0000 0.0000 0.0000
# 2 28.7335 119.3640 71.9894 0.0000 0.0000 0.0000
# 3 36.2828 71.9894 145.5418 0.0000 0.0000 0.0000
# 4 0.0000 0.0000 0.0000 35.1229 0.0000 0.0000
# 5 0.0000 0.0000 0.0000 0.0000 27.4229 0.0000
# 6 0.0000 0.0000 0.0000 0.0000 0.0000 14.1107
#
#
#
# Elastic Compliance Matrix: (Units=1/GPa)
#
#
# Indices 1 2 3 4 5 6 
#
# 1 0.015431 -0.001987 -0.002864 0.000000 0.000000 0.000000
# 2 -0.001987 0.012195 -0.005537 0.000000 0.000000 0.000000
# 3 -0.002864 -0.005537 0.010323 0.000000 0.000000 0.000000
# 4 0.000000 0.000000 0.000000 0.028471 0.000000 0.000000
# 5 0.000000 0.000000 0.000000 0.000000 0.036466 0.000000
# 6 0.000000 0.000000 0.000000 0.000000 0.000000 0.070868
#
#
# Mechanical properties :
#
#
# Convention : Reuss Voigt Hill
#
# Bulk Modulus (GPa) = 58.22798 68.23958 63.23378
# Shear Modulus (GPa) = 24.96804 28.87391 26.92097
#
# Velocity S-wave (km/s) = 3.71053 3.99022 3.85291
# Velocity P-wave (km/s) = 7.10393 7.67191 7.39338
#
# Compressibility (1/GPa) = 0.01717387
#
# Stress axis : x y z
#
# Youngs Moduli (GPa) = 64.80483 81.99804 96.86648
#
# Poissons Ratio (x) = 0.16296 0.27741
# Poissons Ratio (y) = 0.12879 0.53633
# Poissons Ratio (z) = 0.18559 0.45401
#
# Static dielectric constant tensor:
#      x y z
#    x 3.185980 0.000000 0.000000 
#    y 0.000000 3.085740 0.000000 
#    z 0.000000 0.000000 3.307560 
# 
# 
# High freq. dielectric constant tensor:
#      x y z
#    x 1.689280 0.000000 0.000000 
#    y 0.000000 1.674940 0.000000 
#    z 0.000000 0.000000 1.715810 
# 
# From -- ./inp_files/30241.got.cif
#   From: 2010.03.12/outbox.cif.g09.slc.cpg/sg53_16_cif.got.tgz:30241.got - 2010.04.16 14:36:59.
