data_PCOD8219184
_publ_section_title
;
Structure prediction by ZEFSAII (Michael W. Deem and Ramdas Pophale) SiO2 
 PCOD8219184
Probable space group: P M N A
;
_chemical_formula_sum "Si O2"
_cell_formula_units_Z 48
_cell_length_a 8.876493
_cell_length_b 31.123901
_cell_length_c 9.079517
_cell_angle_alpha 90.000000
_cell_angle_beta 90.000000
_cell_angle_gamma 90.000000
_cell_volume 2508.408052
_symmetry_space_group_name_H-M "P M N A"
_symmetry_group_IT_number 53
_symmetry_cell_setting 'orthorhombic'
loop_
_space_group_symop_operation_xyz
x,y,z
1/2-x,-y,1/2+z
x,-y,-z
1/2-x,y,1/2-z
-x,-y,-z
1/2+x,y,1/2-z
-x,y,z
1/2+x,-y,1/2+z
loop_
_atom_site_type_symbol
_atom_site_label
_atom_site_fract_x
_atom_site_fract_y
_atom_site_fract_z
Si Si1 0.678704 0.116882 0.908830
Si Si2 0.822728 0.801949 0.590552
Si Si3 0.173709 0.957415 0.905059
Si Si4 0.174070 0.709150 0.595392
Si Si5 0.325617 0.542048 0.404336
Si Si6 0.677409 0.383982 0.089350
O O1 0.750000 0.110358 0.750000
O O2 0.500000 0.113740 0.894369
O O3 0.733218 0.162560 0.974802
O O4 0.736406 0.080488 0.017438
O O5 0.750000 0.809416 0.750000
O O6 0.777713 0.754722 0.520829
O O7 0.000000 0.806428 0.613980
O O8 0.250000 0.967180 0.750000
O O9 0.000000 0.943888 0.883659
O O10 0.188079 0.000000 0.000000
O O11 0.250000 0.706456 0.750000
O O12 0.211229 0.663567 0.516405
O O13 0.000000 0.711541 0.628810
O O14 0.299773 0.500000 0.500000
O O15 0.250000 0.532192 0.250000
O O16 0.500000 0.552829 0.382357
O O17 0.247219 0.582565 0.477866
O O18 0.750000 0.389275 0.250000
O O19 0.500000 0.392331 0.105559
#
# Coordination Sequence:
#
# PCOD8219184 Si02
#       6
#     8   8   8   8   8   8
#     4  11  23  38  57  81 112 149 188 231 277 326
#     4   9  18  33  54  80 109 142 182 226 271 321
#     4  11  24  41  62  87 115 147 183 225 273 326
#     4   8  15  29  50  77 108 141 178 220 266 317
#     4  11  24  40  58  80 107 140 178 221 270 324
#     4  10  19  33  56  83 112 145 181 223 269 320
#
# _framework density 19.135643000000002
#
# number of rings (size 3 to 8) (size 9 to 14) (size 15 to 20)
#    0.000    2.000    0.000    3.500    0.000    8.667 
#    0.000    0.833    0.000    2.000    0.000    0.000 
#    0.000    0.000    0.000    0.000    0.000    0.000 
#
# Total GULP energy -594852.557626 kJ/mol
# GULP energy per Si atom -12392.761617 kJ/mol
# Density = 1.909209 g / cm^3
# Si number density = 19.135643 Si / 1000 Ang^3
#
#
#
# Elastic Constant Matrix: (Units=GPa)
#
#
# Indices 1 2 3 4 5 6 
#
# 1 90.7500 61.1844 49.7491 0.0000 0.0000 0.0000
# 2 61.1844 129.1724 42.2355 0.0000 0.0000 0.0000
# 3 49.7491 42.2355 100.4381 0.0000 0.0000 0.0000
# 4 0.0000 0.0000 0.0000 33.0416 0.0000 0.0000
# 5 0.0000 0.0000 0.0000 0.0000 29.2150 0.0000
# 6 0.0000 0.0000 0.0000 0.0000 0.0000 30.5121
#
#
#
# Elastic Compliance Matrix: (Units=1/GPa)
#
#
# Indices 1 2 3 4 5 6 
#
# 1 0.019396 -0.007010 -0.006660 0.000000 0.000000 0.000000
# 2 -0.007010 0.011509 -0.001368 0.000000 0.000000 0.000000
# 3 -0.006660 -0.001368 0.013830 0.000000 0.000000 0.000000
# 4 0.000000 0.000000 0.000000 0.030265 0.000000 0.000000
# 5 0.000000 0.000000 0.000000 0.000000 0.034229 0.000000
# 6 0.000000 0.000000 0.000000 0.000000 0.000000 0.032774
#
#
# Mechanical properties :
#
#
# Convention : Reuss Voigt Hill
#
# Bulk Modulus (GPa) = 68.20677 69.63319 68.91998
# Shear Modulus (GPa) = 28.25432 29.69985 28.97708
#
# Velocity S-wave (km/s) = 3.84673 3.94391 3.89562
# Velocity P-wave (km/s) = 7.44654 7.56356 7.50528
#
# Compressibility (1/GPa) = 0.01466130
#
# Stress axis : x y z
#
# Youngs Moduli (GPa) = 51.55663 86.88820 72.30590
#
# Poissons Ratio (x) = 0.60907 0.48153
# Poissons Ratio (y) = 0.36140 0.09889
# Poissons Ratio (z) = 0.34335 0.11883
#
# Static dielectric constant tensor:
#      x y z
#    x 3.633920 0.000000 0.000000 
#    y 0.000000 4.306250 0.000000 
#    z 0.000000 0.000000 3.218270 
# 
# 
# High freq. dielectric constant tensor:
#      x y z
#    x 1.755640 0.000000 0.000000 
#    y 0.000000 1.774440 0.000000 
#    z 0.000000 0.000000 1.719360 
# 
# From -- ./inp_files/6598.got.cif
#   From: 2010.03.12/outbox.cif.g09.slc.cpg/sg53_4_cif.got.tgz:6598.got - 2010.04.16 14:36:59.
