data_PCOD8219083
_publ_section_title
;
Structure prediction by ZEFSAII (Michael W. Deem and Ramdas Pophale) SiO2 
 PCOD8219083
Probable space group: P M N A
;
_chemical_formula_sum "Si O2"
_cell_formula_units_Z 64
_cell_length_a 9.251023
_cell_length_b 11.906935
_cell_length_c 31.371381
_cell_angle_alpha 90.000000
_cell_angle_beta 90.000000
_cell_angle_gamma 90.000000
_cell_volume 3455.599327
_symmetry_space_group_name_H-M "P M N A"
_symmetry_group_IT_number 53
_symmetry_cell_setting 'orthorhombic'
loop_
_space_group_symop_operation_xyz
x,y,z
1/2-x,-y,1/2+z
x,-y,-z
1/2-x,y,1/2-z
-x,-y,-z
1/2+x,y,1/2-z
-x,y,z
1/2+x,-y,1/2+z
loop_
_atom_site_type_symbol
_atom_site_label
_atom_site_fract_x
_atom_site_fract_y
_atom_site_fract_z
Si Si1 0.833208 0.811500 0.208954
Si Si2 0.330451 0.446828 0.708355
Si Si3 0.333393 0.992484 0.950534
Si Si4 0.660957 0.558942 0.864159
Si Si5 0.330476 0.850924 0.383841
Si Si6 0.163172 0.737661 0.570592
Si Si7 0.664377 0.654690 0.082776
Si Si8 0.838417 0.632302 0.001430
O O1 0.750000 0.861869 0.250000
O O2 0.785916 0.682533 0.200208
O O3 0.803176 0.885323 0.165979
O O4 0.000000 0.815712 0.221263
O O5 0.250000 0.492262 0.750000
O O6 0.500000 0.461588 0.714104
O O7 0.280495 0.527554 0.670207
O O8 0.500000 0.030713 0.949189
O O9 0.243086 0.071677 0.919272
O O10 0.311548 0.870252 0.930295
O O11 0.278664 0.000000 0.000000
O O12 0.500000 0.545577 0.844280
O O13 0.683314 0.685856 0.881832
O O14 0.676218 0.475564 0.904668
O O15 0.500000 0.846078 0.393578
O O16 0.263041 0.726782 0.385539
O O17 0.286821 0.680528 0.543098
O O18 0.000000 0.709760 0.554332
O O19 0.500000 0.698237 0.084069
O O20 0.725320 0.676737 0.035837
O O21 0.000000 0.677101 0.011407
O O22 0.839029 0.500000 0.000000
#
# Coordination Sequence:
#
# PCOD8219083 Si02
#       8
#     8   8   8   8   8   8   8   8
#     4   9  19  33  52  81 114 146 178 221 276 335
#     4  10  19  33  53  79 115 150 181 222 273 335
#     4  10  22  40  60  82 108 147 198 243 286 339
#     4  10  20  33  52  79 109 145 183 224 274 328
#     4  11  22  37  57  83 115 146 185 235 286 335
#     4  10  21  38  57  78 109 145 188 234 273 329
#     4  11  21  33  52  77 108 146 186 222 269 330
#     4  11  22  33  49  76 110 143 178 223 273 324
#
# _framework density 18.520665000000001
#
# number of rings (size 3 to 8) (size 9 to 14) (size 15 to 20)
#    0.000    1.750    2.500    2.250    0.000    4.750 
#    0.000    0.000    0.000    0.750    0.000    1.750 
#    0.000    0.000    0.000    0.000    0.000    0.000 
#
# Total GULP energy -793358.863269 kJ/mol
# GULP energy per Si atom -12396.232239 kJ/mol
# Density = 1.847851 g / cm^3
# Si number density = 18.520665 Si / 1000 Ang^3
#
#
#
# Elastic Constant Matrix: (Units=GPa)
#
#
# Indices 1 2 3 4 5 6 
#
# 1 98.5333 34.6341 63.4422 0.0000 0.0000 0.0000
# 2 34.6341 65.5866 33.6592 0.0000 0.0000 0.0000
# 3 63.4422 33.6592 121.7096 0.0000 0.0000 0.0000
# 4 0.0000 0.0000 0.0000 26.2204 0.0000 0.0000
# 5 0.0000 0.0000 0.0000 0.0000 30.2046 0.0000
# 6 0.0000 0.0000 0.0000 0.0000 0.0000 19.0795
#
#
#
# Elastic Compliance Matrix: (Units=1/GPa)
#
#
# Indices 1 2 3 4 5 6 
#
# 1 0.016591 -0.005038 -0.007255 0.000000 0.000000 0.000000
# 2 -0.005038 0.019299 -0.002711 0.000000 0.000000 0.000000
# 3 -0.007255 -0.002711 0.012748 0.000000 0.000000 0.000000
# 4 0.000000 0.000000 0.000000 0.038138 0.000000 0.000000
# 5 0.000000 0.000000 0.000000 0.000000 0.033108 0.000000
# 6 0.000000 0.000000 0.000000 0.000000 0.000000 0.052412
#
#
# Mechanical properties :
#
#
# Convention : Reuss Voigt Hill
#
# Bulk Modulus (GPa) = 53.67810 61.03339 57.35575
# Shear Modulus (GPa) = 23.97936 25.37383 24.67659
#
# Velocity S-wave (km/s) = 3.60215 3.70540 3.65414
# Velocity P-wave (km/s) = 6.80782 7.16467 6.98852
#
# Compressibility (1/GPa) = 0.01862957
#
# Stress axis : x y z
#
# Youngs Moduli (GPa) = 60.27437 51.81709 78.44546
#
# Poissons Ratio (x) = 0.26105 0.56911
# Poissons Ratio (y) = 0.30365 0.21267
# Poissons Ratio (z) = 0.43728 0.14048
#
# Static dielectric constant tensor:
#      x y z
#    x 3.485980 0.000000 0.000000 
#    y 0.000000 3.223260 0.000000 
#    z 0.000000 0.000000 3.290260 
# 
# 
# High freq. dielectric constant tensor:
#      x y z
#    x 1.727190 0.000000 0.000000 
#    y 0.000000 1.686510 0.000000 
#    z 0.000000 0.000000 1.716480 
# 
# From -- ./inp_files/38179.got.cif
#   From: 2010.03.12/outbox.cif.g09.slc.cpg/sg53_20_cif.got.tgz:38179.got - 2010.04.16 14:36:59.
