data_PCOD8219085
_publ_section_title
;
Structure prediction by ZEFSAII (Michael W. Deem and Ramdas Pophale) SiO2 
 PCOD8219085
Probable space group: P M N A
;
_chemical_formula_sum "Si O2"
_cell_formula_units_Z 64
_cell_length_a 8.995447
_cell_length_b 14.685949
_cell_length_c 24.971593
_cell_angle_alpha 90.000000
_cell_angle_beta 90.000000
_cell_angle_gamma 90.000000
_cell_volume 3298.914143
_symmetry_space_group_name_H-M "P M N A"
_symmetry_group_IT_number 53
_symmetry_cell_setting 'orthorhombic'
loop_
_space_group_symop_operation_xyz
x,y,z
1/2-x,-y,1/2+z
x,-y,-z
1/2-x,y,1/2-z
-x,-y,-z
1/2+x,y,1/2-z
-x,y,z
1/2+x,-y,1/2+z
loop_
_atom_site_type_symbol
_atom_site_label
_atom_site_fract_x
_atom_site_fract_y
_atom_site_fract_z
Si Si1 0.671079 0.786254 0.899687
Si Si2 0.177308 0.684698 0.803987
Si Si3 0.825390 0.156379 0.900142
Si Si4 0.825494 0.987278 0.561375
Si Si5 0.836920 0.436255 0.950031
Si Si6 0.171845 0.488493 0.835161
Si Si7 0.177062 0.289506 0.804355
Si Si8 0.330115 0.268990 0.984479
O O1 0.500000 0.780773 0.881029
O O2 0.774762 0.749213 0.852690
O O3 0.715955 0.888252 0.916115
O O4 0.699150 0.724602 0.952190
O O5 0.250000 0.724451 0.750000
O O6 0.241131 0.580931 0.810655
O O7 0.000000 0.686495 0.800533
O O8 0.770252 0.223468 0.852568
O O9 0.775308 0.194531 0.957669
O O10 0.000000 0.144980 0.897906
O O11 0.752094 0.056753 0.896931
O O12 0.000000 0.005069 0.563013
O O13 0.768459 0.000000 0.500000
O O14 0.798832 0.496273 0.898481
O O15 0.705595 0.365392 0.958087
O O16 0.000000 0.387889 0.941207
O O17 0.848485 0.500000 0.000000
O O18 0.239500 0.392693 0.813937
O O19 0.000000 0.487897 0.820626
O O20 0.250000 0.251783 0.750000
O O21 0.000000 0.288535 0.799681
O O22 0.500000 0.241392 0.972801
#
# Coordination Sequence:
#
# PCOD8219085 Si02
#       8
#     8   8   8   8   8   8   8   8
#     4  10  22  40  61  86 120 156 192 239 295 354
#     4  11  23  40  63  87 116 155 201 248 294 344
#     4  11  22  37  59  87 120 153 192 242 290 348
#     4  10  20  39  63  88 120 155 189 235 297 353
#     4  10  19  33  53  79 117 160 196 237 295 352
#     4   9  18  35  56  82 116 153 194 240 289 344
#     4  10  21  38  58  82 116 153 195 242 289 343
#     4  11  21  35  56  84 120 156 193 237 291 352
#
# _framework density 19.400321999999999
#
# number of rings (size 3 to 8) (size 9 to 14) (size 15 to 20)
#    0.000    1.750    2.500    2.250    0.000    4.000 
#    0.000    2.500    0.000    1.500    0.000    0.000 
#    0.000    0.000    0.000    0.000    0.000    0.000 
#
# Total GULP energy -793433.139266 kJ/mol
# GULP energy per Si atom -12397.392801 kJ/mol
# Density = 1.935617 g / cm^3
# Si number density = 19.400322 Si / 1000 Ang^3
#
#
#
# Elastic Constant Matrix: (Units=GPa)
#
#
# Indices 1 2 3 4 5 6 
#
# 1 53.4515 38.9207 43.1455 0.0000 0.0000 0.0000
# 2 38.9207 99.8189 43.7217 0.0000 0.0000 0.0000
# 3 43.1455 43.7217 120.1148 0.0000 0.0000 0.0000
# 4 0.0000 0.0000 0.0000 20.6114 0.0000 0.0000
# 5 0.0000 0.0000 0.0000 0.0000 45.0855 0.0000
# 6 0.0000 0.0000 0.0000 0.0000 0.0000 33.4521
#
#
#
# Elastic Compliance Matrix: (Units=1/GPa)
#
#
# Indices 1 2 3 4 5 6 
#
# 1 0.031716 -0.008776 -0.008198 0.000000 0.000000 0.000000
# 2 -0.008776 0.014346 -0.002070 0.000000 0.000000 0.000000
# 3 -0.008198 -0.002070 0.012024 0.000000 0.000000 0.000000
# 4 0.000000 0.000000 0.000000 0.048517 0.000000 0.000000
# 5 0.000000 0.000000 0.000000 0.000000 0.022180 0.000000
# 6 0.000000 0.000000 0.000000 0.000000 0.000000 0.029893
#
#
# Mechanical properties :
#
#
# Convention : Reuss Voigt Hill
#
# Bulk Modulus (GPa) = 50.00305 58.32901 54.16603
# Shear Modulus (GPa) = 24.57851 29.66964 27.12408
#
# Velocity S-wave (km/s) = 3.56323 3.91492 3.74321
# Velocity P-wave (km/s) = 6.53905 7.11103 6.83103
#
# Compressibility (1/GPa) = 0.01999878
#
# Stress axis : x y z
#
# Youngs Moduli (GPa) = 31.52994 69.70345 83.16985
#
# Poissons Ratio (x) = 0.61169 0.68184
# Poissons Ratio (y) = 0.27669 0.17215
# Poissons Ratio (z) = 0.25849 0.14428
#
# Static dielectric constant tensor:
#      x y z
#    x 3.473470 0.000000 0.000000 
#    y 0.000000 3.855700 0.000000 
#    z 0.000000 0.000000 3.580670 
# 
# 
# High freq. dielectric constant tensor:
#      x y z
#    x 1.738900 0.000000 0.000000 
#    y 0.000000 1.753060 0.000000 
#    z 0.000000 0.000000 1.755840 
# 
# From -- ./inp_files/34258.got.cif
#   From: 2010.03.12/outbox.cif.g09.slc.cpg/sg53_18_cif.got.tgz:34258.got - 2010.04.16 14:36:59.
