data_PCOD8219167
_publ_section_title
;
Structure prediction by ZEFSAII (Michael W. Deem and Ramdas Pophale) SiO2 
 PCOD8219167
Probable space group: P M N A
;
_chemical_formula_sum "Si O2"
_cell_formula_units_Z 64
_cell_length_a 8.887862
_cell_length_b 11.065798
_cell_length_c 33.974010
_cell_angle_alpha 90.000000
_cell_angle_beta 90.000000
_cell_angle_gamma 90.000000
_cell_volume 3341.387559
_symmetry_space_group_name_H-M "P M N A"
_symmetry_group_IT_number 53
_symmetry_cell_setting 'orthorhombic'
loop_
_space_group_symop_operation_xyz
x,y,z
1/2-x,-y,1/2+z
x,-y,-z
1/2-x,y,1/2-z
-x,-y,-z
1/2+x,y,1/2-z
-x,y,z
1/2+x,-y,1/2+z
loop_
_atom_site_type_symbol
_atom_site_label
_atom_site_fract_x
_atom_site_fract_y
_atom_site_fract_z
Si Si1 0.827432 0.243442 0.026504
Si Si2 0.677381 0.532826 0.936851
Si Si3 0.327168 0.638280 0.636982
Si Si4 0.324222 0.751471 0.209140
Si Si5 0.823000 0.473175 0.290672
Si Si6 0.172957 0.716948 0.059434
Si Si7 0.329641 0.102425 0.399023
Si Si8 0.322875 0.866102 0.128302
O O1 0.723200 0.358807 0.034386
O O2 0.782461 0.133539 0.055766
O O3 0.000000 0.280742 0.036557
O O4 0.810992 0.203658 0.980867
O O5 0.500000 0.515121 0.937923
O O6 0.730420 0.558133 0.892712
O O7 0.755517 0.411104 0.951353
O O8 0.500000 0.595932 0.635470
O O9 0.256311 0.616264 0.679168
O O10 0.312631 0.779295 0.627523
O O11 0.250000 0.795646 0.250000
O O12 0.500000 0.769799 0.215016
O O13 0.284297 0.612472 0.199791
O O14 0.264207 0.829382 0.171922
O O15 0.750000 0.434667 0.250000
O O16 0.000000 0.449771 0.290066
O O17 0.254983 0.779186 0.095493
O O18 0.000000 0.700414 0.071071
O O19 0.500000 0.051806 0.398008
O O20 0.219756 0.003392 0.380914
O O21 0.500000 0.849487 0.126518
#
# Coordination Sequence:
#
# PCOD8219167 Si02
#       8
#     8   8   8   8   8   8   8   8
#     4   9  20  38  57  78 107 145 188 229 271 325
#     4  11  21  33  53  82 113 142 177 226 282 335
#     4  10  20  36  57  79 106 144 187 226 270 329
#     4   9  20  37  57  82 111 141 172 213 265 321
#     4  10  19  33  55  84 116 144 174 219 275 334
#     4  11  22  36  56  80 109 147 186 225 272 327
#     4   9  20  39  58  76 103 143 189 231 270 318
#     4  11  23  38  56  82 113 142 181 231 278 324
#
# _framework density 19.153718999999999
#
# number of rings (size 3 to 8) (size 9 to 14) (size 15 to 20)
#    0.000    2.000    0.000    4.500    0.000    8.000 
#    0.000    3.125    0.000    1.500    0.000    0.000 
#    0.000    0.000    0.000    0.000    0.000    0.000 
#
# Total GULP energy -793658.092116 kJ/mol
# GULP energy per Si atom -12400.907689 kJ/mol
# Density = 1.911012 g / cm^3
# Si number density = 19.153719 Si / 1000 Ang^3
#
#
#
# Elastic Constant Matrix: (Units=GPa)
#
#
# Indices 1 2 3 4 5 6 
#
# 1 80.2591 36.1522 51.1024 0.0000 0.0000 0.0000
# 2 36.1522 49.1139 43.3871 0.0000 0.0000 0.0000
# 3 51.1024 43.3871 154.2885 0.0000 0.0000 0.0000
# 4 0.0000 0.0000 0.0000 22.9487 0.0000 0.0000
# 5 0.0000 0.0000 0.0000 0.0000 32.7355 0.0000
# 6 0.0000 0.0000 0.0000 0.0000 0.0000 31.2107
#
#
#
# Elastic Compliance Matrix: (Units=1/GPa)
#
#
# Indices 1 2 3 4 5 6 
#
# 1 0.019810 -0.011689 -0.003274 0.000000 0.000000 0.000000
# 2 -0.011689 0.033988 -0.005686 0.000000 0.000000 0.000000
# 3 -0.003274 -0.005686 0.009165 0.000000 0.000000 0.000000
# 4 0.000000 0.000000 0.000000 0.043575 0.000000 0.000000
# 5 0.000000 0.000000 0.000000 0.000000 0.030548 0.000000
# 6 0.000000 0.000000 0.000000 0.000000 0.000000 0.032040
#
#
# Mechanical properties :
#
#
# Convention : Reuss Voigt Hill
#
# Bulk Modulus (GPa) = 46.16023 60.54944 53.35484
# Shear Modulus (GPa) = 22.97300 27.58031 25.27665
#
# Velocity S-wave (km/s) = 3.46699 3.79878 3.63667
# Velocity P-wave (km/s) = 6.33869 7.13596 6.74911
#
# Compressibility (1/GPa) = 0.02166367
#
# Stress axis : x y z
#
# Youngs Moduli (GPa) = 50.48029 29.42184 109.11351
#
# Poissons Ratio (x) = 0.34392 0.35725
# Poissons Ratio (y) = 0.59008 0.62043
# Poissons Ratio (z) = 0.16528 0.16730
#
# Static dielectric constant tensor:
#      x y z
#    x 3.520610 0.000000 0.000000 
#    y 0.000000 3.342450 0.000000 
#    z 0.000000 0.000000 3.660080 
# 
# 
# High freq. dielectric constant tensor:
#      x y z
#    x 1.749700 0.000000 0.000000 
#    y 0.000000 1.725470 0.000000 
#    z 0.000000 0.000000 1.757890 
# 
# From -- ./inp_files/38198.got.cif
#   From: 2010.03.12/outbox.cif.g09.slc.cpg/sg53_20_cif.got.tgz:38198.got - 2010.04.16 14:36:59.
