data_PCOD8219833
_publ_section_title
;
Structure prediction by ZEFSAII (Michael W. Deem and Ramdas Pophale) SiO2 
 PCOD8219833
Probable space group: P M N A
;
_chemical_formula_sum "Si O2"
_cell_formula_units_Z 56
_cell_length_a 8.872869
_cell_length_b 18.173759
_cell_length_c 19.468201
_cell_angle_alpha 90.000000
_cell_angle_beta 90.000000
_cell_angle_gamma 90.000000
_cell_volume 3139.313269
_symmetry_space_group_name_H-M "P M N A"
_symmetry_group_IT_number 53
_symmetry_cell_setting 'orthorhombic'
loop_
_space_group_symop_operation_xyz
x,y,z
1/2-x,-y,1/2+z
x,-y,-z
1/2-x,y,1/2-z
-x,-y,-z
1/2+x,y,1/2-z
-x,y,z
1/2+x,-y,1/2+z
loop_
_atom_site_type_symbol
_atom_site_label
_atom_site_fract_x
_atom_site_fract_y
_atom_site_fract_z
Si Si1 0.176047 0.271018 0.324406
Si Si2 0.334042 0.005597 0.581295
Si Si3 0.173876 0.571537 0.176267
Si Si4 0.322496 0.151145 0.926384
Si Si5 0.321376 0.155469 0.425505
Si Si6 0.826015 0.433797 0.323738
Si Si7 0.323725 0.734334 0.324513
O O1 0.250000 0.263753 0.250000
O O2 0.257344 0.216034 0.375204
O O3 0.198621 0.353072 0.356844
O O4 0.000000 0.251800 0.317924
O O5 0.500000 0.024682 0.611222
O O6 0.218917 0.069839 0.602723
O O7 0.345007 0.000000 0.500000
O O8 0.280057 0.924879 0.606745
O O9 0.250000 0.574605 0.250000
O O10 0.249974 0.502646 0.134406
O O11 0.198119 0.652172 0.143028
O O12 0.000000 0.553145 0.184513
O O13 0.500000 0.158155 0.932120
O O14 0.259962 0.210696 0.874421
O O15 0.251085 0.166242 0.000174
O O16 0.500000 0.163730 0.433578
O O17 0.750000 0.430476 0.250000
O O18 0.000000 0.451958 0.315633
O O19 0.250000 0.740872 0.250000
O O20 0.500000 0.753899 0.318646
#
# Coordination Sequence:
#
# PCOD8219833 Si02
#       7
#     8   8   8   8   8   8   8
#     4  10  20  33  50  75 105 135 167 205 250 297
#     4   8  16  32  52  73  97 127 165 205 244 289
#     4   9  16  26  44  68  94 126 163 202 242 286
#     4  11  21  33  53  78 102 131 166 204 247 296
#     4  10  20  35  55  76 100 132 167 206 249 293
#     4   9  16  26  43  67  96 128 162 201 242 286
#     4  10  20  34  51  74 104 134 166 206 251 296
#
# _framework density 17.838296
#
# number of rings (size 3 to 8) (size 9 to 14) (size 15 to 20)
#    0.000    2.429    0.000    5.143    0.000    6.571 
#    0.000    0.714    0.000    4.286    0.000    6.000 
#    0.000    0.000    0.000    0.000    0.000    0.000 
#
# Total GULP energy -693848.270347 kJ/mol
# GULP energy per Si atom -12390.147685 kJ/mol
# Density = 1.779770 g / cm^3
# Si number density = 17.838296 Si / 1000 Ang^3
#
#
#
# Elastic Constant Matrix: (Units=GPa)
#
#
# Indices 1 2 3 4 5 6 
#
# 1 150.3290 91.4747 44.0343 0.0000 0.0000 0.0000
# 2 91.4747 173.9028 56.9376 0.0000 0.0000 0.0000
# 3 44.0343 56.9376 52.7562 0.0000 0.0000 0.0000
# 4 0.0000 0.0000 0.0000 37.7315 0.0000 0.0000
# 5 0.0000 0.0000 0.0000 0.0000 24.5716 0.0000
# 6 0.0000 0.0000 0.0000 0.0000 0.0000 34.9896
#
#
#
# Elastic Compliance Matrix: (Units=1/GPa)
#
#
# Indices 1 2 3 4 5 6 
#
# 1 0.010374 -0.004054 -0.004283 0.000000 0.000000 0.000000
# 2 -0.004054 0.010477 -0.007924 0.000000 0.000000 0.000000
# 3 -0.004283 -0.007924 0.031082 0.000000 0.000000 0.000000
# 4 0.000000 0.000000 0.000000 0.026503 0.000000 0.000000
# 5 0.000000 0.000000 0.000000 0.000000 0.040697 0.000000
# 6 0.000000 0.000000 0.000000 0.000000 0.000000 0.028580
#
#
# Mechanical properties :
#
#
# Convention : Reuss Voigt Hill
#
# Bulk Modulus (GPa) = 51.51790 84.65347 68.08568
# Shear Modulus (GPa) = 26.78022 31.76130 29.27076
#
# Velocity S-wave (km/s) = 3.87883 4.22419 4.05519
# Velocity P-wave (km/s) = 7.00026 8.44694 7.75740
#
# Compressibility (1/GPa) = 0.01941073
#
# Stress axis : x y z
#
# Youngs Moduli (GPa) = 96.39731 95.44490 32.17342
#
# Poissons Ratio (x) = 0.38697 0.13780
# Poissons Ratio (y) = 0.39083 0.25493
# Poissons Ratio (z) = 0.41287 0.75626
#
# Static dielectric constant tensor:
#      x y z
#    x 3.431280 0.000000 0.000000 
#    y 0.000000 4.496230 0.000000 
#    z 0.000000 0.000000 2.781140 
# 
# 
# High freq. dielectric constant tensor:
#      x y z
#    x 1.708820 0.000000 0.000000 
#    y 0.000000 1.719580 0.000000 
#    z 0.000000 0.000000 1.626120 
# 
# From -- ./inp_files/31039.got.cif
#   From: 2010.03.12/outbox.cif.g09.slc.cpg/sg53_16_cif.got.tgz:31039.got - 2010.04.16 14:36:59.
