data_PCOD8219849
_publ_section_title
;
Structure prediction by ZEFSAII (Michael W. Deem and Ramdas Pophale) SiO2 
 PCOD8219849
Probable space group: P M N A
;
_chemical_formula_sum "Si O2"
_cell_formula_units_Z 48
_cell_length_a 9.036658
_cell_length_b 21.271063
_cell_length_c 14.041640
_cell_angle_alpha 90.000000
_cell_angle_beta 90.000000
_cell_angle_gamma 90.000000
_cell_volume 2699.074515
_symmetry_space_group_name_H-M "P M N A"
_symmetry_group_IT_number 53
_symmetry_cell_setting 'orthorhombic'
loop_
_space_group_symop_operation_xyz
x,y,z
1/2-x,-y,1/2+z
x,-y,-z
1/2-x,y,1/2-z
-x,-y,-z
1/2+x,y,1/2-z
-x,y,z
1/2+x,-y,1/2+z
loop_
_atom_site_type_symbol
_atom_site_label
_atom_site_fract_x
_atom_site_fract_y
_atom_site_fract_z
Si Si1 0.824886 0.600023 0.001719
Si Si2 0.825052 0.501466 0.850432
Si Si3 0.826159 0.740906 0.015007
Si Si4 0.828232 0.071055 0.484771
Si Si5 0.827259 0.833149 0.349276
Si Si6 0.173143 0.162981 0.150071
O O1 0.767931 0.562154 0.909295
O O2 0.000000 0.602700 0.997057
O O3 0.775419 0.562399 0.096094
O O4 0.761541 0.670617 0.002615
O O5 0.750000 0.502992 0.750000
O O6 0.000000 0.503433 0.838383
O O7 0.741841 0.770747 0.104488
O O8 0.000000 0.741781 0.038032
O O9 0.790951 0.778186 0.918147
O O10 0.796160 0.107921 0.582208
O O11 0.736014 0.099642 0.397374
O O12 0.000000 0.074503 0.456466
O O13 0.774800 0.000000 0.500000
O O14 0.750000 0.848630 0.250000
O O15 0.000000 0.821789 0.332462
O O16 0.250000 0.176780 0.250000
O O17 0.000000 0.154070 0.166800
#
# Coordination Sequence:
#
# PCOD8219849 Si02
#       6
#     8   8   8   8   8   8
#     4   8  16  32  51  69  95 130 162 195 241 293
#     4   9  17  31  50  71  96 127 161 198 241 287
#     4   9  18  34  53  72  96 129 168 205 243 289
#     4   9  19  36  55  75 100 129 163 204 246 288
#     4  10  20  34  52  74 101 130 161 200 244 290
#     4  10  20  33  51  74 101 132 165 203 246 293
#
# _framework density 17.783874000000001
#
# number of rings (size 3 to 8) (size 9 to 14) (size 15 to 20)
#    0.000    2.833    0.000    2.000    0.000    3.667 
#    0.000    6.667    0.000    0.000    0.000    0.000 
#    0.000    0.000    0.000    0.000    0.000    0.000 
#
# Total GULP energy -595199.570983 kJ/mol
# GULP energy per Si atom -12399.991062 kJ/mol
# Density = 1.774340 g / cm^3
# Si number density = 17.783874 Si / 1000 Ang^3
#
#
#
# Elastic Constant Matrix: (Units=GPa)
#
#
# Indices 1 2 3 4 5 6 
#
# 1 59.9389 34.7485 46.2840 0.0000 0.0000 0.0000
# 2 34.7485 150.2644 52.3614 0.0000 0.0000 0.0000
# 3 46.2840 52.3614 126.7525 0.0000 0.0000 0.0000
# 4 0.0000 0.0000 0.0000 13.9311 0.0000 0.0000
# 5 0.0000 0.0000 0.0000 0.0000 37.3048 0.0000
# 6 0.0000 0.0000 0.0000 0.0000 0.0000 20.9377
#
#
#
# Elastic Compliance Matrix: (Units=1/GPa)
#
#
# Indices 1 2 3 4 5 6 
#
# 1 0.024308 -0.002953 -0.007656 0.000000 0.000000 0.000000
# 2 -0.002953 0.008133 -0.002281 0.000000 0.000000 0.000000
# 3 -0.007656 -0.002281 0.011627 0.000000 0.000000 0.000000
# 4 0.000000 0.000000 0.000000 0.071782 0.000000 0.000000
# 5 0.000000 0.000000 0.000000 0.000000 0.026806 0.000000
# 6 0.000000 0.000000 0.000000 0.000000 0.000000 0.047761
#
#
# Mechanical properties :
#
#
# Convention : Reuss Voigt Hill
#
# Bulk Modulus (GPa) = 54.68442 67.08262 60.88352
# Shear Modulus (GPa) = 22.49281 28.00552 25.24916
#
# Velocity S-wave (km/s) = 3.56024 3.97264 3.77208
# Velocity P-wave (km/s) = 6.90772 7.67108 7.29939
#
# Compressibility (1/GPa) = 0.01828674
#
# Stress axis : x y z
#
# Youngs Moduli (GPa) = 41.13934 122.95871 86.00383
#
# Poissons Ratio (x) = 0.36313 0.65844
# Poissons Ratio (y) = 0.12150 0.19620
# Poissons Ratio (z) = 0.31496 0.28050
#
# Static dielectric constant tensor:
#      x y z
#    x 3.143770 0.000000 0.000000 
#    y 0.000000 3.614830 0.000000 
#    z 0.000000 0.000000 2.983110 
# 
# 
# High freq. dielectric constant tensor:
#      x y z
#    x 1.674110 0.000000 0.000000 
#    y 0.000000 1.692610 0.000000 
#    z 0.000000 0.000000 1.690940 
# 
# From -- ./inp_files/20331.got.cif
#   From: 2010.03.12/outbox.cif.g09.slc.cpg/sg53_11_cif.got.tgz:20331.got - 2010.04.16 14:36:59.
