data_PCOD8219298
_publ_section_title
;
Structure prediction by ZEFSAII (Michael W. Deem and Ramdas Pophale) SiO2 
 PCOD8219298
Probable space group: P M N A
;
_chemical_formula_sum "Si O2"
_cell_formula_units_Z 48
_cell_length_a 15.883827
_cell_length_b 15.525470
_cell_length_c 8.927623
_cell_angle_alpha 90.000000
_cell_angle_beta 90.000000
_cell_angle_gamma 90.000000
_cell_volume 2201.586467
_symmetry_space_group_name_H-M "P M N A"
_symmetry_group_IT_number 53
_symmetry_cell_setting 'orthorhombic'
loop_
_space_group_symop_operation_xyz
x,y,z
1/2-x,-y,1/2+z
x,-y,-z
1/2-x,y,1/2-z
-x,-y,-z
1/2+x,y,1/2-z
-x,y,z
1/2+x,-y,1/2+z
loop_
_atom_site_type_symbol
_atom_site_label
_atom_site_fract_x
_atom_site_fract_y
_atom_site_fract_z
Si Si1 0.900193 0.823977 0.827067
Si Si2 0.100486 0.656673 0.641936
Si Si3 0.404441 0.500204 0.336574
Si Si4 0.599950 0.164031 0.663348
Si Si5 0.899565 0.005383 0.331186
Si Si6 0.841629 0.335705 0.689189
O O1 0.871983 0.738308 0.741172
O O2 0.863752 0.907189 0.741539
O O3 0.000000 0.829650 0.833927
O O4 0.863936 0.823872 0.995864
O O5 0.134615 0.571875 0.727350
O O6 0.152428 0.659277 0.489034
O O7 0.000000 0.655732 0.609518
O O8 0.359278 0.500000 0.500000
O O9 0.500000 0.470645 0.361505
O O10 0.403221 0.594092 0.262312
O O11 0.500000 0.164959 0.663579
O O12 0.632835 0.240256 0.766042
O O13 0.633903 0.074963 0.733578
O O14 0.000000 0.005809 0.331976
O O15 0.864676 0.000000 0.500000
O O16 0.750000 0.359526 0.750000
#
# Coordination Sequence:
#
# PCOD8219298 Si02
#       6
#     8   8   8   8   8   8
#     4   9  17  31  55  87 113 138 180 234 289 339
#     4  10  20  37  62  87 113 146 186 232 283 341
#     4  10  21  39  63  89 114 143 183 230 282 340
#     4  10  19  34  56  80 111 148 188 235 282 333
#     4   9  16  27  50  85 116 140 175 229 287 339
#     4  12  25  38  54  80 114 152 191 232 277 330
#
# _framework density 21.802457
#
# number of rings (size 3 to 8) (size 9 to 14) (size 15 to 20)
#    0.000    2.000    0.000    4.500    0.000   10.000 
#    0.000    2.500    0.000    6.000    0.000    0.000 
#    0.000    0.000    0.000    0.000    0.000    0.000 
#
# Total GULP energy -595270.510010 kJ/mol
# GULP energy per Si atom -12401.468959 kJ/mol
# Density = 2.175283 g / cm^3
# Si number density = 21.802457 Si / 1000 Ang^3
#
#
#
# Elastic Constant Matrix: (Units=GPa)
#
#
# Indices 1 2 3 4 5 6 
#
# 1 24.0506 16.1334 29.9844 0.0000 0.0000 0.0000
# 2 16.1334 137.3925 54.5276 0.0000 0.0000 0.0000
# 3 29.9844 54.5276 191.3134 0.0000 0.0000 0.0000
# 4 0.0000 0.0000 0.0000 51.1992 0.0000 0.0000
# 5 0.0000 0.0000 0.0000 0.0000 14.1918 0.0000
# 6 0.0000 0.0000 0.0000 0.0000 0.0000 2.2115
#
#
#
# Elastic Compliance Matrix: (Units=1/GPa)
#
#
# Indices 1 2 3 4 5 6 
#
# 1 0.052970 -0.003298 -0.007362 0.000000 0.000000 0.000000
# 2 -0.003298 0.008412 -0.001881 0.000000 0.000000 0.000000
# 3 -0.007362 -0.001881 0.006917 0.000000 0.000000 0.000000
# 4 0.000000 0.000000 0.000000 0.019532 0.000000 0.000000
# 5 0.000000 0.000000 0.000000 0.000000 0.070463 0.000000
# 6 0.000000 0.000000 0.000000 0.000000 0.000000 0.452181
#
#
# Mechanical properties :
#
#
# Convention : Reuss Voigt Hill
#
# Bulk Modulus (GPa) = 23.13899 61.56080 42.34990
# Shear Modulus (GPa) = 7.69276 30.32790 19.01033
#
# Velocity S-wave (km/s) = 1.88044 3.73370 2.95606
# Velocity P-wave (km/s) = 3.91801 6.84722 5.57831
#
# Compressibility (1/GPa) = 0.04321710
#
# Stress axis : x y z
#
# Youngs Moduli (GPa) = 18.87872 118.87626 144.57440
#
# Poissons Ratio (x) = 0.39209 1.06433
# Poissons Ratio (y) = 0.06227 0.27189
# Poissons Ratio (z) = 0.13898 0.22357
#
# Static dielectric constant tensor:
#      x y z
#    x 3.312600 0.000000 0.000000 
#    y 0.000000 4.093290 0.000000 
#    z 0.000000 0.000000 4.201430 
# 
# 
# High freq. dielectric constant tensor:
#      x y z
#    x 1.802230 0.000000 0.000000 
#    y 0.000000 1.874000 0.000000 
#    z 0.000000 0.000000 1.876560 
# 
# From -- ./inp_files/9952.got.cif
#   From: 2010.03.12/outbox.cif.g09.slc.cpg/sg53_5_cif.got.tgz:9952.got - 2010.04.16 14:36:59.
