data_PCOD8219658
_publ_section_title
;
Structure prediction by ZEFSAII (Michael W. Deem and Ramdas Pophale) SiO2 
 PCOD8219658
Probable space group: P M N A
;
_chemical_formula_sum "Si O2"
_cell_formula_units_Z 48
_cell_length_a 8.559865
_cell_length_b 9.750050
_cell_length_c 29.197200
_cell_angle_alpha 90.000000
_cell_angle_beta 90.000000
_cell_angle_gamma 90.000000
_cell_volume 2436.772377
_symmetry_space_group_name_H-M "P M N A"
_symmetry_group_IT_number 53
_symmetry_cell_setting 'orthorhombic'
loop_
_space_group_symop_operation_xyz
x,y,z
1/2-x,-y,1/2+z
x,-y,-z
1/2-x,y,1/2-z
-x,-y,-z
1/2+x,y,1/2-z
-x,y,z
1/2+x,-y,1/2+z
loop_
_atom_site_type_symbol
_atom_site_label
_atom_site_fract_x
_atom_site_fract_y
_atom_site_fract_z
Si Si1 0.825507 0.863579 0.028744
Si Si2 0.685051 0.777124 0.299216
Si Si3 0.680985 0.368267 0.028366
Si Si4 0.183835 0.291472 0.123617
Si Si5 0.685418 0.019594 0.622788
Si Si6 0.183934 0.515882 0.700561
O O1 0.000000 0.798430 0.032978
O O2 0.752282 0.900569 0.078115
O O3 0.708070 0.761493 0.003988
O O4 0.838883 0.000000 0.000000
O O5 0.750000 0.818467 0.250000
O O6 0.500000 0.768445 0.297614
O O7 0.748586 0.630293 0.315610
O O8 0.743725 0.895723 0.333327
O O9 0.500000 0.377743 0.041980
O O10 0.781073 0.359518 0.074668
O O11 0.736840 0.500000 0.000000
O O12 0.249302 0.135710 0.124562
O O13 0.271723 0.370564 0.163721
O O14 0.000000 0.297771 0.132928
O O15 0.500000 0.012852 0.619552
O O16 0.250000 0.559190 0.750000
O O17 0.000000 0.502623 0.704791
#
# Coordination Sequence:
#
# PCOD8219658 Si02
#       6
#     8   8   8   8   8   8
#     4  10  19  38  63  86 113 153 200 243 290 349
#     4  10  20  38  61  88 118 153 193 239 291 349
#     4  11  25  41  56  86 125 158 197 247 296 349
#     4  11  22  41  64  88 118 157 200 245 295 352
#     4   9  20  37  60  89 117 148 195 246 293 351
#     4  11  23  41  62  89 121 156 197 243 293 350
#
# _framework density 19.698188999999999
#
# number of rings (size 3 to 8) (size 9 to 14) (size 15 to 20)
#    0.000    1.667    1.667    4.000    2.333    2.333 
#    0.000    5.833    0.000    0.000    0.000    0.000 
#    0.000    0.000    0.000    0.000    0.000    0.000 
#
# Total GULP energy -595340.348801 kJ/mol
# GULP energy per Si atom -12402.923933 kJ/mol
# Density = 1.965335 g / cm^3
# Si number density = 19.698189 Si / 1000 Ang^3
#
#
#
# Elastic Constant Matrix: (Units=GPa)
#
#
# Indices 1 2 3 4 5 6 
#
# 1 68.5451 23.1155 28.8503 0.0000 0.0000 0.0000
# 2 23.1155 101.5336 70.1978 0.0000 0.0000 0.0000
# 3 28.8503 70.1978 139.9057 0.0000 0.0000 0.0000
# 4 0.0000 0.0000 0.0000 43.0422 0.0000 0.0000
# 5 0.0000 0.0000 0.0000 0.0000 34.4887 0.0000
# 6 0.0000 0.0000 0.0000 0.0000 0.0000 25.3043
#
#
#
# Elastic Compliance Matrix: (Units=1/GPa)
#
#
# Indices 1 2 3 4 5 6 
#
# 1 0.016268 -0.002120 -0.002291 0.000000 0.000000 0.000000
# 2 -0.002120 0.015356 -0.007268 0.000000 0.000000 0.000000
# 3 -0.002291 -0.007268 0.011267 0.000000 0.000000 0.000000
# 4 0.000000 0.000000 0.000000 0.023233 0.000000 0.000000
# 5 0.000000 0.000000 0.000000 0.000000 0.028995 0.000000
# 6 0.000000 0.000000 0.000000 0.000000 0.000000 0.039519
#
#
# Mechanical properties :
#
#
# Convention : Reuss Voigt Hill
#
# Bulk Modulus (GPa) = 51.19327 61.59019 56.39173
# Shear Modulus (GPa) = 30.39380 33.08842 31.74111
#
# Velocity S-wave (km/s) = 3.93233 4.10295 4.01854
# Velocity P-wave (km/s) = 6.83102 7.33351 7.08672
#
# Compressibility (1/GPa) = 0.01953382
#
# Stress axis : x y z
#
# Youngs Moduli (GPa) = 61.47009 65.11930 88.75577
#
# Poissons Ratio (x) = 0.13803 0.20335
# Poissons Ratio (y) = 0.13029 0.64508
# Poissons Ratio (z) = 0.14084 0.47329
#
# Static dielectric constant tensor:
#      x y z
#    x 3.456980 0.000000 0.000000 
#    y 0.000000 3.667420 0.000000 
#    z 0.000000 0.000000 3.756660 
# 
# 
# High freq. dielectric constant tensor:
#      x y z
#    x 1.758330 0.000000 0.000000 
#    y 0.000000 1.771900 0.000000 
#    z 0.000000 0.000000 1.780130 
# 
# From -- ./inp_files/37740.got.cif
#   From: 2010.03.12/outbox.cif.g09.slc.cpg/sg53_19_cif.got.tgz:37740.got - 2010.04.16 14:36:59.
