data_PCOD8219339
_publ_section_title
;
Structure prediction by ZEFSAII (Michael W. Deem and Ramdas Pophale) SiO2 
 PCOD8219339
Probable space group: P M N A
;
_chemical_formula_sum "Si O2"
_cell_formula_units_Z 64
_cell_length_a 8.858434
_cell_length_b 19.396710
_cell_length_c 20.614184
_cell_angle_alpha 90.000000
_cell_angle_beta 90.000000
_cell_angle_gamma 90.000000
_cell_volume 3542.021351
_symmetry_space_group_name_H-M "P M N A"
_symmetry_group_IT_number 53
_symmetry_cell_setting 'orthorhombic'
loop_
_space_group_symop_operation_xyz
x,y,z
1/2-x,-y,1/2+z
x,-y,-z
1/2-x,y,1/2-z
-x,-y,-z
1/2+x,y,1/2-z
-x,y,z
1/2+x,-y,1/2+z
loop_
_atom_site_type_symbol
_atom_site_label
_atom_site_fract_x
_atom_site_fract_y
_atom_site_fract_z
Si Si1 0.177482 0.545455 0.061240
Si Si2 0.176890 0.681216 0.480532
Si Si3 0.676622 0.177180 0.520822
Si Si4 0.325947 0.184326 0.371282
Si Si5 0.324329 0.323361 0.130606
Si Si6 0.322481 0.456036 0.315754
Si Si7 0.822713 0.962245 0.817365
Si Si8 0.821376 0.041053 0.563756
O O1 0.266988 0.617036 0.061732
O O2 0.226991 0.505670 0.125866
O O3 0.000000 0.560805 0.058560
O O4 0.228596 0.500000 0.000000
O O5 0.263618 0.748757 0.455383
O O6 0.218511 0.666987 0.555340
O O7 0.000000 0.692704 0.470975
O O8 0.500000 0.171343 0.535292
O O9 0.714996 0.166302 0.445311
O O10 0.764256 0.119272 0.560910
O O11 0.500000 0.206265 0.365786
O O12 0.224574 0.247402 0.345788
O O13 0.286546 0.118291 0.328128
O O14 0.500000 0.333569 0.143745
O O15 0.234474 0.378871 0.172140
O O16 0.250000 0.485596 0.250000
O O17 0.500000 0.453921 0.307973
O O18 0.750000 0.985957 0.750000
O O19 0.000000 0.976244 0.816339
O O20 0.750616 0.006806 0.873748
O O21 0.000000 0.039619 0.570437
O O22 0.766531 0.000000 0.500000
#
# Coordination Sequence:
#
# PCOD8219339 Si02
#       8
#     8   8   8   8   8   8   8   8
#     4  10  20  36  58  82 108 144 186 228 275 329
#     4  10  20  33  54  85 116 144 180 230 280 328
#     4  10  19  34  57  83 113 148 187 230 278 334
#     4   9  19  34  53  77 110 151 190 228 272 327
#     4  10  20  33  52  79 112 148 186 226 272 326
#     4  11  23  38  56  78 110 147 186 229 275 329
#     4  11  23  39  57  81 113 151 193 233 282 336
#     4  11  22  36  58  86 115 147 187 236 284 333
#
# _framework density 18.068778999999999
#
# number of rings (size 3 to 8) (size 9 to 14) (size 15 to 20)
#    0.000    1.750    2.500    2.250    0.000    4.750 
#    0.000    1.250    0.000    0.750    0.000    3.500 
#    0.000    0.000    0.000    0.000    0.000    0.000 
#
# Total GULP energy -793961.241726 kJ/mol
# GULP energy per Si atom -12405.644402 kJ/mol
# Density = 1.802765 g / cm^3
# Si number density = 18.068779 Si / 1000 Ang^3
#
#
#
# Elastic Constant Matrix: (Units=GPa)
#
#
# Indices 1 2 3 4 5 6 
#
# 1 74.4281 48.4707 49.7734 0.0000 0.0000 0.0000
# 2 48.4707 108.1230 60.2508 0.0000 0.0000 0.0000
# 3 49.7734 60.2508 116.4781 0.0000 0.0000 0.0000
# 4 0.0000 0.0000 0.0000 24.2418 0.0000 0.0000
# 5 0.0000 0.0000 0.0000 0.0000 28.1431 0.0000
# 6 0.0000 0.0000 0.0000 0.0000 0.0000 34.2973
#
#
#
# Elastic Compliance Matrix: (Units=1/GPa)
#
#
# Indices 1 2 3 4 5 6 
#
# 1 0.021529 -0.006357 -0.005911 0.000000 0.000000 0.000000
# 2 -0.006357 0.014871 -0.004976 0.000000 0.000000 0.000000
# 3 -0.005911 -0.004976 0.013685 0.000000 0.000000 0.000000
# 4 0.000000 0.000000 0.000000 0.041251 0.000000 0.000000
# 5 0.000000 0.000000 0.000000 0.000000 0.035533 0.000000
# 6 0.000000 0.000000 0.000000 0.000000 0.000000 0.029157
#
#
# Mechanical properties :
#
#
# Convention : Reuss Voigt Hill
#
# Bulk Modulus (GPa) = 64.11659 68.44655 66.28157
# Shear Modulus (GPa) = 25.54740 26.70540 26.12640
#
# Velocity S-wave (km/s) = 3.76426 3.84863 3.80668
# Velocity P-wave (km/s) = 7.37934 7.59688 7.48890
#
# Compressibility (1/GPa) = 0.01559659
#
# Stress axis : x y z
#
# Youngs Moduli (GPa) = 46.44879 67.24282 73.07105
#
# Poissons Ratio (x) = 0.42748 0.43195
# Poissons Ratio (y) = 0.29529 0.36360
# Poissons Ratio (z) = 0.27458 0.33460
#
# Static dielectric constant tensor:
#      x y z
#    x 3.346530 0.000000 0.000000 
#    y 0.000000 3.357550 0.000000 
#    z 0.000000 0.000000 3.206080 
# 
# 
# High freq. dielectric constant tensor:
#      x y z
#    x 1.710970 0.000000 0.000000 
#    y 0.000000 1.701670 0.000000 
#    z 0.000000 0.000000 1.677310 
# 
# From -- ./inp_files/31237.got.cif
#   From: 2010.03.12/outbox.cif.g09.slc.cpg/sg53_16_cif.got.tgz:31237.got - 2010.04.16 14:36:59.
