data_PCOD8219942
_publ_section_title
;
Structure prediction by ZEFSAII (Michael W. Deem and Ramdas Pophale) SiO2 
 PCOD8219942
Probable space group: P M N A
;
_chemical_formula_sum "Si O2"
_cell_formula_units_Z 48
_cell_length_a 8.855028
_cell_length_b 9.930413
_cell_length_c 29.236569
_cell_angle_alpha 90.000000
_cell_angle_beta 90.000000
_cell_angle_gamma 90.000000
_cell_volume 2570.890948
_symmetry_space_group_name_H-M "P M N A"
_symmetry_group_IT_number 53
_symmetry_cell_setting 'orthorhombic'
loop_
_space_group_symop_operation_xyz
x,y,z
1/2-x,-y,1/2+z
x,-y,-z
1/2-x,y,1/2-z
-x,-y,-z
1/2+x,y,1/2-z
-x,y,z
1/2+x,-y,1/2+z
loop_
_atom_site_type_symbol
_atom_site_label
_atom_site_fract_x
_atom_site_fract_y
_atom_site_fract_z
Si Si1 0.820264 0.886414 0.032578
Si Si2 0.823028 0.784886 0.297860
Si Si3 0.820117 0.364924 0.022528
Si Si4 0.178429 0.292778 0.124117
Si Si5 0.677993 0.020510 0.630196
Si Si6 0.178198 0.520834 0.701093
O O1 0.762092 0.912680 0.083483
O O2 0.000000 0.892232 0.031957
O O3 0.759198 0.747007 0.012473
O O4 0.752177 0.000000 0.000000
O O5 0.750000 0.819687 0.250000
O O6 0.763560 0.898423 0.331316
O O7 0.779276 0.632642 0.313068
O O8 0.000000 0.799578 0.293014
O O9 0.761656 0.340412 0.074210
O O10 0.000000 0.364375 0.023978
O O11 0.755135 0.500000 0.000000
O O12 0.258925 0.380589 0.162564
O O13 0.000000 0.314715 0.128029
O O14 0.221296 0.136785 0.131506
O O15 0.500000 0.039599 0.636231
O O16 0.250000 0.558177 0.750000
O O17 0.000000 0.540449 0.705359
#
# Coordination Sequence:
#
# PCOD8219942 Si02
#       6
#     8   8   8   8   8   8
#     4   9  15  28  48  74 111 147 180 221 264 309
#     4  10  22  40  60  82 108 139 181 228 276 332
#     4   9  17  28  46  78 113 145 183 225 266 312
#     4  10  20  34  54  84 117 146 183 226 271 324
#     4  10  20  33  55  85 114 147 184 224 272 323
#     4  10  22  40  60  81 107 141 181 226 278 331
#
# _framework density 18.670570999999999
#
# number of rings (size 3 to 8) (size 9 to 14) (size 15 to 20)
#    0.000    2.333    1.667    1.000    2.333    3.333 
#    0.000    0.000    0.000    2.000    0.000    0.000 
#    0.000    0.000    0.000    0.000    0.000    0.000 
#
# Total GULP energy -595068.755933 kJ/mol
# GULP energy per Si atom -12397.265749 kJ/mol
# Density = 1.862808 g / cm^3
# Si number density = 18.670571 Si / 1000 Ang^3
#
#
#
# Elastic Constant Matrix: (Units=GPa)
#
#
# Indices 1 2 3 4 5 6 
#
# 1 44.3882 45.4256 52.4018 0.0000 0.0000 0.0000
# 2 45.4256 165.3199 113.2661 0.0000 0.0000 0.0000
# 3 52.4018 113.2661 174.4622 0.0000 0.0000 0.0000
# 4 0.0000 0.0000 0.0000 47.4676 0.0000 0.0000
# 5 0.0000 0.0000 0.0000 0.0000 23.0947 0.0000
# 6 0.0000 0.0000 0.0000 0.0000 0.0000 24.0232
#
#
#
# Elastic Compliance Matrix: (Units=1/GPa)
#
#
# Indices 1 2 3 4 5 6 
#
# 1 0.036722 -0.004563 -0.008067 0.000000 0.000000 0.000000
# 2 -0.004563 0.011462 -0.006071 0.000000 0.000000 0.000000
# 3 -0.008067 -0.006071 0.012097 0.000000 0.000000 0.000000
# 4 0.000000 0.000000 0.000000 0.021067 0.000000 0.000000
# 5 0.000000 0.000000 0.000000 0.000000 0.043300 0.000000
# 6 0.000000 0.000000 0.000000 0.000000 0.000000 0.041627
#
#
# Mechanical properties :
#
#
# Convention : Reuss Voigt Hill
#
# Bulk Modulus (GPa) = 43.71050 89.59524 66.65287
# Shear Modulus (GPa) = 23.66269 30.45553 27.05911
#
# Velocity S-wave (km/s) = 3.56389 4.04320 3.81109
# Velocity P-wave (km/s) = 6.35589 8.35992 7.42582
#
# Compressibility (1/GPa) = 0.02287780
#
# Stress axis : x y z
#
# Youngs Moduli (GPa) = 27.23159 87.24398 82.66824
#
# Poissons Ratio (x) = 0.39809 0.66692
# Poissons Ratio (y) = 0.12426 0.50188
# Poissons Ratio (z) = 0.21969 0.52966
#
# Static dielectric constant tensor:
#      x y z
#    x 3.055070 0.000000 0.000000 
#    y 0.000000 3.662000 0.000000 
#    z 0.000000 0.000000 3.596840 
# 
# 
# High freq. dielectric constant tensor:
#      x y z
#    x 1.686970 0.000000 0.000000 
#    y 0.000000 1.738280 0.000000 
#    z 0.000000 0.000000 1.737580 
# 
# From -- ./inp_files/37726.got.cif
#   From: 2010.03.12/outbox.cif.g09.slc.cpg/sg53_19_cif.got.tgz:37726.got - 2010.04.16 14:36:59.
