data_PCOD8219699
_publ_section_title
;
Structure prediction by ZEFSAII (Michael W. Deem and Ramdas Pophale) SiO2 
 PCOD8219699
Probable space group: P M N A
;
_chemical_formula_sum "Si O2"
_cell_formula_units_Z 44
_cell_length_a 32.850880
_cell_length_b 17.038555
_cell_length_c 5.010259
_cell_angle_alpha 90.000000
_cell_angle_beta 90.000000
_cell_angle_gamma 90.000000
_cell_volume 2804.399914
_symmetry_space_group_name_H-M "P M N A"
_symmetry_group_IT_number 53
_symmetry_cell_setting 'orthorhombic'
loop_
_space_group_symop_operation_xyz
x,y,z
1/2-x,-y,1/2+z
x,-y,-z
1/2-x,y,1/2-z
-x,-y,-z
1/2+x,y,1/2-z
-x,y,z
1/2+x,-y,1/2+z
loop_
_atom_site_type_symbol
_atom_site_label
_atom_site_fract_x
_atom_site_fract_y
_atom_site_fract_z
Si Si1 0.721417 0.916246 0.003303
Si Si2 0.797717 0.755871 0.307317
Si Si3 0.545267 0.593260 0.013194
Si Si4 0.093876 0.407119 0.017165
Si Si5 0.321316 0.666343 0.679229
Si Si6 0.750000 0.550977 0.750000
O O1 0.750000 0.930963 0.250000
O O2 0.692325 0.842343 0.071846
O O3 0.750000 0.896155 0.750000
O O4 0.696805 0.000000 0.000000
O O5 0.750000 0.745650 0.250000
O O6 0.815946 0.693422 0.515557
O O7 0.818320 0.740693 0.021199
O O8 0.500000 0.626111 0.074068
O O9 0.577733 0.624136 0.232496
O O10 0.544090 0.500000 0.000000
O O11 0.559865 0.622258 0.725296
O O12 0.135965 0.372891 0.119614
O O13 0.098885 0.500000 0.000000
O O14 0.286157 0.602934 0.624692
O O15 0.766532 0.500000 0.500000
#
# Coordination Sequence:
#
# PCOD8219699 Si02
#       6
#     8   8   8   8   8   4
#     4   9  17  29  47  68  86 107 143 192 235 274
#     4  11  19  33  47  63  87 118 156 191 230 271
#     4   9  17  31  50  68  84 105 137 182 237 288
#     4  10  20  32  46  65  88 113 148 193 228 270
#     4  12  22  34  46  64  87 122 159 196 235 263
#     4  12  24  36  46  58  80 120 170 208 232 254
#
# _framework density 15.689632
#
# number of rings (size 3 to 8) (size 9 to 14) (size 15 to 20)
#    0.000    1.636    1.818    5.455    0.000    4.364 
#    0.000    0.000    0.000    0.000    0.000    0.000 
#    0.000    0.000    0.000    0.000    0.000   63.636 
#
# Total GULP energy -545143.654993 kJ/mol
# GULP energy per Si atom -12389.628523 kJ/mol
# Density = 1.565392 g / cm^3
# Si number density = 15.689632 Si / 1000 Ang^3
#
#
#
# Elastic Constant Matrix: (Units=GPa)
#
#
# Indices 1 2 3 4 5 6 
#
# 1 87.9342 23.7571 23.5812 0.0000 0.0000 0.0000
# 2 23.7571 62.5265 23.6720 0.0000 0.0000 0.0000
# 3 23.5812 23.6720 95.0138 0.0000 0.0000 0.0000
# 4 0.0000 0.0000 0.0000 22.5086 0.0000 0.0000
# 5 0.0000 0.0000 0.0000 0.0000 21.7329 0.0000
# 6 0.0000 0.0000 0.0000 0.0000 0.0000 -25.5787
#
#
#
# Elastic Compliance Matrix: (Units=1/GPa)
#
#
# Indices 1 2 3 4 5 6 
#
# 1 0.013083 -0.004131 -0.002218 0.000000 0.000000 0.000000
# 2 -0.004131 0.018963 -0.003699 0.000000 0.000000 0.000000
# 3 -0.002218 -0.003699 0.011997 0.000000 0.000000 0.000000
# 4 0.000000 0.000000 0.000000 0.044427 0.000000 0.000000
# 5 0.000000 0.000000 0.000000 0.000000 0.046013 0.000000
# 6 0.000000 0.000000 0.000000 0.000000 0.000000 -0.039095
#
#
# Mechanical properties :
#
#
# Convention : Reuss Voigt Hill
#
# Bulk Modulus (GPa) = 41.75948 43.05501 42.40725
# Shear Modulus (GPa) = 40.49639 15.36350 27.92995
#
# Velocity S-wave (km/s) = 5.08596 3.13263 4.22376
# Velocity P-wave (km/s) = 7.82068 6.37070 7.13263
#
# Compressibility (1/GPa) = 0.02394666
#
# Stress axis : x y z
#
# Youngs Moduli (GPa) = 76.43492 52.73312 83.35521
#
# Poissons Ratio (x) = 0.21786 0.18486
# Poissons Ratio (y) = 0.31578 0.30835
# Poissons Ratio (z) = 0.16951 0.19507
#
# Static dielectric constant tensor:
#      x y z
#    x 2.787520 0.000000 0.000000 
#    y 0.000000 3.163920 0.000000 
#    z 0.000000 0.000000 3.350200 
# 
# 
# High freq. dielectric constant tensor:
#      x y z
#    x 1.563210 0.000000 0.000000 
#    y 0.000000 1.569780 0.000000 
#    z 0.000000 0.000000 1.633720 
# 
# From -- ./inp_files/5263.got.cif
#   From: 2010.03.12/outbox.cif.g09.slc.cpg/sg53_3_cif.got.tgz:5263.got - 2010.04.16 14:36:59.
