data_PCOD8219709
_publ_section_title
;
Structure prediction by ZEFSAII (Michael W. Deem and Ramdas Pophale) SiO2 
 PCOD8219709
Probable space group: P M N A
;
_chemical_formula_sum "Si O2"
_cell_formula_units_Z 56
_cell_length_a 8.959874
_cell_length_b 20.555551
_cell_length_c 16.811147
_cell_angle_alpha 90.000000
_cell_angle_beta 90.000000
_cell_angle_gamma 90.000000
_cell_volume 3096.195469
_symmetry_space_group_name_H-M "P M N A"
_symmetry_group_IT_number 53
_symmetry_cell_setting 'orthorhombic'
loop_
_space_group_symop_operation_xyz
x,y,z
1/2-x,-y,1/2+z
x,-y,-z
1/2-x,y,1/2-z
-x,-y,-z
1/2+x,y,1/2-z
-x,y,z
1/2+x,-y,1/2+z
loop_
_atom_site_type_symbol
_atom_site_label
_atom_site_fract_x
_atom_site_fract_y
_atom_site_fract_z
Si Si1 0.676618 0.933820 0.166330
Si Si2 0.832737 0.404582 0.943855
Si Si3 0.825004 0.714213 0.503304
Si Si4 0.664397 0.040942 0.419939
Si Si5 0.666962 0.462535 0.381548
Si Si6 0.823438 0.849174 0.030612
Si Si7 0.326350 0.657468 0.827222
O O1 0.750000 0.916410 0.250000
O O2 0.500000 0.928421 0.172381
O O3 0.737310 0.881829 0.103602
O O4 0.720098 0.007778 0.140900
O O5 0.782082 0.461311 0.881770
O O6 0.000000 0.380255 0.922732
O O7 0.718811 0.343960 0.942667
O O8 0.832935 0.436530 0.029606
O O9 0.730821 0.776109 0.477788
O O10 0.777918 0.695706 0.593291
O O11 0.000000 0.728199 0.495847
O O12 0.500000 0.042422 0.379473
O O13 0.714720 0.113231 0.447519
O O14 0.655088 0.000000 0.500000
O O15 0.500000 0.456451 0.345912
O O16 0.778707 0.418482 0.330334
O O17 0.000000 0.852102 0.047685
O O18 0.250000 0.690512 0.750000
O O19 0.500000 0.661387 0.814656
#
# Coordination Sequence:
#
# PCOD8219709 Si02
#       7
#     8   8   8   8   8   8   8
#     4  11  21  34  55  81 108 135 167 208 252 299
#     4   8  14  26  45  68  92 120 154 194 241 292
#     4  10  20  32  48  73 102 134 173 213 253 302
#     4   8  16  32  52  75 102 131 165 204 247 293
#     4   8  14  26  45  67  90 117 153 196 242 292
#     4  10  20  35  55  77 104 138 173 209 251 301
#     4  10  20  32  47  68  96 130 169 213 260 309
#
# _framework density 18.086713
#
# number of rings (size 3 to 8) (size 9 to 14) (size 15 to 20)
#    0.000    2.714    0.000    4.286    0.000    5.429 
#    0.000    3.571    0.000    2.571    0.000    2.000 
#    0.000    0.000    0.000    0.000    0.000    0.000 
#
# Total GULP energy -694006.574366 kJ/mol
# GULP energy per Si atom -12392.974542 kJ/mol
# Density = 1.804555 g / cm^3
# Si number density = 18.086713 Si / 1000 Ang^3
#
#
#
# Elastic Constant Matrix: (Units=GPa)
#
#
# Indices 1 2 3 4 5 6 
#
# 1 105.7190 46.4816 42.9520 0.0000 0.0000 0.0000
# 2 46.4816 105.3764 29.2053 0.0000 0.0000 0.0000
# 3 42.9520 29.2053 63.8617 0.0000 0.0000 0.0000
# 4 0.0000 0.0000 0.0000 14.4537 0.0000 0.0000
# 5 0.0000 0.0000 0.0000 0.0000 26.5288 0.0000
# 6 0.0000 0.0000 0.0000 0.0000 0.0000 22.0010
#
#
#
# Elastic Compliance Matrix: (Units=1/GPa)
#
#
# Indices 1 2 3 4 5 6 
#
# 1 0.014492 -0.004227 -0.007814 0.000000 0.000000 0.000000
# 2 -0.004227 0.012100 -0.002691 0.000000 0.000000 0.000000
# 3 -0.007814 -0.002691 0.022145 0.000000 0.000000 0.000000
# 4 0.000000 0.000000 0.000000 0.069186 0.000000 0.000000
# 5 0.000000 0.000000 0.000000 0.000000 0.037695 0.000000
# 6 0.000000 0.000000 0.000000 0.000000 0.000000 0.045453
#
#
# Mechanical properties :
#
#
# Convention : Reuss Voigt Hill
#
# Bulk Modulus (GPa) = 51.88381 56.91501 54.39941
# Shear Modulus (GPa) = 21.10071 23.01791 22.05931
#
# Velocity S-wave (km/s) = 3.41932 3.57128 3.49613
# Velocity P-wave (km/s) = 6.65863 6.96718 6.81465
#
# Compressibility (1/GPa) = 0.01927384
#
# Stress axis : x y z
#
# Youngs Moduli (GPa) = 69.00257 82.64475 45.15695
#
# Poissons Ratio (x) = 0.34932 0.35286
# Poissons Ratio (y) = 0.29166 0.12150
# Poissons Ratio (z) = 0.53920 0.22237
#
# Static dielectric constant tensor:
#      x y z
#    x 3.363040 0.000000 0.000000 
#    y 0.000000 3.599460 0.000000 
#    z 0.000000 0.000000 3.259790 
# 
# 
# High freq. dielectric constant tensor:
#      x y z
#    x 1.704090 0.000000 0.000000 
#    y 0.000000 1.693000 0.000000 
#    z 0.000000 0.000000 1.669830 
# 
# From -- ./inp_files/26699.got.cif
#   From: 2010.03.12/outbox.cif.g09.slc.cpg/sg53_14_cif.got.tgz:26699.got - 2010.04.16 14:36:59.
