data_PCOD8219435
_publ_section_title
;
Structure prediction by ZEFSAII (Michael W. Deem and Ramdas Pophale) SiO2 
 PCOD8219435
Probable space group: P M N A
;
_chemical_formula_sum "Si O2"
_cell_formula_units_Z 48
_cell_length_a 8.437192
_cell_length_b 9.670759
_cell_length_c 30.675677
_cell_angle_alpha 90.000000
_cell_angle_beta 90.000000
_cell_angle_gamma 90.000000
_cell_volume 2502.952737
_symmetry_space_group_name_H-M "P M N A"
_symmetry_group_IT_number 53
_symmetry_cell_setting 'orthorhombic'
loop_
_space_group_symop_operation_xyz
x,y,z
1/2-x,-y,1/2+z
x,-y,-z
1/2-x,y,1/2-z
-x,-y,-z
1/2+x,y,1/2-z
-x,y,z
1/2+x,-y,1/2+z
loop_
_atom_site_type_symbol
_atom_site_label
_atom_site_fract_x
_atom_site_fract_y
_atom_site_fract_z
Si Si1 0.687646 0.205319 0.201947
Si Si2 0.316557 0.649187 0.481921
Si Si3 0.814914 0.307227 0.611374
Si Si4 0.815660 0.413332 0.136607
Si Si5 0.812410 0.995593 0.370505
Si Si6 0.814616 0.222986 0.436008
O O1 0.750000 0.180387 0.250000
O O2 0.500000 0.222523 0.201426
O O3 0.763623 0.344506 0.182123
O O4 0.743854 0.073412 0.173374
O O5 0.266352 0.500000 0.500000
O O6 0.500000 0.652497 0.468389
O O7 0.211195 0.682093 0.440178
O O8 0.281435 0.762283 0.519149
O O9 0.721497 0.423734 0.638425
O O10 0.745309 0.159770 0.627877
O O11 0.000000 0.320621 0.621677
O O12 0.717830 0.351052 0.096275
O O13 0.000000 0.388239 0.128075
O O14 0.000000 0.991877 0.372020
O O15 0.754232 0.082637 0.412652
O O16 0.000000 0.219322 0.446751
#
# Coordination Sequence:
#
# PCOD8219435 Si02
#       6
#     8   8   8   8   8   8
#     4  10  20  39  64  89 112 141 180 222 272 331
#     4  11  22  34  50  77 114 149 189 239 283 326
#     4  11  21  36  57  80 110 150 190 231 279 329
#     4  11  21  35  55  83 114 144 181 227 274 324
#     4   8  19  37  57  82 112 144 182 229 279 332
#     4  10  19  35  57  79 105 146 193 232 274 326
#
# _framework density 19.177347999999999
#
# number of rings (size 3 to 8) (size 9 to 14) (size 15 to 20)
#    0.000    1.833    1.667    4.500    0.000    1.333 
#    0.000   14.167    0.000    2.000    0.000    0.000 
#    0.000    0.000    0.000    0.000    0.000    0.000 
#
# Total GULP energy -595303.671866 kJ/mol
# GULP energy per Si atom -12402.159831 kJ/mol
# Density = 1.913370 g / cm^3
# Si number density = 19.177348 Si / 1000 Ang^3
#
#
#
# Elastic Constant Matrix: (Units=GPa)
#
#
# Indices 1 2 3 4 5 6 
#
# 1 49.8353 20.3495 12.2569 0.0000 0.0000 0.0000
# 2 20.3495 146.8026 52.1834 0.0000 0.0000 0.0000
# 3 12.2569 52.1834 102.2305 0.0000 0.0000 0.0000
# 4 0.0000 0.0000 0.0000 23.3577 0.0000 0.0000
# 5 0.0000 0.0000 0.0000 0.0000 28.9590 0.0000
# 6 0.0000 0.0000 0.0000 0.0000 0.0000 16.5687
#
#
#
# Elastic Compliance Matrix: (Units=1/GPa)
#
#
# Indices 1 2 3 4 5 6 
#
# 1 0.021407 -0.002511 -0.001285 0.000000 0.000000 0.000000
# 2 -0.002511 0.008616 -0.004097 0.000000 0.000000 0.000000
# 3 -0.001285 -0.004097 0.012027 0.000000 0.000000 0.000000
# 4 0.000000 0.000000 0.000000 0.042812 0.000000 0.000000
# 5 0.000000 0.000000 0.000000 0.000000 0.034532 0.000000
# 6 0.000000 0.000000 0.000000 0.000000 0.000000 0.060355
#
#
# Mechanical properties :
#
#
# Convention : Reuss Voigt Hill
#
# Bulk Modulus (GPa) = 38.07326 52.04980 45.06153
# Shear Modulus (GPa) = 24.47493 28.04898 26.26195
#
# Velocity S-wave (km/s) = 3.57633 3.82856 3.70459
# Velocity P-wave (km/s) = 6.07864 6.83696 6.46892
#
# Compressibility (1/GPa) = 0.02626516
#
# Stress axis : x y z
#
# Youngs Moduli (GPa) = 46.71292 116.05923 83.14434
#
# Poissons Ratio (x) = 0.29138 0.10685
# Poissons Ratio (y) = 0.11728 0.34066
# Poissons Ratio (z) = 0.06003 0.47551
#
# Static dielectric constant tensor:
#      x y z
#    x 3.359300 0.000000 0.000000 
#    y 0.000000 3.834470 0.000000 
#    z 0.000000 0.000000 3.103090 
# 
# 
# High freq. dielectric constant tensor:
#      x y z
#    x 1.742320 0.000000 0.000000 
#    y 0.000000 1.746180 0.000000 
#    z 0.000000 0.000000 1.731160 
# 
# From -- ./inp_files/37691.got.cif
#   From: 2010.03.12/outbox.cif.g09.slc.cpg/sg53_19_cif.got.tgz:37691.got - 2010.04.16 14:36:59.
