data_PCOD8219030
_publ_section_title
;
Structure prediction by ZEFSAII (Michael W. Deem and Ramdas Pophale) SiO2 
 PCOD8219030
Probable space group: P M N A
;
_chemical_formula_sum "Si O2"
_cell_formula_units_Z 64
_cell_length_a 8.845315
_cell_length_b 14.270324
_cell_length_c 27.808901
_cell_angle_alpha 90.000000
_cell_angle_beta 90.000000
_cell_angle_gamma 90.000000
_cell_volume 3510.192737
_symmetry_space_group_name_H-M "P M N A"
_symmetry_group_IT_number 53
_symmetry_cell_setting 'orthorhombic'
loop_
_space_group_symop_operation_xyz
x,y,z
1/2-x,-y,1/2+z
x,-y,-z
1/2-x,y,1/2-z
-x,-y,-z
1/2+x,y,1/2-z
-x,y,z
1/2+x,-y,1/2+z
loop_
_atom_site_type_symbol
_atom_site_label
_atom_site_fract_x
_atom_site_fract_y
_atom_site_fract_z
Si Si1 0.675730 0.533998 0.200323
Si Si2 0.667436 0.454461 0.547626
Si Si3 0.178098 0.029309 0.052220
Si Si4 0.321174 0.240477 0.438212
Si Si5 0.822518 0.855242 0.111149
Si Si6 0.679365 0.745120 0.198320
Si Si7 0.166375 0.601112 0.869253
Si Si8 0.176283 0.723622 0.462789
O O1 0.750000 0.507634 0.250000
O O2 0.500000 0.536474 0.208257
O O3 0.728817 0.638576 0.183338
O O4 0.715431 0.447704 0.165856
O O5 0.735671 0.500000 0.500000
O O6 0.500000 0.410919 0.538027
O O7 0.652922 0.534636 0.585771
O O8 0.784551 0.374025 0.563954
O O9 0.231647 0.132977 0.067461
O O10 0.000000 0.025604 0.045866
O O11 0.223519 0.961841 0.097013
O O12 0.249847 0.000000 0.000000
O O13 0.500000 0.249396 0.448400
O O14 0.279159 0.297259 0.389190
O O15 0.228059 0.285007 0.482102
O O16 0.736248 0.818435 0.158307
O O17 0.775088 0.801786 0.063030
O O18 0.000000 0.843463 0.120694
O O19 0.750000 0.771452 0.250000
O O20 0.500000 0.754309 0.202162
O O21 0.000000 0.610135 0.844768
O O22 0.000000 0.746243 0.457618
#
# Coordination Sequence:
#
# PCOD8219030 Si02
#       8
#     8   8   8   8   8   8   8   8
#     4  10  21  37  58  81 110 141 178 220 266 321
#     4  10  19  33  50  71 100 141 182 214 256 316
#     4   9  17  32  57  81 103 139 190 234 271 317
#     4  10  19  36  55  74 103 143 186 228 268 322
#     4  11  21  35  57  81 107 144 184 229 277 330
#     4  10  21  38  59  86 114 143 176 221 275 331
#     4  10  20  33  54  78 105 140 180 221 268 318
#     4  12  23  32  46  74 109 145 181 223 270 321
#
# _framework density 18.232617000000001
#
# number of rings (size 3 to 8) (size 9 to 14) (size 15 to 20)
#    0.000    1.750    2.500    3.000    0.000    4.750 
#    0.000    1.875    0.000    0.750    0.000    0.000 
#    0.000    0.000    0.000    0.000    0.000    0.000 
#
# Total GULP energy -793222.027416 kJ/mol
# GULP energy per Si atom -12394.094178 kJ/mol
# Density = 1.819112 g / cm^3
# Si number density = 18.232617 Si / 1000 Ang^3
#
#
#
# Elastic Constant Matrix: (Units=GPa)
#
#
# Indices 1 2 3 4 5 6 
#
# 1 55.0573 29.7058 32.2255 0.0000 0.0000 0.0000
# 2 29.7058 123.6544 46.6999 0.0000 0.0000 0.0000
# 3 32.2255 46.6999 90.1848 0.0000 0.0000 0.0000
# 4 0.0000 0.0000 0.0000 30.8591 0.0000 0.0000
# 5 0.0000 0.0000 0.0000 0.0000 28.7709 0.0000
# 6 0.0000 0.0000 0.0000 0.0000 0.0000 16.2378
#
#
#
# Elastic Compliance Matrix: (Units=1/GPa)
#
#
# Indices 1 2 3 4 5 6 
#
# 1 0.023901 -0.003128 -0.006921 0.000000 0.000000 0.000000
# 2 -0.003128 0.010462 -0.004300 0.000000 0.000000 0.000000
# 3 -0.006921 -0.004300 0.015788 0.000000 0.000000 0.000000
# 4 0.000000 0.000000 0.000000 0.032405 0.000000 0.000000
# 5 0.000000 0.000000 0.000000 0.000000 0.034757 0.000000
# 6 0.000000 0.000000 0.000000 0.000000 0.000000 0.061585
#
#
# Mechanical properties :
#
#
# Convention : Reuss Voigt Hill
#
# Bulk Modulus (GPa) = 46.61122 54.01765 50.31444
# Shear Modulus (GPa) = 23.28304 25.85792 24.57048
#
# Velocity S-wave (km/s) = 3.57739 3.77002 3.67496
# Velocity P-wave (km/s) = 6.53329 6.97438 6.75743
#
# Compressibility (1/GPa) = 0.02145406
#
# Stress axis : x y z
#
# Youngs Moduli (GPa) = 41.83840 95.57963 63.33934
#
# Poissons Ratio (x) = 0.29899 0.43836
# Poissons Ratio (y) = 0.13088 0.27236
# Poissons Ratio (z) = 0.28956 0.41099
#
# Static dielectric constant tensor:
#      x y z
#    x 3.474320 0.000000 0.000000 
#    y 0.000000 3.777330 0.000000 
#    z 0.000000 0.000000 3.009230 
# 
# 
# High freq. dielectric constant tensor:
#      x y z
#    x 1.693900 0.000000 0.000000 
#    y 0.000000 1.704920 0.000000 
#    z 0.000000 0.000000 1.688160 
# 
# From -- ./inp_files/34246.got.cif
#   From: 2010.03.12/outbox.cif.g09.slc.cpg/sg53_18_cif.got.tgz:34246.got - 2010.04.16 14:36:59.
