data_PCOD8219681
_publ_section_title
;
Structure prediction by ZEFSAII (Michael W. Deem and Ramdas Pophale) SiO2 
 PCOD8219681
Probable space group: P M N A
;
_chemical_formula_sum "Si O2"
_cell_formula_units_Z 36
_cell_length_a 14.048661
_cell_length_b 8.897660
_cell_length_c 14.313010
_cell_angle_alpha 90.000000
_cell_angle_beta 90.000000
_cell_angle_gamma 90.000000
_cell_volume 1789.129242
_symmetry_space_group_name_H-M "P M N A"
_symmetry_group_IT_number 53
_symmetry_cell_setting 'orthorhombic'
loop_
_space_group_symop_operation_xyz
x,y,z
1/2-x,-y,1/2+z
x,-y,-z
1/2-x,y,1/2-z
-x,-y,-z
1/2+x,y,1/2-z
-x,y,z
1/2+x,-y,1/2+z
loop_
_atom_site_type_symbol
_atom_site_label
_atom_site_fract_x
_atom_site_fract_y
_atom_site_fract_z
Si Si1 0.166924 0.650337 0.450437
Si Si2 0.500000 0.750001 0.749639
Si Si3 0.500000 0.988689 0.389198
Si Si4 0.500000 0.166024 0.043223
Si Si5 0.641705 0.511093 0.240124
Si Si6 0.821306 0.792139 0.163167
O O1 0.206205 0.500000 0.500000
O O2 0.114408 0.590282 0.357599
O O3 0.254544 0.762850 0.427315
O O4 0.093171 0.741931 0.513577
O O5 0.590350 0.643839 0.744099
O O6 0.500000 0.848753 0.657077
O O7 0.500000 0.849437 0.844239
O O8 0.598922 0.915576 0.355343
O O9 0.500000 0.000000 0.500000
O O10 0.500000 0.000000 0.000000
O O11 0.750000 0.464490 0.250000
O O12 0.620257 0.638283 0.317509
O O13 0.750000 0.833828 0.250000
#
# Coordination Sequence:
#
# PCOD8219681 Si02
#       6
#     8   4   4   4   8   8
#     4  10  19  40  66 100 133 161 223 279 329 390
#     4  12  24  41  66  94 137 166 220 273 319 400
#     4  12  29  47  60  96 141 184 216 264 341 408
#     4  12  26  35  62 109 137 171 205 275 354 398
#     4   9  20  39  65  96 121 168 216 272 324 380
#     4   9  23  44  71  89 127 180 218 267 331 391
#
# _framework density 20.121521000000001
#
# number of rings (size 3 to 8) (size 9 to 14) (size 15 to 20)
#    0.000    2.222    2.222    1.667    6.222    5.333 
#    0.000    1.667    0.000    0.000    0.000    0.000 
#    0.000    0.000    0.000    0.000    0.000    0.000 
#
# Total GULP energy -446080.534769 kJ/mol
# GULP energy per Si atom -12391.125966 kJ/mol
# Density = 2.007572 g / cm^3
# Si number density = 20.121521 Si / 1000 Ang^3
#
#
#
# Elastic Constant Matrix: (Units=GPa)
#
#
# Indices 1 2 3 4 5 6 
#
# 1 94.0656 48.4714 35.0419 0.0000 0.0000 0.0000
# 2 48.4714 114.8165 39.3698 0.0000 0.0000 0.0000
# 3 35.0419 39.3698 104.0648 0.0000 0.0000 0.0000
# 4 0.0000 0.0000 0.0000 31.8628 0.0000 0.0000
# 5 0.0000 0.0000 0.0000 0.0000 7.1822 0.0000
# 6 0.0000 0.0000 0.0000 0.0000 0.0000 38.0022
#
#
#
# Elastic Compliance Matrix: (Units=1/GPa)
#
#
# Indices 1 2 3 4 5 6 
#
# 1 0.014315 -0.005045 -0.002912 0.000000 0.000000 0.000000
# 2 -0.005045 0.011786 -0.002760 0.000000 0.000000 0.000000
# 3 -0.002912 -0.002760 0.011634 0.000000 0.000000 0.000000
# 4 0.000000 0.000000 0.000000 0.031385 0.000000 0.000000
# 5 0.000000 0.000000 0.000000 0.000000 0.139233 0.000000
# 6 0.000000 0.000000 0.000000 0.000000 0.000000 0.026314
#
#
# Mechanical properties :
#
#
# Convention : Reuss Voigt Hill
#
# Bulk Modulus (GPa) = 61.34379 62.07924 61.71151
# Shear Modulus (GPa) = 19.11794 28.08035 23.59914
#
# Velocity S-wave (km/s) = 3.08575 3.73974 3.42838
# Velocity P-wave (km/s) = 6.57637 7.04036 6.81232
#
# Compressibility (1/GPa) = 0.01630157
#
# Stress axis : x y z
#
# Youngs Moduli (GPa) = 69.85562 84.84840 85.95462
#
# Poissons Ratio (x) = 0.42806 0.25028
# Poissons Ratio (y) = 0.35242 0.23723
# Poissons Ratio (z) = 0.20341 0.23418
#
# Static dielectric constant tensor:
#      x y z
#    x 3.804370 0.000000 0.000000 
#    y 0.000000 3.621780 0.000000 
#    z 0.000000 0.000000 3.798720 
# 
# 
# High freq. dielectric constant tensor:
#      x y z
#    x 1.788010 0.000000 0.000000 
#    y 0.000000 1.783050 0.000000 
#    z 0.000000 0.000000 1.782520 
# 
# From -- ./inp_files/22358.got.cif
#   From: 2010.03.12/outbox.cif.g09.slc.cpg/sg53_12_cif.got.tgz:22358.got - 2010.04.16 14:36:59.
