data_PCOD8219834
_publ_section_title
;
Structure prediction by ZEFSAII (Michael W. Deem and Ramdas Pophale) SiO2 
 PCOD8219834
Probable space group: P M N A
;
_chemical_formula_sum "Si O2"
_cell_formula_units_Z 64
_cell_length_a 9.098058
_cell_length_b 20.323201
_cell_length_c 18.354891
_cell_angle_alpha 90.000000
_cell_angle_beta 90.000000
_cell_angle_gamma 90.000000
_cell_volume 3393.849842
_symmetry_space_group_name_H-M "P M N A"
_symmetry_group_IT_number 53
_symmetry_cell_setting 'orthorhombic'
loop_
_space_group_symop_operation_xyz
x,y,z
1/2-x,-y,1/2+z
x,-y,-z
1/2-x,y,1/2-z
-x,-y,-z
1/2+x,y,1/2-z
-x,y,z
1/2+x,-y,1/2+z
loop_
_atom_site_type_symbol
_atom_site_label
_atom_site_fract_x
_atom_site_fract_y
_atom_site_fract_z
Si Si1 0.827458 0.623342 0.172479
Si Si2 0.669801 0.385043 0.174216
Si Si3 0.327612 0.736381 0.435858
Si Si4 0.670316 0.255412 0.086673
Si Si5 0.326460 0.124452 0.403240
Si Si6 0.171438 0.115848 0.934244
Si Si7 0.673942 0.992107 0.325125
Si Si8 0.329042 0.493043 0.415504
O O1 0.750000 0.622758 0.250000
O O2 0.772829 0.686233 0.126016
O O3 0.783800 0.558902 0.127180
O O4 0.000000 0.627262 0.186462
O O5 0.750000 0.396471 0.250000
O O6 0.500000 0.401938 0.185783
O O7 0.693525 0.311067 0.147013
O O8 0.734025 0.433260 0.113832
O O9 0.500000 0.727030 0.452009
O O10 0.245193 0.722338 0.511344
O O11 0.292945 0.810118 0.407324
O O12 0.500000 0.241931 0.070943
O O13 0.744106 0.190521 0.121529
O O14 0.500000 0.138576 0.403570
O O15 0.269262 0.105747 0.483977
O O16 0.282824 0.065370 0.350041
O O17 0.000000 0.101953 0.935133
O O18 0.241627 0.061450 0.881200
O O19 0.750000 0.976177 0.250000
O O20 0.500000 0.984954 0.316845
O O21 0.289795 0.500000 0.500000
O O22 0.500000 0.476833 0.404490
#
# Coordination Sequence:
#
# PCOD8219834 Si02
#       8
#     8   8   8   8   8   8   8   8
#     4  10  21  35  53  80 111 142 176 215 260 310
#     4  11  24  39  56  80 110 143 178 219 268 320
#     4   9  18  35  58  80 104 140 182 216 254 312
#     4  10  21  36  55  81 108 133 170 222 271 313
#     4   9  18  34  56  76  98 136 180 217 255 308
#     4   8  15  31  55  77  97 130 177 218 249 294
#     4  10  20  33  50  75 106 137 172 215 262 311
#     4  10  21  38  60  83 108 141 181 223 265 314
#
# _framework density 18.85764
#
# number of rings (size 3 to 8) (size 9 to 14) (size 15 to 20)
#    0.000    2.375    0.000    3.000    0.000    8.250 
#    0.000    5.000    0.000    3.750    0.000    0.000 
#    0.000    0.000    0.000    0.000    0.000    0.000 
#
# Total GULP energy -793669.763710 kJ/mol
# GULP energy per Si atom -12401.090058 kJ/mol
# Density = 1.881472 g / cm^3
# Si number density = 18.857640 Si / 1000 Ang^3
#
#
#
# Elastic Constant Matrix: (Units=GPa)
#
#
# Indices 1 2 3 4 5 6 
#
# 1 60.5631 41.5516 36.2292 0.0000 0.0000 0.0000
# 2 41.5516 88.6965 32.6351 0.0000 0.0000 0.0000
# 3 36.2292 32.6351 82.8371 0.0000 0.0000 0.0000
# 4 0.0000 0.0000 0.0000 27.1267 0.0000 0.0000
# 5 0.0000 0.0000 0.0000 0.0000 29.9202 0.0000
# 6 0.0000 0.0000 0.0000 0.0000 0.0000 21.3900
#
#
#
# Elastic Compliance Matrix: (Units=1/GPa)
#
#
# Indices 1 2 3 4 5 6 
#
# 1 0.028648 -0.010304 -0.008470 0.000000 0.000000 0.000000
# 2 -0.010304 0.016892 -0.002148 0.000000 0.000000 0.000000
# 3 -0.008470 -0.002148 0.016623 0.000000 0.000000 0.000000
# 4 0.000000 0.000000 0.000000 0.036864 0.000000 0.000000
# 5 0.000000 0.000000 0.000000 0.000000 0.033422 0.000000
# 6 0.000000 0.000000 0.000000 0.000000 0.000000 0.046751
#
#
# Mechanical properties :
#
#
# Convention : Reuss Voigt Hill
#
# Bulk Modulus (GPa) = 49.21776 50.32539 49.77157
# Shear Modulus (GPa) = 21.94742 23.79943 22.87343
#
# Velocity S-wave (km/s) = 3.41522 3.55640 3.48653
# Velocity P-wave (km/s) = 6.45817 6.60370 6.53134
#
# Compressibility (1/GPa) = 0.02031787
#
# Stress axis : x y z
#
# Youngs Moduli (GPa) = 34.90641 59.19922 60.15926
#
# Poissons Ratio (x) = 0.61001 0.50954
# Poissons Ratio (y) = 0.35969 0.12924
# Poissons Ratio (z) = 0.29565 0.12718
#
# Static dielectric constant tensor:
#      x y z
#    x 3.286320 0.000000 0.000000 
#    y 0.000000 3.703460 0.000000 
#    z 0.000000 0.000000 3.438180 
# 
# 
# High freq. dielectric constant tensor:
#      x y z
#    x 1.713400 0.000000 0.000000 
#    y 0.000000 1.747900 0.000000 
#    z 0.000000 0.000000 1.733230 
# 
# From -- ./inp_files/26976.got.cif
#   From: 2010.03.12/outbox.cif.g09.slc.cpg/sg53_14_cif.got.tgz:26976.got - 2010.04.16 14:36:59.
