data_PCOD8219573
_publ_section_title
;
Structure prediction by ZEFSAII (Michael W. Deem and Ramdas Pophale) SiO2 
 PCOD8219573
Probable space group: P M N A
;
_chemical_formula_sum "Si O2"
_cell_formula_units_Z 48
_cell_length_a 8.738679
_cell_length_b 14.716371
_cell_length_c 18.637824
_cell_angle_alpha 90.000000
_cell_angle_beta 90.000000
_cell_angle_gamma 90.000000
_cell_volume 2396.854774
_symmetry_space_group_name_H-M "P M N A"
_symmetry_group_IT_number 53
_symmetry_cell_setting 'orthorhombic'
loop_
_space_group_symop_operation_xyz
x,y,z
1/2-x,-y,1/2+z
x,-y,-z
1/2-x,y,1/2-z
-x,-y,-z
1/2+x,y,1/2-z
-x,y,z
1/2+x,-y,1/2+z
loop_
_atom_site_type_symbol
_atom_site_label
_atom_site_fract_x
_atom_site_fract_y
_atom_site_fract_z
Si Si1 0.180515 0.119719 0.049299
Si Si2 0.180569 0.054858 0.597225
Si Si3 0.321254 0.676619 0.579825
Si Si4 0.176149 0.378947 0.921633
Si Si5 0.177217 0.788850 0.178172
Si Si6 0.821441 0.469440 0.326642
O O1 0.224729 0.217602 0.080951
O O2 0.000000 0.113283 0.033066
O O3 0.234123 0.042326 0.105145
O O4 0.271248 0.104241 0.975946
O O5 0.233804 0.117679 0.662654
O O6 0.000000 0.039536 0.599076
O O7 0.500000 0.664580 0.593460
O O8 0.275293 0.629973 0.504450
O O9 0.232763 0.628321 0.644516
O O10 0.202775 0.281129 0.886242
O O11 0.279446 0.454006 0.884294
O O12 0.000000 0.409367 0.914094
O O13 0.250000 0.746014 0.250000
O O14 0.000000 0.810139 0.189855
O O15 0.750000 0.492838 0.250000
O O16 0.000000 0.467496 0.315438
#
# Coordination Sequence:
#
# PCOD8219573 Si02
#       6
#     8   8   8   8   8   8
#     4  10  19  36  61  87 116 154 197 242 293 349
#     4  11  21  34  55  86 121 157 195 243 294 349
#     4  10  21  40  65  92 120 156 198 247 299 354
#     4  10  21  40  64  90 120 156 198 245 300 360
#     4  11  22  38  58  86 121 162 203 248 304 360
#     4  12  26  42  61  87 120 160 200 247 301 359
#
# _framework density 20.026243000000001
#
# number of rings (size 3 to 8) (size 9 to 14) (size 15 to 20)
#    0.000    1.333    1.667    6.000    0.000    6.667 
#    0.000    0.833    0.000    4.000    0.000    0.000 
#    0.000    0.000    0.000    0.000    0.000    0.000 
#
# Total GULP energy -595410.867158 kJ/mol
# GULP energy per Si atom -12404.393066 kJ/mol
# Density = 1.998066 g / cm^3
# Si number density = 20.026243 Si / 1000 Ang^3
#
#
#
# Elastic Constant Matrix: (Units=GPa)
#
#
# Indices 1 2 3 4 5 6 
#
# 1 104.8788 43.9048 22.9917 0.0000 0.0000 0.0000
# 2 43.9048 113.3676 18.0551 0.0000 0.0000 0.0000
# 3 22.9917 18.0551 51.6699 0.0000 0.0000 0.0000
# 4 0.0000 0.0000 0.0000 16.3005 0.0000 0.0000
# 5 0.0000 0.0000 0.0000 0.0000 31.8632 0.0000
# 6 0.0000 0.0000 0.0000 0.0000 0.0000 25.6377
#
#
#
# Elastic Compliance Matrix: (Units=1/GPa)
#
#
# Indices 1 2 3 4 5 6 
#
# 1 0.012102 -0.004055 -0.003968 0.000000 0.000000 0.000000
# 2 -0.004055 0.010699 -0.001934 0.000000 0.000000 0.000000
# 3 -0.003968 -0.001934 0.021795 0.000000 0.000000 0.000000
# 4 0.000000 0.000000 0.000000 0.061348 0.000000 0.000000
# 5 0.000000 0.000000 0.000000 0.000000 0.031384 0.000000
# 6 0.000000 0.000000 0.000000 0.000000 0.000000 0.039005
#
#
# Mechanical properties :
#
#
# Convention : Reuss Voigt Hill
#
# Bulk Modulus (GPa) = 40.51567 48.86884 44.69225
# Shear Modulus (GPa) = 24.45272 27.09126 25.77199
#
# Velocity S-wave (km/s) = 3.49812 3.68202 3.59125
# Velocity P-wave (km/s) = 6.04905 6.52163 6.28978
#
# Compressibility (1/GPa) = 0.02468181
#
# Stress axis : x y z
#
# Youngs Moduli (GPa) = 82.62938 93.46386 45.88148
#
# Poissons Ratio (x) = 0.37899 0.18207
# Poissons Ratio (y) = 0.33506 0.08875
# Poissons Ratio (z) = 0.32789 0.18079
#
# Static dielectric constant tensor:
#      x y z
#    x 3.606820 0.000000 0.000000 
#    y 0.000000 3.890740 0.000000 
#    z 0.000000 0.000000 3.536220 
# 
# 
# High freq. dielectric constant tensor:
#      x y z
#    x 1.783230 0.000000 0.000000 
#    y 0.000000 1.793460 0.000000 
#    z 0.000000 0.000000 1.766870 
# 
# From -- ./inp_files/26224.got.cif
#   From: 2010.03.12/outbox.cif.g09.slc.cpg/sg53_14_cif.got.tgz:26224.got - 2010.04.16 14:36:59.
