data_PCOD8219493
_publ_section_title
;
Structure prediction by ZEFSAII (Michael W. Deem and Ramdas Pophale) SiO2 
 PCOD8219493
Probable space group: P M N A
;
_chemical_formula_sum "Si O2"
_cell_formula_units_Z 56
_cell_length_a 14.098668
_cell_length_b 13.238772
_cell_length_c 14.745565
_cell_angle_alpha 90.000000
_cell_angle_beta 90.000000
_cell_angle_gamma 90.000000
_cell_volume 2752.245716
_symmetry_space_group_name_H-M "P M N A"
_symmetry_group_IT_number 53
_symmetry_cell_setting 'orthorhombic'
loop_
_space_group_symop_operation_xyz
x,y,z
1/2-x,-y,1/2+z
x,-y,-z
1/2-x,y,1/2-z
-x,-y,-z
1/2+x,y,1/2-z
-x,y,z
1/2+x,-y,1/2+z
loop_
_atom_site_type_symbol
_atom_site_label
_atom_site_fract_x
_atom_site_fract_y
_atom_site_fract_z
Si Si1 0.770078 0.239431 0.116689
Si Si2 0.251023 0.897424 0.458026
Si Si3 0.646895 0.955883 0.291281
Si Si4 0.103748 0.170124 0.268463
Si Si5 0.103979 0.782430 0.330661
Si Si6 0.245960 0.474376 0.105758
Si Si7 0.612861 0.563074 0.238282
O O1 0.674855 0.179625 0.147245
O O2 0.854692 0.238490 0.188601
O O3 0.751639 0.355051 0.101448
O O4 0.800983 0.178285 0.028207
O O5 0.339030 0.936709 0.397840
O O6 0.174144 0.828717 0.405389
O O7 0.203527 0.000000 0.500000
O O8 0.750000 0.968440 0.250000
O O9 0.591668 0.861391 0.250598
O O10 0.590470 0.056813 0.268261
O O11 0.000000 0.210751 0.296580
O O12 0.140277 0.679439 0.283366
O O13 0.000000 0.764513 0.375192
O O14 0.162801 0.524505 0.168194
O O15 0.346884 0.503488 0.150634
O O16 0.235124 0.500000 0.000000
O O17 0.500000 0.546310 0.247359
#
# Coordination Sequence:
#
# PCOD8219493 Si02
#       7
#     8   8   8   8   8   8   8
#     4  11  23  40  58  94 119 154 213 246 306 373
#     4  11  21  37  62  87 127 163 196 257 309 364
#     4  10  19  35  59  86 121 160 195 242 297 364
#     4  11  21  39  62  85 122 162 198 246 305 366
#     4  10  22  37  61  91 120 163 209 251 310 375
#     4  11  25  41  68  93 125 171 215 268 328 383
#     4  10  23  44  65  94 130 166 218 273 325 380
#
# _framework density 20.347021000000002
#
# number of rings (size 3 to 8) (size 9 to 14) (size 15 to 20)
#    0.000    1.429    2.857    3.857    8.000    3.714 
#    0.000    2.143    0.000    0.000    0.000    0.000 
#    0.000    0.000    0.000    0.000    0.000    0.000 
#
# Total GULP energy -693904.510019 kJ/mol
# GULP energy per Si atom -12391.151965 kJ/mol
# Density = 2.030071 g / cm^3
# Si number density = 20.347021 Si / 1000 Ang^3
#
#
#
# Elastic Constant Matrix: (Units=GPa)
#
#
# Indices 1 2 3 4 5 6 
#
# 1 78.7576 5.9038 14.8773 0.0000 0.0000 0.0000
# 2 5.9038 145.3455 38.8911 0.0000 0.0000 0.0000
# 3 14.8773 38.8911 113.5181 0.0000 0.0000 0.0000
# 4 0.0000 0.0000 0.0000 36.9775 0.0000 0.0000
# 5 0.0000 0.0000 0.0000 0.0000 14.7975 0.0000
# 6 0.0000 0.0000 0.0000 0.0000 0.0000 25.3159
#
#
#
# Elastic Compliance Matrix: (Units=1/GPa)
#
#
# Indices 1 2 3 4 5 6 
#
# 1 0.013020 -0.000080 -0.001679 0.000000 0.000000 0.000000
# 2 -0.000080 0.007575 -0.002585 0.000000 0.000000 0.000000
# 3 -0.001679 -0.002585 0.009915 0.000000 0.000000 0.000000
# 4 0.000000 0.000000 0.000000 0.027043 0.000000 0.000000
# 5 0.000000 0.000000 0.000000 0.000000 0.067579 0.000000
# 6 0.000000 0.000000 0.000000 0.000000 0.000000 0.039501
#
#
# Mechanical properties :
#
#
# Convention : Reuss Voigt Hill
#
# Bulk Modulus (GPa) = 45.82285 50.77395 48.29840
# Shear Modulus (GPa) = 27.68629 33.94812 30.81720
#
# Velocity S-wave (km/s) = 3.69278 4.08911 3.89598
# Velocity P-wave (km/s) = 6.38370 6.87768 6.63529
#
# Compressibility (1/GPa) = 0.02182317
#
# Stress axis : x y z
#
# Youngs Moduli (GPa) = 76.80286 132.01299 100.85968
#
# Poissons Ratio (x) = 0.01051 0.16936
# Poissons Ratio (y) = 0.00611 0.26070
# Poissons Ratio (z) = 0.12896 0.34122
#
# Static dielectric constant tensor:
#      x y z
#    x 3.576610 0.000000 0.000000 
#    y 0.000000 4.030310 0.000000 
#    z 0.000000 0.000000 3.834220 
# 
# 
# High freq. dielectric constant tensor:
#      x y z
#    x 1.779740 0.000000 0.000000 
#    y 0.000000 1.815210 0.000000 
#    z 0.000000 0.000000 1.793080 
# 
# From -- ./inp_files/22833.got.cif
#   From: 2010.03.12/outbox.cif.g09.slc.cpg/sg53_12_cif.got.tgz:22833.got - 2010.04.16 14:36:59.
