data_PCOD8219568
_publ_section_title
;
Structure prediction by ZEFSAII (Michael W. Deem and Ramdas Pophale) SiO2 
 PCOD8219568
Probable space group: P M N A
;
_chemical_formula_sum "Si O2"
_cell_formula_units_Z 64
_cell_length_a 9.047315
_cell_length_b 18.970646
_cell_length_c 19.191450
_cell_angle_alpha 90.000000
_cell_angle_beta 90.000000
_cell_angle_gamma 90.000000
_cell_volume 3293.894009
_symmetry_space_group_name_H-M "P M N A"
_symmetry_group_IT_number 53
_symmetry_cell_setting 'orthorhombic'
loop_
_space_group_symop_operation_xyz
x,y,z
1/2-x,-y,1/2+z
x,-y,-z
1/2-x,y,1/2-z
-x,-y,-z
1/2+x,y,1/2-z
-x,y,z
1/2+x,-y,1/2+z
loop_
_atom_site_type_symbol
_atom_site_label
_atom_site_fract_x
_atom_site_fract_y
_atom_site_fract_z
Si Si1 0.673534 0.539464 0.675393
Si Si2 0.832784 0.942030 0.553037
Si Si3 0.325882 0.352879 0.435993
Si Si4 0.667708 0.200344 0.472286
Si Si5 0.172080 0.595992 0.084357
Si Si6 0.168714 0.039311 0.678259
Si Si7 0.825612 0.696455 0.316531
Si Si8 0.831356 0.826057 0.132186
O O1 0.750000 0.530973 0.750000
O O2 0.500000 0.542333 0.689526
O O3 0.730470 0.609973 0.635263
O O4 0.713359 0.476644 0.622263
O O5 0.752547 0.867535 0.554978
O O6 0.000000 0.928656 0.527525
O O7 0.760960 0.000000 0.500000
O O8 0.826310 0.969193 0.632011
O O9 0.500000 0.344400 0.432454
O O10 0.259916 0.273503 0.443297
O O11 0.289864 0.404040 0.501964
O O12 0.500000 0.192429 0.446392
O O13 0.674928 0.204869 0.555130
O O14 0.276441 0.656315 0.114675
O O15 0.000000 0.615275 0.096695
O O16 0.250000 0.022860 0.750000
O O17 0.254298 0.098399 0.634499
O O18 0.000000 0.062904 0.692393
O O19 0.750000 0.657997 0.250000
O O20 0.762004 0.775553 0.317681
O O21 0.000000 0.696647 0.308385
O O22 0.000000 0.831212 0.158962
#
# Coordination Sequence:
#
# PCOD8219568 Si02
#       8
#     8   8   8   8   8   8   8   8
#     4  10  21  37  61  86 116 154 192 240 292 347
#     4  10  21  38  59  83 115 150 188 233 284 339
#     4   9  18  37  61  87 114 149 196 240 287 342
#     4  10  20  35  60  88 114 145 191 243 283 338
#     4  10  19  36  60  86 114 147 192 240 287 342
#     4  11  23  39  58  83 116 153 189 236 287 344
#     4  12  24  36  52  78 116 159 194 231 281 340
#     4  11  21  36  57  83 115 151 190 236 283 340
#
# _framework density 19.429891000000001
#
# number of rings (size 3 to 8) (size 9 to 14) (size 15 to 20)
#    0.000    1.625    2.500    3.000    0.000    4.750 
#    0.000    1.875    0.000    4.500    0.000    0.000 
#    0.000    0.000    0.000    0.000    0.000    0.000 
#
# Total GULP energy -793453.259413 kJ/mol
# GULP energy per Si atom -12397.707178 kJ/mol
# Density = 1.938567 g / cm^3
# Si number density = 19.429891 Si / 1000 Ang^3
#
#
#
# Elastic Constant Matrix: (Units=GPa)
#
#
# Indices 1 2 3 4 5 6 
#
# 1 98.0867 45.1663 38.6775 0.0000 0.0000 0.0000
# 2 45.1663 130.7452 52.1513 0.0000 0.0000 0.0000
# 3 38.6775 52.1513 83.4465 0.0000 0.0000 0.0000
# 4 0.0000 0.0000 0.0000 27.9565 0.0000 0.0000
# 5 0.0000 0.0000 0.0000 0.0000 23.7192 0.0000
# 6 0.0000 0.0000 0.0000 0.0000 0.0000 23.9003
#
#
#
# Elastic Compliance Matrix: (Units=1/GPa)
#
#
# Indices 1 2 3 4 5 6 
#
# 1 0.013215 -0.002827 -0.004359 0.000000 0.000000 0.000000
# 2 -0.002827 0.010793 -0.005435 0.000000 0.000000 0.000000
# 3 -0.004359 -0.005435 0.017401 0.000000 0.000000 0.000000
# 4 0.000000 0.000000 0.000000 0.035770 0.000000 0.000000
# 5 0.000000 0.000000 0.000000 0.000000 0.042160 0.000000
# 6 0.000000 0.000000 0.000000 0.000000 0.000000 0.041840
#
#
# Mechanical properties :
#
#
# Convention : Reuss Voigt Hill
#
# Bulk Modulus (GPa) = 61.85033 64.91874 63.38454
# Shear Modulus (GPa) = 26.06751 26.86741 26.46746
#
# Velocity S-wave (km/s) = 3.66679 3.72262 3.69481
# Velocity P-wave (km/s) = 7.05895 7.20843 7.13408
#
# Compressibility (1/GPa) = 0.01616806
#
# Stress axis : x y z
#
# Youngs Moduli (GPa) = 75.66908 92.65394 57.46895
#
# Poissons Ratio (x) = 0.26190 0.25049
# Poissons Ratio (y) = 0.21389 0.31234
# Poissons Ratio (z) = 0.32982 0.50357
#
# Static dielectric constant tensor:
#      x y z
#    x 3.395950 0.000000 0.000000 
#    y 0.000000 3.643830 0.000000 
#    z 0.000000 0.000000 3.550490 
# 
# 
# High freq. dielectric constant tensor:
#      x y z
#    x 1.738250 0.000000 0.000000 
#    y 0.000000 1.757550 0.000000 
#    z 0.000000 0.000000 1.754720 
# 
# From -- ./inp_files/26941.got.cif
#   From: 2010.03.12/outbox.cif.g09.slc.cpg/sg53_14_cif.got.tgz:26941.got - 2010.04.16 14:36:59.
