data_PCOD8219448
_publ_section_title
;
Structure prediction by ZEFSAII (Michael W. Deem and Ramdas Pophale) SiO2 
 PCOD8219448
Probable space group: P M N A
;
_chemical_formula_sum "Si O2"
_cell_formula_units_Z 48
_cell_length_a 17.595556
_cell_length_b 14.968157
_cell_length_c 9.519563
_cell_angle_alpha 90.000000
_cell_angle_beta 90.000000
_cell_angle_gamma 90.000000
_cell_volume 2507.196292
_symmetry_space_group_name_H-M "P M N A"
_symmetry_group_IT_number 53
_symmetry_cell_setting 'orthorhombic'
loop_
_space_group_symop_operation_xyz
x,y,z
1/2-x,-y,1/2+z
x,-y,-z
1/2-x,y,1/2-z
-x,-y,-z
1/2+x,y,1/2-z
-x,y,z
1/2+x,-y,1/2+z
loop_
_atom_site_type_symbol
_atom_site_label
_atom_site_fract_x
_atom_site_fract_y
_atom_site_fract_z
Si Si1 0.588522 0.164069 0.320578
Si Si2 0.305813 0.244911 0.546494
Si Si3 0.766794 0.587832 0.588869
Si Si4 0.084510 0.303984 0.422083
Si Si5 0.351165 0.200597 0.837852
Si Si6 0.910368 0.987714 0.340573
O O1 0.500000 0.159727 0.363464
O O2 0.638835 0.181809 0.457181
O O3 0.603823 0.242618 0.210526
O O4 0.616478 0.070927 0.253502
O O5 0.291919 0.337868 0.466690
O O6 0.342798 0.262871 0.699669
O O7 0.226079 0.194741 0.571033
O O8 0.751722 0.500000 0.500000
O O9 0.750000 0.566536 0.750000
O O10 0.854207 0.617278 0.568175
O O11 0.084740 0.242950 0.562319
O O12 0.000000 0.345379 0.407973
O O13 0.372665 0.102426 0.782494
O O14 0.000000 0.978014 0.332954
O O15 0.883026 0.000000 0.500000
#
# Coordination Sequence:
#
# PCOD8219448 Si02
#       6
#     8   8   8   8   8   8
#     4  10  20  37  62  86 120 165 204 243 296 353
#     4  10  23  42  56  90 120 155 202 242 305 363
#     4  11  24  41  68  90 119 154 190 250 306 370
#     4  10  20  38  64  90 118 161 202 238 295 359
#     4  10  21  37  58  86 126 159 200 252 289 348
#     4  10  19  35  57  86 120 159 205 246 289 339
#
# _framework density 19.14489
#
# number of rings (size 3 to 8) (size 9 to 14) (size 15 to 20)
#    0.000    1.833    3.333    0.500    4.667    2.333 
#    6.000    1.667    0.000    1.000    0.000    0.000 
#    0.000    0.000    0.000    0.000    0.000    0.000 
#
# Total GULP energy -595246.563828 kJ/mol
# GULP energy per Si atom -12400.970080 kJ/mol
# Density = 1.910132 g / cm^3
# Si number density = 19.144890 Si / 1000 Ang^3
#
#
#
# Elastic Constant Matrix: (Units=GPa)
#
#
# Indices 1 2 3 4 5 6 
#
# 1 60.3952 35.9451 49.0556 0.0000 0.0000 0.0000
# 2 35.9451 101.1985 45.7533 0.0000 0.0000 0.0000
# 3 49.0556 45.7533 128.5449 0.0000 0.0000 0.0000
# 4 0.0000 0.0000 0.0000 35.3830 0.0000 0.0000
# 5 0.0000 0.0000 0.0000 0.0000 31.1410 0.0000
# 6 0.0000 0.0000 0.0000 0.0000 0.0000 22.1787
#
#
#
# Elastic Compliance Matrix: (Units=1/GPa)
#
#
# Indices 1 2 3 4 5 6 
#
# 1 0.026560 -0.005782 -0.008078 0.000000 0.000000 0.000000
# 2 -0.005782 0.013035 -0.002433 0.000000 0.000000 0.000000
# 3 -0.008078 -0.002433 0.011728 0.000000 0.000000 0.000000
# 4 0.000000 0.000000 0.000000 0.028262 0.000000 0.000000
# 5 0.000000 0.000000 0.000000 0.000000 0.032112 0.000000
# 6 0.000000 0.000000 0.000000 0.000000 0.000000 0.045088
#
#
# Mechanical properties :
#
#
# Convention : Reuss Voigt Hill
#
# Bulk Modulus (GPa) = 53.36885 61.29408 57.33146
# Shear Modulus (GPa) = 25.56004 28.36616 26.96310
#
# Velocity S-wave (km/s) = 3.65784 3.85341 3.75690
# Velocity P-wave (km/s) = 6.76584 7.20304 6.98786
#
# Compressibility (1/GPa) = 0.01873752
#
# Stress axis : x y z
#
# Youngs Moduli (GPa) = 37.65062 76.71456 85.26475
#
# Poissons Ratio (x) = 0.44355 0.68876
# Poissons Ratio (y) = 0.21769 0.20747
# Poissons Ratio (z) = 0.30414 0.18666
#
# Static dielectric constant tensor:
#      x y z
#    x 3.450080 0.000000 0.000000 
#    y 0.000000 3.332020 0.000000 
#    z 0.000000 0.000000 3.586290 
# 
# 
# High freq. dielectric constant tensor:
#      x y z
#    x 1.741740 0.000000 0.000000 
#    y 0.000000 1.726650 0.000000 
#    z 0.000000 0.000000 1.754930 
# 
# From -- ./inp_files/9922.got.cif
#   From: 2010.03.12/outbox.cif.g09.slc.cpg/sg53_5_cif.got.tgz:9922.got - 2010.04.16 14:36:59.
