data_PCOD8219114
_publ_section_title
;
Structure prediction by ZEFSAII (Michael W. Deem and Ramdas Pophale) SiO2 
 PCOD8219114
Probable space group: P M N A
;
_chemical_formula_sum "Si O2"
_cell_formula_units_Z 48
_cell_length_a 8.910706
_cell_length_b 11.464747
_cell_length_c 23.704526
_cell_angle_alpha 90.000000
_cell_angle_beta 90.000000
_cell_angle_gamma 90.000000
_cell_volume 2421.630432
_symmetry_space_group_name_H-M "P M N A"
_symmetry_group_IT_number 53
_symmetry_cell_setting 'orthorhombic'
loop_
_space_group_symop_operation_xyz
x,y,z
1/2-x,-y,1/2+z
x,-y,-z
1/2-x,y,1/2-z
-x,-y,-z
1/2+x,y,1/2-z
-x,y,z
1/2+x,-y,1/2+z
loop_
_atom_site_type_symbol
_atom_site_label
_atom_site_fract_x
_atom_site_fract_y
_atom_site_fract_z
Si Si1 0.171680 0.161567 0.308252
Si Si2 0.328091 0.802980 0.091543
Si Si3 0.829724 0.399089 0.369423
Si Si4 0.322102 0.372027 0.811066
Si Si5 0.676840 0.044625 0.410943
Si Si6 0.326648 0.250564 0.030044
O O1 0.250000 0.138561 0.250000
O O2 0.184598 0.296976 0.323842
O O3 0.260717 0.081008 0.350835
O O4 0.000000 0.120454 0.305852
O O5 0.500000 0.845676 0.096368
O O6 0.279937 0.735424 0.148088
O O7 0.220780 0.911080 0.079875
O O8 0.311551 0.718331 0.036268
O O9 0.751878 0.512737 0.341661
O O10 0.759396 0.353677 0.429422
O O11 0.000000 0.435876 0.381460
O O12 0.250000 0.351594 0.750000
O O13 0.500000 0.383793 0.802762
O O14 0.500000 0.057441 0.413164
O O15 0.744946 0.127475 0.459243
O O16 0.500000 0.232899 0.048487
#
# Coordination Sequence:
#
# PCOD8219114 Si02
#       6
#     8   8   8   8   8   8
#     4  10  19  33  54  80 109 140 179 226 274 322
#     4  10  21  36  55  78 107 144 181 220 267 320
#     4   8  16  32  55  82 108 135 171 217 268 322
#     4  10  21  37  56  79 108 143 181 217 259 315
#     4  11  22  35  53  78 109 144 181 223 270 322
#     4   9  18  35  58  82 108 137 173 222 276 324
#
# _framework density 19.821356999999999
#
# number of rings (size 3 to 8) (size 9 to 14) (size 15 to 20)
#    0.000    2.333    0.000    4.000    0.000    4.667 
#    0.000    8.333    0.000    0.000    0.000    7.000 
#    0.000    0.000    0.000    0.000    0.000    0.000 
#
# Total GULP energy -594974.518395 kJ/mol
# GULP energy per Si atom -12395.302467 kJ/mol
# Density = 1.977624 g / cm^3
# Si number density = 19.821357 Si / 1000 Ang^3
#
#
#
# Elastic Constant Matrix: (Units=GPa)
#
#
# Indices 1 2 3 4 5 6 
#
# 1 78.0763 25.2246 38.6724 0.0000 0.0000 0.0000
# 2 25.2246 66.2740 51.7784 0.0000 0.0000 0.0000
# 3 38.6724 51.7784 154.1930 0.0000 0.0000 0.0000
# 4 0.0000 0.0000 0.0000 20.1500 0.0000 0.0000
# 5 0.0000 0.0000 0.0000 0.0000 29.3680 0.0000
# 6 0.0000 0.0000 0.0000 0.0000 0.0000 16.4417
#
#
#
# Elastic Compliance Matrix: (Units=1/GPa)
#
#
# Indices 1 2 3 4 5 6 
#
# 1 0.015311 -0.003833 -0.002553 0.000000 0.000000 0.000000
# 2 -0.003833 0.021415 -0.006230 0.000000 0.000000 0.000000
# 3 -0.002553 -0.006230 0.009218 0.000000 0.000000 0.000000
# 4 0.000000 0.000000 0.000000 0.049628 0.000000 0.000000
# 5 0.000000 0.000000 0.000000 0.000000 0.034051 0.000000
# 6 0.000000 0.000000 0.000000 0.000000 0.000000 0.060821
#
#
# Mechanical properties :
#
#
# Convention : Reuss Voigt Hill
#
# Bulk Modulus (GPa) = 48.28114 58.87711 53.57913
# Shear Modulus (GPa) = 22.46399 25.38313 23.92356
#
# Velocity S-wave (km/s) = 3.37014 3.58242 3.47790
# Velocity P-wave (km/s) = 6.28926 6.84690 6.57399
#
# Compressibility (1/GPa) = 0.02071202
#
# Stress axis : x y z
#
# Youngs Moduli (GPa) = 65.31336 46.69625 108.48720
#
# Poissons Ratio (x) = 0.17898 0.27696
# Poissons Ratio (y) = 0.25034 0.67586
# Poissons Ratio (z) = 0.16674 0.29091
#
# Static dielectric constant tensor:
#      x y z
#    x 3.358330 0.000000 0.000000 
#    y 0.000000 3.549420 0.000000 
#    z 0.000000 0.000000 3.753290 
# 
# 
# High freq. dielectric constant tensor:
#      x y z
#    x 1.743490 0.000000 0.000000 
#    y 0.000000 1.761570 0.000000 
#    z 0.000000 0.000000 1.790280 
# 
# From -- ./inp_files/33843.got.cif
#   From: 2010.03.12/outbox.cif.g09.slc.cpg/sg53_17_cif.got.tgz:33843.got - 2010.04.16 14:36:59.
