data_PCOD8219076
_publ_section_title
;
Structure prediction by ZEFSAII (Michael W. Deem and Ramdas Pophale) SiO2 
 PCOD8219076
Probable space group: P M N A
;
_chemical_formula_sum "Si O2"
_cell_formula_units_Z 64
_cell_length_a 8.948121
_cell_length_b 23.624841
_cell_length_c 14.894618
_cell_angle_alpha 90.000000
_cell_angle_beta 90.000000
_cell_angle_gamma 90.000000
_cell_volume 3148.691501
_symmetry_space_group_name_H-M "P M N A"
_symmetry_group_IT_number 53
_symmetry_cell_setting 'orthorhombic'
loop_
_space_group_symop_operation_xyz
x,y,z
1/2-x,-y,1/2+z
x,-y,-z
1/2-x,y,1/2-z
-x,-y,-z
1/2+x,y,1/2-z
-x,y,z
1/2+x,-y,1/2+z
loop_
_atom_site_type_symbol
_atom_site_label
_atom_site_fract_x
_atom_site_fract_y
_atom_site_fract_z
Si Si1 0.662987 0.947600 0.328569
Si Si2 0.677267 0.739666 0.478392
Si Si3 0.334995 0.040928 0.085630
Si Si4 0.324465 0.565850 0.487879
Si Si5 0.664366 0.404593 0.166215
Si Si6 0.334441 0.866320 0.495792
Si Si7 0.834963 0.724424 0.665644
Si Si8 0.819600 0.647299 0.349740
O O1 0.750000 0.914734 0.250000
O O2 0.500000 0.959840 0.292183
O O3 0.662236 0.908534 0.413730
O O4 0.733956 0.009502 0.341983
O O5 0.500000 0.727809 0.470045
O O6 0.720234 0.805251 0.461172
O O7 0.732072 0.726672 0.578143
O O8 0.764058 0.702178 0.404955
O O9 0.500000 0.049109 0.124085
O O10 0.273412 0.104503 0.068225
O O11 0.335975 0.000000 0.000000
O O12 0.290295 0.500000 0.500000
O O13 0.500000 0.578571 0.476820
O O14 0.264024 0.595140 0.577130
O O15 0.237872 0.590899 0.401353
O O16 0.750000 0.434997 0.250000
O O17 0.500000 0.433314 0.151919
O O18 0.637709 0.340144 0.192625
O O19 0.500000 0.860086 0.537866
O O20 0.750000 0.754297 0.750000
O O21 0.000000 0.752282 0.650151
O O22 0.750000 0.648470 0.250000
O O23 0.000000 0.647064 0.344829
#
# Coordination Sequence:
#
# PCOD8219076 Si02
#       8
#     8   8   8   8   8   8   8   8
#     4  10  19  33  53  78 111 147 190 242 295 352
#     4  11  22  39  63  90 124 164 205 252 306 367
#     4   9  17  31  52  77 104 138 180 226 280 336
#     4  11  24  42  65  93 125 161 202 251 307 365
#     4  10  20  35  59  89 120 153 192 240 294 353
#     4   9  20  36  55  81 113 152 194 239 294 352
#     4  10  20  35  58  88 117 151 192 239 296 357
#     4  12  26  45  67  92 125 168 213 256 306 363
#
# _framework density 20.325903
#
# number of rings (size 3 to 8) (size 9 to 14) (size 15 to 20)
#    0.000    1.750    1.250    3.375    0.000    6.000 
#    0.000    1.875    0.000    3.000    0.000    0.000 
#    0.000    0.000    0.000    0.000    0.000    0.000 
#
# Total GULP energy -793141.927933 kJ/mol
# GULP energy per Si atom -12392.842624 kJ/mol
# Density = 2.027964 g / cm^3
# Si number density = 20.325903 Si / 1000 Ang^3
#
#
#
# Elastic Constant Matrix: (Units=GPa)
#
#
# Indices 1 2 3 4 5 6 
#
# 1 167.2678 52.5374 61.0774 0.0000 0.0000 0.0000
# 2 52.5374 102.9022 24.0877 0.0000 0.0000 0.0000
# 3 61.0774 24.0877 120.4279 0.0000 0.0000 0.0000
# 4 0.0000 0.0000 0.0000 -3.9786 0.0000 0.0000
# 5 0.0000 0.0000 0.0000 0.0000 35.0530 0.0000
# 6 0.0000 0.0000 0.0000 0.0000 0.0000 21.2851
#
#
#
# Elastic Compliance Matrix: (Units=1/GPa)
#
#
# Indices 1 2 3 4 5 6 
#
# 1 0.008353 -0.003434 -0.003550 0.000000 0.000000 0.000000
# 2 -0.003434 0.011607 -0.000580 0.000000 0.000000 0.000000
# 3 -0.003550 -0.000580 0.010220 0.000000 0.000000 0.000000
# 4 0.000000 0.000000 0.000000 -0.251347 0.000000 0.000000
# 5 0.000000 0.000000 0.000000 0.000000 0.028528 0.000000
# 6 0.000000 0.000000 0.000000 0.000000 0.000000 0.046981
#
#
# Mechanical properties :
#
#
# Convention : Reuss Voigt Hill
#
# Bulk Modulus (GPa) = 66.43185 74.00034 70.21609
# Shear Modulus (GPa) = -39.83655 27.33160 -6.25248
#
# Velocity S-wave (km/s) = -4.43187 3.67095 -1.75579
# Velocity P-wave (km/s) = 2.56236 7.37928 5.52356
#
# Compressibility (1/GPa) = 0.01505302
#
# Stress axis : x y z
#
# Youngs Moduli (GPa) = 119.71596 86.15563 97.84729
#
# Poissons Ratio (x) = 0.29584 0.34732
# Poissons Ratio (y) = 0.41108 0.05676
# Poissons Ratio (z) = 0.42495 0.04998
#
# Static dielectric constant tensor:
#      x y z
#    x 4.199990 0.000000 0.000000 
#    y 0.000000 3.721630 0.000000 
#    z 0.000000 0.000000 3.661920 
# 
# 
# High freq. dielectric constant tensor:
#      x y z
#    x 1.815740 0.000000 0.000000 
#    y 0.000000 1.774770 0.000000 
#    z 0.000000 0.000000 1.788790 
# 
# From -- ./inp_files/20918.got.cif
#   From: 2010.03.12/outbox.cif.g09.slc.cpg/sg53_11_cif.got.tgz:20918.got - 2010.04.16 14:36:59.
