data_PCOD8219553
_publ_section_title
;
Structure prediction by ZEFSAII (Michael W. Deem and Ramdas Pophale) SiO2 
 PCOD8219553
Probable space group: P M N A
;
_chemical_formula_sum "Si O2"
_cell_formula_units_Z 52
_cell_length_a 9.362962
_cell_length_b 13.763509
_cell_length_c 21.564589
_cell_angle_alpha 90.000000
_cell_angle_beta 90.000000
_cell_angle_gamma 90.000000
_cell_volume 2778.968457
_symmetry_space_group_name_H-M "P M N A"
_symmetry_group_IT_number 53
_symmetry_cell_setting 'orthorhombic'
loop_
_space_group_symop_operation_xyz
x,y,z
1/2-x,-y,1/2+z
x,-y,-z
1/2-x,y,1/2-z
-x,-y,-z
1/2+x,y,1/2-z
-x,y,z
1/2+x,-y,1/2+z
loop_
_atom_site_type_symbol
_atom_site_label
_atom_site_fract_x
_atom_site_fract_y
_atom_site_fract_z
Si Si1 0.750000 0.753863 0.750000
Si Si2 0.170563 0.378757 0.808557
Si Si3 0.842126 0.411446 0.164861
Si Si4 0.667359 0.252538 0.578002
Si Si5 0.168862 0.032878 0.929965
Si Si6 0.334621 0.871222 0.869002
Si Si7 0.669333 0.284593 0.442141
O O1 0.647635 0.677862 0.713918
O O2 0.825164 0.823999 0.699920
O O3 0.250000 0.331321 0.750000
O O4 0.233914 0.489582 0.813411
O O5 0.229285 0.318278 0.867082
O O6 0.000000 0.372910 0.800040
O O7 0.774790 0.373947 0.100109
O O8 0.000000 0.446807 0.149378
O O9 0.500000 0.246303 0.585992
O O10 0.725261 0.142827 0.578541
O O11 0.705851 0.306026 0.513419
O O12 0.000000 0.021364 0.917645
O O13 0.254672 0.974415 0.876281
O O14 0.206346 0.000000 0.000000
O O15 0.500000 0.883041 0.885786
O O16 0.256053 0.809088 0.921288
O O17 0.500000 0.264205 0.432066
#
# Coordination Sequence:
#
# PCOD8219553 Si02
#       7
#     4   8   8   8   8   8   8
#     4  10  20  36  52  76 110 150 172 210 272 340
#     4  10  20  36  55  79 108 142 183 222 265 316
#     4   9  17  30  54  81 105 137 176 219 263 318
#     4   9  18  34  57  79 104 141 185 223 260 319
#     4  10  19  36  59  78 103 145 183 218 271 331
#     4  11  22  34  54  85 114 138 177 231 275 319
#     4   9  17  33  55  81 110 142 177 216 269 326
#
# _framework density 18.711977999999998
#
# number of rings (size 3 to 8) (size 9 to 14) (size 15 to 20)
#    0.000    2.308    2.308    0.923    0.000    2.769 
#    1.385    4.615    0.000    0.000    0.000    3.231 
#    0.000    0.000    0.000    0.000    0.000    0.000 
#
# Total GULP energy -644207.105594 kJ/mol
# GULP energy per Si atom -12388.598185 kJ/mol
# Density = 1.866939 g / cm^3
# Si number density = 18.711978 Si / 1000 Ang^3
#
#
#
# Elastic Constant Matrix: (Units=GPa)
#
#
# Indices 1 2 3 4 5 6 
#
# 1 56.3160 23.9772 32.0991 0.0000 0.0000 0.0000
# 2 23.9772 107.9626 75.4100 0.0000 0.0000 0.0000
# 3 32.0991 75.4100 154.3635 0.0000 0.0000 0.0000
# 4 0.0000 0.0000 0.0000 29.7414 0.0000 0.0000
# 5 0.0000 0.0000 0.0000 0.0000 22.6050 0.0000
# 6 0.0000 0.0000 0.0000 0.0000 0.0000 17.1146
#
#
#
# Elastic Compliance Matrix: (Units=1/GPa)
#
#
# Indices 1 2 3 4 5 6 
#
# 1 0.020545 -0.002396 -0.003102 0.000000 0.000000 0.000000
# 2 -0.002396 0.014340 -0.006507 0.000000 0.000000 0.000000
# 3 -0.003102 -0.006507 0.010302 0.000000 0.000000 0.000000
# 4 0.000000 0.000000 0.000000 0.033623 0.000000 0.000000
# 5 0.000000 0.000000 0.000000 0.000000 0.044238 0.000000
# 6 0.000000 0.000000 0.000000 0.000000 0.000000 0.058430
#
#
# Mechanical properties :
#
#
# Convention : Reuss Voigt Hill
#
# Bulk Modulus (GPa) = 47.22133 64.62386 55.92260
# Shear Modulus (GPa) = 23.52428 26.36924 24.94676
#
# Velocity S-wave (km/s) = 3.54952 3.75803 3.65526
# Velocity P-wave (km/s) = 6.48764 7.31036 6.91125
#
# Compressibility (1/GPa) = 0.02117687
#
# Stress axis : x y z
#
# Youngs Moduli (GPa) = 48.67349 69.73668 97.06924
#
# Poissons Ratio (x) = 0.16712 0.30106
# Poissons Ratio (y) = 0.11664 0.63162
# Poissons Ratio (z) = 0.15096 0.45377
#
# Static dielectric constant tensor:
#      x y z
#    x 3.033450 0.000000 0.000000 
#    y 0.000000 3.761370 0.000000 
#    z 0.000000 0.000000 3.591660 
# 
# 
# High freq. dielectric constant tensor:
#      x y z
#    x 1.686170 0.000000 0.000000 
#    y 0.000000 1.726710 0.000000 
#    z 0.000000 0.000000 1.730830 
# 
# From -- ./inp_files/30636.got.cif
#   From: 2010.03.12/outbox.cif.g09.slc.cpg/sg53_16_cif.got.tgz:30636.got - 2010.04.16 14:36:59.
