data_PCOD8219652
_publ_section_title
;
Structure prediction by ZEFSAII (Michael W. Deem and Ramdas Pophale) SiO2 
 PCOD8219652
Probable space group: P M N A
;
_chemical_formula_sum "Si O2"
_cell_formula_units_Z 48
_cell_length_a 27.854928
_cell_length_b 9.389908
_cell_length_c 9.733527
_cell_angle_alpha 90.000000
_cell_angle_beta 90.000000
_cell_angle_gamma 90.000000
_cell_volume 2545.854711
_symmetry_space_group_name_H-M "P M N A"
_symmetry_group_IT_number 53
_symmetry_cell_setting 'orthorhombic'
loop_
_space_group_symop_operation_xyz
x,y,z
1/2-x,-y,1/2+z
x,-y,-z
1/2-x,y,1/2-z
-x,-y,-z
1/2+x,y,1/2-z
-x,y,z
1/2+x,-y,1/2+z
loop_
_atom_site_type_symbol
_atom_site_label
_atom_site_fract_x
_atom_site_fract_y
_atom_site_fract_z
Si Si1 0.665112 0.339132 0.523197
Si Si2 0.500000 0.682989 0.651829
Si Si3 0.248137 0.859348 0.414692
Si Si4 0.400582 0.352016 0.777247
Si Si5 0.603086 0.317690 0.256910
Si Si6 0.857638 0.166634 0.494790
Si Si7 0.500000 0.345314 0.650654
O O1 0.681657 0.500000 0.500000
O O2 0.713776 0.251522 0.527159
O O3 0.638607 0.308491 0.665351
O O4 0.627607 0.300202 0.404556
O O5 0.547746 0.735265 0.731311
O O6 0.500000 0.514135 0.634931
O O7 0.500000 0.737797 0.494826
O O8 0.250000 0.884260 0.250000
O O9 0.196151 0.800980 0.456266
O O10 0.259560 0.000000 0.500000
O O11 0.396871 0.521448 0.801285
O O12 0.392551 0.263492 0.914909
O O13 0.452864 0.299871 0.732161
O O14 0.634130 0.215433 0.160788
O O15 0.870206 0.000000 0.500000
#
# Coordination Sequence:
#
# PCOD8219652 Si02
#       7
#     8   4   8   8   8   8   4
#     4  10  21  37  62  91 117 147 190 245 297 342
#     4   9  16  33  59  92 120 148 193 238 289 352
#     4  11  25  43  62  84 116 157 202 242 288 354
#     4  10  19  38  61  91 118 150 193 243 294 343
#     4  10  21  36  63  91 119 152 192 241 293 348
#     4  11  25  41  57  82 119 160 197 240 294 345
#     4   9  16  31  63  90 116 152 193 240 287 350
#
# _framework density 18.854178000000001
#
# number of rings (size 3 to 8) (size 9 to 14) (size 15 to 20)
#    0.000    1.833    3.333    0.500    4.667    2.000 
#    0.000    4.167    0.000    1.000    0.000    0.000 
#    0.000    0.000    0.000    0.000    0.000    0.000 
#
# Total GULP energy -595111.272722 kJ/mol
# GULP energy per Si atom -12398.151515 kJ/mol
# Density = 1.881126 g / cm^3
# Si number density = 18.854178 Si / 1000 Ang^3
#
#
#
# Elastic Constant Matrix: (Units=GPa)
#
#
# Indices 1 2 3 4 5 6 
#
# 1 125.8429 47.1792 40.2728 0.0000 0.0000 0.0000
# 2 47.1792 63.6581 34.3239 0.0000 0.0000 0.0000
# 3 40.2728 34.3239 68.9377 0.0000 0.0000 0.0000
# 4 0.0000 0.0000 0.0000 30.8306 0.0000 0.0000
# 5 0.0000 0.0000 0.0000 0.0000 18.2403 0.0000
# 6 0.0000 0.0000 0.0000 0.0000 0.0000 7.0239
#
#
#
# Elastic Compliance Matrix: (Units=1/GPa)
#
#
# Indices 1 2 3 4 5 6 
#
# 1 0.011559 -0.006733 -0.003400 0.000000 0.000000 0.000000
# 2 -0.006733 0.025396 -0.008711 0.000000 0.000000 0.000000
# 3 -0.003400 -0.008711 0.020829 0.000000 0.000000 0.000000
# 4 0.000000 0.000000 0.000000 0.032435 0.000000 0.000000
# 5 0.000000 0.000000 0.000000 0.000000 0.054824 0.000000
# 6 0.000000 0.000000 0.000000 0.000000 0.000000 0.142371
#
#
# Mechanical properties :
#
#
# Convention : Reuss Voigt Hill
#
# Bulk Modulus (GPa) = 49.76277 55.77673 52.76975
# Shear Modulus (GPa) = 15.06920 20.32980 17.69950
#
# Velocity S-wave (km/s) = 2.83017 3.28726 3.06724
# Velocity P-wave (km/s) = 6.09349 6.63743 6.37127
#
# Compressibility (1/GPa) = 0.02009534
#
# Stress axis : x y z
#
# Youngs Moduli (GPa) = 86.51320 39.37585 48.00908
#
# Poissons Ratio (x) = 0.26514 0.16323
# Poissons Ratio (y) = 0.58253 0.41821
# Poissons Ratio (z) = 0.29415 0.34301
#
# Static dielectric constant tensor:
#      x y z
#    x 3.623960 0.000000 0.000000 
#    y 0.000000 3.221430 0.000000 
#    z 0.000000 0.000000 3.474980 
# 
# 
# High freq. dielectric constant tensor:
#      x y z
#    x 1.746310 0.000000 0.000000 
#    y 0.000000 1.707270 0.000000 
#    z 0.000000 0.000000 1.741810 
# 
# From -- ./inp_files/13064.got.cif
#   From: 2010.03.12/outbox.cif.g09.slc.cpg/sg53_7_cif.got.tgz:13064.got - 2010.04.16 14:36:59.
