data_PCOD8219250
_publ_section_title
;
Structure prediction by ZEFSAII (Michael W. Deem and Ramdas Pophale) SiO2 
 PCOD8219250
Probable space group: P M N A
;
_chemical_formula_sum "Si O2"
_cell_formula_units_Z 32
_cell_length_a 8.445368
_cell_length_b 5.139148
_cell_length_c 35.859842
_cell_angle_alpha 90.000000
_cell_angle_beta 90.000000
_cell_angle_gamma 90.000000
_cell_volume 1556.388721
_symmetry_space_group_name_H-M "P M N A"
_symmetry_group_IT_number 53
_symmetry_cell_setting 'orthorhombic'
loop_
_space_group_symop_operation_xyz
x,y,z
1/2-x,-y,1/2+z
x,-y,-z
1/2-x,y,1/2-z
-x,-y,-z
1/2+x,y,1/2-z
-x,y,z
1/2+x,-y,1/2+z
loop_
_atom_site_type_symbol
_atom_site_label
_atom_site_fract_x
_atom_site_fract_y
_atom_site_fract_z
Si Si1 0.187985 0.993219 0.291516
Si Si2 0.311735 0.494423 0.165120
Si Si3 0.685505 0.523516 0.080692
Si Si4 0.815535 0.022864 0.042767
O O1 0.250000 0.009207 0.250000
O O2 0.253408 0.236946 0.314916
O O3 0.000000 0.992736 0.290837
O O4 0.256129 0.738012 0.311765
O O5 0.500000 0.502993 0.165091
O O6 0.249712 0.503242 0.122844
O O7 0.500000 0.462476 0.078557
O O8 0.778014 0.314406 0.055911
O O9 0.716894 0.814517 0.066447
O O10 0.000000 0.962519 0.047742
O O11 0.763192 0.000000 0.000000
#
# Coordination Sequence:
#
# PCOD8219250 Si02
#       4
#     8   8   8   8
#     4  10  19  34  54  77 107 142 179 221 275 333
#     4   9  19  35  55  78 108 143 178 227 285 329
#     4  11  22  39  64  89 112 149 202 245 279 335
#     4  11  24  41  59  84 122 159 186 229 299 355
#
# _framework density 20.560414000000002
#
# number of rings (size 3 to 8) (size 9 to 14) (size 15 to 20)
#    0.000    1.750    0.000    4.500    0.000    9.000 
#    0.000    7.500    0.000    0.000    0.000    0.000 
#    0.000    0.000    0.000    0.000    0.000    0.000 
#
# Total GULP energy -396962.486697 kJ/mol
# GULP energy per Si atom -12405.077709 kJ/mol
# Density = 2.051362 g / cm^3
# Si number density = 20.560414 Si / 1000 Ang^3
#
#
#
# Elastic Constant Matrix: (Units=GPa)
#
#
# Indices 1 2 3 4 5 6 
#
# 1 28.4818 15.4384 31.2048 0.0000 0.0000 0.0000
# 2 15.4384 120.1296 30.2829 0.0000 0.0000 0.0000
# 3 31.2048 30.2829 134.7970 0.0000 0.0000 0.0000
# 4 0.0000 0.0000 0.0000 48.4566 0.0000 0.0000
# 5 0.0000 0.0000 0.0000 0.0000 27.1249 0.0000
# 6 0.0000 0.0000 0.0000 0.0000 0.0000 23.5944
#
#
#
# Elastic Compliance Matrix: (Units=1/GPa)
#
#
# Indices 1 2 3 4 5 6 
#
# 1 0.048470 -0.003605 -0.010411 0.000000 0.000000 0.000000
# 2 -0.003605 0.009092 -0.001208 0.000000 0.000000 0.000000
# 3 -0.010411 -0.001208 0.010100 0.000000 0.000000 0.000000
# 4 0.000000 0.000000 0.000000 0.020637 0.000000 0.000000
# 5 0.000000 0.000000 0.000000 0.000000 0.036866 0.000000
# 6 0.000000 0.000000 0.000000 0.000000 0.000000 0.042383
#
#
# Mechanical properties :
#
#
# Convention : Reuss Voigt Hill
#
# Bulk Modulus (GPa) = 26.87082 48.58452 37.72767
# Shear Modulus (GPa) = 23.76414 33.60066 28.68240
#
# Velocity S-wave (km/s) = 3.40342 4.04696 3.73906
# Velocity P-wave (km/s) = 5.34247 6.74675 6.08525
#
# Compressibility (1/GPa) = 0.03721509
#
# Stress axis : x y z
#
# Youngs Moduli (GPa) = 20.63126 109.98502 99.00968
#
# Poissons Ratio (x) = 0.39646 1.03077
# Poissons Ratio (y) = 0.07437 0.11962
# Poissons Ratio (z) = 0.21479 0.13288
#
# Static dielectric constant tensor:
#      x y z
#    x 3.364940 0.000000 0.000000 
#    y 0.000000 3.984400 0.000000 
#    z 0.000000 0.000000 3.917470 
# 
# 
# High freq. dielectric constant tensor:
#      x y z
#    x 1.776030 0.000000 0.000000 
#    y 0.000000 1.822410 0.000000 
#    z 0.000000 0.000000 1.822440 
# 
# From -- ./inp_files/12672.got.cif
#   From: 2010.03.12/outbox.cif.g09.slc.cpg/sg53_7_cif.got.tgz:12672.got - 2010.04.16 14:36:59.
