data_PCOD8219095
_publ_section_title
;
Structure prediction by ZEFSAII (Michael W. Deem and Ramdas Pophale) SiO2 
 PCOD8219095
Probable space group: P M N A
;
_chemical_formula_sum "Si O2"
_cell_formula_units_Z 64
_cell_length_a 8.644488
_cell_length_b 18.558800
_cell_length_c 20.674471
_cell_angle_alpha 90.000000
_cell_angle_beta 90.000000
_cell_angle_gamma 90.000000
_cell_volume 3316.832753
_symmetry_space_group_name_H-M "P M N A"
_symmetry_group_IT_number 53
_symmetry_cell_setting 'orthorhombic'
loop_
_space_group_symop_operation_xyz
x,y,z
1/2-x,-y,1/2+z
x,-y,-z
1/2-x,y,1/2-z
-x,-y,-z
1/2+x,y,1/2-z
-x,y,z
1/2+x,-y,1/2+z
loop_
_atom_site_type_symbol
_atom_site_label
_atom_site_fract_x
_atom_site_fract_y
_atom_site_fract_z
Si Si1 0.183328 0.791353 0.434356
Si Si2 0.316347 0.044048 0.939494
Si Si3 0.315933 0.705984 0.939425
Si Si4 0.682720 0.705156 0.318513
Si Si5 0.816822 0.794537 0.682670
Si Si6 0.816995 0.041571 0.316903
Si Si7 0.183512 0.449648 0.681407
Si Si8 0.683987 0.543754 0.938657
O O1 0.235671 0.873448 0.444830
O O2 0.241180 0.746612 0.496362
O O3 0.270739 0.763464 0.371412
O O4 0.000000 0.784092 0.424084
O O5 0.500000 0.037997 0.939933
O O6 0.250545 0.008356 0.874034
O O7 0.247069 0.000000 0.000000
O O8 0.500000 0.706206 0.937366
O O9 0.250729 0.746576 0.876095
O O10 0.249864 0.624824 0.940288
O O11 0.750000 0.731170 0.250000
O O12 0.500000 0.697972 0.312850
O O13 0.753012 0.628283 0.338421
O O14 0.750000 0.764123 0.750000
O O15 0.760949 0.876497 0.671274
O O16 0.000000 0.789844 0.685585
O O17 0.750000 0.011094 0.250000
O O18 0.000000 0.037852 0.313878
O O19 0.250000 0.475845 0.750000
O O20 0.239397 0.506024 0.627345
O O21 0.000000 0.444938 0.685726
O O22 0.500000 0.545151 0.942207
O O23 0.750848 0.500000 0.000000
#
# Coordination Sequence:
#
# PCOD8219095 Si02
#       8
#     8   8   8   8   8   8   8   8
#     4  10  19  33  55  79 103 134 173 216 258 302
#     4   9  17  30  51  78 103 130 169 214 254 295
#     4   9  17  30  50  75 101 132 171 209 249 300
#     4  11  22  37  56  77 104 135 169 209 255 309
#     4   9  17  30  49  72  99 133 169 206 247 295
#     4   9  17  30  48  71  99 129 163 202 245 293
#     4  10  19  33  54  77 102 132 167 207 252 301
#     4   9  17  29  48  74 100 127 163 205 244 290
#
# _framework density 19.295515999999999
#
# number of rings (size 3 to 8) (size 9 to 14) (size 15 to 20)
#    0.000    2.500    0.000    3.750    0.000    6.000 
#    0.000    2.500    0.000   10.500    0.000    0.000 
#    0.000    0.000    0.000    0.000    0.000    0.000 
#
# Total GULP energy -793652.721484 kJ/mol
# GULP energy per Si atom -12400.823773 kJ/mol
# Density = 1.925160 g / cm^3
# Si number density = 19.295516 Si / 1000 Ang^3
#
#
#
# Elastic Constant Matrix: (Units=GPa)
#
#
# Indices 1 2 3 4 5 6 
#
# 1 40.0752 23.6631 29.4371 0.0000 0.0000 0.0000
# 2 23.6631 149.8846 108.5352 0.0000 0.0000 0.0000
# 3 29.4371 108.5352 185.2429 0.0000 0.0000 0.0000
# 4 0.0000 0.0000 0.0000 44.8971 0.0000 0.0000
# 5 0.0000 0.0000 0.0000 0.0000 27.7924 0.0000
# 6 0.0000 0.0000 0.0000 0.0000 0.0000 22.6890
#
#
#
# Elastic Compliance Matrix: (Units=1/GPa)
#
#
# Indices 1 2 3 4 5 6 
#
# 1 0.028637 -0.002129 -0.003303 0.000000 0.000000 0.000000
# 2 -0.002129 0.011747 -0.006544 0.000000 0.000000 0.000000
# 3 -0.003303 -0.006544 0.009758 0.000000 0.000000 0.000000
# 4 0.000000 0.000000 0.000000 0.022273 0.000000 0.000000
# 5 0.000000 0.000000 0.000000 0.000000 0.035981 0.000000
# 6 0.000000 0.000000 0.000000 0.000000 0.000000 0.044074
#
#
# Mechanical properties :
#
#
# Convention : Reuss Voigt Hill
#
# Bulk Modulus (GPa) = 38.18555 77.60818 57.89686
# Shear Modulus (GPa) = 27.00491 33.31351 30.15921
#
# Velocity S-wave (km/s) = 3.74511 4.15961 3.95779
# Velocity P-wave (km/s) = 6.20757 7.96103 7.13834
#
# Compressibility (1/GPa) = 0.02618792
#
# Stress axis : x y z
#
# Youngs Moduli (GPa) = 34.92034 85.13025 102.48526
#
# Poissons Ratio (x) = 0.18125 0.33853
# Poissons Ratio (y) = 0.07435 0.67068
# Poissons Ratio (z) = 0.11535 0.55711
#
# Static dielectric constant tensor:
#      x y z
#    x 3.080080 0.000000 0.000000 
#    y 0.000000 3.668200 0.000000 
#    z 0.000000 0.000000 3.765710 
# 
# 
# High freq. dielectric constant tensor:
#      x y z
#    x 1.706850 0.000000 0.000000 
#    y 0.000000 1.753300 0.000000 
#    z 0.000000 0.000000 1.768340 
# 
# From -- ./inp_files/31120.got.cif
#   From: 2010.03.12/outbox.cif.g09.slc.cpg/sg53_16_cif.got.tgz:31120.got - 2010.04.16 14:36:59.
