data_PCOD8219785
_publ_section_title
;
Structure prediction by ZEFSAII (Michael W. Deem and Ramdas Pophale) SiO2 
 PCOD8219785
Probable space group: P M N A
;
_chemical_formula_sum "Si O2"
_cell_formula_units_Z 64
_cell_length_a 8.786613
_cell_length_b 22.945203
_cell_length_c 16.928072
_cell_angle_alpha 90.000000
_cell_angle_beta 90.000000
_cell_angle_gamma 90.000000
_cell_volume 3412.879074
_symmetry_space_group_name_H-M "P M N A"
_symmetry_group_IT_number 53
_symmetry_cell_setting 'orthorhombic'
loop_
_space_group_symop_operation_xyz
x,y,z
1/2-x,-y,1/2+z
x,-y,-z
1/2-x,y,1/2-z
-x,-y,-z
1/2+x,y,1/2-z
-x,y,z
1/2+x,-y,1/2+z
loop_
_atom_site_type_symbol
_atom_site_label
_atom_site_fract_x
_atom_site_fract_y
_atom_site_fract_z
Si Si1 0.176631 0.366376 0.434780
Si Si2 0.679746 0.459242 0.334172
Si Si3 0.678389 0.135649 0.985779
Si Si4 0.322605 0.431120 0.902815
Si Si5 0.679492 0.938299 0.167627
Si Si6 0.670602 0.038065 0.422036
Si Si7 0.178171 0.739542 0.012073
Si Si8 0.821242 0.323551 0.828569
O O1 0.264935 0.395481 0.361817
O O2 0.209203 0.405931 0.510854
O O3 0.238463 0.301220 0.448169
O O4 0.000000 0.362842 0.413772
O O5 0.750000 0.474626 0.250000
O O6 0.500000 0.460426 0.328759
O O7 0.738060 0.507281 0.396435
O O8 0.500000 0.147133 0.991689
O O9 0.721902 0.107745 0.900995
O O10 0.768126 0.194962 0.997574
O O11 0.729185 0.094762 0.058434
O O12 0.500000 0.440468 0.886396
O O13 0.255130 0.386625 0.838868
O O14 0.750000 0.915555 0.250000
O O15 0.500000 0.945082 0.176137
O O16 0.749587 0.001545 0.147562
O O17 0.500000 0.055824 0.395361
O O18 0.663087 0.000000 0.500000
O O19 0.222136 0.718976 0.099921
O O20 0.000000 0.734860 0.996574
O O21 0.750000 0.294754 0.750000
O O22 0.000000 0.331745 0.819694
#
# Coordination Sequence:
#
# PCOD8219785 Si02
#       8
#     8   8   8   8   8   8   8   8
#     4  10  21  38  58  79 105 137 174 217 265 315
#     4  12  24  37  55  79 107 136 170 214 265 319
#     4  10  20  34  53  77 105 139 179 220 259 303
#     4  10  20  35  55  78 105 136 171 212 261 318
#     4  10  20  33  51  78 112 145 176 213 260 309
#     4   9  17  31  52  76 103 136 173 212 254 300
#     4  10  21  36  54  76 102 137 180 220 259 306
#     4  10  20  33  49  71 102 138 175 215 260 311
#
# _framework density 18.752495
#
# number of rings (size 3 to 8) (size 9 to 14) (size 15 to 20)
#    0.000    1.875    0.000    4.500    0.000    8.000 
#    0.000    2.500    0.000    0.750    0.000    5.250 
#    0.000    0.000    0.000    0.000    0.000    0.000 
#
# Total GULP energy -793841.300473 kJ/mol
# GULP energy per Si atom -12403.770320 kJ/mol
# Density = 1.870981 g / cm^3
# Si number density = 18.752495 Si / 1000 Ang^3
#
#
#
# Elastic Constant Matrix: (Units=GPa)
#
#
# Indices 1 2 3 4 5 6 
#
# 1 95.6536 25.3213 20.7788 0.0000 0.0000 0.0000
# 2 25.3213 92.1348 20.6714 0.0000 0.0000 0.0000
# 3 20.7788 20.6714 30.5791 0.0000 0.0000 0.0000
# 4 0.0000 0.0000 0.0000 18.2495 0.0000 0.0000
# 5 0.0000 0.0000 0.0000 0.0000 29.8148 0.0000
# 6 0.0000 0.0000 0.0000 0.0000 0.0000 34.2016
#
#
#
# Elastic Compliance Matrix: (Units=1/GPa)
#
#
# Indices 1 2 3 4 5 6 
#
# 1 0.012514 -0.001805 -0.007283 0.000000 0.000000 0.000000
# 2 -0.001805 0.013055 -0.007598 0.000000 0.000000 0.000000
# 3 -0.007283 -0.007598 0.042787 0.000000 0.000000 0.000000
# 4 0.000000 0.000000 0.000000 0.054796 0.000000 0.000000
# 5 0.000000 0.000000 0.000000 0.000000 0.033540 0.000000
# 6 0.000000 0.000000 0.000000 0.000000 0.000000 0.029238
#
#
# Mechanical properties :
#
#
# Convention : Reuss Voigt Hill
#
# Bulk Modulus (GPa) = 28.58534 39.10115 33.84325
# Shear Modulus (GPa) = 21.64826 26.55960 24.10393
#
# Velocity S-wave (km/s) = 3.40136 3.76749 3.58910
# Velocity P-wave (km/s) = 5.54096 6.31045 5.93818
#
# Compressibility (1/GPa) = 0.03498297
#
# Stress axis : x y z
#
# Youngs Moduli (GPa) = 79.90783 76.60183 23.37136
#
# Poissons Ratio (x) = 0.13828 0.17022
# Poissons Ratio (y) = 0.14425 0.17758
# Poissons Ratio (z) = 0.58199 0.58203
#
# Static dielectric constant tensor:
#      x y z
#    x 3.556880 0.000000 0.000000 
#    y 0.000000 3.385110 0.000000 
#    z 0.000000 0.000000 3.360570 
# 
# 
# High freq. dielectric constant tensor:
#      x y z
#    x 1.746710 0.000000 0.000000 
#    y 0.000000 1.717700 0.000000 
#    z 0.000000 0.000000 1.708920 
# 
# From -- ./inp_files/26993.got.cif
#   From: 2010.03.12/outbox.cif.g09.slc.cpg/sg53_14_cif.got.tgz:26993.got - 2010.04.16 14:36:59.
