data_PCOD8219836
_publ_section_title
;
Structure prediction by ZEFSAII (Michael W. Deem and Ramdas Pophale) SiO2 
 PCOD8219836
Probable space group: P M N A
;
_chemical_formula_sum "Si O2"
_cell_formula_units_Z 56
_cell_length_a 9.757906
_cell_length_b 14.763994
_cell_length_c 19.676344
_cell_angle_alpha 90.000000
_cell_angle_beta 90.000000
_cell_angle_gamma 90.000000
_cell_volume 2834.685596
_symmetry_space_group_name_H-M "P M N A"
_symmetry_group_IT_number 53
_symmetry_cell_setting 'orthorhombic'
loop_
_space_group_symop_operation_xyz
x,y,z
1/2-x,-y,1/2+z
x,-y,-z
1/2-x,y,1/2-z
-x,-y,-z
1/2+x,y,1/2-z
-x,y,z
1/2+x,-y,1/2+z
loop_
_atom_site_type_symbol
_atom_site_label
_atom_site_fract_x
_atom_site_fract_y
_atom_site_fract_z
Si Si1 0.145709 0.972408 0.697965
Si Si2 0.160684 0.894897 0.015792
Si Si3 0.660818 0.654235 0.817749
Si Si4 0.339043 0.501729 0.923087
Si Si5 0.346223 0.173872 0.094769
Si Si6 0.840900 0.356665 0.686465
Si Si7 0.346020 0.158248 0.862463
O O1 0.250000 0.928931 0.750000
O O2 0.156871 0.080558 0.694335
O O3 0.000000 0.944473 0.728890
O O4 0.163261 0.927625 0.624376
O O5 0.232963 0.825190 0.963734
O O6 0.000000 0.873824 0.016727
O O7 0.226122 0.868591 0.086844
O O8 0.189381 0.000000 0.000000
O O9 0.750000 0.638217 0.750000
O O10 0.500000 0.638679 0.800318
O O11 0.711545 0.586458 0.877536
O O12 0.688245 0.754660 0.846199
O O13 0.500000 0.510391 0.932294
O O14 0.299434 0.410702 0.881984
O O15 0.273823 0.500000 0.000000
O O16 0.500000 0.192745 0.065684
O O17 0.750000 0.390651 0.750000
O O18 0.809313 0.251954 0.673350
O O19 0.000000 0.374237 0.704566
O O20 0.500000 0.162683 0.895548
#
# Coordination Sequence:
#
# PCOD8219836 Si02
#       7
#     8   8   8   8   8   8   8
#     4  10  20  33  50  75 107 142 184 230 275 328
#     4  11  23  37  55  82 113 150 190 237 291 336
#     4  10  21  37  61  88 116 153 193 239 290 341
#     4   9  19  36  59  89 118 149 194 240 283 340
#     4  10  21  36  56  81 110 150 193 230 278 342
#     4  10  21  37  61  88 116 153 193 239 290 341
#     4  10  21  36  56  81 110 150 193 230 278 342
#
# _framework density 19.755278000000001
#
# number of rings (size 3 to 8) (size 9 to 14) (size 15 to 20)
#    0.000    2.000    1.429    1.714    2.000    2.857 
#    0.000    0.000    0.000    0.857    0.000    0.000 
#    0.000    0.000    0.000    0.000    0.000    0.000 
#
# Total GULP energy -694069.910313 kJ/mol
# GULP energy per Si atom -12394.105541 kJ/mol
# Density = 1.971031 g / cm^3
# Si number density = 19.755278 Si / 1000 Ang^3
#
#
#
# Elastic Constant Matrix: (Units=GPa)
#
#
# Indices 1 2 3 4 5 6 
#
# 1 103.0122 18.7706 65.1766 0.0000 0.0000 0.0000
# 2 18.7706 81.4090 25.2994 0.0000 0.0000 0.0000
# 3 65.1766 25.2994 116.4103 0.0000 0.0000 0.0000
# 4 0.0000 0.0000 0.0000 21.7995 0.0000 0.0000
# 5 0.0000 0.0000 0.0000 0.0000 37.5500 0.0000
# 6 0.0000 0.0000 0.0000 0.0000 0.0000 14.1598
#
#
#
# Elastic Compliance Matrix: (Units=1/GPa)
#
#
# Indices 1 2 3 4 5 6 
#
# 1 0.015096 -0.000916 -0.008253 0.000000 0.000000 0.000000
# 2 -0.000916 0.013229 -0.002362 0.000000 0.000000 0.000000
# 3 -0.008253 -0.002362 0.013725 0.000000 0.000000 0.000000
# 4 0.000000 0.000000 0.000000 0.045873 0.000000 0.000000
# 5 0.000000 0.000000 0.000000 0.000000 0.026631 0.000000
# 6 0.000000 0.000000 0.000000 0.000000 0.000000 0.070623
#
#
# Mechanical properties :
#
#
# Convention : Reuss Voigt Hill
#
# Bulk Modulus (GPa) = 52.66725 57.70274 55.18499
# Shear Modulus (GPa) = 23.30264 27.47418 25.38841
#
# Velocity S-wave (km/s) = 3.43821 3.73329 3.58878
# Velocity P-wave (km/s) = 6.51762 6.91776 6.72067
#
# Compressibility (1/GPa) = 0.01898713
#
# Stress axis : x y z
#
# Youngs Moduli (GPa) = 66.24120 75.59184 72.86227
#
# Poissons Ratio (x) = 0.06924 0.60135
# Poissons Ratio (y) = 0.06067 0.17212
# Poissons Ratio (z) = 0.54670 0.17856
#
# Static dielectric constant tensor:
#      x y z
#    x 3.498030 0.000000 0.000000 
#    y 0.000000 3.729220 0.000000 
#    z 0.000000 0.000000 3.481060 
# 
# 
# High freq. dielectric constant tensor:
#      x y z
#    x 1.751980 0.000000 0.000000 
#    y 0.000000 1.776570 0.000000 
#    z 0.000000 0.000000 1.763160 
# 
# From -- ./inp_files/30815.got.cif
#   From: 2010.03.12/outbox.cif.g09.slc.cpg/sg53_16_cif.got.tgz:30815.got - 2010.04.16 14:36:59.
