data_PCOD8219138
_publ_section_title
;
Structure prediction by ZEFSAII (Michael W. Deem and Ramdas Pophale) SiO2 
 PCOD8219138
Probable space group: P M N A
;
_chemical_formula_sum "Si O2"
_cell_formula_units_Z 64
_cell_length_a 8.662407
_cell_length_b 21.250978
_cell_length_c 18.561090
_cell_angle_alpha 90.000000
_cell_angle_beta 90.000000
_cell_angle_gamma 90.000000
_cell_volume 3416.811210
_symmetry_space_group_name_H-M "P M N A"
_symmetry_group_IT_number 53
_symmetry_cell_setting 'orthorhombic'
loop_
_space_group_symop_operation_xyz
x,y,z
1/2-x,-y,1/2+z
x,-y,-z
1/2-x,y,1/2-z
-x,-y,-z
1/2+x,y,1/2-z
-x,y,z
1/2+x,-y,1/2+z
loop_
_atom_site_type_symbol
_atom_site_label
_atom_site_fract_x
_atom_site_fract_y
_atom_site_fract_z
Si Si1 0.818038 0.191863 0.534365
Si Si2 0.322419 0.499474 0.915481
Si Si3 0.316676 0.740501 0.174343
Si Si4 0.683317 0.245886 0.114598
Si Si5 0.817623 0.879080 0.825199
Si Si6 0.183022 0.064722 0.464739
Si Si7 0.680731 0.395105 0.676125
Si Si8 0.681826 0.379166 0.172383
O O1 0.748654 0.215881 0.610118
O O2 0.766053 0.237310 0.468772
O O3 0.762829 0.120851 0.517928
O O4 0.000000 0.194001 0.541110
O O5 0.500000 0.485347 0.895053
O O6 0.213512 0.444593 0.886370
O O7 0.268671 0.566061 0.882635
O O8 0.297682 0.500000 0.000000
O O9 0.250000 0.765484 0.250000
O O10 0.500000 0.742388 0.178143
O O11 0.263803 0.669994 0.157550
O O12 0.500000 0.239407 0.122733
O O13 0.759963 0.191958 0.162577
O O14 0.746056 0.313111 0.141720
O O15 0.750000 0.904252 0.750000
O O16 0.760443 0.926497 0.887131
O O17 0.000000 0.879789 0.822239
O O18 0.000000 0.065835 0.453450
O O19 0.240526 0.000000 0.500000
O O20 0.750000 0.423205 0.750000
O O21 0.500000 0.382956 0.684771
O O22 0.750000 0.394621 0.250000
O O23 0.500000 0.374976 0.179616
#
# Coordination Sequence:
#
# PCOD8219138 Si02
#       8
#     8   8   8   8   8   8   8   8
#     4   8  16  31  55  81 106 139 176 217 262 315
#     4  10  22  38  57  78 102 137 181 222 268 325
#     4  10  19  33  55  79 106 138 177 222 271 322
#     4   9  18  34  55  80 107 136 178 222 268 321
#     4  11  21  34  54  81 113 147 185 225 268 316
#     4   9  18  36  60  83 110 146 186 224 267 321
#     4  11  22  37  56  77 103 136 178 224 273 323
#     4  10  21  35  54  78 104 136 172 216 266 323
#
# _framework density 18.730913999999999
#
# number of rings (size 3 to 8) (size 9 to 14) (size 15 to 20)
#    0.000    2.250    0.000    4.875    1.750    3.500 
#    0.000    5.625    0.000    1.500    0.000    0.000 
#    0.000    0.000    0.000    0.000    0.000    0.000 
#
# Total GULP energy -793644.544167 kJ/mol
# GULP energy per Si atom -12400.696003 kJ/mol
# Density = 1.868828 g / cm^3
# Si number density = 18.730914 Si / 1000 Ang^3
#
#
#
# Elastic Constant Matrix: (Units=GPa)
#
#
# Indices 1 2 3 4 5 6 
#
# 1 65.0614 29.3302 39.7709 0.0000 0.0000 0.0000
# 2 29.3302 113.9638 85.3670 0.0000 0.0000 0.0000
# 3 39.7709 85.3670 153.2982 0.0000 0.0000 0.0000
# 4 0.0000 0.0000 0.0000 25.5616 0.0000 0.0000
# 5 0.0000 0.0000 0.0000 0.0000 29.3907 0.0000
# 6 0.0000 0.0000 0.0000 0.0000 0.0000 7.0698
#
#
#
# Elastic Compliance Matrix: (Units=1/GPa)
#
#
# Indices 1 2 3 4 5 6 
#
# 1 0.018530 -0.002004 -0.003691 0.000000 0.000000 0.000000
# 2 -0.002004 0.015271 -0.007984 0.000000 0.000000 0.000000
# 3 -0.003691 -0.007984 0.011927 0.000000 0.000000 0.000000
# 4 0.000000 0.000000 0.000000 0.039121 0.000000 0.000000
# 5 0.000000 0.000000 0.000000 0.000000 0.034024 0.000000
# 6 0.000000 0.000000 0.000000 0.000000 0.000000 0.141447
#
#
# Mechanical properties :
#
#
# Convention : Reuss Voigt Hill
#
# Bulk Modulus (GPa) = 54.43866 71.25108 62.84487
# Shear Modulus (GPa) = 17.01822 24.26144 20.63983
#
# Velocity S-wave (km/s) = 3.01751 3.60288 3.32311
# Velocity P-wave (km/s) = 6.42395 7.44510 6.95330
#
# Compressibility (1/GPa) = 0.01836930
#
# Stress axis : x y z
#
# Youngs Moduli (GPa) = 53.96671 65.48311 83.84296
#
# Poissons Ratio (x) = 0.13121 0.30950
# Poissons Ratio (y) = 0.10814 0.66942
# Poissons Ratio (z) = 0.19922 0.52283
#
# Static dielectric constant tensor:
#      x y z
#    x 3.254810 0.000000 0.000000 
#    y 0.000000 3.512450 0.000000 
#    z 0.000000 0.000000 3.521700 
# 
# 
# High freq. dielectric constant tensor:
#      x y z
#    x 1.712390 0.000000 0.000000 
#    y 0.000000 1.719920 0.000000 
#    z 0.000000 0.000000 1.737460 
# 
# From -- ./inp_files/26934.got.cif
#   From: 2010.03.12/outbox.cif.g09.slc.cpg/sg53_14_cif.got.tgz:26934.got - 2010.04.16 14:36:59.
