data_PCOD8219817
_publ_section_title
;
Structure prediction by ZEFSAII (Michael W. Deem and Ramdas Pophale) SiO2 
 PCOD8219817
Probable space group: P M N A
;
_chemical_formula_sum "Si O2"
_cell_formula_units_Z 64
_cell_length_a 9.098815
_cell_length_b 11.068034
_cell_length_c 33.922729
_cell_angle_alpha 90.000000
_cell_angle_beta 90.000000
_cell_angle_gamma 90.000000
_cell_volume 3416.222136
_symmetry_space_group_name_H-M "P M N A"
_symmetry_group_IT_number 53
_symmetry_cell_setting 'orthorhombic'
loop_
_space_group_symop_operation_xyz
x,y,z
1/2-x,-y,1/2+z
x,-y,-z
1/2-x,y,1/2-z
-x,-y,-z
1/2+x,y,1/2-z
-x,y,z
1/2+x,-y,1/2+z
loop_
_atom_site_type_symbol
_atom_site_label
_atom_site_fract_x
_atom_site_fract_y
_atom_site_fract_z
Si Si1 0.330461 0.531825 0.062610
Si Si2 0.669582 0.469191 0.712079
Si Si3 0.331318 0.645200 0.368503
Si Si4 0.170884 0.896393 0.093295
Si Si5 0.826034 0.745131 0.789989
Si Si6 0.674033 0.710781 0.552160
Si Si7 0.670525 0.785312 0.021675
Si Si8 0.326254 0.146079 0.371340
O O1 0.500000 0.493068 0.063954
O O2 0.274469 0.560485 0.106263
O O3 0.237113 0.422516 0.044877
O O4 0.305509 0.647960 0.035486
O O5 0.750000 0.415744 0.750000
O O6 0.500000 0.467629 0.722052
O O7 0.709288 0.380160 0.676511
O O8 0.719513 0.606028 0.702753
O O9 0.500000 0.608526 0.377781
O O10 0.303363 0.785592 0.376953
O O11 0.260917 0.877792 0.053118
O O12 0.000000 0.910688 0.081947
O O13 0.232134 0.014377 0.115714
O O14 0.750000 0.794567 0.750000
O O15 0.764278 0.817693 0.828204
O O16 0.000000 0.761164 0.785397
O O17 0.500000 0.710383 0.546340
O O18 0.745141 0.800524 0.519763
O O19 0.720853 0.756637 0.595558
O O20 0.500000 0.817213 0.016366
O O21 0.500000 0.143486 0.368276
#
# Coordination Sequence:
#
# PCOD8219817 Si02
#       8
#     8   8   8   8   8   8   8   8
#     4  10  20  33  50  73 102 132 162 203 257 308
#     4   9  17  29  47  73 102 129 159 199 248 301
#     4   9  17  31  52  74  96 127 168 208 245 294
#     4   9  18  35  56  73  93 130 176 211 244 292
#     4   9  17  32  52  73 100 130 159 197 246 295
#     4  11  21  33  52  76 101 132 171 210 248 297
#     4  10  21  36  51  72 104 135 163 205 259 302
#     4   9  19  35  54  75 100 131 169 213 251 285
#
# _framework density 18.734144000000001
#
# number of rings (size 3 to 8) (size 9 to 14) (size 15 to 20)
#    0.000    2.500    0.000    2.250    0.000    6.000 
#    0.000    8.750    0.000    0.000    0.000    0.000 
#    0.000    0.000    0.000    0.000    0.000    0.000 
#
# Total GULP energy -793618.735473 kJ/mol
# GULP energy per Si atom -12400.292742 kJ/mol
# Density = 1.869150 g / cm^3
# Si number density = 18.734144 Si / 1000 Ang^3
#
#
#
# Elastic Constant Matrix: (Units=GPa)
#
#
# Indices 1 2 3 4 5 6 
#
# 1 63.0348 19.5059 44.3895 0.0000 0.0000 0.0000
# 2 19.5059 49.1141 24.4294 0.0000 0.0000 0.0000
# 3 44.3895 24.4294 129.7510 0.0000 0.0000 0.0000
# 4 0.0000 0.0000 0.0000 21.0261 0.0000 0.0000
# 5 0.0000 0.0000 0.0000 0.0000 32.3437 0.0000
# 6 0.0000 0.0000 0.0000 0.0000 0.0000 16.2598
#
#
#
# Elastic Compliance Matrix: (Units=1/GPa)
#
#
# Indices 1 2 3 4 5 6 
#
# 1 0.022194 -0.005558 -0.006546 0.000000 0.000000 0.000000
# 2 -0.005558 0.023857 -0.002590 0.000000 0.000000 0.000000
# 3 -0.006546 -0.002590 0.010434 0.000000 0.000000 0.000000
# 4 0.000000 0.000000 0.000000 0.047560 0.000000 0.000000
# 5 0.000000 0.000000 0.000000 0.000000 0.030918 0.000000
# 6 0.000000 0.000000 0.000000 0.000000 0.000000 0.061501
#
#
# Mechanical properties :
#
#
# Convention : Reuss Voigt Hill
#
# Bulk Modulus (GPa) = 36.90658 46.50552 41.70605
# Shear Modulus (GPa) = 21.28692 24.16427 22.72560
#
# Velocity S-wave (km/s) = 3.37451 3.59535 3.48668
# Velocity P-wave (km/s) = 5.90982 6.48947 6.20642
#
# Compressibility (1/GPa) = 0.02709544
#
# Stress axis : x y z
#
# Youngs Moduli (GPa) = 45.05661 41.91705 95.83729
#
# Poissons Ratio (x) = 0.23299 0.62739
# Poissons Ratio (y) = 0.25044 0.24823
# Poissons Ratio (z) = 0.29496 0.10857
#
# Static dielectric constant tensor:
#      x y z
#    x 3.318730 0.000000 0.000000 
#    y 0.000000 3.388570 0.000000 
#    z 0.000000 0.000000 3.582520 
# 
# 
# High freq. dielectric constant tensor:
#      x y z
#    x 1.713020 0.000000 0.000000 
#    y 0.000000 1.714740 0.000000 
#    z 0.000000 0.000000 1.733820 
# 
# From -- ./inp_files/38305.got.cif
#   From: 2010.03.12/outbox.cif.g09.slc.cpg/sg53_20_cif.got.tgz:38305.got - 2010.04.16 14:36:59.
