data_PCOD8219712
_publ_section_title
;
Structure prediction by ZEFSAII (Michael W. Deem and Ramdas Pophale) SiO2 
 PCOD8219712
Probable space group: P M N A
;
_chemical_formula_sum "Si O2"
_cell_formula_units_Z 64
_cell_length_a 9.187124
_cell_length_b 19.241340
_cell_length_c 20.696762
_cell_angle_alpha 90.000000
_cell_angle_beta 90.000000
_cell_angle_gamma 90.000000
_cell_volume 3658.619944
_symmetry_space_group_name_H-M "P M N A"
_symmetry_group_IT_number 53
_symmetry_cell_setting 'orthorhombic'
loop_
_space_group_symop_operation_xyz
x,y,z
1/2-x,-y,1/2+z
x,-y,-z
1/2-x,y,1/2-z
-x,-y,-z
1/2+x,y,1/2-z
-x,y,z
1/2+x,-y,1/2+z
loop_
_atom_site_type_symbol
_atom_site_label
_atom_site_fract_x
_atom_site_fract_y
_atom_site_fract_z
Si Si1 0.663686 0.206215 0.188615
Si Si2 0.830280 0.956242 0.938411
Si Si3 0.168574 0.796256 0.936793
Si Si4 0.664231 0.959342 0.811810
Si Si5 0.835426 0.459575 0.811995
Si Si6 0.330381 0.447976 0.941071
Si Si7 0.172154 0.693872 0.050823
Si Si8 0.340531 0.294533 0.691260
O O1 0.750000 0.236715 0.250000
O O2 0.500000 0.235294 0.190395
O O3 0.740485 0.232647 0.123568
O O4 0.665616 0.123455 0.190778
O O5 0.793390 0.875967 0.952374
O O6 0.742895 0.984990 0.876822
O O7 0.000000 0.967025 0.923817
O O8 0.778809 0.000000 0.000000
O O9 0.000000 0.787895 0.918949
O O10 0.213024 0.751362 0.998491
O O11 0.750000 0.989599 0.750000
O O12 0.500000 0.988124 0.810679
O O13 0.750000 0.491311 0.750000
O O14 0.749885 0.478755 0.877743
O O15 0.842982 0.377301 0.804273
O O16 0.000000 0.490123 0.814739
O O17 0.500000 0.437013 0.924318
O O18 0.260671 0.375667 0.964160
O O19 0.307979 0.500000 0.000000
O O20 0.221249 0.725234 0.120442
O O21 0.000000 0.676109 0.052249
O O22 0.250000 0.261500 0.750000
O O23 0.500000 0.262762 0.699612
#
# Coordination Sequence:
#
# PCOD8219712 Si02
#       8
#     8   8   8   8   8   8   8   8
#     4   9  16  26  42  65  90 116 148 187 229 270
#     4   9  17  29  46  68  93 122 154 187 227 274
#     4   9  17  30  47  67  92 121 153 189 228 271
#     4   9  16  26  42  64  89 116 149 190 230 269
#     4   9  16  27  45  68  93 120 152 190 229 269
#     4  10  20  32  47  69  96 124 154 189 228 271
#     4   9  18  31  47  67  91 121 154 188 229 273
#     4   8  14  24  39  61  85 109 141 179 217 256
#
# _framework density 17.492934000000002
#
# number of rings (size 3 to 8) (size 9 to 14) (size 15 to 20)
#    0.000    3.000    0.000    2.250    0.000    7.750 
#    0.000    0.000    0.000    1.500    0.000    7.000 
#    0.000    0.000    0.000    0.000    0.000    0.000 
#
# Total GULP energy -793405.248479 kJ/mol
# GULP energy per Si atom -12396.957007 kJ/mol
# Density = 1.745312 g / cm^3
# Si number density = 17.492934 Si / 1000 Ang^3
#
#
#
# Elastic Constant Matrix: (Units=GPa)
#
#
# Indices 1 2 3 4 5 6 
#
# 1 116.9258 31.6531 90.9821 0.0000 0.0000 0.0000
# 2 31.6531 33.2211 47.1682 0.0000 0.0000 0.0000
# 3 90.9821 47.1682 183.0764 0.0000 0.0000 0.0000
# 4 0.0000 0.0000 0.0000 23.5163 0.0000 0.0000
# 5 0.0000 0.0000 0.0000 0.0000 38.0073 0.0000
# 6 0.0000 0.0000 0.0000 0.0000 0.0000 11.7792
#
#
#
# Elastic Compliance Matrix: (Units=1/GPa)
#
#
# Indices 1 2 3 4 5 6 
#
# 1 0.014596 -0.005689 -0.005788 0.000000 0.000000 0.000000
# 2 -0.005689 0.049682 -0.009973 0.000000 0.000000 0.000000
# 3 -0.005788 -0.009973 0.010908 0.000000 0.000000 0.000000
# 4 0.000000 0.000000 0.000000 0.042524 0.000000 0.000000
# 5 0.000000 0.000000 0.000000 0.000000 0.026311 0.000000
# 6 0.000000 0.000000 0.000000 0.000000 0.000000 0.084895
#
#
# Mechanical properties :
#
#
# Convention : Reuss Voigt Hill
#
# Bulk Modulus (GPa) = 30.97329 74.75891 52.86610
# Shear Modulus (GPa) = 17.69422 25.55523 21.62472
#
# Velocity S-wave (km/s) = 3.18387 3.82630 3.51977
# Velocity P-wave (km/s) = 5.59112 7.89621 6.84145
#
# Compressibility (1/GPa) = 0.03228588
#
# Stress axis : x y z
#
# Youngs Moduli (GPa) = 68.51012 20.12808 91.67577
#
# Poissons Ratio (x) = 0.11452 0.53062
# Poissons Ratio (y) = 0.38979 0.91425
# Poissons Ratio (z) = 0.39654 0.20073
#
# Static dielectric constant tensor:
#      x y z
#    x 3.440960 0.000000 0.000000 
#    y 0.000000 2.690740 0.000000 
#    z 0.000000 0.000000 3.527070 
# 
# 
# High freq. dielectric constant tensor:
#      x y z
#    x 1.683940 0.000000 0.000000 
#    y 0.000000 1.608140 0.000000 
#    z 0.000000 0.000000 1.694660 
# 
# From -- ./inp_files/31174.got.cif
#   From: 2010.03.12/outbox.cif.g09.slc.cpg/sg53_16_cif.got.tgz:31174.got - 2010.04.16 14:36:59.
