data_PCOD8219900
_publ_section_title
;
Structure prediction by ZEFSAII (Michael W. Deem and Ramdas Pophale) SiO2 
 PCOD8219900
Probable space group: P M N A
;
_chemical_formula_sum "Si O2"
_cell_formula_units_Z 64
_cell_length_a 9.149607
_cell_length_b 20.505011
_cell_length_c 17.959798
_cell_angle_alpha 90.000000
_cell_angle_beta 90.000000
_cell_angle_gamma 90.000000
_cell_volume 3369.487850
_symmetry_space_group_name_H-M "P M N A"
_symmetry_group_IT_number 53
_symmetry_cell_setting 'orthorhombic'
loop_
_space_group_symop_operation_xyz
x,y,z
1/2-x,-y,1/2+z
x,-y,-z
1/2-x,y,1/2-z
-x,-y,-z
1/2+x,y,1/2-z
-x,y,z
1/2+x,-y,1/2+z
loop_
_atom_site_type_symbol
_atom_site_label
_atom_site_fract_x
_atom_site_fract_y
_atom_site_fract_z
Si Si1 0.330614 0.746841 0.672807
Si Si2 0.672283 0.140610 0.931975
Si Si3 0.832123 0.124621 0.084819
Si Si4 0.828364 0.509982 0.671929
Si Si5 0.672841 0.741055 0.172007
Si Si6 0.672309 0.360931 0.082542
Si Si7 0.826840 0.614988 0.416297
Si Si8 0.838668 0.999739 0.588639
O O1 0.250000 0.734306 0.750000
O O2 0.500000 0.728024 0.682279
O O3 0.311549 0.821706 0.648746
O O4 0.259091 0.701981 0.609884
O O5 0.500000 0.142005 0.948462
O O6 0.722679 0.199599 0.880231
O O7 0.714612 0.072797 0.889559
O O8 0.750476 0.148167 0.010971
O O9 0.769507 0.056484 0.117570
O O10 0.000000 0.113775 0.064079
O O11 0.750000 0.503924 0.750000
O O12 0.789100 0.578704 0.635385
O O13 0.769057 0.452631 0.618250
O O14 0.000000 0.502347 0.685067
O O15 0.750000 0.750171 0.250000
O O16 0.500000 0.740571 0.184074
O O17 0.729299 0.674567 0.134262
O O18 0.500000 0.345501 0.082438
O O19 0.731537 0.377415 0.000182
O O20 0.000000 0.614523 0.419221
O O21 0.000000 0.985402 0.621456
O O22 0.844101 0.000000 0.500000
#
# Coordination Sequence:
#
# PCOD8219900 Si02
#       8
#     8   8   8   8   8   8   8   8
#     4  11  24  39  54  76 106 138 174 216 264 317
#     4   9  18  33  53  77 104 137 175 211 254 312
#     4  10  20  33  52  79 105 130 168 218 263 304
#     4  10  20  34  54  81 111 141 175 213 256 308
#     4  10  20  34  52  74 103 138 175 213 256 307
#     4  10  20  36  59  81 103 136 177 220 261 304
#     4   9  18  34  56  80 105 138 178 215 254 306
#     4   8  15  29  50  75 103 135 170 208 253 309
#
# _framework density 18.993984000000001
#
# number of rings (size 3 to 8) (size 9 to 14) (size 15 to 20)
#    0.000    2.375    0.000    3.375    0.000    8.750 
#    0.000    1.875    0.000    4.500    0.000    0.000 
#    0.000    0.000    0.000    0.000    0.000    0.000 
#
# Total GULP energy -793623.439927 kJ/mol
# GULP energy per Si atom -12400.366249 kJ/mol
# Density = 1.895075 g / cm^3
# Si number density = 18.993984 Si / 1000 Ang^3
#
#
#
# Elastic Constant Matrix: (Units=GPa)
#
#
# Indices 1 2 3 4 5 6 
#
# 1 57.1072 32.6267 27.9817 0.0000 0.0000 0.0000
# 2 32.6267 95.8256 9.7359 0.0000 0.0000 0.0000
# 3 27.9817 9.7359 71.8092 0.0000 0.0000 0.0000
# 4 0.0000 0.0000 0.0000 21.4032 0.0000 0.0000
# 5 0.0000 0.0000 0.0000 0.0000 17.2351 0.0000
# 6 0.0000 0.0000 0.0000 0.0000 0.0000 20.5321
#
#
#
# Elastic Compliance Matrix: (Units=1/GPa)
#
#
# Indices 1 2 3 4 5 6 
#
# 1 0.026733 -0.008156 -0.009311 0.000000 0.000000 0.000000
# 2 -0.008156 0.013070 0.001406 0.000000 0.000000 0.000000
# 3 -0.009311 0.001406 0.017363 0.000000 0.000000 0.000000
# 4 0.000000 0.000000 0.000000 0.046722 0.000000 0.000000
# 5 0.000000 0.000000 0.000000 0.000000 0.058021 0.000000
# 6 0.000000 0.000000 0.000000 0.000000 0.000000 0.048704
#
#
# Mechanical properties :
#
#
# Convention : Reuss Voigt Hill
#
# Bulk Modulus (GPa) = 39.92972 40.60339 40.26655
# Shear Modulus (GPa) = 19.91369 22.12727 21.02048
#
# Velocity S-wave (km/s) = 3.24145 3.41686 3.33031
# Velocity P-wave (km/s) = 5.92260 6.08193 6.00280
#
# Compressibility (1/GPa) = 0.02504400
#
# Stress axis : x y z
#
# Youngs Moduli (GPa) = 37.40697 76.51273 57.59240
#
# Poissons Ratio (x) = 0.62404 0.53625
# Poissons Ratio (y) = 0.30509 -0.08098
# Poissons Ratio (z) = 0.34830 -0.10759
#
# Static dielectric constant tensor:
#      x y z
#    x 3.316170 0.000000 0.000000 
#    y 0.000000 3.952080 0.000000 
#    z 0.000000 0.000000 3.336570 
# 
# 
# High freq. dielectric constant tensor:
#      x y z
#    x 1.718830 0.000000 0.000000 
#    y 0.000000 1.759590 0.000000 
#    z 0.000000 0.000000 1.725480 
# 
# From -- ./inp_files/26764.got.cif
#   From: 2010.03.12/outbox.cif.g09.slc.cpg/sg53_14_cif.got.tgz:26764.got - 2010.04.16 14:36:59.
