data_PCOD8219297
_publ_section_title
;
Structure prediction by ZEFSAII (Michael W. Deem and Ramdas Pophale) SiO2 
 PCOD8219297
Probable space group: P M N A
;
_chemical_formula_sum "Si O2"
_cell_formula_units_Z 64
_cell_length_a 16.878165
_cell_length_b 20.490427
_cell_length_c 9.054267
_cell_angle_alpha 90.000000
_cell_angle_beta 90.000000
_cell_angle_gamma 90.000000
_cell_volume 3131.335014
_symmetry_space_group_name_H-M "P M N A"
_symmetry_group_IT_number 53
_symmetry_cell_setting 'orthorhombic'
loop_
_space_group_symop_operation_xyz
x,y,z
1/2-x,-y,1/2+z
x,-y,-z
1/2-x,y,1/2-z
-x,-y,-z
1/2+x,y,1/2-z
-x,y,z
1/2+x,-y,1/2+z
loop_
_atom_site_type_symbol
_atom_site_label
_atom_site_fract_x
_atom_site_fract_y
_atom_site_fract_z
Si Si1 0.170725 0.992394 0.670612
Si Si2 0.590803 0.861562 0.858364
Si Si3 0.908084 0.622669 0.650384
Si Si4 0.406450 0.749042 0.381472
Si Si5 0.405910 0.370204 0.822129
Si Si6 0.094576 0.500654 0.833596
Si Si7 0.408442 0.124625 0.806180
Si Si8 0.837718 0.742869 0.800690
O O1 0.250000 0.969731 0.750000
O O2 0.139779 0.060140 0.739940
O O3 0.190455 0.000000 0.500000
O O4 0.105447 0.935941 0.692255
O O5 0.500000 0.843801 0.828449
O O6 0.644745 0.814224 0.762139
O O7 0.613905 0.851366 0.029575
O O8 0.869541 0.629492 0.487429
O O9 0.870408 0.562628 0.743370
O O10 0.898072 0.690045 0.736202
O O11 0.000000 0.607491 0.630967
O O12 0.500000 0.742101 0.421282
O O13 0.378042 0.693423 0.267629
O O14 0.388334 0.818793 0.308765
O O15 0.350533 0.743492 0.523743
O O16 0.500000 0.369587 0.829652
O O17 0.374250 0.434855 0.742179
O O18 0.000000 0.503651 0.836041
O O19 0.127944 0.500000 0.000000
O O20 0.500000 0.105067 0.803343
O O21 0.750000 0.722075 0.750000
#
# Coordination Sequence:
#
# PCOD8219297 Si02
#       8
#     8   8   8   8   8   8   8   8
#     4  10  21  36  56  83 116 151 184 222 270 325
#     4  10  20  38  61  82 107 142 185 229 276 329
#     4  10  19  34  56  80 109 146 187 229 276 331
#     4  10  20  36  58  83 111 142 182 231 280 328
#     4   9  17  31  55  86 112 139 183 235 279 324
#     4   9  16  27  50  85 117 142 176 228 282 327
#     4   9  19  36  59  85 110 142 185 230 274 325
#     4  12  25  38  53  78 112 146 183 227 278 336
#
# _framework density 20.438568
#
# number of rings (size 3 to 8) (size 9 to 14) (size 15 to 20)
#    0.000    2.125    0.000    3.750    0.000   10.000 
#    0.000    1.875    0.000    7.500    0.000    0.000 
#    0.000    0.000    0.000    0.000    0.000    0.000 
#
# Total GULP energy -793691.864193 kJ/mol
# GULP energy per Si atom -12401.435378 kJ/mol
# Density = 2.039205 g / cm^3
# Si number density = 20.438568 Si / 1000 Ang^3
#
#
#
# Elastic Constant Matrix: (Units=GPa)
#
#
# Indices 1 2 3 4 5 6 
#
# 1 35.9029 15.5707 28.4852 0.0000 0.0000 0.0000
# 2 15.5707 127.9176 71.8809 0.0000 0.0000 0.0000
# 3 28.4852 71.8809 150.3252 0.0000 0.0000 0.0000
# 4 0.0000 0.0000 0.0000 32.6383 0.0000 0.0000
# 5 0.0000 0.0000 0.0000 0.0000 21.5076 0.0000
# 6 0.0000 0.0000 0.0000 0.0000 0.0000 11.4866
#
#
#
# Elastic Compliance Matrix: (Units=1/GPa)
#
#
# Indices 1 2 3 4 5 6 
#
# 1 0.032825 -0.000684 -0.005893 0.000000 0.000000 0.000000
# 2 -0.000684 0.010704 -0.004989 0.000000 0.000000 0.000000
# 3 -0.005893 -0.004989 0.010154 0.000000 0.000000 0.000000
# 4 0.000000 0.000000 0.000000 0.030639 0.000000 0.000000
# 5 0.000000 0.000000 0.000000 0.000000 0.046495 0.000000
# 6 0.000000 0.000000 0.000000 0.000000 0.000000 0.087058
#
#
# Mechanical properties :
#
#
# Convention : Reuss Voigt Hill
#
# Bulk Modulus (GPa) = 32.73125 60.66880 46.70003
# Shear Modulus (GPa) = 19.90514 26.34042 23.12278
#
# Velocity S-wave (km/s) = 3.12412 3.59383 3.36717
# Velocity P-wave (km/s) = 5.39099 6.85337 6.16569
#
# Compressibility (1/GPa) = 0.03055185
#
# Stress axis : x y z
#
# Youngs Moduli (GPa) = 30.46461 93.42172 98.47998
#
# Poissons Ratio (x) = 0.06392 0.58033
# Poissons Ratio (y) = 0.02084 0.49129
# Poissons Ratio (z) = 0.17952 0.46606
#
# Static dielectric constant tensor:
#      x y z
#    x 3.240520 0.000000 0.000000 
#    y 0.000000 3.808730 0.000000 
#    z 0.000000 0.000000 3.855220 
# 
# 
# High freq. dielectric constant tensor:
#      x y z
#    x 1.756420 0.000000 0.000000 
#    y 0.000000 1.814800 0.000000 
#    z 0.000000 0.000000 1.805400 
# 
# From -- ./inp_files/10240.got.cif
#   From: 2010.03.12/outbox.cif.g09.slc.cpg/sg53_6_cif.got.tgz:10240.got - 2010.04.16 14:36:59.
