data_PCOD8219274
_publ_section_title
;
Structure prediction by ZEFSAII (Michael W. Deem and Ramdas Pophale) SiO2 
 PCOD8219274
Probable space group: P M N A
;
_chemical_formula_sum "Si O2"
_cell_formula_units_Z 48
_cell_length_a 19.230343
_cell_length_b 15.679267
_cell_length_c 8.359557
_cell_angle_alpha 90.000000
_cell_angle_beta 90.000000
_cell_angle_gamma 90.000000
_cell_volume 2520.554253
_symmetry_space_group_name_H-M "P M N A"
_symmetry_group_IT_number 53
_symmetry_cell_setting 'orthorhombic'
loop_
_space_group_symop_operation_xyz
x,y,z
1/2-x,-y,1/2+z
x,-y,-z
1/2-x,y,1/2-z
-x,-y,-z
1/2+x,y,1/2-z
-x,y,z
1/2+x,-y,1/2+z
loop_
_atom_site_type_symbol
_atom_site_label
_atom_site_fract_x
_atom_site_fract_y
_atom_site_fract_z
Si Si1 0.156417 0.249496 0.108298
Si Si2 0.809990 0.762783 0.536554
Si Si3 0.816659 0.062367 0.647183
Si Si4 0.081231 0.594470 0.023460
Si Si5 0.423866 0.311838 0.839824
Si Si6 0.922709 0.858318 0.141415
O O1 0.162327 0.213527 0.287630
O O2 0.232225 0.273779 0.039631
O O3 0.114324 0.337805 0.099193
O O4 0.120119 0.172212 0.013587
O O5 0.805527 0.843999 0.422601
O O6 0.862507 0.690306 0.470085
O O7 0.750000 0.032225 0.750000
O O8 0.882337 0.064644 0.768901
O O9 0.831871 0.000000 0.500000
O O10 0.096846 0.619332 0.206378
O O11 0.000000 0.596079 0.985253
O O12 0.112522 0.500000 0.000000
O O13 0.500000 0.334455 0.915396
O O14 0.430230 0.219727 0.761364
O O15 0.000000 0.890071 0.091205
#
# Coordination Sequence:
#
# PCOD8219274 Si02
#       6
#     8   8   8   8   8   8
#     4  10  19  34  55  81 112 149 193 235 276 339
#     4  10  21  35  54  83 112 146 195 237 276 340
#     4  11  23  37  60  84 114 149 186 239 292 346
#     4   9  18  34  56  81 111 148 187 230 286 344
#     4   8  16  31  53  79 107 143 185 226 272 328
#     4   9  18  35  57  81 110 149 190 228 279 339
#
# _framework density 19.043429
#
# number of rings (size 3 to 8) (size 9 to 14) (size 15 to 20)
#    0.000    2.500    1.667    1.500    2.333    1.667 
#    0.000    4.167    0.000    6.500    0.000    0.000 
#    0.000    0.000    0.000    0.000    0.000    0.000 
#
# Total GULP energy -594990.397515 kJ/mol
# GULP energy per Si atom -12395.633282 kJ/mol
# Density = 1.900009 g / cm^3
# Si number density = 19.043429 Si / 1000 Ang^3
#
#
#
# Elastic Constant Matrix: (Units=GPa)
#
#
# Indices 1 2 3 4 5 6 
#
# 1 131.3688 22.3685 60.7390 0.0000 0.0000 0.0000
# 2 22.3685 58.3596 19.3535 0.0000 0.0000 0.0000
# 3 60.7390 19.3535 79.4716 0.0000 0.0000 0.0000
# 4 0.0000 0.0000 0.0000 25.2242 0.0000 0.0000
# 5 0.0000 0.0000 0.0000 0.0000 28.0316 0.0000
# 6 0.0000 0.0000 0.0000 0.0000 0.0000 18.5103
#
#
#
# Elastic Compliance Matrix: (Units=1/GPa)
#
#
# Indices 1 2 3 4 5 6 
#
# 1 0.011922 -0.001684 -0.008702 0.000000 0.000000 0.000000
# 2 -0.001684 0.018878 -0.003310 0.000000 0.000000 0.000000
# 3 -0.008702 -0.003310 0.020040 0.000000 0.000000 0.000000
# 4 0.000000 0.000000 0.000000 0.039645 0.000000 0.000000
# 5 0.000000 0.000000 0.000000 0.000000 0.035674 0.000000
# 6 0.000000 0.000000 0.000000 0.000000 0.000000 0.054024
#
#
# Mechanical properties :
#
#
# Convention : Reuss Voigt Hill
#
# Bulk Modulus (GPa) = 42.64722 52.68023 47.66373
# Shear Modulus (GPa) = 23.21349 25.46914 24.34131
#
# Velocity S-wave (km/s) = 3.49517 3.66105 3.57907
# Velocity P-wave (km/s) = 6.22347 6.75235 6.49330
#
# Compressibility (1/GPa) = 0.02344819
#
# Stress axis : x y z
#
# Youngs Moduli (GPa) = 83.87667 52.97061 49.90000
#
# Poissons Ratio (x) = 0.08919 0.43423
# Poissons Ratio (y) = 0.14124 0.16519
# Poissons Ratio (z) = 0.72989 0.17536
#
# Static dielectric constant tensor:
#      x y z
#    x 3.933060 0.000000 0.000000 
#    y 0.000000 3.264340 0.000000 
#    z 0.000000 0.000000 3.479280 
# 
# 
# High freq. dielectric constant tensor:
#      x y z
#    x 1.753010 0.000000 0.000000 
#    y 0.000000 1.705210 0.000000 
#    z 0.000000 0.000000 1.735540 
# 
# From -- ./inp_files/9919.got.cif
#   From: 2010.03.12/outbox.cif.g09.slc.cpg/sg53_5_cif.got.tgz:9919.got - 2010.04.16 14:36:59.
