data_PCOD8219729
_publ_section_title
;
Structure prediction by ZEFSAII (Michael W. Deem and Ramdas Pophale) SiO2 
 PCOD8219729
Probable space group: P M N A
;
_chemical_formula_sum "Si O2"
_cell_formula_units_Z 48
_cell_length_a 8.899123
_cell_length_b 15.296950
_cell_length_c 19.968327
_cell_angle_alpha 90.000000
_cell_angle_beta 90.000000
_cell_angle_gamma 90.000000
_cell_volume 2718.277164
_symmetry_space_group_name_H-M "P M N A"
_symmetry_group_IT_number 53
_symmetry_cell_setting 'orthorhombic'
loop_
_space_group_symop_operation_xyz
x,y,z
1/2-x,-y,1/2+z
x,-y,-z
1/2-x,y,1/2-z
-x,-y,-z
1/2+x,y,1/2-z
-x,y,z
1/2+x,-y,1/2+z
loop_
_atom_site_type_symbol
_atom_site_label
_atom_site_fract_x
_atom_site_fract_y
_atom_site_fract_z
Si Si1 0.323573 0.398523 0.318454
Si Si2 0.327150 0.915562 0.932751
Si Si3 0.826856 0.078598 0.925867
Si Si4 0.676389 0.597878 0.318157
Si Si5 0.324100 0.271088 0.567801
Si Si6 0.326833 0.277316 0.075025
O O1 0.250000 0.363790 0.250000
O O2 0.500000 0.389497 0.310498
O O3 0.274283 0.498256 0.332538
O O4 0.271087 0.341216 0.380429
O O5 0.500000 0.928167 0.954005
O O6 0.306842 0.822022 0.896357
O O7 0.270879 0.000754 0.889764
O O8 0.219392 0.915392 0.996688
O O9 0.795615 0.176028 0.897345
O O10 0.000000 0.053137 0.918498
O O11 0.750000 0.632769 0.250000
O O12 0.500000 0.606488 0.309184
O O13 0.732364 0.656438 0.379900
O O14 0.500000 0.281830 0.549580
O O15 0.226907 0.283837 0.501300
O O16 0.500000 0.306020 0.078355
#
# Coordination Sequence:
#
# PCOD8219729 Si02
#       6
#     8   8   8   8   8   8
#     4  10  20  35  54  72  94 126 161 198 240 288
#     4   9  16  26  41  63  94 126 155 191 234 279
#     4   9  15  24  42  66  92 123 158 193 231 279
#     4   9  19  35  53  72  95 126 162 197 238 289
#     4   9  18  32  49  72 101 129 159 197 241 286
#     4  10  20  32  48  73 101 128 161 200 241 283
#
# _framework density 17.658242999999999
#
# number of rings (size 3 to 8) (size 9 to 14) (size 15 to 20)
#    0.000    2.667    0.000    3.000    0.000    4.667 
#    0.000    3.333    0.000    1.000    0.000    4.667 
#    0.000    0.000    0.000    0.000    0.000    0.000 
#
# Total GULP energy -594830.306678 kJ/mol
# GULP energy per Si atom -12392.298056 kJ/mol
# Density = 1.761805 g / cm^3
# Si number density = 17.658243 Si / 1000 Ang^3
#
#
#
# Elastic Constant Matrix: (Units=GPa)
#
#
# Indices 1 2 3 4 5 6 
#
# 1 56.9761 39.6531 27.0611 0.0000 0.0000 0.0000
# 2 39.6531 113.8051 52.2904 0.0000 0.0000 0.0000
# 3 27.0611 52.2904 64.8337 0.0000 0.0000 0.0000
# 4 0.0000 0.0000 0.0000 1.1814 0.0000 0.0000
# 5 0.0000 0.0000 0.0000 0.0000 24.0601 0.0000
# 6 0.0000 0.0000 0.0000 0.0000 0.0000 26.9109
#
#
#
# Elastic Compliance Matrix: (Units=1/GPa)
#
#
# Indices 1 2 3 4 5 6 
#
# 1 0.024246 -0.006034 -0.005253 0.000000 0.000000 0.000000
# 2 -0.006034 0.015462 -0.009952 0.000000 0.000000 0.000000
# 3 -0.005253 -0.009952 0.025643 0.000000 0.000000 0.000000
# 4 0.000000 0.000000 0.000000 0.846419 0.000000 0.000000
# 5 0.000000 0.000000 0.000000 0.000000 0.041563 0.000000
# 6 0.000000 0.000000 0.000000 0.000000 0.000000 0.037160
#
#
# Mechanical properties :
#
#
# Convention : Reuss Voigt Hill
#
# Bulk Modulus (GPa) = 43.72099 52.62491 48.17295
# Shear Modulus (GPa) = 4.80494 18.20449 11.50472
#
# Velocity S-wave (km/s) = 1.65136 3.21430 2.55526
# Velocity P-wave (km/s) = 5.33378 6.60623 6.00381
#
# Compressibility (1/GPa) = 0.02287231
#
# Stress axis : x y z
#
# Youngs Moduli (GPa) = 41.24414 64.67397 38.99644
#
# Poissons Ratio (x) = 0.39026 0.20486
# Poissons Ratio (y) = 0.24888 0.38809
# Poissons Ratio (z) = 0.21666 0.64364
#
# Static dielectric constant tensor:
#      x y z
#    x 3.302870 0.000000 0.000000 
#    y 0.000000 4.069930 0.000000 
#    z 0.000000 0.000000 2.858570 
# 
# 
# High freq. dielectric constant tensor:
#      x y z
#    x 1.693200 0.000000 0.000000 
#    y 0.000000 1.704290 0.000000 
#    z 0.000000 0.000000 1.627310 
# 
# From -- ./inp_files/30523.got.cif
#   From: 2010.03.12/outbox.cif.g09.slc.cpg/sg53_16_cif.got.tgz:30523.got - 2010.04.16 14:36:59.
