data_PCOD8219579
_publ_section_title
;
Structure prediction by ZEFSAII (Michael W. Deem and Ramdas Pophale) SiO2 
 PCOD8219579
Probable space group: P M N A
;
_chemical_formula_sum "Si O2"
_cell_formula_units_Z 64
_cell_length_a 18.111523
_cell_length_b 11.978662
_cell_length_c 14.473829
_cell_angle_alpha 90.000000
_cell_angle_beta 90.000000
_cell_angle_gamma 90.000000
_cell_volume 3140.123433
_symmetry_space_group_name_H-M "P M N A"
_symmetry_group_IT_number 53
_symmetry_cell_setting 'orthorhombic'
loop_
_space_group_symop_operation_xyz
x,y,z
1/2-x,-y,1/2+z
x,-y,-z
1/2-x,y,1/2-z
-x,-y,-z
1/2+x,y,1/2-z
-x,y,z
1/2+x,-y,1/2+z
loop_
_atom_site_type_symbol
_atom_site_label
_atom_site_fract_x
_atom_site_fract_y
_atom_site_fract_z
Si Si1 0.083660 0.615595 0.890393
Si Si2 0.419024 0.403782 0.727968
Si Si3 0.694022 0.707749 0.832461
Si Si4 0.721886 0.371778 0.502640
Si Si5 0.806739 0.228234 0.828027
Si Si6 0.917145 0.834008 0.766289
Si Si7 0.581676 0.466411 0.098659
Si Si8 0.915864 0.957179 0.103165
O O1 0.111309 0.510075 0.830036
O O2 0.092098 0.726705 0.830886
O O3 0.000000 0.601383 0.924902
O O4 0.134125 0.625037 0.981500
O O5 0.500000 0.373187 0.689543
O O6 0.367218 0.298732 0.724655
O O7 0.424557 0.425799 0.837236
O O8 0.750000 0.676943 0.750000
O O9 0.648027 0.822717 0.811320
O O10 0.630882 0.616306 0.842298
O O11 0.739009 0.708893 0.927721
O O12 0.752598 0.500000 0.500000
O O13 0.735139 0.310826 0.600181
O O14 0.750000 0.182673 0.750000
O O15 0.850503 0.130550 0.879921
O O16 0.000000 0.837076 0.723101
O O17 0.902299 0.943705 0.825076
O O18 0.500000 0.413357 0.082895
O O19 0.616868 0.500000 0.000000
O O20 0.000000 0.909623 0.114844
O O21 0.905381 0.000000 0.000000
#
# Coordination Sequence:
#
# PCOD8219579 Si02
#       8
#     8   8   8   8   8   8   8   8
#     4  10  19  36  61  94 125 156 207 269 323 378
#     4  10  20  37  62  90 129 171 209 262 322 385
#     4  12  23  35  60  93 126 164 203 265 317 374
#     4  12  25  38  57  94 132 176 217 252 319 391
#     4  12  28  43  61  92 137 177 206 255 326 395
#     4  10  20  39  68  93 118 157 209 265 321 371
#     4  10  21  37  58  86 123 172 223 260 299 365
#     4  10  23  47  76  97 121 161 218 278 323 382
#
# _framework density 20.381364000000001
#
# number of rings (size 3 to 8) (size 9 to 14) (size 15 to 20)
#    0.000    1.250    3.750    1.875    3.500    2.750 
#    0.000    0.000    0.000    0.000    0.000    1.750 
#    0.000    0.000    0.000    0.000    0.000    0.000 
#
# Total GULP energy -793168.926092 kJ/mol
# GULP energy per Si atom -12393.264470 kJ/mol
# Density = 2.033498 g / cm^3
# Si number density = 20.381364 Si / 1000 Ang^3
#
#
#
# Elastic Constant Matrix: (Units=GPa)
#
#
# Indices 1 2 3 4 5 6 
#
# 1 109.1916 38.3836 48.8791 0.0000 0.0000 0.0000
# 2 38.3836 80.3218 28.8747 0.0000 0.0000 0.0000
# 3 48.8791 28.8747 108.0828 0.0000 0.0000 0.0000
# 4 0.0000 0.0000 0.0000 25.6052 0.0000 0.0000
# 5 0.0000 0.0000 0.0000 0.0000 13.3964 0.0000
# 6 0.0000 0.0000 0.0000 0.0000 0.0000 43.7175
#
#
#
# Elastic Compliance Matrix: (Units=1/GPa)
#
#
# Indices 1 2 3 4 5 6 
#
# 1 0.012779 -0.004457 -0.004588 0.000000 0.000000 0.000000
# 2 -0.004457 0.015327 -0.002079 0.000000 0.000000 0.000000
# 3 -0.004588 -0.002079 0.011883 0.000000 0.000000 0.000000
# 4 0.000000 0.000000 0.000000 0.039055 0.000000 0.000000
# 5 0.000000 0.000000 0.000000 0.000000 0.074647 0.000000
# 6 0.000000 0.000000 0.000000 0.000000 0.000000 0.022874
#
#
# Mechanical properties :
#
#
# Convention : Reuss Voigt Hill
#
# Bulk Modulus (GPa) = 56.37097 58.87459 57.62278
# Shear Modulus (GPa) = 24.42275 28.64107 26.53191
#
# Velocity S-wave (km/s) = 3.46539 3.75274 3.61192
# Velocity P-wave (km/s) = 6.61287 6.90845 6.76227
#
# Compressibility (1/GPa) = 0.01773963
#
# Stress axis : x y z
#
# Youngs Moduli (GPa) = 78.25317 65.24303 84.15658
#
# Poissons Ratio (x) = 0.29081 0.38614
# Poissons Ratio (y) = 0.34880 0.17496
# Poissons Ratio (z) = 0.35906 0.13564
#
# Static dielectric constant tensor:
#      x y z
#    x 4.054450 0.000000 0.000000 
#    y 0.000000 3.484690 0.000000 
#    z 0.000000 0.000000 3.747200 
# 
# 
# High freq. dielectric constant tensor:
#      x y z
#    x 1.815960 0.000000 0.000000 
#    y 0.000000 1.761010 0.000000 
#    z 0.000000 0.000000 1.792720 
# 
# From -- ./inp_files/23906.got.cif
#   From: 2010.03.12/outbox.cif.g09.slc.cpg/sg53_12_cif.got.tgz:23906.got - 2010.04.16 14:36:59.
