data_PCOD8219993
_publ_section_title
;
Structure prediction by ZEFSAII (Michael W. Deem and Ramdas Pophale) SiO2 
 PCOD8219993
Probable space group: P M N A
;
_chemical_formula_sum "Si O2"
_cell_formula_units_Z 56
_cell_length_a 9.167741
_cell_length_b 18.067351
_cell_length_c 17.995687
_cell_angle_alpha 90.000000
_cell_angle_beta 90.000000
_cell_angle_gamma 90.000000
_cell_volume 2980.747910
_symmetry_space_group_name_H-M "P M N A"
_symmetry_group_IT_number 53
_symmetry_cell_setting 'orthorhombic'
loop_
_space_group_symop_operation_xyz
x,y,z
1/2-x,-y,1/2+z
x,-y,-z
1/2-x,y,1/2-z
-x,-y,-z
1/2+x,y,1/2-z
-x,y,z
1/2+x,-y,1/2+z
loop_
_atom_site_type_symbol
_atom_site_label
_atom_site_fract_x
_atom_site_fract_y
_atom_site_fract_z
Si Si1 0.168737 0.867885 0.442997
Si Si2 0.169022 0.994779 0.322523
Si Si3 0.335209 0.585414 0.084742
Si Si4 0.336883 0.275720 0.577193
Si Si5 0.339991 0.287277 0.400915
Si Si6 0.825013 0.876051 0.903405
Si Si7 0.662506 0.423626 0.091693
O O1 0.183365 0.935051 0.386759
O O2 0.237763 0.795386 0.404402
O O3 0.257129 0.891686 0.515872
O O4 0.000000 0.852039 0.463427
O O5 0.250000 0.962868 0.250000
O O6 0.000000 0.012814 0.305800
O O7 0.254095 0.069088 0.344596
O O8 0.500000 0.596967 0.114061
O O9 0.233598 0.651439 0.115622
O O10 0.272804 0.505217 0.111462
O O11 0.336590 0.587342 0.996128
O O12 0.500000 0.264118 0.609253
O O13 0.343567 0.287556 0.489635
O O14 0.500000 0.299560 0.368080
O O15 0.281001 0.206752 0.376029
O O16 0.247306 0.355991 0.369316
O O17 0.000000 0.885195 0.908503
O O18 0.500000 0.419759 0.123058
#
# Coordination Sequence:
#
# PCOD8219993 Si02
#       7
#     8   8   8   8   8   8   8
#     4  10  20  34  52  74  99 128 164 203 244 291
#     4  11  24  39  55  75  99 128 161 200 247 296
#     4   8  13  21  32  50  80 117 154 191 232 277
#     4   9  16  25  39  61  87 119 158 196 237 282
#     4   8  15  25  37  58  87 118 153 192 233 276
#     4  10  20  34  53  76 101 130 164 202 244 290
#     4   8  13  20  32  51  78 116 156 190 229 276
#
# _framework density 18.787230000000001
#
# number of rings (size 3 to 8) (size 9 to 14) (size 15 to 20)
#    0.000    2.857    0.000    3.857    0.000    8.571 
#    0.000    2.857    0.000    0.000    0.000    0.000 
#    0.000    1.143    0.000    6.286    0.000    8.857 
#
# Total GULP energy -694016.119297 kJ/mol
# GULP energy per Si atom -12393.144987 kJ/mol
# Density = 1.874447 g / cm^3
# Si number density = 18.787230 Si / 1000 Ang^3
#
#
#
# Elastic Constant Matrix: (Units=GPa)
#
#
# Indices 1 2 3 4 5 6 
#
# 1 115.4058 56.0565 16.1651 0.0000 0.0000 0.0000
# 2 56.0565 116.1145 5.9368 0.0000 0.0000 0.0000
# 3 16.1651 5.9368 19.5858 0.0000 0.0000 0.0000
# 4 0.0000 0.0000 0.0000 0.8901 0.0000 0.0000
# 5 0.0000 0.0000 0.0000 0.0000 14.9351 0.0000
# 6 0.0000 0.0000 0.0000 0.0000 0.0000 34.5559
#
#
#
# Elastic Compliance Matrix: (Units=1/GPa)
#
#
# Indices 1 2 3 4 5 6 
#
# 1 0.012631 -0.005652 -0.008711 0.000000 0.000000 0.000000
# 2 -0.005652 0.011277 0.001247 0.000000 0.000000 0.000000
# 3 -0.008711 0.001247 0.057869 0.000000 0.000000 0.000000
# 4 0.000000 0.000000 0.000000 1.123425 0.000000 0.000000
# 5 0.000000 0.000000 0.000000 0.000000 0.066956 0.000000
# 6 0.000000 0.000000 0.000000 0.000000 0.000000 0.028939
#
#
# Mechanical properties :
#
#
# Convention : Reuss Voigt Hill
#
# Bulk Modulus (GPa) = 18.00392 45.26920 31.63656
# Shear Modulus (GPa) = 3.71514 21.60608 12.66061
#
# Velocity S-wave (km/s) = 1.40775 3.39490 2.59876
# Velocity P-wave (km/s) = 3.49946 6.28611 5.08731
#
# Compressibility (1/GPa) = 0.05554347
#
# Stress axis : x y z
#
# Youngs Moduli (GPa) = 79.17125 88.67430 17.28028
#
# Poissons Ratio (x) = 0.50122 0.15054
# Poissons Ratio (y) = 0.44751 -0.02155
# Poissons Ratio (z) = 0.68970 -0.11056
#
# Static dielectric constant tensor:
#      x y z
#    x 3.729360 0.000000 0.000000 
#    y 0.000000 3.860560 0.000000 
#    z 0.000000 0.000000 2.763400 
# 
# 
# High freq. dielectric constant tensor:
#      x y z
#    x 1.737490 0.000000 0.000000 
#    y 0.000000 1.750220 0.000000 
#    z 0.000000 0.000000 1.652620 
# 
# From -- ./inp_files/31070.got.cif
#   From: 2010.03.12/outbox.cif.g09.slc.cpg/sg53_16_cif.got.tgz:31070.got - 2010.04.16 14:36:59.
