data_PCOD8219639
_publ_section_title
;
Structure prediction by ZEFSAII (Michael W. Deem and Ramdas Pophale) SiO2 
 PCOD8219639
Probable space group: P M N A
;
_chemical_formula_sum "Si O2"
_cell_formula_units_Z 64
_cell_length_a 8.789773
_cell_length_b 14.724145
_cell_length_c 25.080908
_cell_angle_alpha 90.000000
_cell_angle_beta 90.000000
_cell_angle_gamma 90.000000
_cell_volume 3246.018571
_symmetry_space_group_name_H-M "P M N A"
_symmetry_group_IT_number 53
_symmetry_cell_setting 'orthorhombic'
loop_
_space_group_symop_operation_xyz
x,y,z
1/2-x,-y,1/2+z
x,-y,-z
1/2-x,y,1/2-z
-x,-y,-z
1/2+x,y,1/2-z
-x,y,z
1/2+x,-y,1/2+z
loop_
_atom_site_type_symbol
_atom_site_label
_atom_site_fract_x
_atom_site_fract_y
_atom_site_fract_z
Si Si1 0.677199 0.986502 0.654981
Si Si2 0.324326 0.231140 0.480368
Si Si3 0.169837 0.942877 0.552850
Si Si4 0.821522 0.286368 0.905803
Si Si5 0.179866 0.787239 0.806264
Si Si6 0.321640 0.343427 0.105034
Si Si7 0.821571 0.180171 0.804263
Si Si8 0.680704 0.485029 0.561608
O O1 0.500000 0.985313 0.640051
O O2 0.775150 0.003840 0.601844
O O3 0.728079 0.891628 0.681917
O O4 0.716702 0.072782 0.691691
O O5 0.500000 0.259258 0.471817
O O6 0.292680 0.136671 0.451536
O O7 0.282863 0.224321 0.542735
O O8 0.218109 0.306409 0.453648
O O9 0.000000 0.904099 0.563420
O O10 0.170896 0.000000 0.500000
O O11 0.749841 0.237868 0.853632
O O12 0.760197 0.387394 0.917401
O O13 0.000000 0.291268 0.897321
O O14 0.250000 0.757938 0.750000
O O15 0.241255 0.718752 0.850760
O O16 0.000000 0.777613 0.803660
O O17 0.500000 0.343305 0.116154
O O18 0.257963 0.445715 0.103516
O O19 0.750000 0.218221 0.750000
O O20 0.000000 0.195928 0.801988
O O21 0.731989 0.500000 0.500000
O O22 0.500000 0.494607 0.565704
#
# Coordination Sequence:
#
# PCOD8219639 Si02
#       8
#     8   8   8   8   8   8   8   8
#     4  10  21  37  59  84 114 156 204 244 288 351
#     4  11  20  36  60  85 115 155 198 241 296 361
#     4  11  23  35  50  81 123 161 197 243 300 354
#     4   9  19  36  61  88 115 151 198 247 296 355
#     4  11  23  40  62  88 118 159 204 247 296 353
#     4  12  24  38  58  89 125 157 193 246 303 359
#     4  10  21  39  60  86 116 152 198 245 293 344
#     4  10  19  37  63  88 117 157 202 246 298 362
#
# _framework density 19.716463000000001
#
# number of rings (size 3 to 8) (size 9 to 14) (size 15 to 20)
#    0.000    1.500    2.500    3.375    0.000    3.250 
#    0.000    2.500    0.000    1.500    0.000    0.000 
#    0.000    0.000    0.000    0.000    0.000    0.000 
#
# Total GULP energy -793521.960602 kJ/mol
# GULP energy per Si atom -12398.780634 kJ/mol
# Density = 1.967159 g / cm^3
# Si number density = 19.716463 Si / 1000 Ang^3
#
#
#
# Elastic Constant Matrix: (Units=GPa)
#
#
# Indices 1 2 3 4 5 6 
#
# 1 59.3505 29.1133 35.8531 0.0000 0.0000 0.0000
# 2 29.1133 97.2315 45.1602 0.0000 0.0000 0.0000
# 3 35.8531 45.1602 131.9830 0.0000 0.0000 0.0000
# 4 0.0000 0.0000 0.0000 23.6108 0.0000 0.0000
# 5 0.0000 0.0000 0.0000 0.0000 27.6034 0.0000
# 6 0.0000 0.0000 0.0000 0.0000 0.0000 16.8858
#
#
#
# Elastic Compliance Matrix: (Units=1/GPa)
#
#
# Indices 1 2 3 4 5 6 
#
# 1 0.021673 -0.004464 -0.004360 0.000000 0.000000 0.000000
# 2 -0.004464 0.013148 -0.003286 0.000000 0.000000 0.000000
# 3 -0.004360 -0.003286 0.009885 0.000000 0.000000 0.000000
# 4 0.000000 0.000000 0.000000 0.042354 0.000000 0.000000
# 5 0.000000 0.000000 0.000000 0.000000 0.036227 0.000000
# 6 0.000000 0.000000 0.000000 0.000000 0.000000 0.059221
#
#
# Mechanical properties :
#
#
# Convention : Reuss Voigt Hill
#
# Bulk Modulus (GPa) = 48.81491 56.53534 52.67512
# Shear Modulus (GPa) = 23.41299 25.51590 24.46444
#
# Velocity S-wave (km/s) = 3.44973 3.60132 3.52634
# Velocity P-wave (km/s) = 6.37806 6.78448 6.58441
#
# Compressibility (1/GPa) = 0.02048555
#
# Stress axis : x y z
#
# Youngs Moduli (GPa) = 46.14108 76.05927 101.15901
#
# Poissons Ratio (x) = 0.33955 0.44104
# Poissons Ratio (y) = 0.20599 0.33240
# Poissons Ratio (z) = 0.20117 0.24993
#
# Static dielectric constant tensor:
#      x y z
#    x 3.473400 0.000000 0.000000 
#    y 0.000000 3.860740 0.000000 
#    z 0.000000 0.000000 3.712850 
# 
# 
# High freq. dielectric constant tensor:
#      x y z
#    x 1.752820 0.000000 0.000000 
#    y 0.000000 1.767460 0.000000 
#    z 0.000000 0.000000 1.768590 
# 
# From -- ./inp_files/34152.got.cif
#   From: 2010.03.12/outbox.cif.g09.slc.cpg/sg53_18_cif.got.tgz:34152.got - 2010.04.16 14:36:59.
