data_PCOD8219333
_publ_section_title
;
Structure prediction by ZEFSAII (Michael W. Deem and Ramdas Pophale) SiO2 
 PCOD8219333
Probable space group: P M N A
;
_chemical_formula_sum "Si O2"
_cell_formula_units_Z 64
_cell_length_a 9.330135
_cell_length_b 18.171768
_cell_length_c 19.555404
_cell_angle_alpha 90.000000
_cell_angle_beta 90.000000
_cell_angle_gamma 90.000000
_cell_volume 3315.521922
_symmetry_space_group_name_H-M "P M N A"
_symmetry_group_IT_number 53
_symmetry_cell_setting 'orthorhombic'
loop_
_space_group_symop_operation_xyz
x,y,z
1/2-x,-y,1/2+z
x,-y,-z
1/2-x,y,1/2-z
-x,-y,-z
1/2+x,y,1/2-z
-x,y,z
1/2+x,-y,1/2+z
loop_
_atom_site_type_symbol
_atom_site_label
_atom_site_fract_x
_atom_site_fract_y
_atom_site_fract_z
Si Si1 0.165012 0.754831 0.815640
Si Si2 0.343474 0.739661 0.190395
Si Si3 0.168642 0.074838 0.182273
Si Si4 0.167867 0.287131 0.036503
Si Si5 0.168059 0.813218 0.443471
Si Si6 0.338270 0.021737 0.921913
Si Si7 0.664821 0.430009 0.547697
Si Si8 0.338848 0.567568 0.186187
O O1 0.250000 0.724294 0.750000
O O2 0.203577 0.839657 0.831162
O O3 0.204068 0.706249 0.882610
O O4 0.000000 0.746608 0.796485
O O5 0.250000 0.776379 0.250000
O O6 0.500000 0.776301 0.195925
O O7 0.280275 0.757871 0.116267
O O8 0.352456 0.653320 0.200702
O O9 0.250000 0.047402 0.250000
O O10 0.000000 0.060494 0.190283
O O11 0.227749 0.028290 0.119049
O O12 0.000000 0.274363 0.026535
O O13 0.247379 0.213896 0.010035
O O14 0.220224 0.359792 0.995983
O O15 0.212666 0.893877 0.418480
O O16 0.000000 0.808732 0.460481
O O17 0.500000 0.012019 0.892818
O O18 0.333911 0.000000 0.000000
O O19 0.681336 0.500000 0.500000
O O20 0.500000 0.418374 0.570433
O O21 0.758803 0.445142 0.614671
O O22 0.250000 0.532076 0.250000
O O23 0.500000 0.533420 0.183072
#
# Coordination Sequence:
#
# PCOD8219333 Si02
#       8
#     8   8   8   8   8   8   8   8
#     4   9  19  35  55  80 104 134 176 222 270 320
#     4   9  18  31  48  72 101 132 168 214 257 303
#     4  10  20  35  55  76 104 139 179 224 270 323
#     4  10  20  35  56  80 107 138 178 224 269 322
#     4  10  20  34  51  75 106 138 177 223 268 316
#     4  10  21  35  51  74 106 142 178 219 270 324
#     4  10  21  37  57  83 116 151 182 221 274 328
#     4  10  19  34  57  82 110 144 183 222 262 315
#
# _framework density 19.303144
#
# number of rings (size 3 to 8) (size 9 to 14) (size 15 to 20)
#    0.000    2.250    1.250    1.500    0.000    3.500 
#    0.000    1.875    0.000    1.500    0.000    0.000 
#    0.000    0.000    0.000    0.000    0.000    0.000 
#
# Total GULP energy -793488.144178 kJ/mol
# GULP energy per Si atom -12398.252253 kJ/mol
# Density = 1.925921 g / cm^3
# Si number density = 19.303144 Si / 1000 Ang^3
#
#
#
# Elastic Constant Matrix: (Units=GPa)
#
#
# Indices 1 2 3 4 5 6 
#
# 1 87.7223 25.6890 63.7306 0.0000 0.0000 0.0000
# 2 25.6890 40.4875 25.0529 0.0000 0.0000 0.0000
# 3 63.7306 25.0529 128.0703 0.0000 0.0000 0.0000
# 4 0.0000 0.0000 0.0000 21.4278 0.0000 0.0000
# 5 0.0000 0.0000 0.0000 0.0000 42.0325 0.0000
# 6 0.0000 0.0000 0.0000 0.0000 0.0000 16.7211
#
#
#
# Elastic Compliance Matrix: (Units=1/GPa)
#
#
# Indices 1 2 3 4 5 6 
#
# 1 0.019571 -0.007272 -0.008317 0.000000 0.000000 0.000000
# 2 -0.007272 0.030802 -0.002407 0.000000 0.000000 0.000000
# 3 -0.008317 -0.002407 0.012418 0.000000 0.000000 0.000000
# 4 0.000000 0.000000 0.000000 0.046668 0.000000 0.000000
# 5 0.000000 0.000000 0.000000 0.000000 0.023791 0.000000
# 6 0.000000 0.000000 0.000000 0.000000 0.000000 0.059805
#
#
# Mechanical properties :
#
#
# Convention : Reuss Voigt Hill
#
# Bulk Modulus (GPa) = 37.31260 53.91389 45.61325
# Shear Modulus (GPa) = 21.01030 25.49013 23.25022
#
# Velocity S-wave (km/s) = 3.30273 3.63783 3.47432
# Velocity P-wave (km/s) = 5.82373 6.75543 6.30681
#
# Compressibility (1/GPa) = 0.02680060
#
# Stress axis : x y z
#
# Youngs Moduli (GPa) = 51.09600 32.46531 80.53127
#
# Poissons Ratio (x) = 0.23607 0.66974
# Poissons Ratio (y) = 0.37155 0.19384
# Poissons Ratio (z) = 0.42494 0.07814
#
# Static dielectric constant tensor:
#      x y z
#    x 3.665330 0.000000 0.000000 
#    y 0.000000 3.490330 0.000000 
#    z 0.000000 0.000000 3.624330 
# 
# 
# High freq. dielectric constant tensor:
#      x y z
#    x 1.749460 0.000000 0.000000 
#    y 0.000000 1.726260 0.000000 
#    z 0.000000 0.000000 1.761500 
# 
# From -- ./inp_files/26877.got.cif
#   From: 2010.03.12/outbox.cif.g09.slc.cpg/sg53_14_cif.got.tgz:26877.got - 2010.04.16 14:36:59.
