data_PCOD8219299
_publ_section_title
;
Structure prediction by ZEFSAII (Michael W. Deem and Ramdas Pophale) SiO2 
 PCOD8219299
Probable space group: P M N A
;
_chemical_formula_sum "Si O2"
_cell_formula_units_Z 64
_cell_length_a 9.191823
_cell_length_b 14.678232
_cell_length_c 23.785810
_cell_angle_alpha 90.000000
_cell_angle_beta 90.000000
_cell_angle_gamma 90.000000
_cell_volume 3209.174599
_symmetry_space_group_name_H-M "P M N A"
_symmetry_group_IT_number 53
_symmetry_cell_setting 'orthorhombic'
loop_
_space_group_symop_operation_xyz
x,y,z
1/2-x,-y,1/2+z
x,-y,-z
1/2-x,y,1/2-z
-x,-y,-z
1/2+x,y,1/2-z
-x,y,z
1/2+x,-y,1/2+z
loop_
_atom_site_type_symbol
_atom_site_label
_atom_site_fract_x
_atom_site_fract_y
_atom_site_fract_z
Si Si1 0.331526 0.847452 0.115617
Si Si2 0.833599 0.230183 0.499641
Si Si3 0.834592 0.460617 0.846140
Si Si4 0.664829 0.730248 0.302940
Si Si5 0.669081 0.199227 0.126037
Si Si6 0.170779 0.017260 0.309392
Si Si7 0.826426 0.346593 0.193237
Si Si8 0.170492 0.590768 0.034054
O O1 0.500000 0.828905 0.128651
O O2 0.237182 0.764902 0.140108
O O3 0.281478 0.940975 0.145135
O O4 0.300144 0.844671 0.048558
O O5 0.802352 0.181121 0.440110
O O6 0.741569 0.322046 0.504984
O O7 0.000000 0.261565 0.503625
O O8 0.825291 0.379318 0.801047
O O9 0.765252 0.551982 0.820331
O O10 0.760930 0.427242 0.904126
O O11 0.000000 0.486122 0.860989
O O12 0.750000 0.772077 0.250000
O O13 0.500000 0.764840 0.299708
O O14 0.500000 0.223145 0.137011
O O15 0.716819 0.112002 0.162257
O O16 0.772879 0.282119 0.143269
O O17 0.250000 0.002873 0.250000
O O18 0.000000 0.013328 0.297570
O O19 0.750000 0.312260 0.250000
O O20 0.000000 0.341526 0.199970
O O21 0.000000 0.612134 0.037408
O O22 0.205477 0.500000 0.000000
#
# Coordination Sequence:
#
# PCOD8219299 Si02
#       8
#     8   8   8   8   8   8   8   8
#     4  10  21  38  59  86 116 150 190 234 286 342
#     4  10  21  37  58  86 119 150 191 240 288 341
#     4   9  19  34  52  79 112 149 190 230 281 339
#     4  11  21  35  55  80 113 150 188 232 281 338
#     4  10  22  40  60  85 116 152 192 240 292 345
#     4  10  22  40  62  86 115 150 192 238 291 350
#     4  11  22  38  59  84 115 152 195 243 292 346
#     4  10  19  34  56  80 112 155 198 235 278 338
#
# _framework density 19.942824000000002
#
# number of rings (size 3 to 8) (size 9 to 14) (size 15 to 20)
#    0.000    1.875    1.250    2.625    0.000    5.250 
#    0.000    5.625    0.000    0.000    0.000    3.500 
#    0.000    0.000    0.000    0.000    0.000    0.000 
#
# Total GULP energy -793552.679848 kJ/mol
# GULP energy per Si atom -12399.260623 kJ/mol
# Density = 1.989743 g / cm^3
# Si number density = 19.942824 Si / 1000 Ang^3
#
#
#
# Elastic Constant Matrix: (Units=GPa)
#
#
# Indices 1 2 3 4 5 6 
#
# 1 63.6361 35.9384 40.9217 0.0000 0.0000 0.0000
# 2 35.9384 99.0848 35.5806 0.0000 0.0000 0.0000
# 3 40.9217 35.5806 128.3586 0.0000 0.0000 0.0000
# 4 0.0000 0.0000 0.0000 35.8108 0.0000 0.0000
# 5 0.0000 0.0000 0.0000 0.0000 28.8306 0.0000
# 6 0.0000 0.0000 0.0000 0.0000 0.0000 25.0021
#
#
#
# Elastic Compliance Matrix: (Units=1/GPa)
#
#
# Indices 1 2 3 4 5 6 
#
# 1 0.022826 -0.006292 -0.005533 0.000000 0.000000 0.000000
# 2 -0.006292 0.012943 -0.001582 0.000000 0.000000 0.000000
# 3 -0.005533 -0.001582 0.009993 0.000000 0.000000 0.000000
# 4 0.000000 0.000000 0.000000 0.027925 0.000000 0.000000
# 5 0.000000 0.000000 0.000000 0.000000 0.034685 0.000000
# 6 0.000000 0.000000 0.000000 0.000000 0.000000 0.039997
#
#
# Mechanical properties :
#
#
# Convention : Reuss Voigt Hill
#
# Bulk Modulus (GPa) = 52.77606 57.32898 55.05252
# Shear Modulus (GPa) = 27.54863 29.83795 28.69329
#
# Velocity S-wave (km/s) = 3.72072 3.87224 3.79724
# Velocity P-wave (km/s) = 6.70668 6.98580 6.84766
#
# Compressibility (1/GPa) = 0.01894798
#
# Stress axis : x y z
#
# Youngs Moduli (GPa) = 43.81006 77.26478 100.06992
#
# Poissons Ratio (x) = 0.48616 0.55367
# Poissons Ratio (y) = 0.27566 0.15827
# Poissons Ratio (z) = 0.24239 0.12220
#
# Static dielectric constant tensor:
#      x y z
#    x 3.440750 0.000000 0.000000 
#    y 0.000000 3.565730 0.000000 
#    z 0.000000 0.000000 3.774040 
# 
# 
# High freq. dielectric constant tensor:
#      x y z
#    x 1.759400 0.000000 0.000000 
#    y 0.000000 1.774990 0.000000 
#    z 0.000000 0.000000 1.792060 
# 
# From -- ./inp_files/34216.got.cif
#   From: 2010.03.12/outbox.cif.g09.slc.cpg/sg53_18_cif.got.tgz:34216.got - 2010.04.16 14:36:59.
