data_PCOD8219349
_publ_section_title
;
Structure prediction by ZEFSAII (Michael W. Deem and Ramdas Pophale) SiO2 
 PCOD8219349
Probable space group: P M N A
;
_chemical_formula_sum "Si O2"
_cell_formula_units_Z 64
_cell_length_a 9.214347
_cell_length_b 23.492588
_cell_length_c 14.664661
_cell_angle_alpha 90.000000
_cell_angle_beta 90.000000
_cell_angle_gamma 90.000000
_cell_volume 3174.442416
_symmetry_space_group_name_H-M "P M N A"
_symmetry_group_IT_number 53
_symmetry_cell_setting 'orthorhombic'
loop_
_space_group_symop_operation_xyz
x,y,z
1/2-x,-y,1/2+z
x,-y,-z
1/2-x,y,1/2-z
-x,-y,-z
1/2+x,y,1/2-z
-x,y,z
1/2+x,-y,1/2+z
loop_
_atom_site_type_symbol
_atom_site_label
_atom_site_fract_x
_atom_site_fract_y
_atom_site_fract_z
Si Si1 0.841049 0.103613 0.831816
Si Si2 0.158217 0.235493 0.832282
Si Si3 0.331409 0.459977 0.161494
Si Si4 0.833717 0.065152 0.500151
Si Si5 0.170183 0.847459 0.654306
Si Si6 0.669082 0.411425 0.838778
Si Si7 0.326229 0.249170 0.462597
Si Si8 0.330909 0.360617 0.027622
O O1 0.750000 0.073968 0.750000
O O2 0.859652 0.169451 0.809328
O O3 0.000000 0.074523 0.836277
O O4 0.763129 0.098748 0.928313
O O5 0.250000 0.264168 0.750000
O O6 0.000000 0.264954 0.831529
O O7 0.227733 0.242186 0.932735
O O8 0.250000 0.436397 0.250000
O O9 0.500000 0.458307 0.183956
O O10 0.280651 0.524086 0.137548
O O11 0.292930 0.419457 0.077380
O O12 0.811734 0.093591 0.401242
O O13 0.000000 0.069777 0.532065
O O14 0.781903 0.000000 0.500000
O O15 0.250000 0.855964 0.750000
O O16 0.247360 0.796999 0.599597
O O17 0.000000 0.832937 0.668810
O O18 0.750000 0.387852 0.750000
O O19 0.500000 0.410653 0.818366
O O20 0.709059 0.369820 0.921728
O O21 0.500000 0.243220 0.452463
O O22 0.269996 0.311054 0.430726
O O23 0.500000 0.344468 0.040118
#
# Coordination Sequence:
#
# PCOD8219349 Si02
#       8
#     8   8   8   8   8   8   8   8
#     4  10  19  34  57  85 116 150 188 230 281 337
#     4   9  19  34  55  81 109 143 183 229 278 337
#     4   9  18  34  56  80 108 144 189 238 289 346
#     4  10  22  40  62  91 124 155 192 239 290 346
#     4  11  24  43  67  89 117 158 200 243 290 343
#     4   9  18  34  56  81 112 150 189 235 289 349
#     4  11  23  40  59  84 118 153 197 246 292 344
#     4  10  21  36  55  81 113 151 194 236 289 350
#
# _framework density 20.161021000000002
#
# number of rings (size 3 to 8) (size 9 to 14) (size 15 to 20)
#    0.000    2.125    1.250    1.500    0.000    6.250 
#    0.000    5.000    0.000    3.750    0.000    0.000 
#    0.000    0.000    0.000    0.000    0.000    0.000 
#
# Total GULP energy -793555.780383 kJ/mol
# GULP energy per Si atom -12399.309068 kJ/mol
# Density = 2.011513 g / cm^3
# Si number density = 20.161021 Si / 1000 Ang^3
#
#
#
# Elastic Constant Matrix: (Units=GPa)
#
#
# Indices 1 2 3 4 5 6 
#
# 1 91.7427 34.3466 54.9066 0.0000 0.0000 0.0000
# 2 34.3466 81.6839 26.3632 0.0000 0.0000 0.0000
# 3 54.9066 26.3632 115.2484 0.0000 0.0000 0.0000
# 4 0.0000 0.0000 0.0000 10.4282 0.0000 0.0000
# 5 0.0000 0.0000 0.0000 0.0000 36.1539 0.0000
# 6 0.0000 0.0000 0.0000 0.0000 0.0000 10.7224
#
#
#
# Elastic Compliance Matrix: (Units=1/GPa)
#
#
# Indices 1 2 3 4 5 6 
#
# 1 0.016861 -0.004856 -0.006922 0.000000 0.000000 0.000000
# 2 -0.004856 0.014616 -0.001030 0.000000 0.000000 0.000000
# 3 -0.006922 -0.001030 0.012210 0.000000 0.000000 0.000000
# 4 0.000000 0.000000 0.000000 0.095894 0.000000 0.000000
# 5 0.000000 0.000000 0.000000 0.000000 0.027660 0.000000
# 6 0.000000 0.000000 0.000000 0.000000 0.000000 0.093263
#
#
# Mechanical properties :
#
#
# Convention : Reuss Voigt Hill
#
# Bulk Modulus (GPa) = 55.33469 57.76752 56.55111
# Shear Modulus (GPa) = 17.11490 22.99814 20.05652
#
# Velocity S-wave (km/s) = 2.91677 3.38112 3.15749
# Velocity P-wave (km/s) = 6.23292 6.63008 6.43457
#
# Compressibility (1/GPa) = 0.01807184
#
# Stress axis : x y z
#
# Youngs Moduli (GPa) = 59.30999 68.41589 81.89768
#
# Poissons Ratio (x) = 0.33219 0.56690
# Poissons Ratio (y) = 0.28798 0.08438
# Poissons Ratio (z) = 0.41054 0.07049
#
# Static dielectric constant tensor:
#      x y z
#    x 3.820080 0.000000 0.000000 
#    y 0.000000 3.545140 0.000000 
#    z 0.000000 0.000000 3.705650 
# 
# 
# High freq. dielectric constant tensor:
#      x y z
#    x 1.787200 0.000000 0.000000 
#    y 0.000000 1.777620 0.000000 
#    z 0.000000 0.000000 1.787520 
# 
# From -- ./inp_files/20853.got.cif
#   From: 2010.03.12/outbox.cif.g09.slc.cpg/sg53_11_cif.got.tgz:20853.got - 2010.04.16 14:36:59.
