data_PCOD8219415
_publ_section_title
;
Structure prediction by ZEFSAII (Michael W. Deem and Ramdas Pophale) SiO2 
 PCOD8219415
Probable space group: P M N A
;
_chemical_formula_sum "Si O2"
_cell_formula_units_Z 64
_cell_length_a 9.293619
_cell_length_b 11.834486
_cell_length_c 31.074369
_cell_angle_alpha 90.000000
_cell_angle_beta 90.000000
_cell_angle_gamma 90.000000
_cell_volume 3417.720812
_symmetry_space_group_name_H-M "P M N A"
_symmetry_group_IT_number 53
_symmetry_cell_setting 'orthorhombic'
loop_
_space_group_symop_operation_xyz
x,y,z
1/2-x,-y,1/2+z
x,-y,-z
1/2-x,y,1/2-z
-x,-y,-z
1/2+x,y,1/2-z
-x,y,z
1/2+x,-y,1/2+z
loop_
_atom_site_type_symbol
_atom_site_label
_atom_site_fract_x
_atom_site_fract_y
_atom_site_fract_z
Si Si1 0.837907 0.746373 0.058480
Si Si2 0.333389 0.242228 0.708563
Si Si3 0.162999 0.113262 0.023212
Si Si4 0.164513 0.617811 0.630030
Si Si5 0.168367 0.084457 0.868636
Si Si6 0.668170 0.473538 0.951999
Si Si7 0.330532 0.502957 0.706652
Si Si8 0.165583 0.128862 0.391621
O O1 0.789588 0.854070 0.086797
O O2 0.738429 0.639387 0.067134
O O3 0.000000 0.712305 0.071941
O O4 0.829379 0.780993 0.008814
O O5 0.250000 0.198058 0.750000
O O6 0.500000 0.225892 0.718060
O O7 0.280518 0.166915 0.669080
O O8 0.296830 0.371803 0.698168
O O9 0.269507 0.141632 0.061255
O O10 0.000000 0.095634 0.040665
O O11 0.215913 0.000000 0.000000
O O12 0.203624 0.573348 0.581916
O O13 0.271186 0.568321 0.665428
O O14 0.184225 0.752200 0.632274
O O15 0.000000 0.583523 0.640926
O O16 0.000000 0.057345 0.866122
O O17 0.253013 0.967066 0.864451
O O18 0.500000 0.450510 0.955720
O O19 0.730018 0.500000 0.000000
O O20 0.250000 0.544126 0.750000
O O21 0.500000 0.526861 0.711738
O O22 0.000000 0.094605 0.395961
#
# Coordination Sequence:
#
# PCOD8219415 Si02
#       8
#     8   8   8   8   8   8   8   8
#     4  10  20  34  55  80 106 137 182 231 272 323
#     4   9  19  35  58  85 113 141 171 217 272 329
#     4  10  19  35  55  75 106 148 185 226 277 327
#     4  10  22  39  56  79 115 155 192 235 285 336
#     4  10  20  37  56  78 110 144 178 219 271 325
#     4  10  21  37  55  77 112 152 187 230 285 335
#     4  10  20  37  63  91 115 143 183 230 282 341
#     4  11  23  37  55  80 110 146 190 235 272 321
#
# _framework density 18.725929000000001
#
# number of rings (size 3 to 8) (size 9 to 14) (size 15 to 20)
#    0.000    2.000    1.250    2.250    0.000    6.000 
#    0.000    0.625    0.000    1.500    0.000    0.000 
#    0.000    0.000    0.000    0.000    0.000    0.000 
#
# Total GULP energy -793769.109657 kJ/mol
# GULP energy per Si atom -12402.642338 kJ/mol
# Density = 1.868331 g / cm^3
# Si number density = 18.725929 Si / 1000 Ang^3
#
#
#
# Elastic Constant Matrix: (Units=GPa)
#
#
# Indices 1 2 3 4 5 6 
#
# 1 79.9191 49.0523 54.4859 0.0000 0.0000 0.0000
# 2 49.0523 90.8528 38.7135 0.0000 0.0000 0.0000
# 3 54.4859 38.7135 114.5492 0.0000 0.0000 0.0000
# 4 0.0000 0.0000 0.0000 29.6902 0.0000 0.0000
# 5 0.0000 0.0000 0.0000 0.0000 33.9878 0.0000
# 6 0.0000 0.0000 0.0000 0.0000 0.0000 118.0688
#
#
#
# Elastic Compliance Matrix: (Units=1/GPa)
#
#
# Indices 1 2 3 4 5 6 
#
# 1 0.023848 -0.009395 -0.008168 0.000000 0.000000 0.000000
# 2 -0.009395 0.016560 -0.001128 0.000000 0.000000 0.000000
# 3 -0.008168 -0.001128 0.012996 0.000000 0.000000 0.000000
# 4 0.000000 0.000000 0.000000 0.033681 0.000000 0.000000
# 5 0.000000 0.000000 0.000000 0.000000 0.029422 0.000000
# 6 0.000000 0.000000 0.000000 0.000000 0.000000 0.008470
#
#
# Mechanical properties :
#
#
# Convention : Reuss Voigt Hill
#
# Bulk Modulus (GPa) = 62.41473 63.31381 62.86427
# Shear Modulus (GPa) = 29.81511 45.88731 37.85121
#
# Velocity S-wave (km/s) = 3.99455 4.95559 4.50079
# Velocity P-wave (km/s) = 7.39447 8.16260 7.78801
#
# Compressibility (1/GPa) = 0.01602186
#
# Stress axis : x y z
#
# Youngs Moduli (GPa) = 41.93234 60.38670 76.94528
#
# Poissons Ratio (x) = 0.56734 0.62850
# Poissons Ratio (y) = 0.39396 0.08678
# Poissons Ratio (z) = 0.34251 0.06810
#
# Static dielectric constant tensor:
#      x y z
#    x 3.390050 0.000000 0.000000 
#    y 0.000000 3.402780 0.000000 
#    z 0.000000 0.000000 3.437870 
# 
# 
# High freq. dielectric constant tensor:
#      x y z
#    x 1.724020 0.000000 0.000000 
#    y 0.000000 1.726100 0.000000 
#    z 0.000000 0.000000 1.723410 
# 
# From -- ./inp_files/38134.got.cif
#   From: 2010.03.12/outbox.cif.g09.slc.cpg/sg53_20_cif.got.tgz:38134.got - 2010.04.16 14:36:59.
