data_PCOD8219156
_publ_section_title
;
Structure prediction by ZEFSAII (Michael W. Deem and Ramdas Pophale) SiO2 
 PCOD8219156
Probable space group: P M N A
;
_chemical_formula_sum "Si O2"
_cell_formula_units_Z 64
_cell_length_a 8.840328
_cell_length_b 11.084634
_cell_length_c 33.612250
_cell_angle_alpha 90.000000
_cell_angle_beta 90.000000
_cell_angle_gamma 90.000000
_cell_volume 3293.724890
_symmetry_space_group_name_H-M "P M N A"
_symmetry_group_IT_number 53
_symmetry_cell_setting 'orthorhombic'
loop_
_space_group_symop_operation_xyz
x,y,z
1/2-x,-y,1/2+z
x,-y,-z
1/2-x,y,1/2-z
-x,-y,-z
1/2+x,y,1/2-z
-x,y,z
1/2+x,-y,1/2+z
loop_
_atom_site_type_symbol
_atom_site_label
_atom_site_fract_x
_atom_site_fract_y
_atom_site_fract_z
Si Si1 0.328025 0.272884 0.018031
Si Si2 0.327072 0.973498 0.939105
Si Si3 0.677130 0.844335 0.632688
Si Si4 0.179487 0.739495 0.208275
Si Si5 0.177155 0.380486 0.399340
Si Si6 0.322552 0.353895 0.870014
Si Si7 0.176590 0.779820 0.058703
Si Si8 0.324472 0.012832 0.289831
O O1 0.500000 0.305423 0.007095
O O2 0.312045 0.131535 0.028331
O O3 0.272614 0.354875 0.055005
O O4 0.227841 0.301607 0.979046
O O5 0.500000 0.018778 0.936419
O O6 0.276046 0.923636 0.896808
O O7 0.219343 0.082925 0.951436
O O8 0.500000 0.858508 0.622795
O O9 0.727446 0.705152 0.630055
O O10 0.717737 0.893121 0.676080
O O11 0.250000 0.694424 0.250000
O O12 0.243593 0.657953 0.172687
O O13 0.000000 0.724665 0.210010
O O14 0.231636 0.877406 0.199891
O O15 0.217268 0.515943 0.387993
O O16 0.000000 0.349975 0.394618
O O17 0.500000 0.335038 0.864597
O O18 0.260088 0.255738 0.900728
O O19 0.000000 0.764940 0.065658
O O20 0.250000 0.063393 0.250000
O O21 0.500000 0.006845 0.281796
#
# Coordination Sequence:
#
# PCOD8219156 Si02
#       8
#     8   8   8   8   8   8   8   8
#     4   9  19  37  57  78 107 144 184 227 277 333
#     4  10  20  35  56  80 108 145 185 224 273 334
#     4  10  19  33  55  82 111 141 176 223 278 328
#     4  10  20  37  60  87 118 147 179 222 273 330
#     4   9  21  40  59  78 104 144 191 232 272 326
#     4  11  23  40  60  81 108 147 193 235 277 327
#     4  12  24  35  52  82 115 145 182 231 283 333
#     4   9  19  33  52  81 113 142 171 210 264 325
#
# _framework density 19.430889000000001
#
# number of rings (size 3 to 8) (size 9 to 14) (size 15 to 20)
#    0.000    2.000    0.000    4.500    0.000    8.000 
#    0.000    3.125    0.000    1.500    0.000    0.000 
#    0.000    0.000    0.000    0.000    0.000    0.000 
#
# Total GULP energy -793764.850528 kJ/mol
# GULP energy per Si atom -12402.575790 kJ/mol
# Density = 1.938666 g / cm^3
# Si number density = 19.430889 Si / 1000 Ang^3
#
#
#
# Elastic Constant Matrix: (Units=GPa)
#
#
# Indices 1 2 3 4 5 6 
#
# 1 72.8294 28.9046 46.1060 0.0000 0.0000 0.0000
# 2 28.9046 52.4259 35.0827 0.0000 0.0000 0.0000
# 3 46.1060 35.0827 123.6931 0.0000 0.0000 0.0000
# 4 0.0000 0.0000 0.0000 16.4593 0.0000 0.0000
# 5 0.0000 0.0000 0.0000 0.0000 36.3975 0.0000
# 6 0.0000 0.0000 0.0000 0.0000 0.0000 15.7744
#
#
#
# Elastic Compliance Matrix: (Units=1/GPa)
#
#
# Indices 1 2 3 4 5 6 
#
# 1 0.020102 -0.007491 -0.005368 0.000000 0.000000 0.000000
# 2 -0.007491 0.026334 -0.004677 0.000000 0.000000 0.000000
# 3 -0.005368 -0.004677 0.011412 0.000000 0.000000 0.000000
# 4 0.000000 0.000000 0.000000 0.060756 0.000000 0.000000
# 5 0.000000 0.000000 0.000000 0.000000 0.027474 0.000000
# 6 0.000000 0.000000 0.000000 0.000000 0.000000 0.063394
#
#
# Mechanical properties :
#
#
# Convention : Reuss Voigt Hill
#
# Bulk Modulus (GPa) = 43.90523 52.12611 48.01567
# Shear Modulus (GPa) = 19.83047 22.98325 21.40686
#
# Velocity S-wave (km/s) = 3.19809 3.44295 3.32278
# Velocity P-wave (km/s) = 6.02343 6.53375 6.28377
#
# Compressibility (1/GPa) = 0.02277633
#
# Stress axis : x y z
#
# Youngs Moduli (GPa) = 49.74574 37.97333 87.62630
#
# Poissons Ratio (x) = 0.28445 0.47042
# Poissons Ratio (y) = 0.37263 0.40983
# Poissons Ratio (z) = 0.26706 0.17760
#
# Static dielectric constant tensor:
#      x y z
#    x 3.551590 0.000000 0.000000 
#    y 0.000000 3.474990 0.000000 
#    z 0.000000 0.000000 3.592620 
# 
# 
# High freq. dielectric constant tensor:
#      x y z
#    x 1.758600 0.000000 0.000000 
#    y 0.000000 1.740980 0.000000 
#    z 0.000000 0.000000 1.762960 
# 
# From -- ./inp_files/38206.got.cif
#   From: 2010.03.12/outbox.cif.g09.slc.cpg/sg53_20_cif.got.tgz:38206.got - 2010.04.16 14:36:59.
