data_PCOD8219970
_publ_section_title
;
Structure prediction by ZEFSAII (Michael W. Deem and Ramdas Pophale) SiO2 
 PCOD8219970
Probable space group: P M N A
;
_chemical_formula_sum "Si O2"
_cell_formula_units_Z 48
_cell_length_a 8.874852
_cell_length_b 10.398189
_cell_length_c 29.956739
_cell_angle_alpha 90.000000
_cell_angle_beta 90.000000
_cell_angle_gamma 90.000000
_cell_volume 2764.479425
_symmetry_space_group_name_H-M "P M N A"
_symmetry_group_IT_number 53
_symmetry_cell_setting 'orthorhombic'
loop_
_space_group_symop_operation_xyz
x,y,z
1/2-x,-y,1/2+z
x,-y,-z
1/2-x,y,1/2-z
-x,-y,-z
1/2+x,y,1/2-z
-x,y,z
1/2+x,-y,1/2+z
loop_
_atom_site_type_symbol
_atom_site_label
_atom_site_fract_x
_atom_site_fract_y
_atom_site_fract_z
Si Si1 0.176923 0.875460 0.976118
Si Si2 0.669070 0.286367 0.705932
Si Si3 0.678819 0.626940 0.473269
Si Si4 0.679381 0.725819 0.112899
Si Si5 0.178516 0.999685 0.112505
Si Si6 0.835232 0.981166 0.791842
O O1 0.000000 0.874537 0.984907
O O2 0.213508 0.889416 0.923504
O O3 0.242493 0.744580 0.996505
O O4 0.249004 0.000000 0.000000
O O5 0.750000 0.345260 0.750000
O O6 0.500000 0.343169 0.702588
O O7 0.759824 0.321773 0.660979
O O8 0.660999 0.134083 0.711706
O O9 0.725585 0.500000 0.500000
O O10 0.500000 0.633700 0.465471
O O11 0.760619 0.628835 0.425242
O O12 0.500000 0.725922 0.114379
O O13 0.738985 0.867448 0.099997
O O14 0.238253 0.053771 0.160150
O O15 0.000000 0.967609 0.115366
O O16 0.750000 0.918807 0.750000
O O17 0.000000 0.920593 0.789405
#
# Coordination Sequence:
#
# PCOD8219970 Si02
#       6
#     8   8   8   8   8   8
#     4   9  15  27  50  71  89 116 155 199 243 288
#     4   9  16  27  43  65  94 125 159 196 239 286
#     4  10  20  34  51  70  92 123 163 205 247 295
#     4  11  20  29  44  67  97 129 160 195 241 287
#     4   9  16  28  45  65  89 120 157 194 237 285
#     4   8  14  22  35  56  85 117 145 178 220 272
#
# _framework density 17.363123999999999
#
# number of rings (size 3 to 8) (size 9 to 14) (size 15 to 20)
#    0.000    2.667    1.667    3.000    0.000    4.333 
#    0.000    1.667    0.000    0.000    0.000    1.167 
#    0.000    2.667    0.000    0.000    0.000    1.333 
#
# Total GULP energy -594830.543910 kJ/mol
# GULP energy per Si atom -12392.302998 kJ/mol
# Density = 1.732360 g / cm^3
# Si number density = 17.363124 Si / 1000 Ang^3
#
#
#
# Elastic Constant Matrix: (Units=GPa)
#
#
# Indices 1 2 3 4 5 6 
#
# 1 80.5539 20.6324 50.8604 0.0000 0.0000 0.0000
# 2 20.6324 64.3749 51.0303 0.0000 0.0000 0.0000
# 3 50.8604 51.0303 167.7489 0.0000 0.0000 0.0000
# 4 0.0000 0.0000 0.0000 16.2443 0.0000 0.0000
# 5 0.0000 0.0000 0.0000 0.0000 30.0425 0.0000
# 6 0.0000 0.0000 0.0000 0.0000 0.0000 6.3975
#
#
#
# Elastic Compliance Matrix: (Units=1/GPa)
#
#
# Indices 1 2 3 4 5 6 
#
# 1 0.015483 -0.001636 -0.004197 0.000000 0.000000 0.000000
# 2 -0.001636 0.020643 -0.005784 0.000000 0.000000 0.000000
# 3 -0.004197 -0.005784 0.008993 0.000000 0.000000 0.000000
# 4 0.000000 0.000000 0.000000 0.061560 0.000000 0.000000
# 5 0.000000 0.000000 0.000000 0.000000 0.033286 0.000000
# 6 0.000000 0.000000 0.000000 0.000000 0.000000 0.156310
#
#
# Mechanical properties :
#
#
# Convention : Reuss Voigt Hill
#
# Bulk Modulus (GPa) = 45.68971 61.96933 53.82952
# Shear Modulus (GPa) = 15.29974 23.21386 19.25680
#
# Velocity S-wave (km/s) = 2.97166 3.66042 3.33387
# Velocity P-wave (km/s) = 6.17622 7.32342 6.77415
#
# Compressibility (1/GPa) = 0.02188677
#
# Stress axis : x y z
#
# Youngs Moduli (GPa) = 64.58822 48.44237 111.19507
#
# Poissons Ratio (x) = 0.07923 0.46666
# Poissons Ratio (y) = 0.10563 0.64314
# Poissons Ratio (z) = 0.27106 0.28018
#
# Static dielectric constant tensor:
#      x y z
#    x 3.120970 0.000000 0.000000 
#    y 0.000000 2.759870 0.000000 
#    z 0.000000 0.000000 3.647630 
# 
# 
# High freq. dielectric constant tensor:
#      x y z
#    x 1.650690 0.000000 0.000000 
#    y 0.000000 1.599300 0.000000 
#    z 0.000000 0.000000 1.697700 
# 
# From -- ./inp_files/37920.got.cif
#   From: 2010.03.12/outbox.cif.g09.slc.cpg/sg53_19_cif.got.tgz:37920.got - 2010.04.16 14:36:59.
