data_PCOD8219270
_publ_section_title
;
Structure prediction by ZEFSAII (Michael W. Deem and Ramdas Pophale) SiO2 
 PCOD8219270
Probable space group: P M N A
;
_chemical_formula_sum "Si O2"
_cell_formula_units_Z 40
_cell_length_a 8.731813
_cell_length_b 9.719561
_cell_length_c 25.526535
_cell_angle_alpha 90.000000
_cell_angle_beta 90.000000
_cell_angle_gamma 90.000000
_cell_volume 2166.421431
_symmetry_space_group_name_H-M "P M N A"
_symmetry_group_IT_number 53
_symmetry_cell_setting 'orthorhombic'
loop_
_space_group_symop_operation_xyz
x,y,z
1/2-x,-y,1/2+z
x,-y,-z
1/2-x,y,1/2-z
-x,-y,-z
1/2+x,y,1/2-z
-x,y,z
1/2+x,-y,1/2+z
loop_
_atom_site_type_symbol
_atom_site_label
_atom_site_fract_x
_atom_site_fract_y
_atom_site_fract_z
Si Si1 0.178189 0.153290 0.390831
Si Si2 0.818513 0.365919 0.694603
Si Si3 0.328245 0.836833 0.503244
Si Si4 0.819288 0.342422 0.194707
Si Si5 0.178363 0.165143 0.602536
O O1 0.223800 0.211087 0.448097
O O2 0.279558 0.228274 0.347760
O O3 0.000000 0.182410 0.380996
O O4 0.219624 0.992782 0.385916
O O5 0.750000 0.318227 0.750000
O O6 0.751970 0.512509 0.677099
O O7 0.767389 0.253875 0.651996
O O8 0.000000 0.377248 0.699546
O O9 0.500000 0.781554 0.511784
O O10 0.263532 0.776780 0.448897
O O11 0.324004 0.000000 0.500000
O O12 0.750000 0.294589 0.250000
O O13 0.000000 0.358355 0.200430
O O14 0.000000 0.182040 0.591372
#
# Coordination Sequence:
#
# PCOD8219270 Si02
#       5
#     8   8   8   8   8
#     4  10  19  34  55  79 107 138 172 212 257 305
#     4  10  20  36  55  76 103 136 173 211 257 309
#     4   9  17  30  50  77 107 138 171 209 255 305
#     4  11  22  37  55  76 103 137 175 213 258 308
#     4   9  19  34  54  79 106 137 172 211 257 308
#
# _framework density 18.463629000000001
#
# number of rings (size 3 to 8) (size 9 to 14) (size 15 to 20)
#    0.000    2.200    0.000    4.800    0.000    5.600 
#    0.000    3.000    0.000    6.000    0.000    0.000 
#    0.000    0.000    0.000    0.000    0.000    0.000 
#
# Total GULP energy -496082.482723 kJ/mol
# GULP energy per Si atom -12402.062068 kJ/mol
# Density = 1.842160 g / cm^3
# Si number density = 18.463629 Si / 1000 Ang^3
#
#
#
# Elastic Constant Matrix: (Units=GPa)
#
#
# Indices 1 2 3 4 5 6 
#
# 1 92.1009 31.4802 52.5945 0.0000 0.0000 0.0000
# 2 31.4802 59.6904 63.2234 0.0000 0.0000 0.0000
# 3 52.5945 63.2234 139.6984 0.0000 0.0000 0.0000
# 4 0.0000 0.0000 0.0000 2.1640 0.0000 0.0000
# 5 0.0000 0.0000 0.0000 0.0000 37.9423 0.0000
# 6 0.0000 0.0000 0.0000 0.0000 0.0000 18.2663
#
#
#
# Elastic Compliance Matrix: (Units=1/GPa)
#
#
# Indices 1 2 3 4 5 6 
#
# 1 0.014204 -0.003509 -0.003760 0.000000 0.000000 0.000000
# 2 -0.003509 0.033045 -0.013634 0.000000 0.000000 0.000000
# 3 -0.003760 -0.013634 0.014744 0.000000 0.000000 0.000000
# 4 0.000000 0.000000 0.000000 0.462098 0.000000 0.000000
# 5 0.000000 0.000000 0.000000 0.000000 0.026356 0.000000
# 6 0.000000 0.000000 0.000000 0.000000 0.000000 0.054746
#
#
# Mechanical properties :
#
#
# Convention : Reuss Voigt Hill
#
# Bulk Modulus (GPa) = 49.53520 65.12066 57.32793
# Shear Modulus (GPa) = 7.64846 21.28729 14.46787
#
# Velocity S-wave (km/s) = 2.03751 3.39917 2.80230
# Velocity P-wave (km/s) = 5.69403 7.12405 6.44880
#
# Compressibility (1/GPa) = 0.02018767
#
# Stress axis : x y z
#
# Youngs Moduli (GPa) = 70.40311 30.26204 67.82412
#
# Poissons Ratio (x) = 0.10619 0.25499
# Poissons Ratio (y) = 0.24705 0.92471
# Poissons Ratio (z) = 0.26468 0.41259
#
# Static dielectric constant tensor:
#      x y z
#    x 3.496760 0.000000 0.000000 
#    y 0.000000 3.192590 0.000000 
#    z 0.000000 0.000000 3.577750 
# 
# 
# High freq. dielectric constant tensor:
#      x y z
#    x 1.729730 0.000000 0.000000 
#    y 0.000000 1.688220 0.000000 
#    z 0.000000 0.000000 1.728310 
# 
# From -- ./inp_files/25849.got.cif
#   From: 2010.03.12/outbox.cif.g09.slc.cpg/sg53_13_cif.got.tgz:25849.got - 2010.04.16 14:36:59.
