data_PCOD8219636
_publ_section_title
;
Structure prediction by ZEFSAII (Michael W. Deem and Ramdas Pophale) SiO2 
 PCOD8219636
Probable space group: P M N A
;
_chemical_formula_sum "Si O2"
_cell_formula_units_Z 56
_cell_length_a 8.795572
_cell_length_b 21.140604
_cell_length_c 15.318182
_cell_angle_alpha 90.000000
_cell_angle_beta 90.000000
_cell_angle_gamma 90.000000
_cell_volume 2848.319509
_symmetry_space_group_name_H-M "P M N A"
_symmetry_group_IT_number 53
_symmetry_cell_setting 'orthorhombic'
loop_
_space_group_symop_operation_xyz
x,y,z
1/2-x,-y,1/2+z
x,-y,-z
1/2-x,y,1/2-z
-x,-y,-z
1/2+x,y,1/2-z
-x,y,z
1/2+x,-y,1/2+z
loop_
_atom_site_type_symbol
_atom_site_label
_atom_site_fract_x
_atom_site_fract_y
_atom_site_fract_z
Si Si1 0.321300 0.363163 0.339270
Si Si2 0.323512 0.292625 0.510649
Si Si3 0.324250 0.146014 0.498124
Si Si4 0.320241 0.058100 0.659021
Si Si5 0.321761 0.372667 0.838638
Si Si6 0.820028 0.923329 0.658527
Si Si7 0.822450 0.500559 0.101734
O O1 0.250000 0.337669 0.250000
O O2 0.500000 0.361186 0.329647
O O3 0.267624 0.316693 0.416297
O O4 0.265859 0.434359 0.358526
O O5 0.500000 0.309899 0.524611
O O6 0.292049 0.218669 0.518930
O O7 0.227434 0.328216 0.582786
O O8 0.500000 0.133959 0.474116
O O9 0.276502 0.107387 0.583944
O O10 0.221601 0.126233 0.416515
O O11 0.250000 0.082789 0.750000
O O12 0.500000 0.050331 0.669901
O O13 0.249099 0.991030 0.632503
O O14 0.250000 0.345396 0.750000
O O15 0.500000 0.370546 0.829216
O O16 0.270893 0.444732 0.851726
O O17 0.750000 0.899514 0.750000
O O18 0.000000 0.928993 0.668194
O O19 0.000000 0.512680 0.118139
O O20 0.784640 0.500000 0.000000
#
# Coordination Sequence:
#
# PCOD8219636 Si02
#       7
#     8   8   8   8   8   8   8
#     4  10  21  37  60  85 114 150 189 237 289 348
#     4  10  22  43  62  82 116 159 199 240 292 345
#     4  10  22  39  61  86 117 156 197 241 292 348
#     4  10  20  36  59  88 119 151 190 240 293 348
#     4  12  25  40  61  88 118 154 197 245 295 352
#     4  11  22  37  60  88 120 155 194 241 289 345
#     4  10  19  37  63  88 116 150 189 239 299 352
#
# _framework density 19.660716000000001
#
# number of rings (size 3 to 8) (size 9 to 14) (size 15 to 20)
#    0.000    1.571    1.429    4.714    0.000    7.143 
#    0.000    2.857    0.000    0.000    0.000    0.000 
#    0.000    0.000    0.000    0.000    0.000    0.000 
#
# Total GULP energy -694695.496288 kJ/mol
# GULP energy per Si atom -12405.276719 kJ/mol
# Density = 1.961597 g / cm^3
# Si number density = 19.660716 Si / 1000 Ang^3
#
#
#
# Elastic Constant Matrix: (Units=GPa)
#
#
# Indices 1 2 3 4 5 6 
#
# 1 95.2820 26.1474 44.4489 0.0000 0.0000 0.0000
# 2 26.1474 56.3099 22.1589 0.0000 0.0000 0.0000
# 3 44.4489 22.1589 106.2394 0.0000 0.0000 0.0000
# 4 0.0000 0.0000 0.0000 -9.6807 0.0000 0.0000
# 5 0.0000 0.0000 0.0000 0.0000 37.1880 0.0000
# 6 0.0000 0.0000 0.0000 0.0000 0.0000 -29.6128
#
#
#
# Elastic Compliance Matrix: (Units=1/GPa)
#
#
# Indices 1 2 3 4 5 6 
#
# 1 0.014050 -0.004587 -0.004921 0.000000 0.000000 0.000000
# 2 -0.004587 0.020845 -0.002428 0.000000 0.000000 0.000000
# 3 -0.004921 -0.002428 0.011978 0.000000 0.000000 0.000000
# 4 0.000000 0.000000 0.000000 -0.103298 0.000000 0.000000
# 5 0.000000 0.000000 0.000000 0.000000 0.026890 0.000000
# 6 0.000000 0.000000 0.000000 0.000000 0.000000 -0.033769
#
#
# Mechanical properties :
#
#
# Convention : Reuss Voigt Hill
#
# Bulk Modulus (GPa) = 43.48134 49.26019 46.37077
# Shear Modulus (GPa) = -157.41293 10.58396 -73.41448
#
# Velocity S-wave (km/s) = -8.95760 2.32271 -6.11733
# Velocity P-wave (km/s) = 9.20982 5.68356 5.12435
#
# Compressibility (1/GPa) = 0.02299837
#
# Stress axis : x y z
#
# Youngs Moduli (GPa) = 71.17492 47.97399 83.48458
#
# Poissons Ratio (x) = 0.22007 0.41086
# Poissons Ratio (y) = 0.32651 0.20273
# Poissons Ratio (z) = 0.35028 0.11650
#
# Static dielectric constant tensor:
#      x y z
#    x 3.524100 0.000000 0.000000 
#    y 0.000000 3.569190 0.000000 
#    z 0.000000 0.000000 3.707340 
# 
# 
# High freq. dielectric constant tensor:
#      x y z
#    x 1.762450 0.000000 0.000000 
#    y 0.000000 1.761880 0.000000 
#    z 0.000000 0.000000 1.782980 
# 
# From -- ./inp_files/20539.got.cif
#   From: 2010.03.12/outbox.cif.g09.slc.cpg/sg53_11_cif.got.tgz:20539.got - 2010.04.16 14:36:59.
