data_PCOD8219923
_publ_section_title
;
Structure prediction by ZEFSAII (Michael W. Deem and Ramdas Pophale) SiO2 
 PCOD8219923
Probable space group: P M N A
;
_chemical_formula_sum "Si O2"
_cell_formula_units_Z 48
_cell_length_a 8.577422
_cell_length_b 16.008247
_cell_length_c 18.565516
_cell_angle_alpha 90.000000
_cell_angle_beta 90.000000
_cell_angle_gamma 90.000000
_cell_volume 2549.221534
_symmetry_space_group_name_H-M "P M N A"
_symmetry_group_IT_number 53
_symmetry_cell_setting 'orthorhombic'
loop_
_space_group_symop_operation_xyz
x,y,z
1/2-x,-y,1/2+z
x,-y,-z
1/2-x,y,1/2-z
-x,-y,-z
1/2+x,y,1/2-z
-x,y,z
1/2+x,-y,1/2+z
loop_
_atom_site_type_symbol
_atom_site_label
_atom_site_fract_x
_atom_site_fract_y
_atom_site_fract_z
Si Si1 0.318589 0.082732 0.538112
Si Si2 0.317580 0.335232 0.903204
Si Si3 0.181421 0.745944 0.963060
Si Si4 0.315501 0.333630 0.171679
Si Si5 0.183174 0.166402 0.672135
Si Si6 0.816805 0.511292 0.173397
O O1 0.500000 0.071947 0.554547
O O2 0.284911 0.158643 0.483935
O O3 0.236548 0.096731 0.614947
O O4 0.250248 0.000000 0.500000
O O5 0.500000 0.352967 0.892963
O O6 0.259377 0.257903 0.853783
O O7 0.218907 0.416607 0.883473
O O8 0.280794 0.315269 0.986000
O O9 0.240681 0.733451 0.882142
O O10 0.000000 0.723613 0.970484
O O11 0.250000 0.312387 0.250000
O O12 0.500000 0.325748 0.171577
O O13 0.265682 0.426506 0.147565
O O14 0.250000 0.144606 0.750000
O O15 0.000000 0.164927 0.676924
O O16 0.750000 0.540737 0.250000
O O17 0.000000 0.494962 0.179740
#
# Coordination Sequence:
#
# PCOD8219923 Si02
#       6
#     8   8   8   8   8   8
#     4   9  19  37  60  83 109 140 173 214 266 321
#     4  10  20  34  52  78 109 142 179 218 263 313
#     4  10  20  36  57  81 107 136 173 216 265 319
#     4  11  22  38  57  77 104 139 180 223 266 311
#     4  10  20  33  53  80 111 144 178 217 261 313
#     4  11  21  34  52  76 106 142 182 222 266 311
#
# _framework density 18.829277000000001
#
# number of rings (size 3 to 8) (size 9 to 14) (size 15 to 20)
#    0.000    1.833    0.000    6.000    0.000    5.000 
#    0.000    4.167    0.000    0.000    0.000    0.000 
#    0.000    0.000    0.000    0.000    0.000    0.000 
#
# Total GULP energy -595424.733089 kJ/mol
# GULP energy per Si atom -12404.681939 kJ/mol
# Density = 1.878642 g / cm^3
# Si number density = 18.829277 Si / 1000 Ang^3
#
#
#
# Elastic Constant Matrix: (Units=GPa)
#
#
# Indices 1 2 3 4 5 6 
#
# 1 71.0640 29.5661 29.6514 0.0000 0.0000 0.0000
# 2 29.5661 82.7378 65.7946 0.0000 0.0000 0.0000
# 3 29.6514 65.7946 128.4346 0.0000 0.0000 0.0000
# 4 0.0000 0.0000 0.0000 -139.0010 0.0000 0.0000
# 5 0.0000 0.0000 0.0000 0.0000 35.9292 0.0000
# 6 0.0000 0.0000 0.0000 0.0000 0.0000 24.1637
#
#
#
# Elastic Compliance Matrix: (Units=1/GPa)
#
#
# Indices 1 2 3 4 5 6 
#
# 1 0.016666 -0.004886 -0.001344 0.000000 0.000000 0.000000
# 2 -0.004886 0.021827 -0.010054 0.000000 0.000000 0.000000
# 3 -0.001344 -0.010054 0.013247 0.000000 0.000000 0.000000
# 4 0.000000 0.000000 0.000000 -0.007194 0.000000 0.000000
# 5 0.000000 0.000000 0.000000 0.000000 0.027833 0.000000
# 6 0.000000 0.000000 0.000000 0.000000 0.000000 0.041384
#
#
# Mechanical properties :
#
#
# Convention : Reuss Voigt Hill
#
# Bulk Modulus (GPa) = 52.16203 59.14007 55.65105
# Shear Modulus (GPa) = 32.73931 -5.30000 13.71965
#
# Velocity S-wave (km/s) = 4.17435 -1.67955 2.70225
# Velocity P-wave (km/s) = 7.14117 5.26456 6.27343
#
# Compressibility (1/GPa) = 0.01917103
#
# Stress axis : x y z
#
# Youngs Moduli (GPa) = 60.00333 45.81406 75.49035
#
# Poissons Ratio (x) = 0.22386 0.10149
# Poissons Ratio (y) = 0.29320 0.75895
# Poissons Ratio (z) = 0.08067 0.46060
#
# Static dielectric constant tensor:
#      x y z
#    x 3.496980 0.000000 0.000000 
#    y 0.000000 3.434050 0.000000 
#    z 0.000000 0.000000 3.831440 
# 
# 
# High freq. dielectric constant tensor:
#      x y z
#    x 1.743880 0.000000 0.000000 
#    y 0.000000 1.716020 0.000000 
#    z 0.000000 0.000000 1.732770 
# 
# From -- ./inp_files/20224.got.cif
#   From: 2010.03.12/outbox.cif.g09.slc.cpg/sg53_11_cif.got.tgz:20224.got - 2010.04.16 14:36:59.
