data_PCOD8219662
_publ_section_title
;
Structure prediction by ZEFSAII (Michael W. Deem and Ramdas Pophale) SiO2 
 PCOD8219662
Probable space group: P M N A
;
_chemical_formula_sum "Si O2"
_cell_formula_units_Z 36
_cell_length_a 15.169368
_cell_length_b 7.612866
_cell_length_c 14.723291
_cell_angle_alpha 90.000000
_cell_angle_beta 90.000000
_cell_angle_gamma 90.000000
_cell_volume 1700.280478
_symmetry_space_group_name_H-M "P M N A"
_symmetry_group_IT_number 53
_symmetry_cell_setting 'orthorhombic'
loop_
_space_group_symop_operation_xyz
x,y,z
1/2-x,-y,1/2+z
x,-y,-z
1/2-x,y,1/2-z
-x,-y,-z
1/2+x,y,1/2-z
-x,y,z
1/2+x,-y,1/2+z
loop_
_atom_site_type_symbol
_atom_site_label
_atom_site_fract_x
_atom_site_fract_y
_atom_site_fract_z
Si Si1 0.655416 0.000000 0.500000
Si Si2 0.096926 0.701327 0.116316
Si Si3 0.286335 0.136254 0.149005
Si Si4 0.100471 0.183611 0.679369
Si Si5 0.730793 0.522455 0.145063
O O1 0.594204 0.157576 0.535178
O O2 0.713610 0.053619 0.414818
O O3 0.114959 0.796299 0.212753
O O4 0.175365 0.562746 0.096012
O O5 0.000000 0.608599 0.118060
O O6 0.250000 0.144973 0.250000
O O7 0.307850 0.333893 0.112981
O O8 0.372623 0.012674 0.148316
O O9 0.159907 0.324995 0.624492
O O10 0.000000 0.215102 0.650939
O O11 0.750000 0.512417 0.250000
#
# Coordination Sequence:
#
# PCOD8219662 Si02
#       5
#     4   8   8   8   8
#     4  12  21  36  65  88 122 164 197 246 303 360
#     4  10  20  37  61  92 124 157 197 246 306 365
#     4  11  21  39  62  88 121 163 201 243 301 362
#     4  10  19  38  64  87 121 160 201 252 298 349
#     4   9  19  37  61  84 122 161 198 243 297 356
#
# _framework density 21.172975999999998
#
# number of rings (size 3 to 8) (size 9 to 14) (size 15 to 20)
#    0.000    1.778    4.444    1.000    0.000    1.778 
#    0.000    7.222    0.000    1.333    0.000    0.000 
#    0.000    0.000    0.000    0.000    0.000    0.000 
#
# Total GULP energy -446218.169989 kJ/mol
# GULP energy per Si atom -12394.949166 kJ/mol
# Density = 2.112479 g / cm^3
# Si number density = 21.172976 Si / 1000 Ang^3
#
#
#
# Elastic Constant Matrix: (Units=GPa)
#
#
# Indices 1 2 3 4 5 6 
#
# 1 153.2923 75.4935 20.7653 0.0000 0.0000 0.0000
# 2 75.4935 156.0788 9.0901 0.0000 0.0000 0.0000
# 3 20.7653 9.0901 52.1369 0.0000 0.0000 0.0000
# 4 0.0000 0.0000 0.0000 3.9564 0.0000 0.0000
# 5 0.0000 0.0000 0.0000 0.0000 15.3468 0.0000
# 6 0.0000 0.0000 0.0000 0.0000 0.0000 5.9406
#
#
#
# Elastic Compliance Matrix: (Units=1/GPa)
#
#
# Indices 1 2 3 4 5 6 
#
# 1 0.008962 -0.004169 -0.002842 0.000000 0.000000 0.000000
# 2 -0.004169 0.008412 0.000194 0.000000 0.000000 0.000000
# 3 -0.002842 0.000194 0.020279 0.000000 0.000000 0.000000
# 4 0.000000 0.000000 0.000000 0.252754 0.000000 0.000000
# 5 0.000000 0.000000 0.000000 0.000000 0.065160 0.000000
# 6 0.000000 0.000000 0.000000 0.000000 0.000000 0.168334
#
#
# Mechanical properties :
#
#
# Convention : Reuss Voigt Hill
#
# Bulk Modulus (GPa) = 41.63697 63.57841 52.60769
# Shear Modulus (GPa) = 9.16520 22.12602 15.64561
#
# Velocity S-wave (km/s) = 2.08282 3.23617 2.72130
# Velocity P-wave (km/s) = 5.04896 6.63755 5.89699
#
# Compressibility (1/GPa) = 0.02401711
#
# Stress axis : x y z
#
# Youngs Moduli (GPa) = 111.58535 118.87352 49.31309
#
# Poissons Ratio (x) = 0.49560 0.14017
# Poissons Ratio (y) = 0.46522 -0.00956
# Poissons Ratio (z) = 0.31717 -0.02304
#
# Static dielectric constant tensor:
#      x y z
#    x 3.764080 0.000000 0.000000 
#    y 0.000000 4.360010 0.000000 
#    z 0.000000 0.000000 3.664130 
# 
# 
# High freq. dielectric constant tensor:
#      x y z
#    x 1.817770 0.000000 0.000000 
#    y 0.000000 1.828680 0.000000 
#    z 0.000000 0.000000 1.815570 
# 
# From -- ./inp_files/22299.got.cif
#   From: 2010.03.12/outbox.cif.g09.slc.cpg/sg53_12_cif.got.tgz:22299.got - 2010.04.16 14:36:59.
