data_PCOD8219332
_publ_section_title
;
Structure prediction by ZEFSAII (Michael W. Deem and Ramdas Pophale) SiO2 
 PCOD8219332
Probable space group: P M N A
;
_chemical_formula_sum "Si O2"
_cell_formula_units_Z 48
_cell_length_a 8.714719
_cell_length_b 12.685728
_cell_length_c 23.468023
_cell_angle_alpha 90.000000
_cell_angle_beta 90.000000
_cell_angle_gamma 90.000000
_cell_volume 2594.449899
_symmetry_space_group_name_H-M "P M N A"
_symmetry_group_IT_number 53
_symmetry_cell_setting 'orthorhombic'
loop_
_space_group_symop_operation_xyz
x,y,z
1/2-x,-y,1/2+z
x,-y,-z
1/2-x,y,1/2-z
-x,-y,-z
1/2+x,y,1/2-z
-x,y,z
1/2+x,-y,1/2+z
loop_
_atom_site_type_symbol
_atom_site_label
_atom_site_fract_x
_atom_site_fract_y
_atom_site_fract_z
Si Si1 0.817970 0.899582 0.688854
Si Si2 0.680169 0.501938 0.189359
Si Si3 0.318217 0.697094 0.877837
Si Si4 0.321749 0.680276 0.385147
Si Si5 0.680486 0.623500 0.000109
Si Si6 0.820550 0.879978 0.189705
O O1 0.750000 0.869037 0.750000
O O2 0.763662 0.811612 0.643469
O O3 0.000000 0.904204 0.693769
O O4 0.754710 0.011668 0.667773
O O5 0.750000 0.529382 0.250000
O O6 0.500000 0.496531 0.196624
O O7 0.746776 0.391705 0.165269
O O8 0.719890 0.592885 0.145187
O O9 0.500000 0.687595 0.878253
O O10 0.258481 0.675139 0.941517
O O11 0.500000 0.651835 0.378305
O O12 0.273712 0.683903 0.450973
O O13 0.284617 0.793244 0.357742
O O14 0.500000 0.641316 0.009453
O O15 0.720503 0.500000 0.000000
O O16 0.750000 0.843883 0.250000
O O17 0.000000 0.898283 0.198938
#
# Coordination Sequence:
#
# PCOD8219332 Si02
#       6
#     8   8   8   8   8   8
#     4  10  19  34  57  82 110 141 180 223 269 327
#     4  11  21  35  54  80 113 144 177 222 275 330
#     4   9  19  35  55  81 110 142 181 222 270 327
#     4  11  23  37  54  81 111 143 184 229 273 324
#     4  10  19  37  60  79 106 149 187 223 272 324
#     4  10  21  37  56  79 110 143 181 224 274 325
#
# _framework density 18.501031000000001
#
# number of rings (size 3 to 8) (size 9 to 14) (size 15 to 20)
#    0.000    1.833    1.667    4.000    0.000    4.333 
#    0.000    5.000    0.000    5.000    0.000    0.000 
#    0.000    0.000    0.000    0.000    0.000    0.000 
#
# Total GULP energy -595323.422852 kJ/mol
# GULP energy per Si atom -12402.571309 kJ/mol
# Density = 1.845892 g / cm^3
# Si number density = 18.501031 Si / 1000 Ang^3
#
#
#
# Elastic Constant Matrix: (Units=GPa)
#
#
# Indices 1 2 3 4 5 6 
#
# 1 66.9586 43.3132 33.7074 0.0000 0.0000 0.0000
# 2 43.3132 123.3961 66.5684 0.0000 0.0000 0.0000
# 3 33.7074 66.5684 120.0513 0.0000 0.0000 0.0000
# 4 0.0000 0.0000 0.0000 36.2773 0.0000 0.0000
# 5 0.0000 0.0000 0.0000 0.0000 28.8319 0.0000
# 6 0.0000 0.0000 0.0000 0.0000 0.0000 12.1335
#
#
#
# Elastic Compliance Matrix: (Units=1/GPa)
#
#
# Indices 1 2 3 4 5 6 
#
# 1 0.019808 -0.005639 -0.002435 0.000000 0.000000 0.000000
# 2 -0.005639 0.013168 -0.005718 0.000000 0.000000 0.000000
# 3 -0.002435 -0.005718 0.012184 0.000000 0.000000 0.000000
# 4 0.000000 0.000000 0.000000 0.027565 0.000000 0.000000
# 5 0.000000 0.000000 0.000000 0.000000 0.034684 0.000000
# 6 0.000000 0.000000 0.000000 0.000000 0.000000 0.082416
#
#
# Mechanical properties :
#
#
# Convention : Reuss Voigt Hill
#
# Bulk Modulus (GPa) = 56.89635 66.39823 61.64729
# Shear Modulus (GPa) = 22.39441 26.56968 24.48205
#
# Velocity S-wave (km/s) = 3.48291 3.79373 3.64164
# Velocity P-wave (km/s) = 6.85522 7.42675 7.14670
#
# Compressibility (1/GPa) = 0.01757582
#
# Stress axis : x y z
#
# Youngs Moduli (GPa) = 50.48425 75.93917 82.07339
#
# Poissons Ratio (x) = 0.42826 0.19981
# Poissons Ratio (y) = 0.28471 0.46933
# Poissons Ratio (z) = 0.12291 0.43426
#
# Static dielectric constant tensor:
#      x y z
#    x 3.335720 0.000000 0.000000 
#    y 0.000000 3.526820 0.000000 
#    z 0.000000 0.000000 3.555360 
# 
# 
# High freq. dielectric constant tensor:
#      x y z
#    x 1.712350 0.000000 0.000000 
#    y 0.000000 1.719920 0.000000 
#    z 0.000000 0.000000 1.719380 
# 
# From -- ./inp_files/36172.got.cif
#   From: 2010.03.12/outbox.cif.g09.slc.cpg/sg53_19_cif.got.tgz:36172.got - 2010.04.16 14:36:59.
