data_PCOD8219214
_publ_section_title
;
Structure prediction by ZEFSAII (Michael W. Deem and Ramdas Pophale) SiO2 
 PCOD8219214
Probable space group: P M N A
;
_chemical_formula_sum "Si O2"
_cell_formula_units_Z 56
_cell_length_a 20.736104
_cell_length_b 11.090023
_cell_length_c 11.938100
_cell_angle_alpha 90.000000
_cell_angle_beta 90.000000
_cell_angle_gamma 90.000000
_cell_volume 2745.331680
_symmetry_space_group_name_H-M "P M N A"
_symmetry_group_IT_number 53
_symmetry_cell_setting 'orthorhombic'
loop_
_space_group_symop_operation_xyz
x,y,z
1/2-x,-y,1/2+z
x,-y,-z
1/2-x,y,1/2-z
-x,-y,-z
1/2+x,y,1/2-z
-x,y,z
1/2+x,-y,1/2+z
loop_
_atom_site_type_symbol
_atom_site_label
_atom_site_fract_x
_atom_site_fract_y
_atom_site_fract_z
Si Si1 0.240014 0.370787 0.063561
Si Si2 0.927325 0.432462 0.616419
Si Si3 0.647203 0.620525 0.761826
Si Si4 0.575225 0.850013 0.807900
Si Si5 0.848420 0.062072 0.727266
Si Si6 0.425952 0.181615 0.943608
Si Si7 0.271539 0.118577 0.571293
O O1 0.298987 0.347753 0.146532
O O2 0.174792 0.380847 0.136227
O O3 0.249042 0.500000 0.000000
O O4 0.235805 0.248781 0.987933
O O5 0.928163 0.500000 0.500000
O O6 0.883107 0.490666 0.712107
O O7 0.891273 0.307453 0.586516
O O8 0.000000 0.418623 0.664057
O O9 0.587564 0.712668 0.772723
O O10 0.500000 0.881039 0.783582
O O11 0.629847 0.926045 0.739438
O O12 0.595643 0.873782 0.938069
O O13 0.914610 0.099638 0.664919
O O14 0.829642 0.134591 0.838804
O O15 0.792904 0.077922 0.635198
O O16 0.500000 0.212977 0.958839
O O17 0.289862 0.000000 0.500000
#
# Coordination Sequence:
#
# PCOD8219214 Si02
#       7
#     8   8   8   8   8   8   8
#     4  11  26  40  61  92 122 164 210 252 298 362
#     4  10  19  33  57  89 120 154 190 240 305 361
#     4  11  22  38  63  85 123 158 201 248 308 360
#     4  11  21  37  63  95 122 155 199 252 313 375
#     4  11  23  36  63  85 119 158 194 247 310 362
#     4  10  20  33  55  89 122 148 188 246 306 360
#     4  11  24  42  60  86 123 162 207 247 305 361
#
# _framework density 20.398264000000001
#
# number of rings (size 3 to 8) (size 9 to 14) (size 15 to 20)
#    0.000    1.286    1.429    5.143    4.000    4.571 
#    0.000    0.000    0.000   11.143    0.000    0.000 
#    0.000    0.000    0.000    0.000    0.000    0.000 
#
# Total GULP energy -693732.236920 kJ/mol
# GULP energy per Si atom -12388.075659 kJ/mol
# Density = 2.035184 g / cm^3
# Si number density = 20.398264 Si / 1000 Ang^3
#
#
#
# Elastic Constant Matrix: (Units=GPa)
#
#
# Indices 1 2 3 4 5 6 
#
# 1 71.5844 27.6696 33.6794 0.0000 0.0000 0.0000
# 2 27.6696 104.8286 34.0817 0.0000 0.0000 0.0000
# 3 33.6794 34.0817 75.3743 0.0000 0.0000 0.0000
# 4 0.0000 0.0000 0.0000 27.5842 0.0000 0.0000
# 5 0.0000 0.0000 0.0000 0.0000-2315.2701 0.0000
# 6 0.0000 0.0000 0.0000 0.0000 0.0000 36.9719
#
#
#
# Elastic Compliance Matrix: (Units=1/GPa)
#
#
# Indices 1 2 3 4 5 6 
#
# 1 0.018247 -0.002539 -0.007005 0.000000 0.000000 0.000000
# 2 -0.002539 0.011537 -0.004082 0.000000 0.000000 0.000000
# 3 -0.007005 -0.004082 0.018243 0.000000 0.000000 0.000000
# 4 0.000000 0.000000 0.000000 0.036253 0.000000 0.000000
# 5 0.000000 0.000000 0.000000 0.000000 -0.000432 0.000000
# 6 0.000000 0.000000 0.000000 0.000000 0.000000 0.027048
#
#
# Mechanical properties :
#
#
# Convention : Reuss Voigt Hill
#
# Bulk Modulus (GPa) = 48.13644 49.18320 48.65982
# Shear Modulus (GPa) = 34.46576 -439.71903 -202.62664
#
# Velocity S-wave (km/s) = 4.11498 -14.69812 -9.97752
# Velocity P-wave (km/s) = 6.79904 16.24447 10.43206
#
# Compressibility (1/GPa) = 0.02077428
#
# Stress axis : x y z
#
# Youngs Moduli (GPa) = 54.80449 86.68028 54.81538
#
# Poissons Ratio (x) = 0.22006 0.38399
# Poissons Ratio (y) = 0.13913 0.22376
# Poissons Ratio (z) = 0.38392 0.35384
#
# Static dielectric constant tensor:
#      x y z
#    x 3.763520 0.000000 0.000000 
#    y 0.000000 4.877620 0.000000 
#    z 0.000000 0.000000 3.676670 
# 
# 
# High freq. dielectric constant tensor:
#      x y z
#    x 1.795810 0.000000 0.000000 
#    y 0.000000 1.816470 0.000000 
#    z 0.000000 0.000000 1.768410 
# 
# From -- ./inp_files/17834.got.cif
#   From: 2010.03.12/outbox.cif.g09.slc.cpg/sg53_9_cif.got.tgz:17834.got - 2010.04.16 14:36:59.
