data_PCOD8219010
_publ_section_title
;
Structure prediction by ZEFSAII (Michael W. Deem and Ramdas Pophale) SiO2 
 PCOD8219010
Probable space group: P M N A
;
_chemical_formula_sum "Si O2"
_cell_formula_units_Z 40
_cell_length_a 16.421929
_cell_length_b 7.671381
_cell_length_c 14.688021
_cell_angle_alpha 90.000000
_cell_angle_beta 90.000000
_cell_angle_gamma 90.000000
_cell_volume 1850.380349
_symmetry_space_group_name_H-M "P M N A"
_symmetry_group_IT_number 53
_symmetry_cell_setting 'orthorhombic'
loop_
_space_group_symop_operation_xyz
x,y,z
1/2-x,-y,1/2+z
x,-y,-z
1/2-x,y,1/2-z
-x,-y,-z
1/2+x,y,1/2-z
-x,y,z
1/2+x,-y,1/2+z
loop_
_atom_site_type_symbol
_atom_site_label
_atom_site_fract_x
_atom_site_fract_y
_atom_site_fract_z
Si Si1 0.404533 0.423984 0.224105
Si Si2 0.288524 0.653625 0.946320
Si Si3 0.911300 0.838097 0.434091
Si Si4 0.592960 0.186234 0.730265
Si Si5 0.818092 0.868256 0.825308
O O1 0.500000 0.418522 0.195554
O O2 0.345842 0.403182 0.137578
O O3 0.381857 0.609997 0.270936
O O4 0.387533 0.271139 0.296645
O O5 0.223822 0.802379 0.918722
O O6 0.240283 0.500000 0.000000
O O7 0.345131 0.707880 0.029879
O O8 0.890699 0.895412 0.330910
O O9 0.000000 0.745204 0.431743
O O10 0.913822 0.000000 0.500000
O O11 0.500000 0.167214 0.700122
O O12 0.645037 0.063225 0.661828
O O13 0.750000 0.874427 0.750000
#
# Coordination Sequence:
#
# PCOD8219010 Si02
#       5
#     8   8   8   8   8
#     4  10  20  36  60  85 112 155 201 242 282 340
#     4  11  21  36  55  87 128 155 188 237 309 362
#     4  10  19  32  54  86 119 152 192 238 292 350
#     4  10  20  36  59  82 110 154 201 243 284 336
#     4  10  22  36  53  83 123 158 189 232 290 356
#
# _framework density 21.617179
#
# number of rings (size 3 to 8) (size 9 to 14) (size 15 to 20)
#    0.000    1.800    2.000    3.600    0.000    4.800 
#    3.600    0.000    0.000    2.400    0.000    2.800 
#    0.000    0.000    0.000    0.000    0.000    0.000 
#
# Total GULP energy -495631.718468 kJ/mol
# GULP energy per Si atom -12390.792962 kJ/mol
# Density = 2.156798 g / cm^3
# Si number density = 21.617179 Si / 1000 Ang^3
#
#
#
# Elastic Constant Matrix: (Units=GPa)
#
#
# Indices 1 2 3 4 5 6 
#
# 1 74.2720 45.0269 21.9409 0.0000 0.0000 0.0000
# 2 45.0269 108.4778 7.6636 0.0000 0.0000 0.0000
# 3 21.9409 7.6636 26.9124 0.0000 0.0000 0.0000
# 4 0.0000 0.0000 0.0000 27.8589 0.0000 0.0000
# 5 0.0000 0.0000 0.0000 0.0000 291.1225 0.0000
# 6 0.0000 0.0000 0.0000 0.0000 0.0000 35.0718
#
#
#
# Elastic Compliance Matrix: (Units=1/GPa)
#
#
# Indices 1 2 3 4 5 6 
#
# 1 0.023676 -0.008638 -0.016843 0.000000 0.000000 0.000000
# 2 -0.008638 0.012559 0.003466 0.000000 0.000000 0.000000
# 3 -0.016843 0.003466 0.049902 0.000000 0.000000 0.000000
# 4 0.000000 0.000000 0.000000 0.035895 0.000000 0.000000
# 5 0.000000 0.000000 0.000000 0.000000 0.003435 0.000000
# 6 0.000000 0.000000 0.000000 0.000000 0.000000 0.028513
#
#
# Mechanical properties :
#
#
# Convention : Reuss Voigt Hill
#
# Bulk Modulus (GPa) = 23.74855 39.88053 31.81454
# Shear Modulus (GPa) = 23.57985 79.81267 51.69626
#
# Velocity S-wave (km/s) = 3.30630 6.08285 4.89554
# Velocity P-wave (km/s) = 5.05819 8.23550 6.83406
#
# Compressibility (1/GPa) = 0.04210783
#
# Stress axis : x y z
#
# Youngs Moduli (GPa) = 42.23679 79.62474 20.03921
#
# Poissons Ratio (x) = 0.68776 0.33752
# Poissons Ratio (y) = 0.36482 -0.06945
# Poissons Ratio (z) = 0.71138 -0.27595
#
# Static dielectric constant tensor:
#      x y z
#    x 4.086870 0.000000 0.000000 
#    y 0.000000 5.395120 0.000000 
#    z 0.000000 0.000000 3.600050 
# 
# 
# High freq. dielectric constant tensor:
#      x y z
#    x 1.840080 0.000000 0.000000 
#    y 0.000000 1.864050 0.000000 
#    z 0.000000 0.000000 1.808270 
# 
# From -- ./inp_files/22385.got.cif
#   From: 2010.03.12/outbox.cif.g09.slc.cpg/sg53_12_cif.got.tgz:22385.got - 2010.04.16 14:36:59.
