data_PCOD8219191
_publ_section_title
;
Structure prediction by ZEFSAII (Michael W. Deem and Ramdas Pophale) SiO2 
 PCOD8219191
Probable space group: P M N A
;
_chemical_formula_sum "Si O2"
_cell_formula_units_Z 64
_cell_length_a 8.819213
_cell_length_b 21.420844
_cell_length_c 17.839625
_cell_angle_alpha 90.000000
_cell_angle_beta 90.000000
_cell_angle_gamma 90.000000
_cell_volume 3370.172505
_symmetry_space_group_name_H-M "P M N A"
_symmetry_group_IT_number 53
_symmetry_cell_setting 'orthorhombic'
loop_
_space_group_symop_operation_xyz
x,y,z
1/2-x,-y,1/2+z
x,-y,-z
1/2-x,y,1/2-z
-x,-y,-z
1/2+x,y,1/2-z
-x,y,z
1/2+x,-y,1/2+z
loop_
_atom_site_type_symbol
_atom_site_label
_atom_site_fract_x
_atom_site_fract_y
_atom_site_fract_z
Si Si1 0.326353 0.115877 0.095077
Si Si2 0.179611 0.307580 0.949941
Si Si3 0.179861 0.369595 0.173443
Si Si4 0.677402 0.102792 0.922843
Si Si5 0.321080 0.566183 0.523479
Si Si6 0.322295 0.996545 0.671217
Si Si7 0.678887 0.774382 0.168884
Si Si8 0.675787 0.257690 0.096634
O O1 0.500000 0.094154 0.103890
O O2 0.222975 0.073262 0.147643
O O3 0.305016 0.186583 0.122932
O O4 0.275550 0.110733 0.008897
O O5 0.251016 0.286554 0.871232
O O6 0.000000 0.298535 0.948971
O O7 0.224141 0.380074 0.964090
O O8 0.247764 0.265247 0.015697
O O9 0.250000 0.396265 0.250000
O O10 0.235490 0.414695 0.106361
O O11 0.242613 0.300190 0.158568
O O12 0.000000 0.366409 0.179226
O O13 0.500000 0.089535 0.913674
O O14 0.724781 0.164792 0.878330
O O15 0.768622 0.044027 0.892314
O O16 0.246064 0.500000 0.500000
O O17 0.500000 0.559068 0.526057
O O18 0.250000 0.015801 0.750000
O O19 0.500000 0.000775 0.680705
O O20 0.750000 0.781435 0.250000
O O21 0.500000 0.765828 0.175257
O O22 0.500000 0.276275 0.089540
#
# Coordination Sequence:
#
# PCOD8219191 Si02
#       8
#     8   8   8   8   8   8   8   8
#     4  10  21  39  61  84 110 145 182 226 281 337
#     4  10  19  33  56  84 114 147 183 227 276 331
#     4  10  20  34  55  84 115 151 190 235 286 334
#     4  10  21  40  62  83 109 144 184 228 282 339
#     4   8  16  33  57  83 112 150 193 232 276 331
#     4  12  26  41  57  80 109 146 186 233 284 334
#     4  11  22  37  57  84 114 149 188 232 285 335
#     4  10  19  35  58  83 111 146 184 226 277 333
#
# _framework density 18.990124999999999
#
# number of rings (size 3 to 8) (size 9 to 14) (size 15 to 20)
#    0.000    1.875    1.250    4.125    0.000    5.500 
#    0.000    0.625    0.000   15.000    0.000    0.000 
#    0.000    0.000    0.000    0.000    0.000    0.000 
#
# Total GULP energy -793786.879334 kJ/mol
# GULP energy per Si atom -12402.919990 kJ/mol
# Density = 1.894690 g / cm^3
# Si number density = 18.990125 Si / 1000 Ang^3
#
#
#
# Elastic Constant Matrix: (Units=GPa)
#
#
# Indices 1 2 3 4 5 6 
#
# 1 80.3588 34.8784 26.8223 0.0000 0.0000 0.0000
# 2 34.8784 106.9856 32.0535 0.0000 0.0000 0.0000
# 3 26.8223 32.0535 78.5606 0.0000 0.0000 0.0000
# 4 0.0000 0.0000 0.0000 25.0683 0.0000 0.0000
# 5 0.0000 0.0000 0.0000 0.0000 34.7971 0.0000
# 6 0.0000 0.0000 0.0000 0.0000 0.0000 22.1566
#
#
#
# Elastic Compliance Matrix: (Units=1/GPa)
#
#
# Indices 1 2 3 4 5 6 
#
# 1 0.015361 -0.003915 -0.003647 0.000000 0.000000 0.000000
# 2 -0.003915 0.011647 -0.003415 0.000000 0.000000 0.000000
# 3 -0.003647 -0.003415 0.015368 0.000000 0.000000 0.000000
# 4 0.000000 0.000000 0.000000 0.039891 0.000000 0.000000
# 5 0.000000 0.000000 0.000000 0.000000 0.028738 0.000000
# 6 0.000000 0.000000 0.000000 0.000000 0.000000 0.045133
#
#
# Mechanical properties :
#
#
# Convention : Reuss Voigt Hill
#
# Bulk Modulus (GPa) = 48.97108 50.37929 49.67519
# Shear Modulus (GPa) = 27.04177 27.88111 27.46144
#
# Velocity S-wave (km/s) = 3.77767 3.83585 3.80688
# Velocity P-wave (km/s) = 6.69861 6.79744 6.74821
#
# Compressibility (1/GPa) = 0.02042022
#
# Stress axis : x y z
#
# Youngs Moduli (GPa) = 65.10078 85.86172 65.07159
#
# Poissons Ratio (x) = 0.33615 0.23732
# Poissons Ratio (y) = 0.25487 0.22224
# Poissons Ratio (z) = 0.23743 0.29324
#
# Static dielectric constant tensor:
#      x y z
#    x 3.417790 0.000000 0.000000 
#    y 0.000000 3.626740 0.000000 
#    z 0.000000 0.000000 3.509540 
# 
# 
# High freq. dielectric constant tensor:
#      x y z
#    x 1.734320 0.000000 0.000000 
#    y 0.000000 1.735330 0.000000 
#    z 0.000000 0.000000 1.738310 
# 
# From -- ./inp_files/26986.got.cif
#   From: 2010.03.12/outbox.cif.g09.slc.cpg/sg53_14_cif.got.tgz:26986.got - 2010.04.16 14:36:59.
