data_PCOD8219046
_publ_section_title
;
Structure prediction by ZEFSAII (Michael W. Deem and Ramdas Pophale) SiO2 
 PCOD8219046
Probable space group: P M N A
;
_chemical_formula_sum "Si O2"
_cell_formula_units_Z 56
_cell_length_a 8.793684
_cell_length_b 20.755928
_cell_length_c 16.871259
_cell_angle_alpha 90.000000
_cell_angle_beta 90.000000
_cell_angle_gamma 90.000000
_cell_volume 3079.360278
_symmetry_space_group_name_H-M "P M N A"
_symmetry_group_IT_number 53
_symmetry_cell_setting 'orthorhombic'
loop_
_space_group_symop_operation_xyz
x,y,z
1/2-x,-y,1/2+z
x,-y,-z
1/2-x,y,1/2-z
-x,-y,-z
1/2+x,y,1/2-z
-x,y,z
1/2+x,-y,1/2+z
loop_
_atom_site_type_symbol
_atom_site_label
_atom_site_fract_x
_atom_site_fract_y
_atom_site_fract_z
Si Si1 0.828502 0.460091 0.118765
Si Si2 0.677463 0.150695 0.979325
Si Si3 0.181816 0.284791 0.010183
Si Si4 0.671090 0.954254 0.575429
Si Si5 0.677749 0.938948 0.168690
Si Si6 0.831581 0.410989 0.940953
Si Si7 0.179185 0.664063 0.669446
O O1 0.755902 0.533426 0.115226
O O2 0.719998 0.412243 0.167101
O O3 0.000000 0.459681 0.155153
O O4 0.839537 0.435563 0.030024
O O5 0.500000 0.164047 0.989815
O O6 0.714889 0.113491 0.898312
O O7 0.767829 0.217100 0.974852
O O8 0.734743 0.109987 0.055023
O O9 0.251767 0.295703 0.096878
O O10 0.000000 0.289077 0.017248
O O11 0.244349 0.339782 0.947704
O O12 0.500000 0.935045 0.599867
O O13 0.671291 0.000000 0.500000
O O14 0.750233 0.991700 0.647617
O O15 0.750000 0.913204 0.250000
O O16 0.500000 0.949028 0.179183
O O17 0.000000 0.403032 0.906128
O O18 0.250000 0.693179 0.750000
O O19 0.000000 0.673107 0.669526
#
# Coordination Sequence:
#
# PCOD8219046 Si02
#       7
#     8   8   8   8   8   8   8
#     4   8  13  26  46  67  90 118 153 195 242 290
#     4  10  20  34  52  77 107 138 171 209 251 296
#     4  10  19  33  52  74 100 135 174 209 250 304
#     4   9  17  31  52  76 101 131 167 204 244 293
#     4  10  20  34  54  79 107 135 167 209 254 298
#     4   7  12  24  45  69  92 118 152 193 237 287
#     4  11  21  33  48  69  97 130 168 212 260 309
#
# _framework density 18.185596
#
# number of rings (size 3 to 8) (size 9 to 14) (size 15 to 20)
#    0.000    2.714    0.000    4.714    0.000    3.429 
#    0.000    7.143    0.000    0.857    0.000    2.000 
#    0.000    0.000    0.000    0.000    0.000    0.000 
#
# Total GULP energy -693817.063714 kJ/mol
# GULP energy per Si atom -12389.590423 kJ/mol
# Density = 1.814420 g / cm^3
# Si number density = 18.185596 Si / 1000 Ang^3
#
#
#
# Elastic Constant Matrix: (Units=GPa)
#
#
# Indices 1 2 3 4 5 6 
#
# 1 99.6490 38.0725 33.8065 0.0000 0.0000 0.0000
# 2 38.0725 110.6598 26.8462 0.0000 0.0000 0.0000
# 3 33.8065 26.8462 59.4079 0.0000 0.0000 0.0000
# 4 0.0000 0.0000 0.0000 14.2765 0.0000 0.0000
# 5 0.0000 0.0000 0.0000 0.0000 24.8407 0.0000
# 6 0.0000 0.0000 0.0000 0.0000 0.0000 22.1256
#
#
#
# Elastic Compliance Matrix: (Units=1/GPa)
#
#
# Indices 1 2 3 4 5 6 
#
# 1 0.013309 -0.003079 -0.006182 0.000000 0.000000 0.000000
# 2 -0.003079 0.010862 -0.003156 0.000000 0.000000 0.000000
# 3 -0.006182 -0.003156 0.021777 0.000000 0.000000 0.000000
# 4 0.000000 0.000000 0.000000 0.070045 0.000000 0.000000
# 5 0.000000 0.000000 0.000000 0.000000 0.040257 0.000000
# 6 0.000000 0.000000 0.000000 0.000000 0.000000 0.045197
#
#
# Mechanical properties :
#
#
# Convention : Reuss Voigt Hill
#
# Bulk Modulus (GPa) = 47.36444 51.90746 49.63595
# Shear Modulus (GPa) = 21.42994 23.64800 22.53897
#
# Velocity S-wave (km/s) = 3.43651 3.60998 3.52431
# Velocity P-wave (km/s) = 6.46898 6.78093 6.62679
#
# Compressibility (1/GPa) = 0.02111289
#
# Stress axis : x y z
#
# Youngs Moduli (GPa) = 75.13724 92.06593 45.91995
#
# Poissons Ratio (x) = 0.28349 0.28388
# Poissons Ratio (y) = 0.23136 0.14493
# Poissons Ratio (z) = 0.46451 0.29058
#
# Static dielectric constant tensor:
#      x y z
#    x 3.306720 0.000000 0.000000 
#    y 0.000000 3.685450 0.000000 
#    z 0.000000 0.000000 3.175030 
# 
# 
# High freq. dielectric constant tensor:
#      x y z
#    x 1.698890 0.000000 0.000000 
#    y 0.000000 1.703630 0.000000 
#    z 0.000000 0.000000 1.671650 
# 
# From -- ./inp_files/26719.got.cif
#   From: 2010.03.12/outbox.cif.g09.slc.cpg/sg53_14_cif.got.tgz:26719.got - 2010.04.16 14:36:59.
