data_PCOD8219840
_publ_section_title
;
Structure prediction by ZEFSAII (Michael W. Deem and Ramdas Pophale) SiO2 
 PCOD8219840
Probable space group: P M N A
;
_chemical_formula_sum "Si O2"
_cell_formula_units_Z 52
_cell_length_a 14.366954
_cell_length_b 20.419372
_cell_length_c 8.970510
_cell_angle_alpha 90.000000
_cell_angle_beta 90.000000
_cell_angle_gamma 90.000000
_cell_volume 2631.626294
_symmetry_space_group_name_H-M "P M N A"
_symmetry_group_IT_number 53
_symmetry_cell_setting 'orthorhombic'
loop_
_space_group_symop_operation_xyz
x,y,z
1/2-x,-y,1/2+z
x,-y,-z
1/2-x,y,1/2-z
-x,-y,-z
1/2+x,y,1/2-z
-x,y,z
1/2+x,-y,1/2+z
loop_
_atom_site_type_symbol
_atom_site_label
_atom_site_fract_x
_atom_site_fract_y
_atom_site_fract_z
Si Si1 0.750000 0.865131 0.750000
Si Si2 0.233740 0.434159 0.575771
Si Si3 0.600589 0.646431 0.473795
Si Si4 0.102801 0.678808 0.372895
Si Si5 0.109627 0.792293 0.964040
Si Si6 0.894604 0.076196 0.469352
Si Si7 0.608668 0.816217 0.205811
O O1 0.677246 0.822285 0.658118
O O2 0.684346 0.910991 0.848754
O O3 0.195506 0.500000 0.500000
O O4 0.250000 0.446617 0.750000
O O5 0.327911 0.411931 0.491331
O O6 0.163572 0.374683 0.541387
O O7 0.500000 0.620851 0.526779
O O8 0.600362 0.660649 0.299259
O O9 0.623977 0.714625 0.554266
O O10 0.147840 0.752298 0.384674
O O11 0.000000 0.676759 0.444575
O O12 0.000000 0.810837 0.938672
O O13 0.146744 0.819478 0.124838
O O14 0.869400 0.116951 0.619020
O O15 0.000000 0.095758 0.416919
O O16 0.891312 0.000000 0.500000
O O17 0.500000 0.801300 0.222306
#
# Coordination Sequence:
#
# PCOD8219840 Si02
#       7
#     4   8   8   8   8   8   8
#     4  12  24  34  58  90 120 154 182 234 298 348
#     4  10  20  33  50  76 108 140 177 225 273 329
#     4   8  16  33  54  74 102 141 185 226 271 325
#     4   8  15  30  55  80 102 135 182 228 270 320
#     4   9  19  37  59  87 114 144 191 243 286 331
#     4  10  23  42  59  82 121 159 192 235 285 338
#     4   8  16  35  62  83 104 146 198 236 271 331
#
# _framework density 19.759644000000002
#
# number of rings (size 3 to 8) (size 9 to 14) (size 15 to 20)
#    0.000    2.923    0.000    2.308    2.154    2.462 
#    1.385    0.000    0.000    4.615    0.000    0.000 
#    0.000    0.000    0.000    0.000    0.000    0.000 
#
# Total GULP energy -644366.304218 kJ/mol
# GULP energy per Si atom -12391.659696 kJ/mol
# Density = 1.971467 g / cm^3
# Si number density = 19.759644 Si / 1000 Ang^3
#
#
#
# Elastic Constant Matrix: (Units=GPa)
#
#
# Indices 1 2 3 4 5 6 
#
# 1 104.8084 53.3649 43.9046 0.0000 0.0000 0.0000
# 2 53.3649 128.9248 42.5589 0.0000 0.0000 0.0000
# 3 43.9046 42.5589 63.9251 0.0000 0.0000 0.0000
# 4 0.0000 0.0000 0.0000 22.8154 0.0000 0.0000
# 5 0.0000 0.0000 0.0000 0.0000 23.6484 0.0000
# 6 0.0000 0.0000 0.0000 0.0000 0.0000 28.9983
#
#
#
# Elastic Compliance Matrix: (Units=1/GPa)
#
#
# Indices 1 2 3 4 5 6 
#
# 1 0.014521 -0.003484 -0.007654 0.000000 0.000000 0.000000
# 2 -0.003484 0.010777 -0.004782 0.000000 0.000000 0.000000
# 3 -0.007654 -0.004782 0.024084 0.000000 0.000000 0.000000
# 4 0.000000 0.000000 0.000000 0.043830 0.000000 0.000000
# 5 0.000000 0.000000 0.000000 0.000000 0.042286 0.000000
# 6 0.000000 0.000000 0.000000 0.000000 0.000000 0.034485
#
#
# Mechanical properties :
#
#
# Convention : Reuss Voigt Hill
#
# Bulk Modulus (GPa) = 57.00534 64.14609 60.57572
# Shear Modulus (GPa) = 24.07650 25.61441 24.84546
#
# Velocity S-wave (km/s) = 3.49444 3.60432 3.54981
# Velocity P-wave (km/s) = 6.72261 7.06082 6.89379
#
# Compressibility (1/GPa) = 0.01754222
#
# Stress axis : x y z
#
# Youngs Moduli (GPa) = 68.86347 92.78814 41.52154
#
# Poissons Ratio (x) = 0.32329 0.31780
# Poissons Ratio (y) = 0.23993 0.19856
# Poissons Ratio (z) = 0.52708 0.44372
#
# Static dielectric constant tensor:
#      x y z
#    x 4.077950 0.000000 0.000000 
#    y 0.000000 3.549460 0.000000 
#    z 0.000000 0.000000 3.242800 
# 
# 
# High freq. dielectric constant tensor:
#      x y z
#    x 1.781950 0.000000 0.000000 
#    y 0.000000 1.765780 0.000000 
#    z 0.000000 0.000000 1.731200 
# 
# From -- ./inp_files/8799.got.cif
#   From: 2010.03.12/outbox.cif.g09.slc.cpg/sg53_5_cif.got.tgz:8799.got - 2010.04.16 14:36:59.
