data_PCOD8219897
_publ_section_title
;
Structure prediction by ZEFSAII (Michael W. Deem and Ramdas Pophale) SiO2 
 PCOD8219897
Probable space group: P M N A
;
_chemical_formula_sum "Si O2"
_cell_formula_units_Z 64
_cell_length_a 9.422271
_cell_length_b 14.754805
_cell_length_c 23.248889
_cell_angle_alpha 90.000000
_cell_angle_beta 90.000000
_cell_angle_gamma 90.000000
_cell_volume 3232.148226
_symmetry_space_group_name_H-M "P M N A"
_symmetry_group_IT_number 53
_symmetry_cell_setting 'orthorhombic'
loop_
_space_group_symop_operation_xyz
x,y,z
1/2-x,-y,1/2+z
x,-y,-z
1/2-x,y,1/2-z
-x,-y,-z
1/2+x,y,1/2-z
-x,y,z
1/2+x,-y,1/2+z
loop_
_atom_site_type_symbol
_atom_site_label
_atom_site_fract_x
_atom_site_fract_y
_atom_site_fract_z
Si Si1 0.165290 0.857260 0.397647
Si Si2 0.662904 0.814666 0.883761
Si Si3 0.339529 0.458083 0.853631
Si Si4 0.331637 0.212213 0.497207
Si Si5 0.665457 0.985468 0.808947
Si Si6 0.336693 0.646419 0.805220
Si Si7 0.666016 0.412743 0.536364
Si Si8 0.343517 0.274483 0.801132
O O1 0.262920 0.851866 0.454013
O O2 0.208217 0.941834 0.357691
O O3 0.201749 0.766189 0.362376
O O4 0.000000 0.862231 0.416160
O O5 0.500000 0.828874 0.904095
O O6 0.684845 0.716402 0.856518
O O7 0.703980 0.887828 0.835336
O O8 0.767525 0.823001 0.937494
O O9 0.500000 0.473572 0.876406
O O10 0.276562 0.550555 0.827859
O O11 0.243726 0.419077 0.903594
O O12 0.336974 0.383196 0.803353
O O13 0.500000 0.197496 0.497211
O O14 0.291862 0.318540 0.505215
O O15 0.750000 0.001667 0.750000
O O16 0.500000 0.993173 0.793729
O O17 0.250000 0.678965 0.750000
O O18 0.500000 0.637864 0.786578
O O19 0.715097 0.500000 0.500000
O O20 0.500000 0.415562 0.548835
O O21 0.250000 0.235142 0.750000
O O22 0.500000 0.238770 0.786659
#
# Coordination Sequence:
#
# PCOD8219897 Si02
#       8
#     8   8   8   8   8   8   8   8
#     4  10  21  39  60  83 116 154 189 232 284 341
#     4  10  22  40  60  84 116 154 193 237 290 346
#     4  10  20  34  52  79 110 146 190 229 278 340
#     4  11  23  38  59  88 117 151 195 240 289 341
#     4  10  22  40  64  91 117 151 194 237 289 346
#     4  10  21  36  56  83 115 151 193 239 288 343
#     4  10  21  36  54  79 112 149 191 238 285 334
#     4  10  20  33  52  78 109 144 182 224 273 328
#
# _framework density 19.801072999999999
#
# number of rings (size 3 to 8) (size 9 to 14) (size 15 to 20)
#    0.000    1.875    1.250    2.250    0.000    4.250 
#    0.000    2.500    0.000    0.000    0.000    0.000 
#    0.000    0.000    0.000    0.000    0.000    0.000 
#
# Total GULP energy -793691.120898 kJ/mol
# GULP energy per Si atom -12401.423764 kJ/mol
# Density = 1.975600 g / cm^3
# Si number density = 19.801073 Si / 1000 Ang^3
#
#
#
# Elastic Constant Matrix: (Units=GPa)
#
#
# Indices 1 2 3 4 5 6 
#
# 1 73.1438 25.8624 62.4685 0.0000 0.0000 0.0000
# 2 25.8624 89.2544 25.6235 0.0000 0.0000 0.0000
# 3 62.4685 25.6235 110.8548 0.0000 0.0000 0.0000
# 4 0.0000 0.0000 0.0000 23.8778 0.0000 0.0000
# 5 0.0000 0.0000 0.0000 0.0000 43.1160 0.0000
# 6 0.0000 0.0000 0.0000 0.0000 0.0000 25.1723
#
#
#
# Elastic Compliance Matrix: (Units=1/GPa)
#
#
# Indices 1 2 3 4 5 6 
#
# 1 0.027491 -0.003768 -0.014620 0.000000 0.000000 0.000000
# 2 -0.003768 0.012517 -0.000770 0.000000 0.000000 0.000000
# 3 -0.014620 -0.000770 0.017438 0.000000 0.000000 0.000000
# 4 0.000000 0.000000 0.000000 0.041880 0.000000 0.000000
# 5 0.000000 0.000000 0.000000 0.000000 0.023193 0.000000
# 6 0.000000 0.000000 0.000000 0.000000 0.000000 0.039726
#
#
# Mechanical properties :
#
#
# Convention : Reuss Voigt Hill
#
# Bulk Modulus (GPa) = 52.27902 55.68466 53.98184
# Shear Modulus (GPa) = 24.16189 29.05313 26.60751
#
# Velocity S-wave (km/s) = 3.49697 3.83463 3.66968
# Velocity P-wave (km/s) = 6.53946 6.91295 6.72880
#
# Compressibility (1/GPa) = 0.01912813
#
# Stress axis : x y z
#
# Youngs Moduli (GPa) = 36.37591 79.89243 57.34752
#
# Poissons Ratio (x) = 0.30107 0.83844
# Poissons Ratio (y) = 0.13708 0.04414
# Poissons Ratio (z) = 0.53183 0.06149
#
# Static dielectric constant tensor:
#      x y z
#    x 3.540810 0.000000 0.000000 
#    y 0.000000 3.779200 0.000000 
#    z 0.000000 0.000000 3.386460 
# 
# 
# High freq. dielectric constant tensor:
#      x y z
#    x 1.763730 0.000000 0.000000 
#    y 0.000000 1.783870 0.000000 
#    z 0.000000 0.000000 1.767780 
# 
# From -- ./inp_files/34283.got.cif
#   From: 2010.03.12/outbox.cif.g09.slc.cpg/sg53_18_cif.got.tgz:34283.got - 2010.04.16 14:36:59.
