data_PCOD8219141
_publ_section_title
;
Structure prediction by ZEFSAII (Michael W. Deem and Ramdas Pophale) SiO2 
 PCOD8219141
Probable space group: P M N A
;
_chemical_formula_sum "Si O2"
_cell_formula_units_Z 64
_cell_length_a 9.067189
_cell_length_b 11.884453
_cell_length_c 31.096112
_cell_angle_alpha 90.000000
_cell_angle_beta 90.000000
_cell_angle_gamma 90.000000
_cell_volume 3350.872920
_symmetry_space_group_name_H-M "P M N A"
_symmetry_group_IT_number 53
_symmetry_cell_setting 'orthorhombic'
loop_
_space_group_symop_operation_xyz
x,y,z
1/2-x,-y,1/2+z
x,-y,-z
1/2-x,y,1/2-z
-x,-y,-z
1/2+x,y,1/2-z
-x,y,z
1/2+x,-y,1/2+z
loop_
_atom_site_type_symbol
_atom_site_label
_atom_site_fract_x
_atom_site_fract_y
_atom_site_fract_z
Si Si1 0.173195 0.493404 0.794502
Si Si2 0.827423 0.102509 0.632538
Si Si3 0.171189 0.233073 0.793088
Si Si4 0.833849 0.886578 0.980828
Si Si5 0.165212 0.242393 0.935190
Si Si6 0.670994 0.386109 0.126554
Si Si7 0.667445 0.139732 0.104323
Si Si8 0.827631 0.503741 0.049644
O O1 0.250000 0.531423 0.750000
O O2 0.204892 0.362731 0.803738
O O3 0.239855 0.559842 0.834458
O O4 0.000000 0.519007 0.790806
O O5 0.732209 0.155744 0.669771
O O6 0.785053 0.166274 0.588721
O O7 0.000000 0.118869 0.641623
O O8 0.780840 0.971346 0.630012
O O9 0.250000 0.194224 0.750000
O O10 0.000000 0.210788 0.787274
O O11 0.754865 0.841951 0.939115
O O12 0.000000 0.917281 0.967413
O O13 0.827174 0.784964 0.014436
O O14 0.759281 0.000000 0.000000
O O15 0.200833 0.373490 0.930048
O O16 0.000000 0.216773 0.917331
O O17 0.500000 0.423023 0.128655
O O18 0.687393 0.251504 0.132908
O O19 0.735984 0.419530 0.079904
O O20 0.500000 0.121411 0.090348
O O21 0.000000 0.470815 0.051610
O O22 0.772508 0.500000 0.000000
#
# Coordination Sequence:
#
# PCOD8219141 Si02
#       8
#     8   8   8   8   8   8   8   8
#     4  10  21  39  64  92 118 146 183 230 285 343
#     4  11  22  36  55  80 110 144 183 223 271 326
#     4  10  21  38  61  88 116 142 173 218 273 331
#     4  10  19  33  55  80 106 143 191 236 278 330
#     4  10  20  34  53  80 110 140 181 232 281 329
#     4  11  23  39  58  82 115 153 196 241 286 339
#     4  10  23  39  54  77 112 153 191 233 279 328
#     4  10  21  37  56  79 112 152 191 235 289 344
#
# _framework density 19.099499000000002
#
# number of rings (size 3 to 8) (size 9 to 14) (size 15 to 20)
#    0.000    1.750    1.250    3.000    0.000    8.500 
#    0.000    0.625    0.000    0.000    0.000    0.000 
#    0.000    0.000    0.000    0.000    0.000    0.000 
#
# Total GULP energy -793723.979515 kJ/mol
# GULP energy per Si atom -12401.937180 kJ/mol
# Density = 1.905603 g / cm^3
# Si number density = 19.099499 Si / 1000 Ang^3
#
#
#
# Elastic Constant Matrix: (Units=GPa)
#
#
# Indices 1 2 3 4 5 6 
#
# 1 82.7769 41.6473 55.4527 0.0000 0.0000 0.0000
# 2 41.6473 89.4883 42.6557 0.0000 0.0000 0.0000
# 3 55.4527 42.6557 120.5999 0.0000 0.0000 0.0000
# 4 0.0000 0.0000 0.0000 19.8379 0.0000 0.0000
# 5 0.0000 0.0000 0.0000 0.0000 34.6419 0.0000
# 6 0.0000 0.0000 0.0000 0.0000 0.0000 27.6093
#
#
#
# Elastic Compliance Matrix: (Units=1/GPa)
#
#
# Indices 1 2 3 4 5 6 
#
# 1 0.019703 -0.005835 -0.006996 0.000000 0.000000 0.000000
# 2 -0.005835 0.015169 -0.002682 0.000000 0.000000 0.000000
# 3 -0.006996 -0.002682 0.012457 0.000000 0.000000 0.000000
# 4 0.000000 0.000000 0.000000 0.050409 0.000000 0.000000
# 5 0.000000 0.000000 0.000000 0.000000 0.028867 0.000000
# 6 0.000000 0.000000 0.000000 0.000000 0.000000 0.036220
#
#
# Mechanical properties :
#
#
# Convention : Reuss Voigt Hill
#
# Bulk Modulus (GPa) = 61.33803 63.59738 62.46770
# Shear Modulus (GPa) = 25.08984 26.62512 25.85748
#
# Velocity S-wave (km/s) = 3.62835 3.73771 3.68343
# Velocity P-wave (km/s) = 7.05251 7.21093 7.13216
#
# Compressibility (1/GPa) = 0.01630310
#
# Stress axis : x y z
#
# Youngs Moduli (GPa) = 50.75405 65.92529 80.27483
#
# Poissons Ratio (x) = 0.38467 0.56158
# Poissons Ratio (y) = 0.29615 0.21531
# Poissons Ratio (z) = 0.35506 0.17682
#
# Static dielectric constant tensor:
#      x y z
#    x 3.604880 0.000000 0.000000 
#    y 0.000000 3.603980 0.000000 
#    z 0.000000 0.000000 3.933830 
# 
# 
# High freq. dielectric constant tensor:
#      x y z
#    x 1.744760 0.000000 0.000000 
#    y 0.000000 1.747600 0.000000 
#    z 0.000000 0.000000 1.736810 
# 
# From -- ./inp_files/38243.got.cif
#   From: 2010.03.12/outbox.cif.g09.slc.cpg/sg53_20_cif.got.tgz:38243.got - 2010.04.16 14:36:59.
