data_PCOD8219643
_publ_section_title
;
Structure prediction by ZEFSAII (Michael W. Deem and Ramdas Pophale) SiO2 
 PCOD8219643
Probable space group: P M N A
;
_chemical_formula_sum "Si O2"
_cell_formula_units_Z 32
_cell_length_a 17.050626
_cell_length_b 11.899296
_cell_length_c 7.669918
_cell_angle_alpha 90.000000
_cell_angle_beta 90.000000
_cell_angle_gamma 90.000000
_cell_volume 1556.153082
_symmetry_space_group_name_H-M "P M N A"
_symmetry_group_IT_number 53
_symmetry_cell_setting 'orthorhombic'
loop_
_space_group_symop_operation_xyz
x,y,z
1/2-x,-y,1/2+z
x,-y,-z
1/2-x,y,1/2-z
-x,-y,-z
1/2+x,y,1/2-z
-x,y,z
1/2+x,-y,1/2+z
loop_
_atom_site_type_symbol
_atom_site_label
_atom_site_fract_x
_atom_site_fract_y
_atom_site_fract_z
Si Si1 0.409541 0.507705 0.296724
Si Si2 0.908002 0.124602 0.012928
Si Si3 0.407378 0.736770 0.841175
Si Si4 0.660744 0.263666 0.793946
O O1 0.391175 0.500000 0.500000
O O2 0.500000 0.539797 0.264417
O O3 0.387746 0.392243 0.202223
O O4 0.355872 0.603770 0.214761
O O5 0.874397 0.187659 0.182975
O O6 0.000000 0.114774 0.037502
O O7 0.892669 0.196189 0.840664
O O8 0.870370 0.000000 0.000000
O O9 0.500000 0.752666 0.871052
O O10 0.360382 0.776987 0.011613
O O11 0.750000 0.236586 0.750000
#
# Coordination Sequence:
#
# PCOD8219643 Si02
#       4
#     8   8   8   8
#     4  10  19  37  65  91 121 161 207 259 309 363
#     4  10  22  44  69  91 118 161 220 268 299 352
#     4  10  21  40  68  94 120 162 212 260 308 364
#     4  12  25  39  58  94 131 168 197 252 320 386
#
# _framework density 20.563531000000001
#
# number of rings (size 3 to 8) (size 9 to 14) (size 15 to 20)
#    0.000    1.500    2.500    3.000    0.000    6.000 
#    4.500    3.750    0.000    0.000    0.000    0.000 
#    0.000    0.000    0.000    0.000    0.000    0.000 
#
# Total GULP energy -396930.454973 kJ/mol
# GULP energy per Si atom -12404.076718 kJ/mol
# Density = 2.051673 g / cm^3
# Si number density = 20.563531 Si / 1000 Ang^3
#
#
#
# Elastic Constant Matrix: (Units=GPa)
#
#
# Indices 1 2 3 4 5 6 
#
# 1 27.1708 16.0709 23.0049 0.0000 0.0000 0.0000
# 2 16.0709 120.6938 58.1192 0.0000 0.0000 0.0000
# 3 23.0049 58.1192 172.7781 0.0000 0.0000 0.0000
# 4 0.0000 0.0000 0.0000 8.9987 0.0000 0.0000
# 5 0.0000 0.0000 0.0000 0.0000 16.4871 0.0000
# 6 0.0000 0.0000 0.0000 0.0000 0.0000 2.1135
#
#
#
# Elastic Compliance Matrix: (Units=1/GPa)
#
#
# Indices 1 2 3 4 5 6 
#
# 1 0.042696 -0.003517 -0.004502 0.000000 0.000000 0.000000
# 2 -0.003517 0.010177 -0.002955 0.000000 0.000000 0.000000
# 3 -0.004502 -0.002955 0.007381 0.000000 0.000000 0.000000
# 4 0.000000 0.000000 0.000000 0.111128 0.000000 0.000000
# 5 0.000000 0.000000 0.000000 0.000000 0.060654 0.000000
# 6 0.000000 0.000000 0.000000 0.000000 0.000000 0.473145
#
#
# Mechanical properties :
#
#
# Convention : Reuss Voigt Hill
#
# Bulk Modulus (GPa) = 26.10561 57.22585 41.66573
# Shear Modulus (GPa) = 6.75770 20.41637 13.58704
#
# Velocity S-wave (km/s) = 1.81477 3.15436 2.57326
# Velocity P-wave (km/s) = 4.13689 6.41528 5.39767
#
# Compressibility (1/GPa) = 0.03830595
#
# Stress axis : x y z
#
# Youngs Moduli (GPa) = 23.42135 98.26368 135.48057
#
# Poissons Ratio (x) = 0.34563 0.60989
# Poissons Ratio (y) = 0.08238 0.40033
# Poissons Ratio (z) = 0.10544 0.29036
#
# Static dielectric constant tensor:
#      x y z
#    x 3.374730 0.000000 0.000000 
#    y 0.000000 3.914110 0.000000 
#    z 0.000000 0.000000 3.914970 
# 
# 
# High freq. dielectric constant tensor:
#      x y z
#    x 1.774090 0.000000 0.000000 
#    y 0.000000 1.803180 0.000000 
#    z 0.000000 0.000000 1.822340 
# 
# From -- ./inp_files/8031.got.cif
#   From: 2010.03.12/outbox.cif.g09.slc.cpg/sg53_5_cif.got.tgz:8031.got - 2010.04.16 14:36:59.
