data_PCOD8219989
_publ_section_title
;
Structure prediction by ZEFSAII (Michael W. Deem and Ramdas Pophale) SiO2 
 PCOD8219989
Probable space group: P M N A
;
_chemical_formula_sum "Si O2"
_cell_formula_units_Z 48
_cell_length_a 8.765404
_cell_length_b 13.522973
_cell_length_c 21.743865
_cell_angle_alpha 90.000000
_cell_angle_beta 90.000000
_cell_angle_gamma 90.000000
_cell_volume 2577.394287
_symmetry_space_group_name_H-M "P M N A"
_symmetry_group_IT_number 53
_symmetry_cell_setting 'orthorhombic'
loop_
_space_group_symop_operation_xyz
x,y,z
1/2-x,-y,1/2+z
x,-y,-z
1/2-x,y,1/2-z
-x,-y,-z
1/2+x,y,1/2-z
-x,y,z
1/2+x,-y,1/2+z
loop_
_atom_site_type_symbol
_atom_site_label
_atom_site_fract_x
_atom_site_fract_y
_atom_site_fract_z
Si Si1 0.675598 0.668256 0.082097
Si Si2 0.669109 0.522874 0.571878
Si Si3 0.830016 0.235614 0.809406
Si Si4 0.820118 0.942631 0.561547
Si Si5 0.821901 0.265724 0.040761
Si Si6 0.830839 0.996090 0.188671
O O1 0.500000 0.676447 0.062357
O O2 0.714450 0.555059 0.102674
O O3 0.711999 0.741907 0.136777
O O4 0.784712 0.705610 0.028567
O O5 0.668581 0.500000 0.500000
O O6 0.500000 0.506440 0.599322
O O7 0.718538 0.637602 0.582726
O O8 0.750000 0.283330 0.750000
O O9 0.000000 0.281139 0.819578
O O10 0.845421 0.119575 0.801341
O O11 0.776714 0.827537 0.560987
O O12 0.756460 0.986868 0.624726
O O13 0.000000 0.953942 0.563289
O O14 0.757384 0.000000 0.500000
O O15 0.000000 0.239193 0.045519
O O16 0.750000 0.041865 0.250000
O O17 0.000000 0.043543 0.183824
#
# Coordination Sequence:
#
# PCOD8219989 Si02
#       6
#     8   8   8   8   8   8
#     4  11  20  30  49  76 105 135 167 206 255 309
#     4   8  16  31  49  70  97 130 166 203 247 302
#     4  10  20  34  52  74 101 133 170 211 254 304
#     4  11  23  36  53  80 112 142 176 222 270 316
#     4  10  20  34  52  74 102 136 173 213 258 306
#     4  10  21  37  57  78 104 141 181 219 262 316
#
# _framework density 18.623459
#
# number of rings (size 3 to 8) (size 9 to 14) (size 15 to 20)
#    0.000    2.000    0.000    5.500    0.000    9.667 
#    0.000    0.000    0.000    1.000    0.000    0.000 
#    0.000    0.000    0.000    0.000    0.000    0.000 
#
# Total GULP energy -594853.497862 kJ/mol
# GULP energy per Si atom -12392.781205 kJ/mol
# Density = 1.858107 g / cm^3
# Si number density = 18.623459 Si / 1000 Ang^3
#
#
#
# Elastic Constant Matrix: (Units=GPa)
#
#
# Indices 1 2 3 4 5 6 
#
# 1 86.6625 24.6614 31.4125 0.0000 0.0000 0.0000
# 2 24.6614 52.1426 9.4538 0.0000 0.0000 0.0000
# 3 31.4125 9.4538 87.7496 0.0000 0.0000 0.0000
# 4 0.0000 0.0000 0.0000 16.5127 0.0000 0.0000
# 5 0.0000 0.0000 0.0000 0.0000 28.5316 0.0000
# 6 0.0000 0.0000 0.0000 0.0000 0.0000 29.6534
#
#
#
# Elastic Compliance Matrix: (Units=1/GPa)
#
#
# Indices 1 2 3 4 5 6 
#
# 1 0.015024 -0.006253 -0.004704 0.000000 0.000000 0.000000
# 2 -0.006253 0.022163 -0.000149 0.000000 0.000000 0.000000
# 3 -0.004704 -0.000149 0.013096 0.000000 0.000000 0.000000
# 4 0.000000 0.000000 0.000000 0.060559 0.000000 0.000000
# 5 0.000000 0.000000 0.000000 0.000000 0.035049 0.000000
# 6 0.000000 0.000000 0.000000 0.000000 0.000000 0.033723
#
#
# Mechanical properties :
#
#
# Convention : Reuss Voigt Hill
#
# Bulk Modulus (GPa) = 35.62605 39.73447 37.68026
# Shear Modulus (GPa) = 23.67617 25.67469 24.67543
#
# Velocity S-wave (km/s) = 3.56941 3.71701 3.64396
# Velocity P-wave (km/s) = 6.01322 6.30900 6.16289
#
# Compressibility (1/GPa) = 0.02806935
#
# Stress axis : x y z
#
# Youngs Moduli (GPa) = 66.56221 45.12125 76.35766
#
# Poissons Ratio (x) = 0.28213 0.35922
# Poissons Ratio (y) = 0.41619 0.01141
# Poissons Ratio (z) = 0.31314 0.00674
#
# Static dielectric constant tensor:
#      x y z
#    x 3.632360 0.000000 0.000000 
#    y 0.000000 3.718310 0.000000 
#    z 0.000000 0.000000 3.246040 
# 
# 
# High freq. dielectric constant tensor:
#      x y z
#    x 1.734220 0.000000 0.000000 
#    y 0.000000 1.715100 0.000000 
#    z 0.000000 0.000000 1.693210 
# 
# From -- ./inp_files/30480.got.cif
#   From: 2010.03.12/outbox.cif.g09.slc.cpg/sg53_16_cif.got.tgz:30480.got - 2010.04.16 14:36:59.
