data_PCOD8219410
_publ_section_title
;
Structure prediction by ZEFSAII (Michael W. Deem and Ramdas Pophale) SiO2 
 PCOD8219410
Probable space group: P M N A
;
_chemical_formula_sum "Si O2"
_cell_formula_units_Z 48
_cell_length_a 9.178216
_cell_length_b 14.885082
_cell_length_c 20.496808
_cell_angle_alpha 90.000000
_cell_angle_beta 90.000000
_cell_angle_gamma 90.000000
_cell_volume 2800.243118
_symmetry_space_group_name_H-M "P M N A"
_symmetry_group_IT_number 53
_symmetry_cell_setting 'orthorhombic'
loop_
_space_group_symop_operation_xyz
x,y,z
1/2-x,-y,1/2+z
x,-y,-z
1/2-x,y,1/2-z
-x,-y,-z
1/2+x,y,1/2-z
-x,y,z
1/2+x,-y,1/2+z
loop_
_atom_site_type_symbol
_atom_site_label
_atom_site_fract_x
_atom_site_fract_y
_atom_site_fract_z
Si Si1 0.835892 0.308707 0.854973
Si Si2 0.173037 0.732989 0.482115
Si Si3 0.664151 0.887645 0.312303
Si Si4 0.166654 0.502722 0.811508
Si Si5 0.171508 0.912622 0.041723
Si Si6 0.328608 0.578226 0.550651
O O1 0.718629 0.306905 0.912435
O O2 0.822117 0.220342 0.810755
O O3 0.805706 0.395688 0.811571
O O4 0.000000 0.314447 0.885438
O O5 0.240928 0.831746 0.491614
O O6 0.237257 0.668042 0.537407
O O7 0.000000 0.738382 0.487745
O O8 0.750000 0.927453 0.250000
O O9 0.500000 0.920030 0.302367
O O10 0.721768 0.924668 0.382456
O O11 0.250000 0.544965 0.750000
O O12 0.223048 0.545796 0.878399
O O13 0.000000 0.526900 0.801375
O O14 0.000000 0.889523 0.040512
O O15 0.209529 0.000000 0.000000
O O16 0.287598 0.500000 0.500000
O O17 0.500000 0.599578 0.547473
#
# Coordination Sequence:
#
# PCOD8219410 Si02
#       6
#     8   8   8   8   8   8
#     4   9  17  32  48  67  99 140 176 199 240 311
#     4  11  21  31  50  80 107 130 165 220 268 297
#     4   9  17  28  47  73 102 131 161 200 248 305
#     4  10  20  32  49  71  99 137 175 219 261 300
#     4   9  19  37  58  76  99 135 176 210 249 314
#     4  10  19  35  55  71  98 141 183 210 244 307
#
# _framework density 17.141369000000001
#
# number of rings (size 3 to 8) (size 9 to 14) (size 15 to 20)
#    0.000    2.333    1.667    3.000    0.000    4.667 
#    0.000    0.000    0.000    1.000    0.000    2.333 
#    0.000    0.000    0.000    0.000    0.000    0.000 
#
# Total GULP energy -595076.091466 kJ/mol
# GULP energy per Si atom -12397.418572 kJ/mol
# Density = 1.710235 g / cm^3
# Si number density = 17.141369 Si / 1000 Ang^3
#
#
#
# Elastic Constant Matrix: (Units=GPa)
#
#
# Indices 1 2 3 4 5 6 
#
# 1 76.2645 47.6997 52.8116 0.0000 0.0000 0.0000
# 2 47.6997 78.7039 59.1476 0.0000 0.0000 0.0000
# 3 52.8116 59.1476 134.1017 0.0000 0.0000 0.0000
# 4 0.0000 0.0000 0.0000 19.0771 0.0000 0.0000
# 5 0.0000 0.0000 0.0000 0.0000 31.2453 0.0000
# 6 0.0000 0.0000 0.0000 0.0000 0.0000 17.4663
#
#
#
# Elastic Compliance Matrix: (Units=1/GPa)
#
#
# Indices 1 2 3 4 5 6 
#
# 1 0.022652 -0.010508 -0.004286 0.000000 0.000000 0.000000
# 2 -0.010508 0.023880 -0.006394 0.000000 0.000000 0.000000
# 3 -0.004286 -0.006394 0.011965 0.000000 0.000000 0.000000
# 4 0.000000 0.000000 0.000000 0.052419 0.000000 0.000000
# 5 0.000000 0.000000 0.000000 0.000000 0.032005 0.000000
# 6 0.000000 0.000000 0.000000 0.000000 0.000000 0.057253
#
#
# Mechanical properties :
#
#
# Convention : Reuss Voigt Hill
#
# Bulk Modulus (GPa) = 62.03170 67.59863 64.81516
# Shear Modulus (GPa) = 20.16740 22.18515 21.17627
#
# Velocity S-wave (km/s) = 3.43379 3.60147 3.51862
# Velocity P-wave (km/s) = 7.21027 7.53762 7.37576
#
# Compressibility (1/GPa) = 0.01612079
#
# Stress axis : x y z
#
# Youngs Moduli (GPa) = 44.14534 41.87665 83.57388
#
# Poissons Ratio (x) = 0.44002 0.35823
# Poissons Ratio (y) = 0.46386 0.53441
# Poissons Ratio (z) = 0.18923 0.26778
#
# Static dielectric constant tensor:
#      x y z
#    x 3.092700 0.000000 0.000000 
#    y 0.000000 3.030050 0.000000 
#    z 0.000000 0.000000 3.139650 
# 
# 
# High freq. dielectric constant tensor:
#      x y z
#    x 1.653650 0.000000 0.000000 
#    y 0.000000 1.633710 0.000000 
#    z 0.000000 0.000000 1.657260 
# 
# From -- ./inp_files/26434.got.cif
#   From: 2010.03.12/outbox.cif.g09.slc.cpg/sg53_14_cif.got.tgz:26434.got - 2010.04.16 14:36:59.
