data_PCOD8219098
_publ_section_title
;
Structure prediction by ZEFSAII (Michael W. Deem and Ramdas Pophale) SiO2 
 PCOD8219098
Probable space group: P M N A
;
_chemical_formula_sum "Si O2"
_cell_formula_units_Z 64
_cell_length_a 13.511070
_cell_length_b 23.956909
_cell_length_c 9.022357
_cell_angle_alpha 90.000000
_cell_angle_beta 90.000000
_cell_angle_gamma 90.000000
_cell_volume 2920.387862
_symmetry_space_group_name_H-M "P M N A"
_symmetry_group_IT_number 53
_symmetry_cell_setting 'orthorhombic'
loop_
_space_group_symop_operation_xyz
x,y,z
1/2-x,-y,1/2+z
x,-y,-z
1/2-x,y,1/2-z
-x,-y,-z
1/2+x,y,1/2-z
-x,y,z
1/2+x,-y,1/2+z
loop_
_atom_site_type_symbol
_atom_site_label
_atom_site_fract_x
_atom_site_fract_y
_atom_site_fract_z
Si Si1 0.820262 0.560409 0.955183
Si Si2 0.110832 0.415032 0.373348
Si Si3 0.611336 0.868374 0.448299
Si Si4 0.609362 0.291283 0.190069
Si Si5 0.260210 0.942335 0.925580
Si Si6 0.749465 0.767692 0.477878
Si Si7 0.387415 0.143536 0.890950
Si Si8 0.112609 0.675739 0.031398
O O1 0.865580 0.572257 0.796256
O O2 0.860169 0.610688 0.059653
O O3 0.862053 0.500000 0.000000
O O4 0.700040 0.557967 0.967727
O O5 0.114266 0.348969 0.401958
O O6 0.000000 0.437839 0.414488
O O7 0.500000 0.858348 0.496571
O O8 0.650991 0.925004 0.521395
O O9 0.668337 0.814949 0.514764
O O10 0.623162 0.880541 0.273523
O O11 0.500000 0.264519 0.169524
O O12 0.627758 0.305928 0.360997
O O13 0.694797 0.251204 0.128859
O O14 0.250000 0.947518 0.750000
O O15 0.337142 0.895420 0.984296
O O16 0.293656 0.000000 0.000000
O O17 0.834276 0.795919 0.377112
O O18 0.692405 0.717046 0.390335
O O19 0.500000 0.151887 0.938994
O O20 0.000000 0.686001 0.086106
#
# Coordination Sequence:
#
# PCOD8219098 Si02
#       8
#     8   8   8   8   8   8   8   8
#     4  10  19  33  54  77 104 145 186 237 303 369
#     4   9  18  33  52  75 104 138 182 233 295 365
#     4  10  23  43  64  89 126 173 216 258 313 371
#     4   9  17  30  50  78 112 146 180 230 299 369
#     4  11  23  41  67  98 133 171 214 264 316 369
#     4  11  18  32  57  86 113 148 197 247 298 357
#     4  10  23  43  65  90 126 173 217 259 311 373
#     4  10  20  32  49  79 115 149 187 239 307 376
#
# _framework density 21.914898000000001
#
# number of rings (size 3 to 8) (size 9 to 14) (size 15 to 20)
#    0.000    2.000    1.250    4.500    0.000    6.250 
#    0.000    0.000    5.500    0.000    0.000    0.000 
#    0.000    0.000    0.000    0.000    0.000    0.000 
#
# Total GULP energy -792949.317217 kJ/mol
# GULP energy per Si atom -12389.833082 kJ/mol
# Density = 2.186502 g / cm^3
# Si number density = 21.914898 Si / 1000 Ang^3
#
#
#
# Elastic Constant Matrix: (Units=GPa)
#
#
# Indices 1 2 3 4 5 6 
#
# 1 175.0751 61.5703 37.0628 0.0000 0.0000 0.0000
# 2 61.5703 124.4496 28.8897 0.0000 0.0000 0.0000
# 3 37.0628 28.8897 58.6966 0.0000 0.0000 0.0000
# 4 0.0000 0.0000 0.0000 27.2725 0.0000 0.0000
# 5 0.0000 0.0000 0.0000 0.0000 25.4707 0.0000
# 6 0.0000 0.0000 0.0000 0.0000 0.0000 20.6526
#
#
#
# Elastic Compliance Matrix: (Units=1/GPa)
#
#
# Indices 1 2 3 4 5 6 
#
# 1 0.007427 -0.002919 -0.003253 0.000000 0.000000 0.000000
# 2 -0.002919 0.010219 -0.003186 0.000000 0.000000 0.000000
# 3 -0.003253 -0.003186 0.020659 0.000000 0.000000 0.000000
# 4 0.000000 0.000000 0.000000 0.036667 0.000000 0.000000
# 5 0.000000 0.000000 0.000000 0.000000 0.039261 0.000000
# 6 0.000000 0.000000 0.000000 0.000000 0.000000 0.048420
#
#
# Mechanical properties :
#
#
# Convention : Reuss Voigt Hill
#
# Bulk Modulus (GPa) = 51.05113 68.14077 59.59595
# Shear Modulus (GPa) = 26.60985 30.05904 28.33444
#
# Velocity S-wave (km/s) = 3.48837 3.70756 3.59964
# Velocity P-wave (km/s) = 6.29052 7.03483 6.67307
#
# Compressibility (1/GPa) = 0.01958821
#
# Stress axis : x y z
#
# Youngs Moduli (GPa) = 134.64130 97.85274 48.40494
#
# Poissons Ratio (x) = 0.28567 0.15745
# Poissons Ratio (y) = 0.39307 0.15424
# Poissons Ratio (z) = 0.43797 0.31181
#
# Static dielectric constant tensor:
#      x y z
#    x 4.386400 0.000000 0.000000 
#    y 0.000000 4.181000 0.000000 
#    z 0.000000 0.000000 3.445910 
# 
# 
# High freq. dielectric constant tensor:
#      x y z
#    x 1.884110 0.000000 0.000000 
#    y 0.000000 1.857510 0.000000 
#    z 0.000000 0.000000 1.817330 
# 
# From -- ./inp_files/8925.got.cif
#   From: 2010.03.12/outbox.cif.g09.slc.cpg/sg53_5_cif.got.tgz:8925.got - 2010.04.16 14:36:59.
