data_PCOD8219839
_publ_section_title
;
Structure prediction by ZEFSAII (Michael W. Deem and Ramdas Pophale) SiO2 
 PCOD8219839
Probable space group: P M N A
;
_chemical_formula_sum "Si O2"
_cell_formula_units_Z 64
_cell_length_a 8.941210
_cell_length_b 15.229513
_cell_length_c 25.191197
_cell_angle_alpha 90.000000
_cell_angle_beta 90.000000
_cell_angle_gamma 90.000000
_cell_volume 3430.292196
_symmetry_space_group_name_H-M "P M N A"
_symmetry_group_IT_number 53
_symmetry_cell_setting 'orthorhombic'
loop_
_space_group_symop_operation_xyz
x,y,z
1/2-x,-y,1/2+z
x,-y,-z
1/2-x,y,1/2-z
-x,-y,-z
1/2+x,y,1/2-z
-x,y,z
1/2+x,-y,1/2+z
loop_
_atom_site_type_symbol
_atom_site_label
_atom_site_fract_x
_atom_site_fract_y
_atom_site_fract_z
Si Si1 0.172074 0.622833 0.944548
Si Si2 0.320717 0.880428 0.693731
Si Si3 0.163670 0.544930 0.699984
Si Si4 0.166948 0.723224 0.639856
Si Si5 0.323401 0.317657 0.955890
Si Si6 0.822356 0.866423 0.020434
Si Si7 0.671445 0.443067 0.618802
Si Si8 0.676128 0.035186 0.416443
O O1 0.234976 0.708317 0.913004
O O2 0.190315 0.529312 0.917131
O O3 0.000000 0.643701 0.957053
O O4 0.264067 0.617172 0.998673
O O5 0.250000 0.913479 0.750000
O O6 0.500000 0.877354 0.699527
O O7 0.256718 0.783799 0.681239
O O8 0.267731 0.941298 0.643497
O O9 0.250000 0.582375 0.750000
O O10 0.147426 0.626046 0.661261
O O11 0.259738 0.465356 0.675886
O O12 0.000000 0.508719 0.715038
O O13 0.000000 0.761807 0.628066
O O14 0.500000 0.314850 0.955812
O O15 0.260406 0.220932 0.962898
O O16 0.263839 0.359724 0.901643
O O17 0.000000 0.852478 0.021218
O O18 0.773545 0.938492 0.064759
O O19 0.767595 0.895763 0.961360
O O20 0.500000 0.415386 0.624569
O O21 0.500000 0.040148 0.416080
#
# Coordination Sequence:
#
# PCOD8219839 Si02
#       8
#     8   8   8   8   8   8   8   8
#     4  10  20  34  52  74 103 141 179 212 250 301
#     4  11  21  33  50  76 109 144 177 210 253 308
#     4  10  20  34  52  73 100 134 173 216 259 303
#     4  10  20  33  50  76 107 139 175 214 256 301
#     4  12  23  33  49  77 109 137 168 209 259 310
#     4   9  17  35  60  80  98 128 171 218 266 314
#     4  10  21  36  53  73  99 135 177 216 256 302
#     4   8  17  34  57  80 101 129 170 216 261 311
#
# _framework density 18.657302999999999
#
# number of rings (size 3 to 8) (size 9 to 14) (size 15 to 20)
#    0.000    2.000    0.000    5.250    0.000    6.500 
#    0.000    3.125    0.000    0.750    0.000    3.500 
#    0.000    0.000    0.000    0.000    0.000    0.000 
#
# Total GULP energy -793249.190405 kJ/mol
# GULP energy per Si atom -12394.518600 kJ/mol
# Density = 1.861484 g / cm^3
# Si number density = 18.657303 Si / 1000 Ang^3
#
#
#
# Elastic Constant Matrix: (Units=GPa)
#
#
# Indices 1 2 3 4 5 6 
#
# 1 125.7106 40.8449 33.0137 0.0000 0.0000 0.0000
# 2 40.8449 59.2955 21.6050 0.0000 0.0000 0.0000
# 3 33.0137 21.6050 76.5978 0.0000 0.0000 0.0000
# 4 0.0000 0.0000 0.0000 16.7670 0.0000 0.0000
# 5 0.0000 0.0000 0.0000 0.0000 31.6750 0.0000
# 6 0.0000 0.0000 0.0000 0.0000 0.0000 18.8936
#
#
#
# Elastic Compliance Matrix: (Units=1/GPa)
#
#
# Indices 1 2 3 4 5 6 
#
# 1 0.010777 -0.006388 -0.002843 0.000000 0.000000 0.000000
# 2 -0.006388 0.022582 -0.003616 0.000000 0.000000 0.000000
# 3 -0.002843 -0.003616 0.015301 0.000000 0.000000 0.000000
# 4 0.000000 0.000000 0.000000 0.059641 0.000000 0.000000
# 5 0.000000 0.000000 0.000000 0.000000 0.031571 0.000000
# 6 0.000000 0.000000 0.000000 0.000000 0.000000 0.052928
#
#
# Mechanical properties :
#
#
# Convention : Reuss Voigt Hill
#
# Bulk Modulus (GPa) = 43.54365 50.28125 46.91245
# Shear Modulus (GPa) = 22.10934 24.54315 23.32624
#
# Velocity S-wave (km/s) = 3.44615 3.63088 3.53972
# Velocity P-wave (km/s) = 6.26290 6.67728 6.47341
#
# Compressibility (1/GPa) = 0.02296546
#
# Stress axis : x y z
#
# Youngs Moduli (GPa) = 92.79169 44.28237 65.35657
#
# Poissons Ratio (x) = 0.28286 0.18582
# Poissons Ratio (y) = 0.59271 0.23636
# Poissons Ratio (z) = 0.26382 0.16015
#
# Static dielectric constant tensor:
#      x y z
#    x 3.566050 0.000000 0.000000 
#    y 0.000000 3.293880 0.000000 
#    z 0.000000 0.000000 3.693610 
# 
# 
# High freq. dielectric constant tensor:
#      x y z
#    x 1.727610 0.000000 0.000000 
#    y 0.000000 1.702090 0.000000 
#    z 0.000000 0.000000 1.717130 
# 
# From -- ./inp_files/34340.got.cif
#   From: 2010.03.12/outbox.cif.g09.slc.cpg/sg53_18_cif.got.tgz:34340.got - 2010.04.16 14:36:59.
