data_PCOD8219187
_publ_section_title
;
Structure prediction by ZEFSAII (Michael W. Deem and Ramdas Pophale) SiO2 
 PCOD8219187
Probable space group: P M N A
;
_chemical_formula_sum "Si O2"
_cell_formula_units_Z 48
_cell_length_a 15.300811
_cell_length_b 10.265474
_cell_length_c 16.309581
_cell_angle_alpha 90.000000
_cell_angle_beta 90.000000
_cell_angle_gamma 90.000000
_cell_volume 2561.747152
_symmetry_space_group_name_H-M "P M N A"
_symmetry_group_IT_number 53
_symmetry_cell_setting 'orthorhombic'
loop_
_space_group_symop_operation_xyz
x,y,z
1/2-x,-y,1/2+z
x,-y,-z
1/2-x,y,1/2-z
-x,-y,-z
1/2+x,y,1/2-z
-x,y,z
1/2+x,-y,1/2+z
loop_
_atom_site_type_symbol
_atom_site_label
_atom_site_fract_x
_atom_site_fract_y
_atom_site_fract_z
Si Si1 0.839373 0.756221 0.705229
Si Si2 0.902033 0.476029 0.682887
Si Si3 0.233875 0.130229 0.452357
Si Si4 0.098250 0.516938 0.127493
Si Si5 0.097010 0.212681 0.126493
Si Si6 0.229361 0.382913 0.556959
O O1 0.750000 0.712978 0.750000
O O2 0.883739 0.628443 0.667355
O O3 0.823245 0.857124 0.630865
O O4 0.898841 0.822048 0.776045
O O5 0.894536 0.442623 0.778346
O O6 0.831094 0.386221 0.637572
O O7 0.000000 0.445073 0.651095
O O8 0.335967 0.127971 0.426848
O O9 0.213110 0.247075 0.513399
O O10 0.208403 0.000000 0.500000
O O11 0.121565 0.364926 0.116162
O O12 0.167488 0.601842 0.076846
O O13 0.000000 0.545642 0.094679
O O14 0.000000 0.181489 0.094623
O O15 0.196662 0.500000 0.500000
#
# Coordination Sequence:
#
# PCOD8219187 Si02
#       6
#     8   8   8   8   8   8
#     4   9  16  33  56  78 103 140 186 222 263 324
#     4  10  19  33  56  84 109 137 183 231 270 318
#     4  11  23  36  51  78 115 145 179 220 271 321
#     4   9  18  33  57  86 110 138 178 229 276 322
#     4   9  17  33  58  81 103 137 183 225 266 321
#     4  12  20  34  55  82 110 142 173 224 276 327
#
# _framework density 18.737213000000001
#
# number of rings (size 3 to 8) (size 9 to 14) (size 15 to 20)
#    0.000    2.000    3.333    4.000    0.000    1.667 
#    0.000    5.000    0.000    6.500    0.000    0.000 
#    0.000    0.000    0.000    0.000    0.000    0.000 
#
# Total GULP energy -595137.207721 kJ/mol
# GULP energy per Si atom -12398.691828 kJ/mol
# Density = 1.869457 g / cm^3
# Si number density = 18.737213 Si / 1000 Ang^3
#
#
#
# Elastic Constant Matrix: (Units=GPa)
#
#
# Indices 1 2 3 4 5 6 
#
# 1 58.3282 9.0104 12.1104 0.0000 0.0000 0.0000
# 2 9.0104 78.4590 36.8147 0.0000 0.0000 0.0000
# 3 12.1104 36.8147 73.5041 0.0000 0.0000 0.0000
# 4 0.0000 0.0000 0.0000 26.2360 0.0000 0.0000
# 5 0.0000 0.0000 0.0000 0.0000 23.1970 0.0000
# 6 0.0000 0.0000 0.0000 0.0000 0.0000 11.2793
#
#
#
# Elastic Compliance Matrix: (Units=1/GPa)
#
#
# Indices 1 2 3 4 5 6 
#
# 1 0.017797 -0.000873 -0.002495 0.000000 0.000000 0.000000
# 2 -0.000873 0.016704 -0.008222 0.000000 0.000000 0.000000
# 3 -0.002495 -0.008222 0.018134 0.000000 0.000000 0.000000
# 4 0.000000 0.000000 0.000000 0.038115 0.000000 0.000000
# 5 0.000000 0.000000 0.000000 0.000000 0.043109 0.000000
# 6 0.000000 0.000000 0.000000 0.000000 0.000000 0.088658
#
#
# Mechanical properties :
#
#
# Convention : Reuss Voigt Hill
#
# Bulk Modulus (GPa) = 33.95099 36.24024 35.09562
# Shear Modulus (GPa) = 19.56823 22.29953 20.93388
#
# Velocity S-wave (km/s) = 3.23515 3.45355 3.34613
# Velocity P-wave (km/s) = 5.66690 5.94020 5.80516
#
# Compressibility (1/GPa) = 0.02945422
#
# Stress axis : x y z
#
# Youngs Moduli (GPa) = 56.18843 59.86632 55.14532
#
# Poissons Ratio (x) = 0.05228 0.13758
# Poissons Ratio (y) = 0.04907 0.45342
# Poissons Ratio (z) = 0.14018 0.49224
#
# Static dielectric constant tensor:
#      x y z
#    x 3.589440 0.000000 0.000000 
#    y 0.000000 2.909060 0.000000 
#    z 0.000000 0.000000 3.596090 
# 
# 
# High freq. dielectric constant tensor:
#      x y z
#    x 1.733090 0.000000 0.000000 
#    y 0.000000 1.663640 0.000000 
#    z 0.000000 0.000000 1.740220 
# 
# From -- ./inp_files/28908.got.cif
#   From: 2010.03.12/outbox.cif.g09.slc.cpg/sg53_15_cif.got.tgz:28908.got - 2010.04.16 14:36:59.
