data_PCOD8219539
_publ_section_title
;
Structure prediction by ZEFSAII (Michael W. Deem and Ramdas Pophale) SiO2 
 PCOD8219539
Probable space group: P M N A
;
_chemical_formula_sum "Si O2"
_cell_formula_units_Z 64
_cell_length_a 14.782627
_cell_length_b 18.685209
_cell_length_c 10.722425
_cell_angle_alpha 90.000000
_cell_angle_beta 90.000000
_cell_angle_gamma 90.000000
_cell_volume 2961.710438
_symmetry_space_group_name_H-M "P M N A"
_symmetry_group_IT_number 53
_symmetry_cell_setting 'orthorhombic'
loop_
_space_group_symop_operation_xyz
x,y,z
1/2-x,-y,1/2+z
x,-y,-z
1/2-x,y,1/2-z
-x,-y,-z
1/2+x,y,1/2-z
-x,y,z
1/2+x,-y,1/2+z
loop_
_atom_site_type_symbol
_atom_site_label
_atom_site_fract_x
_atom_site_fract_y
_atom_site_fract_z
Si Si1 0.101784 0.809774 0.995588
Si Si2 0.398766 0.547927 0.616912
Si Si3 0.854694 0.958064 0.884940
Si Si4 0.401381 0.307763 0.931169
Si Si5 0.650704 0.824053 0.224286
Si Si6 0.295087 0.332173 0.474878
Si Si7 0.851911 0.590780 0.219393
Si Si8 0.348211 0.984644 0.133014
O O1 0.101658 0.829316 0.142498
O O2 0.169560 0.747486 0.954570
O O3 0.000000 0.789311 0.957991
O O4 0.135900 0.874655 0.910362
O O5 0.366905 0.500000 0.500000
O O6 0.500000 0.579391 0.601699
O O7 0.327233 0.613683 0.636070
O O8 0.397637 0.487990 0.724924
O O9 0.750993 0.981910 0.877813
O O10 0.899753 0.978297 0.750633
O O11 0.902705 0.000000 0.000000
O O12 0.500000 0.313240 0.001338
O O13 0.396718 0.228334 0.873501
O O14 0.314608 0.327959 0.016862
O O15 0.405840 0.362873 0.818148
O O16 0.750000 0.791666 0.250000
O O17 0.657585 0.900252 0.157243
O O18 0.351652 0.363575 0.591818
O O19 0.750000 0.576082 0.250000
O O20 0.398325 0.000000 0.000000
#
# Coordination Sequence:
#
# PCOD8219539 Si02
#       8
#     8   8   8   8   8   8   8   8
#     4  12  23  35  59  94 128 158 208 273 329 386
#     4   9  17  30  53  81 114 154 197 244 299 366
#     4  10  19  36  57  90 119 162 210 268 323 390
#     4  11  21  32  54  87 123 159 203 256 314 386
#     4  12  18  35  57  87 123 161 207 254 331 381
#     4  10  20  34  53  84 119 159 199 254 320 379
#     4   9  17  32  54  84 121 155 195 250 314 379
#     4  10  20  36  63  87 117 168 217 264 320 398
#
# _framework density 21.609134999999998
#
# number of rings (size 3 to 8) (size 9 to 14) (size 15 to 20)
#    0.000    1.625    5.000    2.250    0.000    1.250 
#    0.000    0.000    2.750   13.500    0.000    0.000 
#    0.000    0.000    0.000    0.000    0.000    0.000 
#
# Total GULP energy -792900.793826 kJ/mol
# GULP energy per Si atom -12389.074904 kJ/mol
# Density = 2.155995 g / cm^3
# Si number density = 21.609135 Si / 1000 Ang^3
#
#
#
# Elastic Constant Matrix: (Units=GPa)
#
#
# Indices 1 2 3 4 5 6 
#
# 1 130.0983 63.7042 8.2268 0.0000 0.0000 0.0000
# 2 63.7042 129.5722 37.4521 0.0000 0.0000 0.0000
# 3 8.2268 37.4521 79.3019 0.0000 0.0000 0.0000
# 4 0.0000 0.0000 0.0000 19.5591 0.0000 0.0000
# 5 0.0000 0.0000 0.0000 0.0000 1.5765 0.0000
# 6 0.0000 0.0000 0.0000 0.0000 0.0000 16.8624
#
#
#
# Elastic Compliance Matrix: (Units=1/GPa)
#
#
# Indices 1 2 3 4 5 6 
#
# 1 0.010281 -0.005497 0.001529 0.000000 0.000000 0.000000
# 2 -0.005497 0.011877 -0.005039 0.000000 0.000000 0.000000
# 3 0.001529 -0.005039 0.014831 0.000000 0.000000 0.000000
# 4 0.000000 0.000000 0.000000 0.051127 0.000000 0.000000
# 5 0.000000 0.000000 0.000000 0.000000 0.634333 0.000000
# 6 0.000000 0.000000 0.000000 0.000000 0.000000 0.059304
#
#
# Mechanical properties :
#
#
# Convention : Reuss Voigt Hill
#
# Bulk Modulus (GPa) = 52.69640 61.97098 57.33369
# Shear Modulus (GPa) = 6.20277 22.90553 14.55415
#
# Velocity S-wave (km/s) = 1.69608 3.25929 2.59804
# Velocity P-wave (km/s) = 5.31739 6.55014 5.96569
#
# Compressibility (1/GPa) = 0.01897663
#
# Stress axis : x y z
#
# Youngs Moduli (GPa) = 97.26277 84.19841 67.42611
#
# Poissons Ratio (x) = 0.46283 -0.10313
# Poissons Ratio (y) = 0.53465 0.33975
# Poissons Ratio (z) = -0.14876 0.42426
#
# Static dielectric constant tensor:
#      x y z
#    x 3.491490 0.000000 0.000000 
#    y 0.000000 4.073140 0.000000 
#    z 0.000000 0.000000 4.902380 
# 
# 
# High freq. dielectric constant tensor:
#      x y z
#    x 1.840290 0.000000 0.000000 
#    y 0.000000 1.859530 0.000000 
#    z 0.000000 0.000000 1.806890 
# 
# From -- ./inp_files/16268.got.cif
#   From: 2010.03.12/outbox.cif.g09.slc.cpg/sg53_9_cif.got.tgz:16268.got - 2010.04.16 14:36:59.
