data_PCOD8219665
_publ_section_title
;
Structure prediction by ZEFSAII (Michael W. Deem and Ramdas Pophale) SiO2 
 PCOD8219665
Probable space group: P M N A
;
_chemical_formula_sum "Si O2"
_cell_formula_units_Z 64
_cell_length_a 8.590551
_cell_length_b 24.001505
_cell_length_c 15.211505
_cell_angle_alpha 90.000000
_cell_angle_beta 90.000000
_cell_angle_gamma 90.000000
_cell_volume 3136.401694
_symmetry_space_group_name_H-M "P M N A"
_symmetry_group_IT_number 53
_symmetry_cell_setting 'orthorhombic'
loop_
_space_group_symop_operation_xyz
x,y,z
1/2-x,-y,1/2+z
x,-y,-z
1/2-x,y,1/2-z
-x,-y,-z
1/2+x,y,1/2-z
-x,y,z
1/2+x,-y,1/2+z
loop_
_atom_site_type_symbol
_atom_site_label
_atom_site_fract_x
_atom_site_fract_y
_atom_site_fract_z
Si Si1 0.682489 0.891730 0.347148
Si Si2 0.816776 0.689123 0.008215
Si Si3 0.816289 0.620532 0.841465
Si Si4 0.183344 0.125537 0.345407
Si Si5 0.682717 0.613211 0.157542
Si Si6 0.182571 0.809354 0.485270
Si Si7 0.183560 0.002412 0.346014
Si Si8 0.179919 0.500467 0.103757
O O1 0.750000 0.881722 0.250000
O O2 0.500000 0.895918 0.338267
O O3 0.727804 0.839970 0.407519
O O4 0.745293 0.948615 0.395983
O O5 0.778814 0.645556 0.084023
O O6 0.719261 0.744660 0.022973
O O7 0.000000 0.702125 0.007734
O O8 0.758962 0.662331 0.916915
O O9 0.750000 0.643283 0.750000
O O10 0.755773 0.558072 0.859576
O O11 0.000000 0.619696 0.839459
O O12 0.250000 0.141562 0.250000
O O13 0.241120 0.168735 0.419253
O O14 0.236700 0.063645 0.378527
O O15 0.000000 0.126747 0.334072
O O16 0.750000 0.634293 0.250000
O O17 0.500000 0.626064 0.150730
O O18 0.713120 0.547485 0.147058
O O19 0.000000 0.820367 0.474239
O O20 0.250000 0.994245 0.250000
O O21 0.000000 0.996801 0.348895
O O22 0.000000 0.511315 0.129314
O O23 0.200619 0.500000 0.000000
#
# Coordination Sequence:
#
# PCOD8219665 Si02
#       8
#     8   8   8   8   8   8   8   8
#     4  11  22  38  60  88 119 156 195 243 297 357
#     4  11  24  45  64  85 117 158 203 253 303 351
#     4  10  22  39  63  90 122 160 198 243 296 352
#     4   9  20  37  60  87 121 158 197 243 297 353
#     4  12  25  41  64  94 124 160 201 247 298 359
#     4  11  24  42  61  87 118 155 201 251 298 353
#     4   9  16  31  55  85 118 155 192 238 294 353
#     4  10  19  38  64  92 128 165 196 242 300 352
#
# _framework density 20.405549000000001
#
# number of rings (size 3 to 8) (size 9 to 14) (size 15 to 20)
#    0.000    1.625    1.250    4.500    0.000    5.750 
#    0.000    7.500    0.000    0.000    0.000    0.000 
#    0.000    0.000    0.000    0.000    0.000    0.000 
#
# Total GULP energy -793593.971705 kJ/mol
# GULP energy per Si atom -12399.905808 kJ/mol
# Density = 2.035911 g / cm^3
# Si number density = 20.405549 Si / 1000 Ang^3
#
#
#
# Elastic Constant Matrix: (Units=GPa)
#
#
# Indices 1 2 3 4 5 6 
#
# 1 58.6209 10.2788 19.4858 0.0000 0.0000 0.0000
# 2 10.2788 62.9398 1.3956 0.0000 0.0000 0.0000
# 3 19.4858 1.3956 83.9529 0.0000 0.0000 0.0000
# 4 0.0000 0.0000 0.0000 9.2032 0.0000 0.0000
# 5 0.0000 0.0000 0.0000 0.0000 28.8091 0.0000
# 6 0.0000 0.0000 0.0000 0.0000 0.0000 45.9509
#
#
#
# Elastic Compliance Matrix: (Units=1/GPa)
#
#
# Indices 1 2 3 4 5 6 
#
# 1 0.019039 -0.003012 -0.004369 0.000000 0.000000 0.000000
# 2 -0.003012 0.016371 0.000427 0.000000 0.000000 0.000000
# 3 -0.004369 0.000427 0.012918 0.000000 0.000000 0.000000
# 4 0.000000 0.000000 0.000000 0.108657 0.000000 0.000000
# 5 0.000000 0.000000 0.000000 0.000000 0.034711 0.000000
# 6 0.000000 0.000000 0.000000 0.000000 0.000000 0.021762
#
#
# Mechanical properties :
#
#
# Convention : Reuss Voigt Hill
#
# Bulk Modulus (GPa) = 29.05325 29.75933 29.40629
# Shear Modulus (GPa) = 20.93439 28.41619 24.67529
#
# Velocity S-wave (km/s) = 3.20647 3.73577 3.48119
# Velocity P-wave (km/s) = 5.28937 5.76399 5.53177
#
# Compressibility (1/GPa) = 0.03441956
#
# Stress axis : x y z
#
# Youngs Moduli (GPa) = 52.52305 61.08476 77.40894
#
# Poissons Ratio (x) = 0.18401 0.33820
# Poissons Ratio (y) = 0.15822 -0.03306
# Poissons Ratio (z) = 0.22947 -0.02609
#
# Static dielectric constant tensor:
#      x y z
#    x 3.604560 0.000000 0.000000 
#    y 0.000000 3.969320 0.000000 
#    z 0.000000 0.000000 3.146420 
# 
# 
# High freq. dielectric constant tensor:
#      x y z
#    x 1.795600 0.000000 0.000000 
#    y 0.000000 1.802570 0.000000 
#    z 0.000000 0.000000 1.798310 
# 
# From -- ./inp_files/20873.got.cif
#   From: 2010.03.12/outbox.cif.g09.slc.cpg/sg53_11_cif.got.tgz:20873.got - 2010.04.16 14:36:59.
