data_PCOD8219966
_publ_section_title
;
Structure prediction by ZEFSAII (Michael W. Deem and Ramdas Pophale) SiO2 
 PCOD8219966
Probable space group: P M N A
;
_chemical_formula_sum "Si O2"
_cell_formula_units_Z 64
_cell_length_a 9.000089
_cell_length_b 14.995042
_cell_length_c 24.025632
_cell_angle_alpha 90.000000
_cell_angle_beta 90.000000
_cell_angle_gamma 90.000000
_cell_volume 3242.420312
_symmetry_space_group_name_H-M "P M N A"
_symmetry_group_IT_number 53
_symmetry_cell_setting 'orthorhombic'
loop_
_space_group_symop_operation_xyz
x,y,z
1/2-x,-y,1/2+z
x,-y,-z
1/2-x,y,1/2-z
-x,-y,-z
1/2+x,y,1/2-z
-x,y,z
1/2+x,-y,1/2+z
loop_
_atom_site_type_symbol
_atom_site_label
_atom_site_fract_x
_atom_site_fract_y
_atom_site_fract_z
Si Si1 0.673420 0.490539 0.804835
Si Si2 0.337825 0.403322 0.496699
Si Si3 0.175640 0.178818 0.114226
Si Si4 0.678343 0.985408 0.688778
Si Si5 0.161622 0.370596 0.130785
Si Si6 0.826636 0.136081 0.615371
Si Si7 0.821371 0.209965 0.989514
Si Si8 0.330073 0.708157 0.196178
O O1 0.750000 0.529875 0.750000
O O2 0.500000 0.493098 0.797045
O O3 0.719201 0.554577 0.854712
O O4 0.732354 0.390773 0.817268
O O5 0.250210 0.500000 0.500000
O O6 0.500000 0.419370 0.525045
O O7 0.361885 0.373063 0.434344
O O8 0.265015 0.313166 0.523276
O O9 0.223222 0.271427 0.144539
O O10 0.000000 0.174062 0.111193
O O11 0.235599 0.099128 0.152795
O O12 0.234169 0.175223 0.050255
O O13 0.750000 0.982234 0.750000
O O14 0.500000 0.989524 0.694385
O O15 0.736912 0.069719 0.654783
O O16 0.000000 0.387358 0.159575
O O17 0.754155 0.142353 0.554280
O O18 0.805605 0.233219 0.642006
O O19 0.000000 0.108563 0.611532
O O20 0.000000 0.205837 0.984208
O O21 0.250000 0.750150 0.250000
O O22 0.500000 0.702213 0.213597
#
# Coordination Sequence:
#
# PCOD8219966 Si02
#       8
#     8   8   8   8   8   8   8   8
#     4  10  20  34  50  73 104 141 183 223 270 329
#     4   8  15  28  49  79 111 143 184 228 265 312
#     4   8  18  38  60  82 114 150 186 229 279 337
#     4  11  23  41  63  86 111 143 186 234 288 345
#     4   9  17  32  54  79 108 141 178 224 271 318
#     4  11  23  38  56  83 117 148 184 235 287 340
#     4   9  18  35  58  84 113 151 195 231 275 334
#     4   9  20  36  52  71 104 144 181 225 278 334
#
# _framework density 19.738340999999998
#
# number of rings (size 3 to 8) (size 9 to 14) (size 15 to 20)
#    0.000    2.625    0.000    3.000    1.750    3.500 
#    0.000    8.750    0.000    0.750    0.000    0.000 
#    0.000    0.000    0.000    0.000    0.000    0.000 
#
# Total GULP energy -792938.777979 kJ/mol
# GULP energy per Si atom -12389.668406 kJ/mol
# Density = 1.969342 g / cm^3
# Si number density = 19.738341 Si / 1000 Ang^3
#
#
#
# Elastic Constant Matrix: (Units=GPa)
#
#
# Indices 1 2 3 4 5 6 
#
# 1 59.8419 37.9453 31.1802 0.0000 0.0000 0.0000
# 2 37.9453 108.9713 56.0895 0.0000 0.0000 0.0000
# 3 31.1802 56.0895 85.9664 0.0000 0.0000 0.0000
# 4 0.0000 0.0000 0.0000 30.5097 0.0000 0.0000
# 5 0.0000 0.0000 0.0000 0.0000 26.5001 0.0000
# 6 0.0000 0.0000 0.0000 0.0000 0.0000 14.7483
#
#
#
# Elastic Compliance Matrix: (Units=1/GPa)
#
#
# Indices 1 2 3 4 5 6 
#
# 1 0.022598 -0.005496 -0.004611 0.000000 0.000000 0.000000
# 2 -0.005496 0.015153 -0.007894 0.000000 0.000000 0.000000
# 3 -0.004611 -0.007894 0.018455 0.000000 0.000000 0.000000
# 4 0.000000 0.000000 0.000000 0.032776 0.000000 0.000000
# 5 0.000000 0.000000 0.000000 0.000000 0.037736 0.000000
# 6 0.000000 0.000000 0.000000 0.000000 0.000000 0.067805
#
#
# Mechanical properties :
#
#
# Convention : Reuss Voigt Hill
#
# Bulk Modulus (GPa) = 49.48942 56.13442 52.81192
# Shear Modulus (GPa) = 21.07408 22.98926 22.03167
#
# Velocity S-wave (km/s) = 3.27107 3.41647 3.34456
# Velocity P-wave (km/s) = 6.27644 6.63808 6.45979
#
# Compressibility (1/GPa) = 0.02020634
#
# Stress axis : x y z
#
# Youngs Moduli (GPa) = 44.25209 65.99168 54.18590
#
# Poissons Ratio (x) = 0.36267 0.24983
# Poissons Ratio (y) = 0.24320 0.42773
# Poissons Ratio (z) = 0.20403 0.52092
#
# Static dielectric constant tensor:
#      x y z
#    x 3.339640 0.000000 0.000000 
#    y 0.000000 4.005390 0.000000 
#    z 0.000000 0.000000 3.543020 
# 
# 
# High freq. dielectric constant tensor:
#      x y z
#    x 1.737720 0.000000 0.000000 
#    y 0.000000 1.780280 0.000000 
#    z 0.000000 0.000000 1.762200 
# 
# From -- ./inp_files/34182.got.cif
#   From: 2010.03.12/outbox.cif.g09.slc.cpg/sg53_18_cif.got.tgz:34182.got - 2010.04.16 14:36:59.
