data_PCOD8219032
_publ_section_title
;
Structure prediction by ZEFSAII (Michael W. Deem and Ramdas Pophale) SiO2 
 PCOD8219032
Probable space group: P M N A
;
_chemical_formula_sum "Si O2"
_cell_formula_units_Z 64
_cell_length_a 8.724877
_cell_length_b 14.973828
_cell_length_c 29.548163
_cell_angle_alpha 90.000000
_cell_angle_beta 90.000000
_cell_angle_gamma 90.000000
_cell_volume 3860.314068
_symmetry_space_group_name_H-M "P M N A"
_symmetry_group_IT_number 53
_symmetry_cell_setting 'orthorhombic'
loop_
_space_group_symop_operation_xyz
x,y,z
1/2-x,-y,1/2+z
x,-y,-z
1/2-x,y,1/2-z
-x,-y,-z
1/2+x,y,1/2-z
-x,y,z
1/2+x,-y,1/2+z
loop_
_atom_site_type_symbol
_atom_site_label
_atom_site_fract_x
_atom_site_fract_y
_atom_site_fract_z
Si Si1 0.818933 0.537082 0.393910
Si Si2 0.819660 0.115959 0.966033
Si Si3 0.180918 0.370076 0.055005
Si Si4 0.819904 0.058533 0.440740
Si Si5 0.819759 0.203860 0.115331
Si Si6 0.820174 0.723004 0.703498
Si Si7 0.319924 0.318889 0.545294
Si Si8 0.677540 0.514662 0.796315
O O1 0.755566 0.458312 0.425036
O O2 0.768010 0.631202 0.414549
O O3 0.756824 0.531667 0.342016
O O4 0.000000 0.527985 0.393479
O O5 0.775467 0.215123 0.950257
O O6 0.000000 0.099757 0.962752
O O7 0.732057 0.044435 0.934456
O O8 0.769158 0.103091 0.017610
O O9 0.236541 0.284085 0.083016
O O10 0.000000 0.380871 0.058599
O O11 0.233515 0.357642 0.003165
O O12 0.771656 0.113827 0.396746
O O13 0.000000 0.062677 0.449516
O O14 0.774916 0.225037 0.166140
O O15 0.000000 0.187467 0.110579
O O16 0.750000 0.759036 0.750000
O O17 0.785047 0.618665 0.698275
O O18 0.000000 0.743861 0.700053
O O19 0.500000 0.333644 0.551247
O O20 0.750000 0.475788 0.750000
O O21 0.500000 0.495673 0.791579
#
# Coordination Sequence:
#
# PCOD8219032 Si02
#       8
#     8   8   8   8   8   8   8   8
#     4  11  22  34  48  73 102 132 167 210 256 299
#     4  10  19  35  53  71  98 131 170 210 248 295
#     4  10  20  34  49  68  98 137 178 208 238 291
#     4  11  21  32  50  76 102 129 164 207 255 301
#     4  11  20  33  52  74 100 137 174 208 251 299
#     4  10  19  33  50  73 102 132 168 210 254 305
#     4  10  21  36  51  70  97 136 177 211 245 294
#     4   9  19  33  49  70  97 127 164 206 252 297
#
# _framework density 16.578962000000001
#
# number of rings (size 3 to 8) (size 9 to 14) (size 15 to 20)
#    0.000    1.750    2.500    3.750    0.000    5.000 
#    0.000    0.000    0.000    0.000    0.000    0.875 
#    0.000    4.000    0.000    0.000    0.000    0.000 
#
# Total GULP energy -793680.452157 kJ/mol
# GULP energy per Si atom -12401.257065 kJ/mol
# Density = 1.654123 g / cm^3
# Si number density = 16.578962 Si / 1000 Ang^3
#
#
#
# Elastic Constant Matrix: (Units=GPa)
#
#
# Indices 1 2 3 4 5 6 
#
# 1 35.7197 30.6187 21.6699 0.0000 0.0000 0.0000
# 2 30.6187 92.3469 48.3638 0.0000 0.0000 0.0000
# 3 21.6699 48.3638 107.1855 0.0000 0.0000 0.0000
# 4 0.0000 0.0000 0.0000 14.3033 0.0000 0.0000
# 5 0.0000 0.0000 0.0000 0.0000 28.4682 0.0000
# 6 0.0000 0.0000 0.0000 0.0000 0.0000 20.0177
#
#
#
# Elastic Compliance Matrix: (Units=1/GPa)
#
#
# Indices 1 2 3 4 5 6 
#
# 1 0.039714 -0.011736 -0.002734 0.000000 0.000000 0.000000
# 2 -0.011736 0.017648 -0.005590 0.000000 0.000000 0.000000
# 3 -0.002734 -0.005590 0.012405 0.000000 0.000000 0.000000
# 4 0.000000 0.000000 0.000000 0.069914 0.000000 0.000000
# 5 0.000000 0.000000 0.000000 0.000000 0.035127 0.000000
# 6 0.000000 0.000000 0.000000 0.000000 0.000000 0.049956
#
#
# Mechanical properties :
#
#
# Convention : Reuss Voigt Hill
#
# Bulk Modulus (GPa) = 33.73047 48.50634 41.11840
# Shear Modulus (GPa) = 18.19734 21.53114 19.86424
#
# Velocity S-wave (km/s) = 3.31662 3.60766 3.46520
# Velocity P-wave (km/s) = 5.92082 6.83190 6.39262
#
# Compressibility (1/GPa) = 0.02964679
#
# Stress axis : x y z
#
# Youngs Moduli (GPa) = 25.17990 56.66468 80.61485
#
# Poissons Ratio (x) = 0.66502 0.22037
# Poissons Ratio (y) = 0.29551 0.45065
# Poissons Ratio (z) = 0.06883 0.31677
#
# Static dielectric constant tensor:
#      x y z
#    x 3.122760 0.000000 0.000000 
#    y 0.000000 3.159890 0.000000 
#    z 0.000000 0.000000 3.194910 
# 
# 
# High freq. dielectric constant tensor:
#      x y z
#    x 1.646110 0.000000 0.000000 
#    y 0.000000 1.622210 0.000000 
#    z 0.000000 0.000000 1.627710 
# 
# From -- ./inp_files/38448.got.cif
#   From: 2010.03.12/outbox.cif.g09.slc.cpg/sg53_20_cif.got.tgz:38448.got - 2010.04.16 14:36:59.
