data_PCOD8219492
_publ_section_title
;
Structure prediction by ZEFSAII (Michael W. Deem and Ramdas Pophale) SiO2 
 PCOD8219492
Probable space group: P M N A
;
_chemical_formula_sum "Si O2"
_cell_formula_units_Z 48
_cell_length_a 8.810607
_cell_length_b 10.222683
_cell_length_c 28.134566
_cell_angle_alpha 90.000000
_cell_angle_beta 90.000000
_cell_angle_gamma 90.000000
_cell_volume 2534.025283
_symmetry_space_group_name_H-M "P M N A"
_symmetry_group_IT_number 53
_symmetry_cell_setting 'orthorhombic'
loop_
_space_group_symop_operation_xyz
x,y,z
1/2-x,-y,1/2+z
x,-y,-z
1/2-x,y,1/2-z
-x,-y,-z
1/2+x,y,1/2-z
-x,y,z
1/2+x,-y,1/2+z
loop_
_atom_site_type_symbol
_atom_site_label
_atom_site_fract_x
_atom_site_fract_y
_atom_site_fract_z
Si Si1 0.678446 0.769346 0.605916
Si Si2 0.325294 0.008672 0.944281
Si Si3 0.820945 0.847050 0.700607
Si Si4 0.320372 0.268904 0.894411
Si Si5 0.678539 0.148213 0.798425
Si Si6 0.320386 0.473950 0.054472
O O1 0.500000 0.756420 0.611991
O O2 0.718578 0.906036 0.581613
O O3 0.754341 0.760083 0.657926
O O4 0.739270 0.655792 0.572094
O O5 0.500000 0.982696 0.928672
O O6 0.270377 0.152637 0.929414
O O7 0.305041 0.000000 0.000000
O O8 0.750000 0.796711 0.750000
O O9 0.000000 0.828004 0.702696
O O10 0.774023 0.998143 0.691897
O O11 0.500000 0.277208 0.893742
O O12 0.259169 0.238022 0.841415
O O13 0.256191 0.405593 0.914000
O O14 0.750000 0.202272 0.750000
O O15 0.500000 0.159067 0.793711
O O16 0.500000 0.455368 0.059910
O O17 0.276332 0.500000 0.000000
#
# Coordination Sequence:
#
# PCOD8219492 Si02
#       6
#     8   8   8   8   8   8
#     4  12  24  37  55  84 122 158 193 234 289 350
#     4  10  19  35  60  85 109 142 191 246 292 340
#     4  10  19  35  59  86 117 149 190 239 290 344
#     4   9  17  33  56  83 109 139 184 239 291 337
#     4   9  17  31  53  81 112 141 176 227 283 337
#     4  10  21  39  62  83 108 151 202 245 291 344
#
# _framework density 18.942193
#
# number of rings (size 3 to 8) (size 9 to 14) (size 15 to 20)
#    0.000    2.000    1.667    3.000    0.000    4.000 
#    0.000    2.500    0.000    2.000    0.000    0.000 
#    0.000    0.000    0.000    0.000    0.000    0.000 
#
# Total GULP energy -595272.070606 kJ/mol
# GULP energy per Si atom -12401.501471 kJ/mol
# Density = 1.889908 g / cm^3
# Si number density = 18.942193 Si / 1000 Ang^3
#
#
#
# Elastic Constant Matrix: (Units=GPa)
#
#
# Indices 1 2 3 4 5 6 
#
# 1 58.7335 11.7269 40.6578 0.0000 0.0000 0.0000
# 2 11.7269 42.7434 29.8493 0.0000 0.0000 0.0000
# 3 40.6578 29.8493 128.8125 0.0000 0.0000 0.0000
# 4 0.0000 0.0000 0.0000 35.8594 0.0000 0.0000
# 5 0.0000 0.0000 0.0000 0.0000 28.9520 0.0000
# 6 0.0000 0.0000 0.0000 0.0000 0.0000 16.6594
#
#
#
# Elastic Compliance Matrix: (Units=1/GPa)
#
#
# Indices 1 2 3 4 5 6 
#
# 1 0.021857 -0.001406 -0.006573 0.000000 0.000000 0.000000
# 2 -0.001406 0.028003 -0.006045 0.000000 0.000000 0.000000
# 3 -0.006573 -0.006045 0.011239 0.000000 0.000000 0.000000
# 4 0.000000 0.000000 0.000000 0.027887 0.000000 0.000000
# 5 0.000000 0.000000 0.000000 0.000000 0.034540 0.000000
# 6 0.000000 0.000000 0.000000 0.000000 0.000000 0.060026
#
#
# Mechanical properties :
#
#
# Convention : Reuss Voigt Hill
#
# Bulk Modulus (GPa) = 30.25762 43.86192 37.05977
# Shear Modulus (GPa) = 22.46015 26.16453 24.31234
#
# Velocity S-wave (km/s) = 3.44716 3.72059 3.58649
# Velocity P-wave (km/s) = 5.64378 6.45469 6.06281
#
# Compressibility (1/GPa) = 0.03304953
#
# Stress axis : x y z
#
# Youngs Moduli (GPa) = 45.75207 35.71074 88.97844
#
# Poissons Ratio (x) = 0.05022 0.58485
# Poissons Ratio (y) = 0.06435 0.53788
# Poissons Ratio (z) = 0.30072 0.21587
#
# Static dielectric constant tensor:
#      x y z
#    x 3.222920 0.000000 0.000000 
#    y 0.000000 3.481430 0.000000 
#    z 0.000000 0.000000 3.532450 
# 
# 
# High freq. dielectric constant tensor:
#      x y z
#    x 1.711280 0.000000 0.000000 
#    y 0.000000 1.720940 0.000000 
#    z 0.000000 0.000000 1.756360 
# 
# From -- ./inp_files/36147.got.cif
#   From: 2010.03.12/outbox.cif.g09.slc.cpg/sg53_19_cif.got.tgz:36147.got - 2010.04.16 14:36:59.
