data_PCOD8219420
_publ_section_title
;
Structure prediction by ZEFSAII (Michael W. Deem and Ramdas Pophale) SiO2 
 PCOD8219420
Probable space group: P M N A
;
_chemical_formula_sum "Si O2"
_cell_formula_units_Z 48
_cell_length_a 8.888844
_cell_length_b 9.928843
_cell_length_c 30.990888
_cell_angle_alpha 90.000000
_cell_angle_beta 90.000000
_cell_angle_gamma 90.000000
_cell_volume 2735.129844
_symmetry_space_group_name_H-M "P M N A"
_symmetry_group_IT_number 53
_symmetry_cell_setting 'orthorhombic'
loop_
_space_group_symop_operation_xyz
x,y,z
1/2-x,-y,1/2+z
x,-y,-z
1/2-x,y,1/2-z
-x,-y,-z
1/2+x,y,1/2-z
-x,y,z
1/2+x,-y,1/2+z
loop_
_atom_site_type_symbol
_atom_site_label
_atom_site_fract_x
_atom_site_fract_y
_atom_site_fract_z
Si Si1 0.165451 0.843176 0.708943
Si Si2 0.179299 0.639803 0.046318
Si Si3 0.835577 0.837325 0.290830
Si Si4 0.180192 0.644455 0.544370
Si Si5 0.821672 0.143286 0.384515
Si Si6 0.679355 0.161537 0.886587
O O1 0.250000 0.778876 0.750000
O O2 0.244543 0.812024 0.662521
O O3 0.000000 0.779012 0.709997
O O4 0.156296 0.002968 0.713914
O O5 0.252031 0.497449 0.059425
O O6 0.223774 0.746835 0.082109
O O7 0.000000 0.626318 0.042360
O O8 0.249437 0.688672 0.001115
O O9 0.750000 0.772893 0.250000
O O10 0.767807 0.801110 0.337829
O O11 0.000000 0.773400 0.288558
O O12 0.233911 0.754906 0.578920
O O13 0.000000 0.634976 0.540599
O O14 0.000000 0.144871 0.379341
O O15 0.773072 0.992128 0.397050
O O16 0.500000 0.182812 0.892670
#
# Coordination Sequence:
#
# PCOD8219420 Si02
#       6
#     8   8   8   8   8   8
#     4   8  13  24  41  66  96 124 151 185 227 274
#     4  11  22  35  49  70  98 126 156 198 243 287
#     4   8  14  24  42  66  95 125 154 187 227 273
#     4  10  19  35  56  72  88 123 166 199 235 288
#     4   8  16  30  51  75  97 121 159 202 234 270
#     4   9  17  32  51  73  98 127 160 195 233 280
#
# _framework density 17.549441000000002
#
# number of rings (size 3 to 8) (size 9 to 14) (size 15 to 20)
#    0.000    3.000    0.000    5.000    0.000    1.333 
#    0.000    9.167    0.000    1.000    0.000    2.333 
#    0.000    0.000    0.000    0.000    0.000    0.000 
#
# Total GULP energy -594755.006281 kJ/mol
# GULP energy per Si atom -12390.729298 kJ/mol
# Density = 1.750950 g / cm^3
# Si number density = 17.549441 Si / 1000 Ang^3
#
#
#
# Elastic Constant Matrix: (Units=GPa)
#
#
# Indices 1 2 3 4 5 6 
#
# 1 78.9607 32.8263 55.6288 0.0000 0.0000 0.0000
# 2 32.8263 68.6803 80.1258 0.0000 0.0000 0.0000
# 3 55.6288 80.1258 164.0161 0.0000 0.0000 0.0000
# 4 0.0000 0.0000 0.0000 -4.0631 0.0000 0.0000
# 5 0.0000 0.0000 0.0000 0.0000 29.0697 0.0000
# 6 0.0000 0.0000 0.0000 0.0000 0.0000 9.5425
#
#
#
# Elastic Compliance Matrix: (Units=1/GPa)
#
#
# Indices 1 2 3 4 5 6 
#
# 1 0.016946 -0.003242 -0.004164 0.000000 0.000000 0.000000
# 2 -0.003242 0.034476 -0.015743 0.000000 0.000000 0.000000
# 3 -0.004164 -0.015743 0.015200 0.000000 0.000000 0.000000
# 4 0.000000 0.000000 0.000000 -0.246119 0.000000 0.000000
# 5 0.000000 0.000000 0.000000 0.000000 0.034400 0.000000
# 6 0.000000 0.000000 0.000000 0.000000 0.000000 0.104794
#
#
# Mechanical properties :
#
#
# Convention : Reuss Voigt Hill
#
# Bulk Modulus (GPa) = 49.20054 72.09099 60.64576
# Shear Modulus (GPa) = 391.57737 16.44824 204.01280
#
# Velocity S-wave (km/s) = 14.95368 3.06478 10.79364
# Velocity P-wave (km/s) = 18.06229 7.32747 13.78293
#
# Compressibility (1/GPa) = 0.02032498
#
# Stress axis : x y z
#
# Youngs Moduli (GPa) = 59.01236 29.00560 65.78951
#
# Poissons Ratio (x) = 0.09403 0.27393
# Poissons Ratio (y) = 0.19130 1.03572
# Poissons Ratio (z) = 0.24571 0.45663
#
# Static dielectric constant tensor:
#      x y z
#    x 3.251280 0.000000 0.000000 
#    y 0.000000 2.962380 0.000000 
#    z 0.000000 0.000000 3.622010 
# 
# 
# High freq. dielectric constant tensor:
#      x y z
#    x 1.660880 0.000000 0.000000 
#    y 0.000000 1.636840 0.000000 
#    z 0.000000 0.000000 1.697170 
# 
# From -- ./inp_files/36177.got.cif
#   From: 2010.03.12/outbox.cif.g09.slc.cpg/sg53_19_cif.got.tgz:36177.got - 2010.04.16 14:36:59.
