data_PCOD8219816
_publ_section_title
;
Structure prediction by ZEFSAII (Michael W. Deem and Ramdas Pophale) SiO2 
 PCOD8219816
Probable space group: P M N A
;
_chemical_formula_sum "Si O2"
_cell_formula_units_Z 64
_cell_length_a 9.108245
_cell_length_b 21.696035
_cell_length_c 17.985615
_cell_angle_alpha 90.000000
_cell_angle_beta 90.000000
_cell_angle_gamma 90.000000
_cell_volume 3554.187781
_symmetry_space_group_name_H-M "P M N A"
_symmetry_group_IT_number 53
_symmetry_cell_setting 'orthorhombic'
loop_
_space_group_symop_operation_xyz
x,y,z
1/2-x,-y,1/2+z
x,-y,-z
1/2-x,y,1/2-z
-x,-y,-z
1/2+x,y,1/2-z
-x,y,z
1/2+x,-y,1/2+z
loop_
_atom_site_type_symbol
_atom_site_label
_atom_site_fract_x
_atom_site_fract_y
_atom_site_fract_z
Si Si1 0.834355 0.003695 0.588428
Si Si2 0.674572 0.618995 0.326225
Si Si3 0.670952 0.568010 0.030115
Si Si4 0.169847 0.883832 0.908283
Si Si5 0.672215 0.673567 0.542920
Si Si6 0.672036 0.743273 0.399294
Si Si7 0.171477 0.762327 0.826425
Si Si8 0.829943 0.123600 0.917196
O O1 0.758265 0.066300 0.617461
O O2 0.000000 0.004082 0.617321
O O3 0.823731 0.000000 0.500000
O O4 0.754735 0.943834 0.621908
O O5 0.750000 0.597194 0.250000
O O6 0.500000 0.608300 0.322732
O O7 0.739919 0.578662 0.393428
O O8 0.712590 0.691786 0.337871
O O9 0.500000 0.581915 0.044729
O O10 0.696801 0.500000 0.000000
O O11 0.734084 0.611371 0.964834
O O12 0.231302 0.824902 0.863859
O O13 0.000000 0.895197 0.891934
O O14 0.196625 0.871757 0.994885
O O15 0.500000 0.658469 0.532186
O O16 0.728861 0.720197 0.479198
O O17 0.705877 0.703729 0.621996
O O18 0.500000 0.752295 0.406419
O O19 0.733380 0.812117 0.381792
O O20 0.250000 0.748868 0.750000
O O21 0.000000 0.768968 0.812505
O O22 0.000000 0.112615 0.898537
#
# Coordination Sequence:
#
# PCOD8219816 Si02
#       8
#     8   8   8   8   8   8   8   8
#     4   9  17  26  37  61  95 122 152 203 261 307
#     4  10  20  35  57  83 114 145 177 215 259 310
#     4  10  21  37  58  85 114 143 178 218 257 303
#     4   9  16  28  46  64  88 125 168 211 254 311
#     4   9  17  33  54  76 103 135 173 215 258 308
#     4   8  14  27  50  75  97 128 167 210 253 301
#     4  10  20  33  50  73 101 134 175 221 267 318
#     4   9  14  25  46  68  90 121 165 208 252 308
#
# _framework density 18.006926
#
# number of rings (size 3 to 8) (size 9 to 14) (size 15 to 20)
#    0.000    2.750    1.250    1.875    0.000    3.500 
#    0.000    3.750    0.000    2.250    0.000    1.750 
#    0.000    0.000    0.000    0.000    0.000    0.000 
#
# Total GULP energy -793328.437206 kJ/mol
# GULP energy per Si atom -12395.756831 kJ/mol
# Density = 1.796594 g / cm^3
# Si number density = 18.006926 Si / 1000 Ang^3
#
#
#
# Elastic Constant Matrix: (Units=GPa)
#
#
# Indices 1 2 3 4 5 6 
#
# 1 84.2144 62.8990 44.5988 0.0000 0.0000 0.0000
# 2 62.8990 137.6080 41.7898 0.0000 0.0000 0.0000
# 3 44.5988 41.7898 77.3419 0.0000 0.0000 0.0000
# 4 0.0000 0.0000 0.0000 16.9433 0.0000 0.0000
# 5 0.0000 0.0000 0.0000 0.0000 23.4248 0.0000
# 6 0.0000 0.0000 0.0000 0.0000 0.0000 22.5666
#
#
#
# Elastic Compliance Matrix: (Units=1/GPa)
#
#
# Indices 1 2 3 4 5 6 
#
# 1 0.022022 -0.007429 -0.008685 0.000000 0.000000 0.000000
# 2 -0.007429 0.011199 -0.001768 0.000000 0.000000 0.000000
# 3 -0.008685 -0.001768 0.018893 0.000000 0.000000 0.000000
# 4 0.000000 0.000000 0.000000 0.059020 0.000000 0.000000
# 5 0.000000 0.000000 0.000000 0.000000 0.042690 0.000000
# 6 0.000000 0.000000 0.000000 0.000000 0.000000 0.044313
#
#
# Mechanical properties :
#
#
# Convention : Reuss Voigt Hill
#
# Bulk Modulus (GPa) = 61.15530 66.41550 63.78540
# Shear Modulus (GPa) = 20.88979 22.57874 21.73427
#
# Velocity S-wave (km/s) = 3.40972 3.54488 3.47795
# Velocity P-wave (km/s) = 7.03828 7.32927 7.18525
#
# Compressibility (1/GPa) = 0.01635181
#
# Stress axis : x y z
#
# Youngs Moduli (GPa) = 45.40849 89.29102 52.92971
#
# Poissons Ratio (x) = 0.66330 0.45971
# Poissons Ratio (y) = 0.33732 0.09356
# Poissons Ratio (z) = 0.39438 0.15784
#
# Static dielectric constant tensor:
#      x y z
#    x 3.234760 0.000000 0.000000 
#    y 0.000000 3.544310 0.000000 
#    z 0.000000 0.000000 2.986590 
# 
# 
# High freq. dielectric constant tensor:
#      x y z
#    x 1.685810 0.000000 0.000000 
#    y 0.000000 1.703880 0.000000 
#    z 0.000000 0.000000 1.662050 
# 
# From -- ./inp_files/27012.got.cif
#   From: 2010.03.12/outbox.cif.g09.slc.cpg/sg53_14_cif.got.tgz:27012.got - 2010.04.16 14:36:59.
