data_PCOD8219033
_publ_section_title
;
Structure prediction by ZEFSAII (Michael W. Deem and Ramdas Pophale) SiO2 
 PCOD8219033
Probable space group: P M N A
;
_chemical_formula_sum "Si O2"
_cell_formula_units_Z 48
_cell_length_a 8.657287
_cell_length_b 13.650675
_cell_length_c 24.110183
_cell_angle_alpha 90.000000
_cell_angle_beta 90.000000
_cell_angle_gamma 90.000000
_cell_volume 2849.288655
_symmetry_space_group_name_H-M "P M N A"
_symmetry_group_IT_number 53
_symmetry_cell_setting 'orthorhombic'
loop_
_space_group_symop_operation_xyz
x,y,z
1/2-x,-y,1/2+z
x,-y,-z
1/2-x,y,1/2-z
-x,-y,-z
1/2+x,y,1/2-z
-x,y,z
1/2+x,-y,1/2+z
loop_
_atom_site_type_symbol
_atom_site_label
_atom_site_fract_x
_atom_site_fract_y
_atom_site_fract_z
Si Si1 0.817334 0.958239 0.916891
Si Si2 0.816865 0.859074 0.807070
Si Si3 0.681404 0.358395 0.978826
Si Si4 0.182762 0.847779 0.025379
Si Si5 0.683088 0.535956 0.581094
Si Si6 0.682208 0.363521 0.306943
O O1 0.749250 0.923322 0.857925
O O2 0.000000 0.950273 0.916630
O O3 0.769931 0.070451 0.929024
O O4 0.759158 0.885994 0.965468
O O5 0.750000 0.902936 0.750000
O O6 0.758747 0.747686 0.815249
O O7 0.000000 0.864731 0.805164
O O8 0.500000 0.368107 0.988539
O O9 0.726263 0.250190 0.959022
O O10 0.733531 0.433300 0.930894
O O11 0.769263 0.382936 0.035899
O O12 0.000000 0.827703 0.025817
O O13 0.500000 0.521753 0.578513
O O14 0.739592 0.571898 0.641339
O O15 0.750000 0.408004 0.250000
O O16 0.500000 0.365600 0.303052
#
# Coordination Sequence:
#
# PCOD8219033 Si02
#       6
#     8   8   8   8   8   8
#     4   8  15  28  49  70  89 116 155 193 222 260
#     4   9  16  28  44  67  94 119 146 180 221 268
#     4  11  21  31  45  70  99 124 149 191 241 277
#     4   9  16  30  50  69  88 118 155 191 228 272
#     4  10  19  33  51  69  90 124 162 191 221 274
#     4   9  18  30  48  71  95 121 151 186 228 273
#
# _framework density 16.846309000000002
#
# number of rings (size 3 to 8) (size 9 to 14) (size 15 to 20)
#    0.000    2.667    0.000    5.000    0.000    4.000 
#    0.000    6.667    0.000    1.000    0.000    2.333 
#    0.000    0.000    0.000    0.000    0.000    0.000 
#
# Total GULP energy -595116.340780 kJ/mol
# GULP energy per Si atom -12398.257100 kJ/mol
# Density = 1.680797 g / cm^3
# Si number density = 16.846309 Si / 1000 Ang^3
#
#
#
# Elastic Constant Matrix: (Units=GPa)
#
#
# Indices 1 2 3 4 5 6 
#
# 1 28.1533 20.2596 17.1432 0.0000 0.0000 0.0000
# 2 20.2596 111.4865 64.6400 0.0000 0.0000 0.0000
# 3 17.1432 64.6400 149.1143 0.0000 0.0000 0.0000
# 4 0.0000 0.0000 0.0000 25.9406 0.0000 0.0000
# 5 0.0000 0.0000 0.0000 0.0000 24.2135 0.0000
# 6 0.0000 0.0000 0.0000 0.0000 0.0000 13.9376
#
#
#
# Elastic Compliance Matrix: (Units=1/GPa)
#
#
# Indices 1 2 3 4 5 6 
#
# 1 0.041304 -0.006348 -0.001997 0.000000 0.000000 0.000000
# 2 -0.006348 0.012957 -0.004887 0.000000 0.000000 0.000000
# 3 -0.001997 -0.004887 0.009054 0.000000 0.000000 0.000000
# 4 0.000000 0.000000 0.000000 0.038550 0.000000 0.000000
# 5 0.000000 0.000000 0.000000 0.000000 0.041299 0.000000
# 6 0.000000 0.000000 0.000000 0.000000 0.000000 0.071748
#
#
# Mechanical properties :
#
#
# Convention : Reuss Voigt Hill
#
# Bulk Modulus (GPa) = 27.13598 54.75997 40.94797
# Shear Modulus (GPa) = 19.71148 25.26574 22.48861
#
# Velocity S-wave (km/s) = 3.42435 3.87690 3.65763
# Velocity P-wave (km/s) = 5.63718 7.25373 6.49594
#
# Compressibility (1/GPa) = 0.03685144
#
# Stress axis : x y z
#
# Youngs Moduli (GPa) = 24.21080 77.18027 110.44582
#
# Poissons Ratio (x) = 0.48995 0.22053
# Poissons Ratio (y) = 0.15369 0.53973
# Poissons Ratio (z) = 0.04834 0.37716
#
# Static dielectric constant tensor:
#      x y z
#    x 2.926830 0.000000 0.000000 
#    y 0.000000 3.187130 0.000000 
#    z 0.000000 0.000000 3.382180 
# 
# 
# High freq. dielectric constant tensor:
#      x y z
#    x 1.634100 0.000000 0.000000 
#    y 0.000000 1.639410 0.000000 
#    z 0.000000 0.000000 1.642860 
# 
# From -- ./inp_files/33976.got.cif
#   From: 2010.03.12/outbox.cif.g09.slc.cpg/sg53_17_cif.got.tgz:33976.got - 2010.04.16 14:36:59.
