data_PCOD8219304
_publ_section_title
;
Structure prediction by ZEFSAII (Michael W. Deem and Ramdas Pophale) SiO2 
 PCOD8219304
Probable space group: P M N A
;
_chemical_formula_sum "Si O2"
_cell_formula_units_Z 40
_cell_length_a 16.177761
_cell_length_b 14.649125
_cell_length_c 7.927925
_cell_angle_alpha 90.000000
_cell_angle_beta 90.000000
_cell_angle_gamma 90.000000
_cell_volume 1878.839288
_symmetry_space_group_name_H-M "P M N A"
_symmetry_group_IT_number 53
_symmetry_cell_setting 'orthorhombic'
loop_
_space_group_symop_operation_xyz
x,y,z
1/2-x,-y,1/2+z
x,-y,-z
1/2-x,y,1/2-z
-x,-y,-z
1/2+x,y,1/2-z
-x,y,z
1/2+x,-y,1/2+z
loop_
_atom_site_type_symbol
_atom_site_label
_atom_site_fract_x
_atom_site_fract_y
_atom_site_fract_z
Si Si1 0.844046 0.596603 0.300584
Si Si2 0.903371 0.594796 0.672238
Si Si3 0.904601 0.785417 0.189735
Si Si4 0.598857 0.103733 0.005233
Si Si5 0.901978 0.784112 0.822031
O O1 0.750000 0.608141 0.250000
O O2 0.851440 0.602760 0.501517
O O3 0.880097 0.499787 0.234204
O O4 0.895992 0.677573 0.217043
O O5 0.877284 0.678885 0.789996
O O6 0.000000 0.597212 0.625450
O O7 0.863586 0.843455 0.341971
O O8 0.000000 0.811181 0.185991
O O9 0.866049 0.812272 0.006334
O O10 0.500000 0.109888 0.004908
O O11 0.634414 0.150946 0.175181
O O12 0.629997 0.000000 0.000000
O O13 0.000000 0.793302 0.823551
#
# Coordination Sequence:
#
# PCOD8219304 Si02
#       5
#     8   8   8   8   8
#     4  11  22  34  54  84 113 149 191 241 288 344
#     4  10  20  38  59  78 115 164 200 234 291 362
#     4  10  19  34  56  81 112 149 190 233 286 350
#     4   9  17  31  53  83 115 142 180 240 293 334
#     4   9  18  31  53  83 109 144 188 229 280 340
#
# _framework density 21.289739999999998
#
# number of rings (size 3 to 8) (size 9 to 14) (size 15 to 20)
#    0.000    2.200    2.000    2.400    0.000    4.800 
#    0.000    7.000    0.000    0.000    5.200    0.000 
#    0.000    0.000    0.000    0.000    0.000    0.000 
#
# Total GULP energy -495856.957980 kJ/mol
# GULP energy per Si atom -12396.423950 kJ/mol
# Density = 2.124128 g / cm^3
# Si number density = 21.289740 Si / 1000 Ang^3
#
#
#
# Elastic Constant Matrix: (Units=GPa)
#
#
# Indices 1 2 3 4 5 6 
#
# 1 24.8708 -3.4659 8.8464 0.0000 0.0000 0.0000
# 2 -3.4659 168.1849 95.5489 0.0000 0.0000 0.0000
# 3 8.8464 95.5489 188.7376 0.0000 0.0000 0.0000
# 4 0.0000 0.0000 0.0000 19.2778 0.0000 0.0000
# 5 0.0000 0.0000 0.0000 0.0000 1.9435 0.0000
# 6 0.0000 0.0000 0.0000 0.0000 0.0000 0.5078
#
#
#
# Elastic Compliance Matrix: (Units=1/GPa)
#
#
# Indices 1 2 3 4 5 6 
#
# 1 0.041790 0.002771 -0.003362 0.000000 0.000000 0.000000
# 2 0.002771 0.008530 -0.004448 0.000000 0.000000 0.000000
# 3 -0.003362 -0.004448 0.007708 0.000000 0.000000 0.000000
# 4 0.000000 0.000000 0.000000 0.051873 0.000000 0.000000
# 5 0.000000 0.000000 0.000000 0.000000 0.514535 0.000000
# 6 0.000000 0.000000 0.000000 0.000000 0.000000 1.969277
#
#
# Mechanical properties :
#
#
# Convention : Reuss Voigt Hill
#
# Bulk Modulus (GPa) = 20.85515 64.85024 42.85269
# Shear Modulus (GPa) = 1.90856 23.07007 12.48932
#
# Velocity S-wave (km/s) = 0.94785 3.29542 2.42468
# Velocity P-wave (km/s) = 3.31889 6.70870 5.29252
#
# Compressibility (1/GPa) = 0.04794978
#
# Stress axis : x y z
#
# Youngs Moduli (GPa) = 23.92943 117.23229 129.73770
#
# Poissons Ratio (x) = -0.32484 0.43612
# Poissons Ratio (y) = -0.06631 0.57711
# Poissons Ratio (z) = 0.08044 0.52148
#
# Static dielectric constant tensor:
#      x y z
#    x 3.216290 0.000000 0.000000 
#    y 0.000000 4.039900 0.000000 
#    z 0.000000 0.000000 4.258060 
# 
# 
# High freq. dielectric constant tensor:
#      x y z
#    x 1.781060 0.000000 0.000000 
#    y 0.000000 1.835620 0.000000 
#    z 0.000000 0.000000 1.844580 
# 
# From -- ./inp_files/8422.got.cif
#   From: 2010.03.12/outbox.cif.g09.slc.cpg/sg53_5_cif.got.tgz:8422.got - 2010.04.16 14:36:59.
