data_PCOD8219300
_publ_section_title
;
Structure prediction by ZEFSAII (Michael W. Deem and Ramdas Pophale) SiO2 
 PCOD8219300
Probable space group: P M N A
;
_chemical_formula_sum "Si O2"
_cell_formula_units_Z 64
_cell_length_a 8.817025
_cell_length_b 24.318269
_cell_length_c 15.372268
_cell_angle_alpha 90.000000
_cell_angle_beta 90.000000
_cell_angle_gamma 90.000000
_cell_volume 3296.041549
_symmetry_space_group_name_H-M "P M N A"
_symmetry_group_IT_number 53
_symmetry_cell_setting 'orthorhombic'
loop_
_space_group_symop_operation_xyz
x,y,z
1/2-x,-y,1/2+z
x,-y,-z
1/2-x,y,1/2-z
-x,-y,-z
1/2+x,y,1/2-z
-x,y,z
1/2+x,-y,1/2+z
loop_
_atom_site_type_symbol
_atom_site_label
_atom_site_fract_x
_atom_site_fract_y
_atom_site_fract_z
Si Si1 0.180049 0.383051 0.661205
Si Si2 0.680043 0.616644 0.838759
Si Si3 0.321483 0.119611 0.346028
Si Si4 0.180267 0.499856 0.597367
Si Si5 0.319932 0.812513 0.999696
Si Si6 0.173853 0.999746 0.840328
Si Si7 0.319617 0.880605 0.346002
Si Si8 0.679715 0.686994 0.999802
O O1 0.250000 0.360217 0.750000
O O2 0.239023 0.445327 0.645952
O O3 0.242614 0.343834 0.585004
O O4 0.000000 0.380941 0.666164
O O5 0.750000 0.639524 0.750000
O O6 0.500000 0.618846 0.833895
O O7 0.738782 0.554321 0.853795
O O8 0.742844 0.655720 0.915073
O O9 0.250000 0.126004 0.250000
O O10 0.500000 0.132225 0.339108
O O11 0.243232 0.161407 0.411503
O O12 0.295451 0.058200 0.389580
O O13 0.246669 0.500000 0.500000
O O14 0.000000 0.499761 0.592736
O O15 0.500000 0.818663 0.001288
O O16 0.252148 0.838468 0.086820
O O17 0.265174 0.749607 0.999376
O O18 0.250000 0.990567 0.750000
O O19 0.225547 0.057815 0.882637
O O20 0.000000 0.006782 0.819037
O O21 0.250000 0.871403 0.250000
O O22 0.500000 0.871617 0.341926
O O23 0.500000 0.683402 0.999721
#
# Coordination Sequence:
#
# PCOD8219300 Si02
#       8
#     8   8   8   8   8   8   8   8
#     4  10  19  34  56  81 106 137 176 218 265 318
#     4  10  19  34  56  81 106 137 176 218 265 318
#     4  10  20  37  59  84 112 144 180 225 277 331
#     4   9  15  28  55  82 105 138 175 209 256 322
#     4  11  23  38  55  79 109 147 192 233 272 322
#     4   8  16  31  54  81 110 140 174 217 272 331
#     4  10  20  37  59  84 112 144 180 225 277 331
#     4   9  20  38  56  73 102 143 186 223 260 314
#
# _framework density 19.417231000000001
#
# number of rings (size 3 to 8) (size 9 to 14) (size 15 to 20)
#    0.000    2.375    1.250    1.500    0.000    2.500 
#    0.000    8.125    0.000    0.750    0.000    0.000 
#    0.000    0.000    0.000    0.000    0.000    0.000 
#
# Total GULP energy -793118.535285 kJ/mol
# GULP energy per Si atom -12392.477114 kJ/mol
# Density = 1.937304 g / cm^3
# Si number density = 19.417231 Si / 1000 Ang^3
#
#
#
# Elastic Constant Matrix: (Units=GPa)
#
#
# Indices 1 2 3 4 5 6 
#
# 1 49.5216 44.8117 37.6797 0.0000 0.0000 0.0000
# 2 44.8117 173.5348 88.9243 0.0000 0.0000 0.0000
# 3 37.6797 88.9243 159.2726 0.0000 0.0000 0.0000
# 4 0.0000 0.0000 0.0000 20.8243 0.0000 0.0000
# 5 0.0000 0.0000 0.0000 0.0000 32.8418 0.0000
# 6 0.0000 0.0000 0.0000 0.0000 0.0000 19.2509
#
#
#
# Elastic Compliance Matrix: (Units=1/GPa)
#
#
# Indices 1 2 3 4 5 6 
#
# 1 0.027743 -0.005324 -0.003591 0.000000 0.000000 0.000000
# 2 -0.005324 0.009094 -0.003818 0.000000 0.000000 0.000000
# 3 -0.003591 -0.003818 0.009259 0.000000 0.000000 0.000000
# 4 0.000000 0.000000 0.000000 0.048021 0.000000 0.000000
# 5 0.000000 0.000000 0.000000 0.000000 0.030449 0.000000
# 6 0.000000 0.000000 0.000000 0.000000 0.000000 0.051946
#
#
# Mechanical properties :
#
#
# Convention : Reuss Voigt Hill
#
# Bulk Modulus (GPa) = 48.47009 80.57338 64.52173
# Shear Modulus (GPa) = 23.94026 28.64429 26.29227
#
# Velocity S-wave (km/s) = 3.51513 3.84500 3.68376
# Velocity P-wave (km/s) = 6.44139 7.82930 7.16901
#
# Compressibility (1/GPa) = 0.02063128
#
# Stress axis : x y z
#
# Youngs Moduli (GPa) = 36.04513 109.96767 107.99797
#
# Poissons Ratio (x) = 0.58547 0.38780
# Poissons Ratio (y) = 0.19191 0.41229
# Poissons Ratio (z) = 0.12943 0.41981
#
# Static dielectric constant tensor:
#      x y z
#    x 3.240110 0.000000 0.000000 
#    y 0.000000 3.934650 0.000000 
#    z 0.000000 0.000000 3.490090 
# 
# 
# High freq. dielectric constant tensor:
#      x y z
#    x 1.730580 0.000000 0.000000 
#    y 0.000000 1.766200 0.000000 
#    z 0.000000 0.000000 1.755920 
# 
# From -- ./inp_files/21017.got.cif
#   From: 2010.03.12/outbox.cif.g09.slc.cpg/sg53_11_cif.got.tgz:21017.got - 2010.04.16 14:36:59.
