data_PCOD8219159
_publ_section_title
;
Structure prediction by ZEFSAII (Michael W. Deem and Ramdas Pophale) SiO2 
 PCOD8219159
Probable space group: P M N A
;
_chemical_formula_sum "Si O2"
_cell_formula_units_Z 32
_cell_length_a 8.400926
_cell_length_b 5.102745
_cell_length_c 35.301050
_cell_angle_alpha 90.000000
_cell_angle_beta 90.000000
_cell_angle_gamma 90.000000
_cell_volume 1513.277756
_symmetry_space_group_name_H-M "P M N A"
_symmetry_group_IT_number 53
_symmetry_cell_setting 'orthorhombic'
loop_
_space_group_symop_operation_xyz
x,y,z
1/2-x,-y,1/2+z
x,-y,-z
1/2-x,y,1/2-z
-x,-y,-z
1/2+x,y,1/2-z
-x,y,z
1/2+x,-y,1/2+z
loop_
_atom_site_type_symbol
_atom_site_label
_atom_site_fract_x
_atom_site_fract_y
_atom_site_fract_z
Si Si1 0.188263 0.970274 0.088214
Si Si2 0.684062 0.936985 0.170087
Si Si3 0.811868 0.524642 0.957935
Si Si4 0.814380 0.558293 0.790691
O O1 0.277241 0.019507 0.127403
O O2 0.252229 0.703799 0.069390
O O3 0.000000 0.968502 0.095869
O O4 0.238223 0.199403 0.059569
O O5 0.500000 0.867295 0.174854
O O6 0.784234 0.678767 0.180330
O O7 0.725033 0.178434 0.197183
O O8 0.000000 0.494055 0.960962
O O9 0.737207 0.500000 0.000000
O O10 0.750000 0.468333 0.750000
O O11 0.000000 0.620682 0.789279
#
# Coordination Sequence:
#
# PCOD8219159 Si02
#       4
#     8   8   8   8
#     4  10  19  33  55  82 113 152 198 246 297 353
#     4  12  25  42  63  91 126 164 205 250 303 361
#     4   9  17  30  52  82 113 147 194 249 298 349
#     4  12  25  44  67  93 124 160 203 250 303 361
#
# _framework density 21.146151
#
# number of rings (size 3 to 8) (size 9 to 14) (size 15 to 20)
#    0.000    1.250    0.000    7.500    0.000    5.000 
#    0.000    0.000    0.000    4.500    0.000    0.000 
#    0.000    0.000    0.000    0.000    0.000    0.000 
#
# Total GULP energy -397019.145508 kJ/mol
# GULP energy per Si atom -12406.848297 kJ/mol
# Density = 2.109802 g / cm^3
# Si number density = 21.146151 Si / 1000 Ang^3
#
#
#
# Elastic Constant Matrix: (Units=GPa)
#
#
# Indices 1 2 3 4 5 6 
#
# 1 60.7510 16.3754 31.2268 0.0000 0.0000 0.0000
# 2 16.3754 103.2766 10.3472 0.0000 0.0000 0.0000
# 3 31.2268 10.3472 105.3566 0.0000 0.0000 0.0000
# 4 0.0000 0.0000 0.0000 32.2165 0.0000 0.0000
# 5 0.0000 0.0000 0.0000 0.0000 15.1054 0.0000
# 6 0.0000 0.0000 0.0000 0.0000 0.0000 10.1878
#
#
#
# Elastic Compliance Matrix: (Units=1/GPa)
#
#
# Indices 1 2 3 4 5 6 
#
# 1 0.020095 -0.002615 -0.005699 0.000000 0.000000 0.000000
# 2 -0.002615 0.010119 -0.000219 0.000000 0.000000 0.000000
# 3 -0.005699 -0.000219 0.011202 0.000000 0.000000 0.000000
# 4 0.000000 0.000000 0.000000 0.031040 0.000000 0.000000
# 5 0.000000 0.000000 0.000000 0.000000 0.066202 0.000000
# 6 0.000000 0.000000 0.000000 0.000000 0.000000 0.098157
#
#
# Mechanical properties :
#
#
# Convention : Reuss Voigt Hill
#
# Bulk Modulus (GPa) = 41.06711 42.80922 41.93817
# Shear Modulus (GPa) = 19.08411 25.59758 22.34084
#
# Velocity S-wave (km/s) = 3.00740 3.48301 3.25391
# Velocity P-wave (km/s) = 5.61445 6.03850 5.83033
#
# Compressibility (1/GPa) = 0.02435039
#
# Stress axis : x y z
#
# Youngs Moduli (GPa) = 49.76365 98.82091 89.26796
#
# Poissons Ratio (x) = 0.25844 0.50875
# Poissons Ratio (y) = 0.13014 0.01952
# Poissons Ratio (z) = 0.28361 0.02161
#
# Static dielectric constant tensor:
#      x y z
#    x 3.519270 0.000000 0.000000 
#    y 0.000000 3.893970 0.000000 
#    z 0.000000 0.000000 3.988510 
# 
# 
# High freq. dielectric constant tensor:
#      x y z
#    x 1.800430 0.000000 0.000000 
#    y 0.000000 1.844170 0.000000 
#    z 0.000000 0.000000 1.845500 
# 
# From -- ./inp_files/12748.got.cif
#   From: 2010.03.12/outbox.cif.g09.slc.cpg/sg53_7_cif.got.tgz:12748.got - 2010.04.16 14:36:59.
