data_PCOD8219821
_publ_section_title
;
Structure prediction by ZEFSAII (Michael W. Deem and Ramdas Pophale) SiO2 
 PCOD8219821
Probable space group: P M N A
;
_chemical_formula_sum "Si O2"
_cell_formula_units_Z 64
_cell_length_a 9.199545
_cell_length_b 15.768694
_cell_length_c 23.513018
_cell_angle_alpha 90.000000
_cell_angle_beta 90.000000
_cell_angle_gamma 90.000000
_cell_volume 3410.911490
_symmetry_space_group_name_H-M "P M N A"
_symmetry_group_IT_number 53
_symmetry_cell_setting 'orthorhombic'
loop_
_space_group_symop_operation_xyz
x,y,z
1/2-x,-y,1/2+z
x,-y,-z
1/2-x,y,1/2-z
-x,-y,-z
1/2+x,y,1/2-z
-x,y,z
1/2+x,-y,1/2+z
loop_
_atom_site_type_symbol
_atom_site_label
_atom_site_fract_x
_atom_site_fract_y
_atom_site_fract_z
Si Si1 0.672265 0.297977 0.095906
Si Si2 0.839842 0.314616 0.698493
Si Si3 0.838636 0.885326 0.302757
Si Si4 0.827706 0.123702 0.458871
Si Si5 0.673204 0.059818 0.922684
Si Si6 0.673977 0.593443 0.688104
Si Si7 0.168102 0.577970 0.120358
Si Si8 0.655526 0.593460 0.012364
O O1 0.500000 0.298715 0.109563
O O2 0.729841 0.204713 0.076420
O O3 0.760090 0.327724 0.152022
O O4 0.712114 0.359381 0.043783
O O5 0.750000 0.355542 0.750000
O O6 0.847009 0.214675 0.703182
O O7 0.758681 0.341866 0.642079
O O8 0.000000 0.354766 0.700251
O O9 0.750000 0.924769 0.250000
O O10 0.762162 0.907242 0.362860
O O11 0.000000 0.924877 0.300099
O O12 0.771312 0.118879 0.524761
O O13 0.000000 0.128274 0.459988
O O14 0.774533 0.037259 0.429011
O O15 0.500000 0.064819 0.921635
O O16 0.750000 0.590240 0.750000
O O17 0.500000 0.604470 0.694948
O O18 0.713307 0.508405 0.652693
O O19 0.209489 0.583016 0.054684
O O20 0.000000 0.595975 0.128296
O O21 0.500000 0.636612 0.033725
O O22 0.605863 0.500000 0.000000
#
# Coordination Sequence:
#
# PCOD8219821 Si02
#       8
#     8   8   8   8   8   8   8   8
#     4  10  20  35  57  83 110 140 179 220 265 315
#     4  10  20  33  50  73 104 138 174 215 256 310
#     4   9  18  31  50  74 105 139 173 212 259 315
#     4   8  15  28  52  81 107 134 172 219 262 312
#     4   8  14  28  50  79 108 136 171 214 261 310
#     4  11  24  40  58  77 103 140 182 225 270 316
#     4  11  23  36  53  77 105 140 179 221 266 313
#     4  10  20  34  53  78 108 141 173 215 263 313
#
# _framework density 18.763314000000001
#
# number of rings (size 3 to 8) (size 9 to 14) (size 15 to 20)
#    0.000    2.375    1.250    2.250    1.750    3.750 
#    0.000    0.625    0.000    2.250    0.000    1.750 
#    0.000    0.000    0.000    0.000    0.000    0.000 
#
# Total GULP energy -792901.872834 kJ/mol
# GULP energy per Si atom -12389.091763 kJ/mol
# Density = 1.872061 g / cm^3
# Si number density = 18.763314 Si / 1000 Ang^3
#
#
#
# Elastic Constant Matrix: (Units=GPa)
#
#
# Indices 1 2 3 4 5 6 
#
# 1 80.6875 23.3984 53.4216 0.0000 0.0000 0.0000
# 2 23.3984 36.6078 22.0227 0.0000 0.0000 0.0000
# 3 53.4216 22.0227 124.3295 0.0000 0.0000 0.0000
# 4 0.0000 0.0000 0.0000 27.2901 0.0000 0.0000
# 5 0.0000 0.0000 0.0000 0.0000 35.4148 0.0000
# 6 0.0000 0.0000 0.0000 0.0000 0.0000 13.8877
#
#
#
# Elastic Compliance Matrix: (Units=1/GPa)
#
#
# Indices 1 2 3 4 5 6 
#
# 1 0.019307 -0.008226 -0.006839 0.000000 0.000000 0.000000
# 2 -0.008226 0.034080 -0.002502 0.000000 0.000000 0.000000
# 3 -0.006839 -0.002502 0.011425 0.000000 0.000000 0.000000
# 4 0.000000 0.000000 0.000000 0.036643 0.000000 0.000000
# 5 0.000000 0.000000 0.000000 0.000000 0.028237 0.000000
# 6 0.000000 0.000000 0.000000 0.000000 0.000000 0.072006
#
#
# Mechanical properties :
#
#
# Convention : Reuss Voigt Hill
#
# Bulk Modulus (GPa) = 33.69545 48.81226 41.25386
# Shear Modulus (GPa) = 20.26566 24.83732 22.55149
#
# Velocity S-wave (km/s) = 3.29000 3.64224 3.47059
# Velocity P-wave (km/s) = 5.69467 6.61507 6.17205
#
# Compressibility (1/GPa) = 0.02967759
#
# Stress axis : x y z
#
# Youngs Moduli (GPa) = 51.79571 29.34306 87.52986
#
# Poissons Ratio (x) = 0.24138 0.59857
# Poissons Ratio (y) = 0.42608 0.21900
# Poissons Ratio (z) = 0.35421 0.07342
#
# Static dielectric constant tensor:
#      x y z
#    x 3.455730 0.000000 0.000000 
#    y 0.000000 3.464400 0.000000 
#    z 0.000000 0.000000 3.674260 
# 
# 
# High freq. dielectric constant tensor:
#      x y z
#    x 1.702850 0.000000 0.000000 
#    y 0.000000 1.712910 0.000000 
#    z 0.000000 0.000000 1.734960 
# 
# From -- ./inp_files/34243.got.cif
#   From: 2010.03.12/outbox.cif.g09.slc.cpg/sg53_18_cif.got.tgz:34243.got - 2010.04.16 14:36:59.
