data_PCOD8219458
_publ_section_title
;
Structure prediction by ZEFSAII (Michael W. Deem and Ramdas Pophale) SiO2 
 PCOD8219458
Probable space group: P M N A
;
_chemical_formula_sum "Si O2"
_cell_formula_units_Z 48
_cell_length_a 8.693330
_cell_length_b 16.332584
_cell_length_c 17.999222
_cell_angle_alpha 90.000000
_cell_angle_beta 90.000000
_cell_angle_gamma 90.000000
_cell_volume 2555.611300
_symmetry_space_group_name_H-M "P M N A"
_symmetry_group_IT_number 53
_symmetry_cell_setting 'orthorhombic'
loop_
_space_group_symop_operation_xyz
x,y,z
1/2-x,-y,1/2+z
x,-y,-z
1/2-x,y,1/2-z
-x,-y,-z
1/2+x,y,1/2-z
-x,y,z
1/2+x,-y,1/2+z
loop_
_atom_site_type_symbol
_atom_site_label
_atom_site_fract_x
_atom_site_fract_y
_atom_site_fract_z
Si Si1 0.318683 0.151844 0.168691
Si Si2 0.819476 0.333659 0.671402
Si Si3 0.178533 0.999476 0.087298
Si Si4 0.181371 0.831272 0.405648
Si Si5 0.179723 0.249643 0.045164
Si Si6 0.679199 0.584647 0.466472
O O1 0.250000 0.148016 0.250000
O O2 0.500000 0.163402 0.172807
O O3 0.243870 0.229995 0.126887
O O4 0.278679 0.068940 0.125684
O O5 0.750000 0.358334 0.750000
O O6 0.765883 0.242361 0.648449
O O7 0.765002 0.398843 0.610507
O O8 0.000000 0.338441 0.677028
O O9 0.231198 0.912532 0.121350
O O10 0.000000 0.014517 0.105142
O O11 0.212666 0.000000 0.000000
O O12 0.231003 0.809754 0.489088
O O13 0.000000 0.846017 0.403503
O O14 0.212857 0.344277 0.026469
O O15 0.000000 0.228328 0.039891
O O16 0.742653 0.500000 0.500000
O O17 0.500000 0.578420 0.447980
#
# Coordination Sequence:
#
# PCOD8219458 Si02
#       6
#     8   8   8   8   8   8
#     4  12  25  40  58  80 112 149 191 238 285 333
#     4  10  21  36  56  84 117 151 187 231 283 335
#     4  11  22  36  57  83 113 150 193 236 282 333
#     4  10  20  34  55  82 110 147 191 231 277 332
#     4  10  19  35  58  83 111 143 183 228 276 334
#     4   9  19  37  62  89 116 148 185 227 278 338
#
# _framework density 18.782198999999999
#
# number of rings (size 3 to 8) (size 9 to 14) (size 15 to 20)
#    0.000    1.667    1.667    3.500    0.000    4.333 
#    0.000    2.500    0.000    0.000    0.000    0.000 
#    0.000    0.000    0.000    0.000    0.000    0.000 
#
# Total GULP energy -595403.335461 kJ/mol
# GULP energy per Si atom -12404.236155 kJ/mol
# Density = 1.873945 g / cm^3
# Si number density = 18.782199 Si / 1000 Ang^3
#
#
#
# Elastic Constant Matrix: (Units=GPa)
#
#
# Indices 1 2 3 4 5 6 
#
# 1 53.9832 30.4060 32.7186 0.0000 0.0000 0.0000
# 2 30.4060 117.9026 50.3033 0.0000 0.0000 0.0000
# 3 32.7186 50.3033 114.2542 0.0000 0.0000 0.0000
# 4 0.0000 0.0000 0.0000 36.1375 0.0000 0.0000
# 5 0.0000 0.0000 0.0000 0.0000 33.2023 0.0000
# 6 0.0000 0.0000 0.0000 0.0000 0.0000 25.6945
#
#
#
# Elastic Compliance Matrix: (Units=1/GPa)
#
#
# Indices 1 2 3 4 5 6 
#
# 1 0.023844 -0.003984 -0.005074 0.000000 0.000000 0.000000
# 2 -0.003984 0.011109 -0.003750 0.000000 0.000000 0.000000
# 3 -0.005074 -0.003750 0.011856 0.000000 0.000000 0.000000
# 4 0.000000 0.000000 0.000000 0.027672 0.000000 0.000000
# 5 0.000000 0.000000 0.000000 0.000000 0.030118 0.000000
# 6 0.000000 0.000000 0.000000 0.000000 0.000000 0.038919
#
#
# Mechanical properties :
#
#
# Convention : Reuss Voigt Hill
#
# Bulk Modulus (GPa) = 47.18594 56.99950 52.09272
# Shear Modulus (GPa) = 28.37699 30.52100 29.44899
#
# Velocity S-wave (km/s) = 3.89118 4.03550 3.96399
# Velocity P-wave (km/s) = 6.73540 7.21991 6.98186
#
# Compressibility (1/GPa) = 0.02119275
#
# Stress axis : x y z
#
# Youngs Moduli (GPa) = 41.93992 90.01665 84.34227
#
# Poissons Ratio (x) = 0.35865 0.42794
# Poissons Ratio (y) = 0.16710 0.31629
# Poissons Ratio (z) = 0.21280 0.33757
#
# Static dielectric constant tensor:
#      x y z
#    x 3.487620 0.000000 0.000000 
#    y 0.000000 3.592000 0.000000 
#    z 0.000000 0.000000 3.083540 
# 
# 
# High freq. dielectric constant tensor:
#      x y z
#    x 1.740970 0.000000 0.000000 
#    y 0.000000 1.725640 0.000000 
#    z 0.000000 0.000000 1.720690 
# 
# From -- ./inp_files/20228.got.cif
#   From: 2010.03.12/outbox.cif.g09.slc.cpg/sg53_11_cif.got.tgz:20228.got - 2010.04.16 14:36:59.
