data_PCOD8219871
_publ_section_title
;
Structure prediction by ZEFSAII (Michael W. Deem and Ramdas Pophale) SiO2 
 PCOD8219871
Probable space group: P M N A
;
_chemical_formula_sum "Si O2"
_cell_formula_units_Z 48
_cell_length_a 9.092846
_cell_length_b 11.372985
_cell_length_c 23.146403
_cell_angle_alpha 90.000000
_cell_angle_beta 90.000000
_cell_angle_gamma 90.000000
_cell_volume 2393.634371
_symmetry_space_group_name_H-M "P M N A"
_symmetry_group_IT_number 53
_symmetry_cell_setting 'orthorhombic'
loop_
_space_group_symop_operation_xyz
x,y,z
1/2-x,-y,1/2+z
x,-y,-z
1/2-x,y,1/2-z
-x,-y,-z
1/2+x,y,1/2-z
-x,y,z
1/2+x,-y,1/2+z
loop_
_atom_site_type_symbol
_atom_site_label
_atom_site_fract_x
_atom_site_fract_y
_atom_site_fract_z
Si Si1 0.671976 0.809111 0.092363
Si Si2 0.164676 0.565775 0.886257
Si Si3 0.162552 0.212203 0.194882
Si Si4 0.828167 0.286707 0.473979
Si Si5 0.326745 0.371673 0.812059
Si Si6 0.171509 0.068884 0.392151
O O1 0.500000 0.817497 0.080700
O O2 0.706383 0.749777 0.154155
O O3 0.735823 0.941313 0.089900
O O4 0.733528 0.730116 0.039277
O O5 0.154153 0.682144 0.849138
O O6 0.241480 0.603019 0.946449
O O7 0.264112 0.474371 0.851891
O O8 0.000000 0.515626 0.897432
O O9 0.250000 0.258416 0.250000
O O10 0.246190 0.102609 0.166682
O O11 0.000000 0.171132 0.213212
O O12 0.796900 0.162946 0.442165
O O13 0.000000 0.318858 0.471127
O O14 0.250000 0.367516 0.750000
O O15 0.500000 0.392783 0.802992
O O16 0.000000 0.061015 0.377574
#
# Coordination Sequence:
#
# PCOD8219871 Si02
#       6
#     8   8   8   8   8   8
#     4   9  19  35  56  82 110 143 181 219 261 316
#     4  10  21  37  56  80 109 139 177 224 274 323
#     4  10  20  33  51  76 105 137 176 224 273 320
#     4   9  17  33  59  86 110 139 177 220 267 317
#     4  11  23  39  57  77 106 143 183 223 265 316
#     4   9  17  32  55  81 109 141 178 219 264 316
#
# _framework density 20.053187000000001
#
# number of rings (size 3 to 8) (size 9 to 14) (size 15 to 20)
#    0.000    2.333    0.000    2.500    0.000    6.667 
#    0.000    9.167    0.000    4.000    0.000    0.000 
#    0.000    0.000    0.000    0.000    0.000    0.000 
#
# Total GULP energy -595097.419537 kJ/mol
# GULP energy per Si atom -12397.862907 kJ/mol
# Density = 2.000755 g / cm^3
# Si number density = 20.053187 Si / 1000 Ang^3
#
#
#
# Elastic Constant Matrix: (Units=GPa)
#
#
# Indices 1 2 3 4 5 6 
#
# 1 95.9831 30.7044 35.2619 0.0000 0.0000 0.0000
# 2 30.7044 60.4912 23.7592 0.0000 0.0000 0.0000
# 3 35.2619 23.7592 56.3547 0.0000 0.0000 0.0000
# 4 0.0000 0.0000 0.0000 20.4311 0.0000 0.0000
# 5 0.0000 0.0000 0.0000 0.0000 30.2522 0.0000
# 6 0.0000 0.0000 0.0000 0.0000 0.0000 11.1084
#
#
#
# Elastic Compliance Matrix: (Units=1/GPa)
#
#
# Indices 1 2 3 4 5 6 
#
# 1 0.014503 -0.004551 -0.007156 0.000000 0.000000 0.000000
# 2 -0.004551 0.021240 -0.006107 0.000000 0.000000 0.000000
# 3 -0.007156 -0.006107 0.024797 0.000000 0.000000 0.000000
# 4 0.000000 0.000000 0.000000 0.048945 0.000000 0.000000
# 5 0.000000 0.000000 0.000000 0.000000 0.033055 0.000000
# 6 0.000000 0.000000 0.000000 0.000000 0.000000 0.090022
#
#
# Mechanical properties :
#
#
# Convention : Reuss Voigt Hill
#
# Bulk Modulus (GPa) = 40.14151 43.58666 41.86408
# Shear Modulus (GPa) = 18.08344 20.56524 19.32434
#
# Velocity S-wave (km/s) = 3.00621 3.20587 3.10765
# Velocity P-wave (km/s) = 5.66663 5.95703 5.81364
#
# Compressibility (1/GPa) = 0.02491187
#
# Stress axis : x y z
#
# Youngs Moduli (GPa) = 68.94957 47.08078 40.32685
#
# Poissons Ratio (x) = 0.21426 0.28859
# Poissons Ratio (y) = 0.31378 0.24629
# Poissons Ratio (z) = 0.49342 0.28754
#
# Static dielectric constant tensor:
#      x y z
#    x 3.749050 0.000000 0.000000 
#    y 0.000000 3.664430 0.000000 
#    z 0.000000 0.000000 3.764140 
# 
# 
# High freq. dielectric constant tensor:
#      x y z
#    x 1.767550 0.000000 0.000000 
#    y 0.000000 1.778120 0.000000 
#    z 0.000000 0.000000 1.788300 
# 
# From -- ./inp_files/33890.got.cif
#   From: 2010.03.12/outbox.cif.g09.slc.cpg/sg53_17_cif.got.tgz:33890.got - 2010.04.16 14:36:59.
