data_PCOD8219624
_publ_section_title
;
Structure prediction by ZEFSAII (Michael W. Deem and Ramdas Pophale) SiO2 
 PCOD8219624
Probable space group: P M N A
;
_chemical_formula_sum "Si O2"
_cell_formula_units_Z 64
_cell_length_a 8.988890
_cell_length_b 15.305495
_cell_length_c 23.576317
_cell_angle_alpha 90.000000
_cell_angle_beta 90.000000
_cell_angle_gamma 90.000000
_cell_volume 3243.615805
_symmetry_space_group_name_H-M "P M N A"
_symmetry_group_IT_number 53
_symmetry_cell_setting 'orthorhombic'
loop_
_space_group_symop_operation_xyz
x,y,z
1/2-x,-y,1/2+z
x,-y,-z
1/2-x,y,1/2-z
-x,-y,-z
1/2+x,y,1/2-z
-x,y,z
1/2+x,-y,1/2+z
loop_
_atom_site_type_symbol
_atom_site_label
_atom_site_fract_x
_atom_site_fract_y
_atom_site_fract_z
Si Si1 0.324228 0.001846 0.809975
Si Si2 0.675078 0.399449 0.999116
Si Si3 0.325602 0.494056 0.310045
Si Si4 0.824388 0.336358 0.110758
Si Si5 0.329561 0.653410 0.386937
Si Si6 0.170583 0.850635 0.121081
Si Si7 0.829053 0.836918 0.615420
Si Si8 0.328680 0.900998 0.009197
O O1 0.250000 0.982997 0.750000
O O2 0.500000 0.008447 0.802406
O O3 0.277245 0.924030 0.852176
O O4 0.267239 0.092576 0.835776
O O5 0.500000 0.388976 0.006698
O O6 0.723322 0.355361 0.940746
O O7 0.725850 0.500000 0.000000
O O8 0.753524 0.347961 0.049332
O O9 0.250000 0.486601 0.250000
O O10 0.500000 0.488880 0.300539
O O11 0.269301 0.414004 0.348634
O O12 0.277893 0.584617 0.339439
O O13 0.769151 0.244427 0.136810
O O14 0.000000 0.335658 0.104529
O O15 0.500000 0.634677 0.405538
O O16 0.312939 0.749731 0.360432
O O17 0.000000 0.881465 0.124372
O O18 0.226022 0.858410 0.056685
O O19 0.804592 0.848274 0.548478
O O20 0.000000 0.816905 0.629576
O O21 0.500000 0.898127 0.029535
O O22 0.277772 0.000000 0.000000
#
# Coordination Sequence:
#
# PCOD8219624 Si02
#       8
#     8   8   8   8   8   8   8   8
#     4  11  24  44  65  87 119 161 203 251 304 355
#     4  11  22  36  60  93 124 158 200 244 296 357
#     4  10  23  42  62  84 115 156 200 245 297 351
#     4  11  23  39  62  89 121 160 198 245 302 356
#     4  10  22  41  62  88 123 160 198 243 301 358
#     4  11  23  38  61  93 123 156 200 248 297 359
#     4  10  22  40  63  89 121 159 198 244 299 359
#     4  10  19  37  61  86 120 160 196 236 299 361
#
# _framework density 19.731065999999998
#
# number of rings (size 3 to 8) (size 9 to 14) (size 15 to 20)
#    0.000    1.500    2.500    2.250    0.000    7.750 
#    0.000    3.750    0.000    0.000    0.000    0.000 
#    0.000    0.000    0.000    0.000    0.000    0.000 
#
# Total GULP energy -793980.148708 kJ/mol
# GULP energy per Si atom -12405.939824 kJ/mol
# Density = 1.968616 g / cm^3
# Si number density = 19.731066 Si / 1000 Ang^3
#
#
#
# Elastic Constant Matrix: (Units=GPa)
#
#
# Indices 1 2 3 4 5 6 
#
# 1 73.8929 45.2949 34.2187 0.0000 0.0000 0.0000
# 2 45.2949 126.4176 24.2771 0.0000 0.0000 0.0000
# 3 34.2187 24.2771 78.8026 0.0000 0.0000 0.0000
# 4 0.0000 0.0000 0.0000 9.4795 0.0000 0.0000
# 5 0.0000 0.0000 0.0000 0.0000 35.8661 0.0000
# 6 0.0000 0.0000 0.0000 0.0000 0.0000 34.8216
#
#
#
# Elastic Compliance Matrix: (Units=1/GPa)
#
#
# Indices 1 2 3 4 5 6 
#
# 1 0.020459 -0.005978 -0.007042 0.000000 0.000000 0.000000
# 2 -0.005978 0.010154 -0.000533 0.000000 0.000000 0.000000
# 3 -0.007042 -0.000533 0.015912 0.000000 0.000000 0.000000
# 4 0.000000 0.000000 0.000000 0.105491 0.000000 0.000000
# 5 0.000000 0.000000 0.000000 0.000000 0.027881 0.000000
# 6 0.000000 0.000000 0.000000 0.000000 0.000000 0.028718
#
#
# Mechanical properties :
#
#
# Convention : Reuss Voigt Hill
#
# Bulk Modulus (GPa) = 51.49382 54.07715 52.78548
# Shear Modulus (GPa) = 20.64465 27.72161 24.18313
#
# Velocity S-wave (km/s) = 3.23817 3.75236 3.50471
# Velocity P-wave (km/s) = 6.33526 6.80002 6.57175
#
# Compressibility (1/GPa) = 0.01941981
#
# Stress axis : x y z
#
# Youngs Moduli (GPa) = 48.87943 98.47959 62.84596
#
# Poissons Ratio (x) = 0.58869 0.44257
# Poissons Ratio (y) = 0.29219 0.03347
# Poissons Ratio (z) = 0.34422 0.05244
#
# Static dielectric constant tensor:
#      x y z
#    x 3.557430 0.000000 0.000000 
#    y 0.000000 3.830600 0.000000 
#    z 0.000000 0.000000 3.527860 
# 
# 
# High freq. dielectric constant tensor:
#      x y z
#    x 1.769080 0.000000 0.000000 
#    y 0.000000 1.786970 0.000000 
#    z 0.000000 0.000000 1.761490 
# 
# From -- ./inp_files/34162.got.cif
#   From: 2010.03.12/outbox.cif.g09.slc.cpg/sg53_18_cif.got.tgz:34162.got - 2010.04.16 14:36:59.
