data_PCOD8219215
_publ_section_title
;
Structure prediction by ZEFSAII (Michael W. Deem and Ramdas Pophale) SiO2 
 PCOD8219215
Probable space group: P M N A
;
_chemical_formula_sum "Si O2"
_cell_formula_units_Z 64
_cell_length_a 16.860747
_cell_length_b 13.438734
_cell_length_c 12.594678
_cell_angle_alpha 90.000000
_cell_angle_beta 90.000000
_cell_angle_gamma 90.000000
_cell_volume 2853.791488
_symmetry_space_group_name_H-M "P M N A"
_symmetry_group_IT_number 53
_symmetry_cell_setting 'orthorhombic'
loop_
_space_group_symop_operation_xyz
x,y,z
1/2-x,-y,1/2+z
x,-y,-z
1/2-x,y,1/2-z
-x,-y,-z
1/2+x,y,1/2-z
-x,y,z
1/2+x,-y,1/2+z
loop_
_atom_site_type_symbol
_atom_site_label
_atom_site_fract_x
_atom_site_fract_y
_atom_site_fract_z
Si Si1 0.908636 0.242226 0.655851
Si Si2 0.088440 0.832918 0.725279
Si Si3 0.588742 0.609027 0.708004
Si Si4 0.588449 0.729280 0.391275
Si Si5 0.906825 0.532287 0.387385
Si Si6 0.636014 0.894676 0.545139
Si Si7 0.303166 0.192004 0.028438
Si Si8 0.207155 0.388074 0.015089
O O1 0.892312 0.216466 0.779085
O O2 0.882898 0.355615 0.636414
O O3 0.854435 0.176067 0.578659
O O4 0.000000 0.224775 0.624207
O O5 0.084164 0.716204 0.740498
O O6 0.121390 0.889185 0.829026
O O7 0.146783 0.850033 0.626905
O O8 0.000000 0.873852 0.699681
O O9 0.500000 0.574107 0.674660
O O10 0.628874 0.535944 0.794249
O O11 0.643931 0.611404 0.607677
O O12 0.500000 0.680603 0.383521
O O13 0.585975 0.809380 0.485948
O O14 0.656102 0.646132 0.411479
O O15 0.870013 0.500000 0.500000
O O16 0.000000 0.514200 0.388666
O O17 0.727863 0.878887 0.517850
O O18 0.607431 0.000000 0.500000
O O19 0.276399 0.308208 0.041290
O O20 0.241671 0.500000 0.000000
#
# Coordination Sequence:
#
# PCOD8219215 Si02
#       8
#     8   8   8   8   8   8   8   8
#     4  10  21  39  63  92 131 176 219 268 317 374
#     4  11  22  42  71  98 126 165 218 279 329 380
#     4  10  19  33  57  89 127 173 223 276 319 365
#     4  10  21  41  67  95 129 169 222 275 322 384
#     4   9  17  30  51  86 125 169 221 257 301 366
#     4  11  25  45  70  99 129 166 209 266 344 412
#     4  11  24  43  63  95 136 172 214 265 326 404
#     4  11  23  36  57  92 134 183 222 270 322 383
#
# _framework density 22.426304999999999
#
# number of rings (size 3 to 8) (size 9 to 14) (size 15 to 20)
#    0.000    1.625    2.500    3.000    0.000    8.500 
#    4.500    1.250    0.000    1.125    0.000    0.000 
#    0.000    0.000    0.000    0.000    0.000    0.000 
#
# Total GULP energy -793522.764130 kJ/mol
# GULP energy per Si atom -12398.793190 kJ/mol
# Density = 2.237526 g / cm^3
# Si number density = 22.426305 Si / 1000 Ang^3
#
#
#
# Elastic Constant Matrix: (Units=GPa)
#
#
# Indices 1 2 3 4 5 6 
#
# 1 91.9554 12.8165 45.1610 0.0000 0.0000 0.0000
# 2 12.8165 45.0903 -0.0362 0.0000 0.0000 0.0000
# 3 45.1610 -0.0362 138.4889 0.0000 0.0000 0.0000
# 4 0.0000 0.0000 0.0000 21.5910 0.0000 0.0000
# 5 0.0000 0.0000 0.0000 0.0000 23.5629 0.0000
# 6 0.0000 0.0000 0.0000 0.0000 0.0000 13.7374
#
#
#
# Elastic Compliance Matrix: (Units=1/GPa)
#
#
# Indices 1 2 3 4 5 6 
#
# 1 0.013591 -0.003867 -0.004433 0.000000 0.000000 0.000000
# 2 -0.003867 0.023278 0.001267 0.000000 0.000000 0.000000
# 3 -0.004433 0.001267 0.008667 0.000000 0.000000 0.000000
# 4 0.000000 0.000000 0.000000 0.046316 0.000000 0.000000
# 5 0.000000 0.000000 0.000000 0.000000 0.042440 0.000000
# 6 0.000000 0.000000 0.000000 0.000000 0.000000 0.072794
#
#
# Mechanical properties :
#
#
# Convention : Reuss Voigt Hill
#
# Bulk Modulus (GPa) = 31.77616 43.49079 37.63348
# Shear Modulus (GPa) = 21.58526 26.28450 23.93488
#
# Velocity S-wave (km/s) = 3.10578 3.42722 3.27045
# Velocity P-wave (km/s) = 5.20203 5.92418 5.57481
#
# Compressibility (1/GPa) = 0.03147013
#
# Stress axis : x y z
#
# Youngs Moduli (GPa) = 73.57879 42.95945 115.38401
#
# Poissons Ratio (x) = 0.16611 0.51149
# Poissons Ratio (y) = 0.28450 -0.14619
# Poissons Ratio (z) = 0.32617 -0.05443
#
# Static dielectric constant tensor:
#      x y z
#    x 4.175710 0.000000 0.000000 
#    y 0.000000 4.417400 0.000000 
#    z 0.000000 0.000000 4.205300 
# 
# 
# High freq. dielectric constant tensor:
#      x y z
#    x 1.893410 0.000000 0.000000 
#    y 0.000000 1.845820 0.000000 
#    z 0.000000 0.000000 1.892480 
# 
# From -- ./inp_files/17125.got.cif
#   From: 2010.03.12/outbox.cif.g09.slc.cpg/sg53_9_cif.got.tgz:17125.got - 2010.04.16 14:36:59.
