data_PCOD8219813
_publ_section_title
;
Structure prediction by ZEFSAII (Michael W. Deem and Ramdas Pophale) SiO2 
 PCOD8219813
Probable space group: P M N A
;
_chemical_formula_sum "Si O2"
_cell_formula_units_Z 48
_cell_length_a 8.847535
_cell_length_b 18.211570
_cell_length_c 16.693088
_cell_angle_alpha 90.000000
_cell_angle_beta 90.000000
_cell_angle_gamma 90.000000
_cell_volume 2689.715586
_symmetry_space_group_name_H-M "P M N A"
_symmetry_group_IT_number 53
_symmetry_cell_setting 'orthorhombic'
loop_
_space_group_symop_operation_xyz
x,y,z
1/2-x,-y,1/2+z
x,-y,-z
1/2-x,y,1/2-z
-x,-y,-z
1/2+x,y,1/2-z
-x,y,z
1/2+x,-y,1/2+z
loop_
_atom_site_type_symbol
_atom_site_label
_atom_site_fract_x
_atom_site_fract_y
_atom_site_fract_z
Si Si1 0.176250 0.172046 0.484027
Si Si2 0.821572 0.328472 0.026250
Si Si3 0.677575 0.421034 0.165873
Si Si4 0.666295 0.545018 0.418622
Si Si5 0.676561 0.073000 0.168633
Si Si6 0.830088 0.050409 0.922527
O O1 0.271240 0.245864 0.486503
O O2 0.210160 0.132205 0.400098
O O3 0.232422 0.122660 0.558233
O O4 0.000000 0.188760 0.494843
O O5 0.736308 0.362439 0.101953
O O6 0.000000 0.333315 0.042626
O O7 0.779716 0.373332 0.944554
O O8 0.750000 0.399732 0.250000
O O9 0.500000 0.414108 0.172513
O O10 0.719644 0.505062 0.142126
O O11 0.656224 0.500000 0.500000
O O12 0.500000 0.547294 0.377978
O O13 0.750000 0.103946 0.250000
O O14 0.500000 0.060638 0.180487
O O15 0.750856 0.994290 0.148804
O O16 0.000000 0.072595 0.896859
O O17 0.833783 0.000000 0.000000
#
# Coordination Sequence:
#
# PCOD8219813 Si02
#       6
#     8   8   8   8   8   8
#     4  10  20  33  50  74 103 133 167 205 246 293
#     4  10  20  34  52  74 102 133 165 203 248 296
#     4  11  21  33  51  74 101 132 166 204 246 294
#     4   8  16  32  51  71  96 127 164 204 243 287
#     4  10  20  33  50  73 101 132 165 204 247 293
#     4   9  17  31  51  72  95 127 167 206 244 290
#
# _framework density 17.845752999999998
#
# number of rings (size 3 to 8) (size 9 to 14) (size 15 to 20)
#    0.000    2.333    0.000    4.500    0.000    8.333 
#    0.000    1.667    0.000    1.000    0.000    2.333 
#    0.000    0.000    0.000    0.000    0.000    0.000 
#
# Total GULP energy -595137.311348 kJ/mol
# GULP energy per Si atom -12398.693986 kJ/mol
# Density = 1.780514 g / cm^3
# Si number density = 17.845753 Si / 1000 Ang^3
#
#
#
# Elastic Constant Matrix: (Units=GPa)
#
#
# Indices 1 2 3 4 5 6 
#
# 1 96.8834 35.1863 6.3534 0.0000 0.0000 0.0000
# 2 35.1863 97.3476 19.6806 0.0000 0.0000 0.0000
# 3 6.3534 19.6806 6.2078 0.0000 0.0000 0.0000
# 4 0.0000 0.0000 0.0000 14.8085 0.0000 0.0000
# 5 0.0000 0.0000 0.0000 0.0000 28.8050 0.0000
# 6 0.0000 0.0000 0.0000 0.0000 0.0000 25.8364
#
#
#
# Elastic Compliance Matrix: (Units=1/GPa)
#
#
# Indices 1 2 3 4 5 6 
#
# 1 0.011918 -0.005129 0.004064 0.000000 0.000000 0.000000
# 2 -0.005129 0.030817 -0.092450 0.000000 0.000000 0.000000
# 3 0.004064 -0.092450 0.450024 0.000000 0.000000 0.000000
# 4 0.000000 0.000000 0.000000 0.067529 0.000000 0.000000
# 5 0.000000 0.000000 0.000000 0.000000 0.034716 0.000000
# 6 0.000000 0.000000 0.000000 0.000000 0.000000 0.038705
#
#
# Mechanical properties :
#
#
# Convention : Reuss Voigt Hill
#
# Bulk Modulus (GPa) = 3.27086 35.87551 19.57318
# Shear Modulus (GPa) = 5.41918 23.17120 14.29519
#
# Velocity S-wave (km/s) = 1.74450 3.60726 2.83334
# Velocity P-wave (km/s) = 2.42786 6.12344 4.65785
#
# Compressibility (1/GPa) = 0.30572957
#
# Stress axis : x y z
#
# Youngs Moduli (GPa) = 83.90605 32.44970 2.22210
#
# Poissons Ratio (x) = 0.16645 -0.00903
# Poissons Ratio (y) = 0.43039 0.20543
# Poissons Ratio (z) = -0.34102 2.99997
#
# Static dielectric constant tensor:
#      x y z
#    x 3.431060 0.000000 0.000000 
#    y 0.000000 3.434730 0.000000 
#    z 0.000000 0.000000 3.210230 
# 
# 
# High freq. dielectric constant tensor:
#      x y z
#    x 1.705960 0.000000 0.000000 
#    y 0.000000 1.682300 0.000000 
#    z 0.000000 0.000000 1.664300 
# 
# From -- ./inp_files/26389.got.cif
#   From: 2010.03.12/outbox.cif.g09.slc.cpg/sg53_14_cif.got.tgz:26389.got - 2010.04.16 14:36:59.
