data_PCOD8219014
_publ_section_title
;
Structure prediction by ZEFSAII (Michael W. Deem and Ramdas Pophale) SiO2 
 PCOD8219014
Probable space group: P M N A
;
_chemical_formula_sum "Si O2"
_cell_formula_units_Z 56
_cell_length_a 8.825320
_cell_length_b 16.755506
_cell_length_c 21.025223
_cell_angle_alpha 90.000000
_cell_angle_beta 90.000000
_cell_angle_gamma 90.000000
_cell_volume 3109.056540
_symmetry_space_group_name_H-M "P M N A"
_symmetry_group_IT_number 53
_symmetry_cell_setting 'orthorhombic'
loop_
_space_group_symop_operation_xyz
x,y,z
1/2-x,-y,1/2+z
x,-y,-z
1/2-x,y,1/2-z
-x,-y,-z
1/2+x,y,1/2-z
-x,y,z
1/2+x,-y,1/2+z
loop_
_atom_site_type_symbol
_atom_site_label
_atom_site_fract_x
_atom_site_fract_y
_atom_site_fract_z
Si Si1 0.321143 0.147107 0.317419
Si Si2 0.320889 0.546024 0.437975
Si Si3 0.824223 0.703789 0.625535
Si Si4 0.825141 0.299008 0.520987
Si Si5 0.320046 0.552955 0.684055
Si Si6 0.821733 0.122175 0.525680
Si Si7 0.321576 0.029000 0.097855
O O1 0.250000 0.166933 0.250000
O O2 0.500000 0.152993 0.313400
O O3 0.254326 0.210620 0.367111
O O4 0.269631 0.058928 0.340383
O O5 0.254948 0.500000 0.500000
O O6 0.500000 0.546393 0.441114
O O7 0.263008 0.636780 0.436654
O O8 0.264655 0.503994 0.373281
O O9 0.803337 0.678056 0.552661
O O10 0.741630 0.641476 0.671416
O O11 0.000000 0.709587 0.644568
O O12 0.754452 0.211020 0.535432
O O13 0.000000 0.301869 0.540852
O O14 0.250000 0.520502 0.750000
O O15 0.500000 0.555630 0.689439
O O16 0.760280 0.080460 0.461870
O O17 0.000000 0.130869 0.516147
O O18 0.784385 0.064677 0.585632
O O19 0.500000 0.041256 0.108779
#
# Coordination Sequence:
#
# PCOD8219014 Si02
#       7
#     8   8   8   8   8   8   8
#     4  12  24  36  51  74 108 146 183 220 263 316
#     4  10  21  37  55  78 110 145 180 225 279 324
#     4  11  21  35  55  80 111 144 181 218 265 325
#     4  10  19  32  55  84 111 140 179 221 264 320
#     4  11  23  39  57  78 109 145 184 226 274 328
#     4   8  15  30  54  80 105 136 169 211 262 312
#     4   9  16  32  55  76 104 138 175 213 256 310
#
# _framework density 18.011896
#
# number of rings (size 3 to 8) (size 9 to 14) (size 15 to 20)
#    0.000    1.857    2.857    3.429    0.000    2.000 
#    0.000    2.143    0.000    0.857    0.000    2.000 
#    0.000    0.000    0.000    0.000    0.000    0.000 
#
# Total GULP energy -694379.610645 kJ/mol
# GULP energy per Si atom -12399.635904 kJ/mol
# Density = 1.797090 g / cm^3
# Si number density = 18.011896 Si / 1000 Ang^3
#
#
#
# Elastic Constant Matrix: (Units=GPa)
#
#
# Indices 1 2 3 4 5 6 
#
# 1 67.9603 26.8940 37.6790 0.0000 0.0000 0.0000
# 2 26.8940 117.5371 45.1529 0.0000 0.0000 0.0000
# 3 37.6790 45.1529 83.0850 0.0000 0.0000 0.0000
# 4 0.0000 0.0000 0.0000 30.8650 0.0000 0.0000
# 5 0.0000 0.0000 0.0000 0.0000 21.7306 0.0000
# 6 0.0000 0.0000 0.0000 0.0000 0.0000 25.4633
#
#
#
# Elastic Compliance Matrix: (Units=1/GPa)
#
#
# Indices 1 2 3 4 5 6 
#
# 1 0.019829 -0.001368 -0.008249 0.000000 0.000000 0.000000
# 2 -0.001368 0.010847 -0.005274 0.000000 0.000000 0.000000
# 3 -0.008249 -0.005274 0.018643 0.000000 0.000000 0.000000
# 4 0.000000 0.000000 0.000000 0.032399 0.000000 0.000000
# 5 0.000000 0.000000 0.000000 0.000000 0.046018 0.000000
# 6 0.000000 0.000000 0.000000 0.000000 0.000000 0.039272
#
#
# Mechanical properties :
#
#
# Convention : Reuss Voigt Hill
#
# Bulk Modulus (GPa) = 51.18668 54.22604 52.70636
# Shear Modulus (GPa) = 24.59357 26.20220 25.39789
#
# Velocity S-wave (km/s) = 3.69915 3.81821 3.75915
# Velocity P-wave (km/s) = 6.83556 7.04339 6.94025
#
# Compressibility (1/GPa) = 0.01953633
#
# Stress axis : x y z
#
# Youngs Moduli (GPa) = 50.43004 92.18914 53.63878
#
# Poissons Ratio (x) = 0.12614 0.44247
# Poissons Ratio (y) = 0.06900 0.28292
# Poissons Ratio (z) = 0.41600 0.48625
#
# Static dielectric constant tensor:
#      x y z
#    x 3.121080 0.000000 0.000000 
#    y 0.000000 3.496840 0.000000 
#    z 0.000000 0.000000 3.219330 
# 
# 
# High freq. dielectric constant tensor:
#      x y z
#    x 1.683420 0.000000 0.000000 
#    y 0.000000 1.698830 0.000000 
#    z 0.000000 0.000000 1.677090 
# 
# From -- ./inp_files/31020.got.cif
#   From: 2010.03.12/outbox.cif.g09.slc.cpg/sg53_16_cif.got.tgz:31020.got - 2010.04.16 14:36:59.
