data_PCOD8219183
_publ_section_title
;
Structure prediction by ZEFSAII (Michael W. Deem and Ramdas Pophale) SiO2 
 PCOD8219183
Probable space group: P M N A
;
_chemical_formula_sum "Si O2"
_cell_formula_units_Z 56
_cell_length_a 9.069752
_cell_length_b 16.545321
_cell_length_c 20.981245
_cell_angle_alpha 90.000000
_cell_angle_beta 90.000000
_cell_angle_gamma 90.000000
_cell_volume 3148.486711
_symmetry_space_group_name_H-M "P M N A"
_symmetry_group_IT_number 53
_symmetry_cell_setting 'orthorhombic'
loop_
_space_group_symop_operation_xyz
x,y,z
1/2-x,-y,1/2+z
x,-y,-z
1/2-x,y,1/2-z
-x,-y,-z
1/2+x,y,1/2-z
-x,y,z
1/2+x,-y,1/2+z
loop_
_atom_site_type_symbol
_atom_site_label
_atom_site_fract_x
_atom_site_fract_y
_atom_site_fract_z
Si Si1 0.828316 0.627049 0.972047
Si Si2 0.327699 0.468172 0.596265
Si Si3 0.331129 0.806360 0.124226
Si Si4 0.671275 0.038441 0.067341
Si Si5 0.330512 0.790152 0.981724
Si Si6 0.667510 0.361074 0.812843
Si Si7 0.323865 0.049445 0.683708
O O1 0.793598 0.562477 0.916342
O O2 0.000000 0.644160 0.976938
O O3 0.772178 0.587601 0.037846
O O4 0.752655 0.711689 0.955626
O O5 0.500000 0.454487 0.607423
O O6 0.239176 0.442099 0.658729
O O7 0.500000 0.835588 0.133997
O O8 0.277213 0.818422 0.051717
O O9 0.314812 0.711960 0.137967
O O10 0.226108 0.858511 0.170044
O O11 0.500000 0.016264 0.079293
O O12 0.768657 0.005963 0.125439
O O13 0.695591 0.135114 0.065862
O O14 0.722256 0.000000 0.000000
O O15 0.500000 0.765348 0.986474
O O16 0.750000 0.333614 0.750000
O O17 0.500000 0.380572 0.796152
O O18 0.250000 0.020100 0.750000
O O19 0.500000 0.044460 0.689509
#
# Coordination Sequence:
#
# PCOD8219183 Si02
#       7
#     8   8   8   8   8   8   8
#     4   9  18  32  52  77 107 139 172 217 266 312
#     4   9  18  33  51  74 105 141 177 214 262 312
#     4  10  20  36  54  79 113 148 184 219 271 328
#     4  10  20  38  60  81 113 150 183 228 282 331
#     4  10  19  33  56  83 112 145 179 222 273 325
#     4  11  22  34  51  75 107 145 183 221 262 318
#     4  12  25  39  58  82 111 148 191 233 277 334
#
# _framework density 17.786321999999998
#
# number of rings (size 3 to 8) (size 9 to 14) (size 15 to 20)
#    0.000    1.857    2.857    3.000    0.000    4.286 
#    0.000    1.429    0.000    0.857    0.000    6.000 
#    0.000    0.000    0.000    0.000    0.000    0.000 
#
# Total GULP energy -694413.191762 kJ/mol
# GULP energy per Si atom -12400.235567 kJ/mol
# Density = 1.774584 g / cm^3
# Si number density = 17.786322 Si / 1000 Ang^3
#
#
#
# Elastic Constant Matrix: (Units=GPa)
#
#
# Indices 1 2 3 4 5 6 
#
# 1 93.7502 47.0007 48.9119 0.0000 0.0000 0.0000
# 2 47.0007 101.7997 36.5880 0.0000 0.0000 0.0000
# 3 48.9119 36.5880 85.7012 0.0000 0.0000 0.0000
# 4 0.0000 0.0000 0.0000 24.9507 0.0000 0.0000
# 5 0.0000 0.0000 0.0000 0.0000 28.0647 0.0000
# 6 0.0000 0.0000 0.0000 0.0000 0.0000 32.7307
#
#
#
# Elastic Compliance Matrix: (Units=1/GPa)
#
#
# Indices 1 2 3 4 5 6 
#
# 1 0.017266 -0.005233 -0.007620 0.000000 0.000000 0.000000
# 2 -0.005233 0.013190 -0.002645 0.000000 0.000000 0.000000
# 3 -0.007620 -0.002645 0.017146 0.000000 0.000000 0.000000
# 4 0.000000 0.000000 0.000000 0.040079 0.000000 0.000000
# 5 0.000000 0.000000 0.000000 0.000000 0.035632 0.000000
# 6 0.000000 0.000000 0.000000 0.000000 0.000000 0.030552
#
#
# Mechanical properties :
#
#
# Convention : Reuss Voigt Hill
#
# Bulk Modulus (GPa) = 60.21500 60.69469 60.45485
# Shear Modulus (GPa) = 26.26121 27.06592 26.66357
#
# Velocity S-wave (km/s) = 3.84667 3.90516 3.87603
# Velocity P-wave (km/s) = 7.32512 7.38459 7.35491
#
# Compressibility (1/GPa) = 0.01660716
#
# Stress axis : x y z
#
# Youngs Moduli (GPa) = 57.91887 75.81706 58.32155
#
# Poissons Ratio (x) = 0.39673 0.44440
# Poissons Ratio (y) = 0.30308 0.15423
# Poissons Ratio (z) = 0.44133 0.20050
#
# Static dielectric constant tensor:
#      x y z
#    x 3.219840 0.000000 0.000000 
#    y 0.000000 3.262620 0.000000 
#    z 0.000000 0.000000 3.156710 
# 
# 
# High freq. dielectric constant tensor:
#      x y z
#    x 1.683870 0.000000 0.000000 
#    y 0.000000 1.686900 0.000000 
#    z 0.000000 0.000000 1.669210 
# 
# From -- ./inp_files/30878.got.cif
#   From: 2010.03.12/outbox.cif.g09.slc.cpg/sg53_16_cif.got.tgz:30878.got - 2010.04.16 14:36:59.
