data_PCOD8219702
_publ_section_title
;
Structure prediction by ZEFSAII (Michael W. Deem and Ramdas Pophale) SiO2 
 PCOD8219702
Probable space group: P M N A
;
_chemical_formula_sum "Si O2"
_cell_formula_units_Z 56
_cell_length_a 9.367856
_cell_length_b 20.853389
_cell_length_c 14.644635
_cell_angle_alpha 90.000000
_cell_angle_beta 90.000000
_cell_angle_gamma 90.000000
_cell_volume 2860.852077
_symmetry_space_group_name_H-M "P M N A"
_symmetry_group_IT_number 53
_symmetry_cell_setting 'orthorhombic'
loop_
_space_group_symop_operation_xyz
x,y,z
1/2-x,-y,1/2+z
x,-y,-z
1/2-x,y,1/2-z
-x,-y,-z
1/2+x,y,1/2-z
-x,y,z
1/2+x,-y,1/2+z
loop_
_atom_site_type_symbol
_atom_site_label
_atom_site_fract_x
_atom_site_fract_y
_atom_site_fract_z
Si Si1 0.344836 0.892874 0.609781
Si Si2 0.665803 0.273431 0.969872
Si Si3 0.342552 0.160050 0.588296
Si Si4 0.666486 0.401558 0.521691
Si Si5 0.833952 0.028006 0.837261
Si Si6 0.663983 0.217785 0.168157
Si Si7 0.833884 0.518453 0.846004
O O1 0.500000 0.888303 0.660600
O O2 0.363390 0.857303 0.515636
O O3 0.221817 0.855420 0.664113
O O4 0.308683 0.968382 0.593152
O O5 0.500000 0.277264 0.944414
O O6 0.737076 0.220678 0.902571
O O7 0.738837 0.341028 0.951881
O O8 0.690034 0.255947 0.075269
O O9 0.500000 0.176788 0.629290
O O10 0.270135 0.096861 0.632955
O O11 0.500000 0.383098 0.521130
O O12 0.709556 0.427220 0.420522
O O13 0.698268 0.451793 0.602660
O O14 0.750000 0.003679 0.750000
O O15 0.000000 0.038916 0.817858
O O16 0.750000 0.253431 0.250000
O O17 0.500000 0.215675 0.195105
O O18 0.750000 0.525194 0.750000
O O19 0.000000 0.524231 0.821510
#
# Coordination Sequence:
#
# PCOD8219702 Si02
#       7
#     8   8   8   8   8   8   8
#     4   9  17  31  51  71  92 122 162 208 257 309
#     4  10  21  35  52  76 103 133 173 217 254 293
#     4   9  18  34  53  70  93 129 168 204 249 306
#     4   9  19  37  58  81 113 149 179 210 256 312
#     4  10  20  32  48  71  96 123 160 207 257 307
#     4  10  20  32  46  69 101 133 168 210 257 310
#     4   9  19  36  59  87 116 145 178 215 255 303
#
# _framework density 19.574586
#
# number of rings (size 3 to 8) (size 9 to 14) (size 15 to 20)
#    0.000    2.571    0.000    2.571    0.000    7.429 
#    0.000    5.000    0.000    4.286    0.000    0.000 
#    0.000    0.000    0.000    0.000    0.000    0.000 
#
# Total GULP energy -693822.707855 kJ/mol
# GULP energy per Si atom -12389.691212 kJ/mol
# Density = 1.953003 g / cm^3
# Si number density = 19.574586 Si / 1000 Ang^3
#
#
#
# Elastic Constant Matrix: (Units=GPa)
#
#
# Indices 1 2 3 4 5 6 
#
# 1 78.6656 41.8511 11.1568 0.0000 0.0000 0.0000
# 2 41.8511 112.0645 -1.9186 0.0000 0.0000 0.0000
# 3 11.1568 -1.9186 34.8120 0.0000 0.0000 0.0000
# 4 0.0000 0.0000 0.0000 26.6142 0.0000 0.0000
# 5 0.0000 0.0000 0.0000 0.0000 28.3725 0.0000
# 6 0.0000 0.0000 0.0000 0.0000 0.0000 25.5427
#
#
#
# Elastic Compliance Matrix: (Units=1/GPa)
#
#
# Indices 1 2 3 4 5 6 
#
# 1 0.016954 -0.006431 -0.005788 0.000000 0.000000 0.000000
# 2 -0.006431 0.011371 0.002688 0.000000 0.000000 0.000000
# 3 -0.005788 0.002688 0.030729 0.000000 0.000000 0.000000
# 4 0.000000 0.000000 0.000000 0.037574 0.000000 0.000000
# 5 0.000000 0.000000 0.000000 0.000000 0.035245 0.000000
# 6 0.000000 0.000000 0.000000 0.000000 0.000000 0.039150
#
#
# Mechanical properties :
#
#
# Convention : Reuss Voigt Hill
#
# Bulk Modulus (GPa) = 25.00506 36.41341 30.70924
# Shear Modulus (GPa) = 24.58014 27.73606 26.15810
#
# Velocity S-wave (km/s) = 3.54745 3.76831 3.65955
# Velocity P-wave (km/s) = 5.43886 6.12996 5.79472
#
# Compressibility (1/GPa) = 0.03999190
#
# Stress axis : x y z
#
# Youngs Moduli (GPa) = 58.98255 87.94270 32.54271
#
# Poissons Ratio (x) = 0.56554 0.18836
# Poissons Ratio (y) = 0.37930 -0.08746
# Poissons Ratio (z) = 0.34139 -0.23636
#
# Static dielectric constant tensor:
#      x y z
#    x 3.626340 0.000000 0.000000 
#    y 0.000000 3.564250 0.000000 
#    z 0.000000 0.000000 3.435150 
# 
# 
# High freq. dielectric constant tensor:
#      x y z
#    x 1.758420 0.000000 0.000000 
#    y 0.000000 1.761010 0.000000 
#    z 0.000000 0.000000 1.743770 
# 
# From -- ./inp_files/20461.got.cif
#   From: 2010.03.12/outbox.cif.g09.slc.cpg/sg53_11_cif.got.tgz:20461.got - 2010.04.16 14:36:59.
