data_PCOD8219228
_publ_section_title
;
Structure prediction by ZEFSAII (Michael W. Deem and Ramdas Pophale) SiO2 
 PCOD8219228
Probable space group: P M N A
;
_chemical_formula_sum "Si O2"
_cell_formula_units_Z 64
_cell_length_a 28.088594
_cell_length_b 9.406945
_cell_length_c 11.625803
_cell_angle_alpha 90.000000
_cell_angle_beta 90.000000
_cell_angle_gamma 90.000000
_cell_volume 3071.861035
_symmetry_space_group_name_H-M "P M N A"
_symmetry_group_IT_number 53
_symmetry_cell_setting 'orthorhombic'
loop_
_space_group_symop_operation_xyz
x,y,z
1/2-x,-y,1/2+z
x,-y,-z
1/2-x,y,1/2-z
-x,-y,-z
1/2+x,y,1/2-z
-x,y,z
1/2+x,-y,1/2+z
loop_
_atom_site_type_symbol
_atom_site_label
_atom_site_fract_x
_atom_site_fract_y
_atom_site_fract_z
Si Si1 0.947728 0.485244 0.216298
Si Si2 0.275560 0.165535 0.023332
Si Si3 0.918944 0.636952 0.434632
Si Si4 0.169331 0.239090 0.684164
Si Si5 0.552343 0.795699 0.851062
Si Si6 0.142897 0.605595 0.094636
Si Si7 0.170105 0.154237 0.052814
Si Si8 0.351252 0.084856 0.201162
O O1 0.950547 0.587067 0.327422
O O2 0.936217 0.325113 0.256365
O O3 0.907784 0.538235 0.127521
O O4 0.000000 0.492124 0.157305
O O5 0.223751 0.219059 0.062701
O O6 0.316891 0.180473 0.119621
O O7 0.286871 0.252985 0.905518
O O8 0.273423 0.000000 0.000000
O O9 0.896748 0.500000 0.500000
O O10 0.877343 0.736312 0.389642
O O11 0.950769 0.727258 0.522292
O O12 0.173540 0.353054 0.789782
O O13 0.167403 0.074676 0.724284
O O14 0.500000 0.864378 0.827322
O O15 0.594480 0.912809 0.846621
O O16 0.168014 0.500000 0.000000
O O17 0.135794 0.753930 0.029047
O O18 0.147562 0.163305 0.177634
O O19 0.171730 0.000000 0.000000
#
# Coordination Sequence:
#
# PCOD8219228 Si02
#       8
#     8   8   8   8   8   8   8   8
#     4   9  19  36  59  87 118 166 220 255 299 372
#     4   9  20  36  65  92 116 158 208 252 311 379
#     4   9  17  32  56  86 122 160 201 251 312 372
#     4  10  20  38  61  90 126 157 202 260 315 370
#     4  10  19  33  59  92 126 161 203 256 316 380
#     4  11  23  40  62  88 122 171 210 256 311 366
#     4  11  22  40  64  90 119 163 213 256 308 375
#     4  11  20  37  62  91 126 158 202 261 314 375
#
# _framework density 20.834275000000002
#
# number of rings (size 3 to 8) (size 9 to 14) (size 15 to 20)
#    0.000    2.000    2.500    1.500    0.000    2.250 
#    0.000    5.000    5.500    0.750    0.000    0.000 
#    0.000    0.000    0.000    0.000    0.000    0.000 
#
# Total GULP energy -792937.061260 kJ/mol
# GULP energy per Si atom -12389.641582 kJ/mol
# Density = 2.078686 g / cm^3
# Si number density = 20.834275 Si / 1000 Ang^3
#
#
#
# Elastic Constant Matrix: (Units=GPa)
#
#
# Indices 1 2 3 4 5 6 
#
# 1 56.9476 11.9094 20.9223 0.0000 0.0000 0.0000
# 2 11.9094 46.3645 25.7937 0.0000 0.0000 0.0000
# 3 20.9223 25.7937 114.6596 0.0000 0.0000 0.0000
# 4 0.0000 0.0000 0.0000 37.2890 0.0000 0.0000
# 5 0.0000 0.0000 0.0000 0.0000 16.5358 0.0000
# 6 0.0000 0.0000 0.0000 0.0000 0.0000 21.2829
#
#
#
# Elastic Compliance Matrix: (Units=1/GPa)
#
#
# Indices 1 2 3 4 5 6 
#
# 1 0.019286 -0.003425 -0.002749 0.000000 0.000000 0.000000
# 2 -0.003425 0.025262 -0.005058 0.000000 0.000000 0.000000
# 3 -0.002749 -0.005058 0.010361 0.000000 0.000000 0.000000
# 4 0.000000 0.000000 0.000000 0.026818 0.000000 0.000000
# 5 0.000000 0.000000 0.000000 0.000000 0.060475 0.000000
# 6 0.000000 0.000000 0.000000 0.000000 0.000000 0.046986
#
#
# Mechanical properties :
#
#
# Convention : Reuss Voigt Hill
#
# Bulk Modulus (GPa) = 30.82054 37.24693 34.03373
# Shear Modulus (GPa) = 22.47541 25.64463 24.06002
#
# Velocity S-wave (km/s) = 3.28803 3.51221 3.40196
# Velocity P-wave (km/s) = 5.40742 5.86208 5.63933
#
# Compressibility (1/GPa) = 0.03244590
#
# Stress axis : x y z
#
# Youngs Moduli (GPa) = 51.85086 39.58550 96.51692
#
# Poissons Ratio (x) = 0.13557 0.26530
# Poissons Ratio (y) = 0.17757 0.48818
# Poissons Ratio (z) = 0.14253 0.20022
#
# Static dielectric constant tensor:
#      x y z
#    x 3.775160 0.000000 0.000000 
#    y 0.000000 3.591290 0.000000 
#    z 0.000000 0.000000 3.953940 
# 
# 
# High freq. dielectric constant tensor:
#      x y z
#    x 1.800410 0.000000 0.000000 
#    y 0.000000 1.791190 0.000000 
#    z 0.000000 0.000000 1.825050 
# 
# From -- ./inp_files/19016.got.cif
#   From: 2010.03.12/outbox.cif.g09.slc.cpg/sg53_10_cif.got.tgz:19016.got - 2010.04.16 14:36:59.
