data_PCOD8219126
_publ_section_title
;
Structure prediction by ZEFSAII (Michael W. Deem and Ramdas Pophale) SiO2 
 PCOD8219126
Probable space group: P M N A
;
_chemical_formula_sum "Si O2"
_cell_formula_units_Z 64
_cell_length_a 9.043345
_cell_length_b 17.197467
_cell_length_c 19.997823
_cell_angle_alpha 90.000000
_cell_angle_beta 90.000000
_cell_angle_gamma 90.000000
_cell_volume 3110.113971
_symmetry_space_group_name_H-M "P M N A"
_symmetry_group_IT_number 53
_symmetry_cell_setting 'orthorhombic'
loop_
_space_group_symop_operation_xyz
x,y,z
1/2-x,-y,1/2+z
x,-y,-z
1/2-x,y,1/2-z
-x,-y,-z
1/2+x,y,1/2-z
-x,y,z
1/2+x,-y,1/2+z
loop_
_atom_site_type_symbol
_atom_site_label
_atom_site_fract_x
_atom_site_fract_y
_atom_site_fract_z
Si Si1 0.324664 0.629065 0.816886
Si Si2 0.676826 0.790434 0.650853
Si Si3 0.662727 0.689644 0.432900
Si Si4 0.673722 0.055222 0.188609
Si Si5 0.325573 0.233299 0.821077
Si Si6 0.340323 0.156803 0.489755
Si Si7 0.828992 0.418145 0.465204
Si Si8 0.169509 0.082642 0.596098
O O1 0.250000 0.590287 0.750000
O O2 0.500000 0.632090 0.806032
O O3 0.260039 0.715553 0.821505
O O4 0.285116 0.582243 0.885805
O O5 0.500000 0.779098 0.657004
O O6 0.734057 0.865146 0.689889
O O7 0.733727 0.805263 0.575343
O O8 0.500000 0.654193 0.415945
O O9 0.766553 0.694919 0.367354
O O10 0.641298 0.777490 0.455165
O O11 0.733987 0.643572 0.494292
O O12 0.750000 0.008371 0.250000
O O13 0.500000 0.069792 0.199327
O O14 0.703790 0.003482 0.123243
O O15 0.250000 0.242013 0.750000
O O16 0.500000 0.243544 0.813290
O O17 0.282231 0.148954 0.850997
O O18 0.500000 0.122070 0.469460
O O19 0.246418 0.088531 0.523781
O O20 0.795516 0.500000 0.500000
O O21 0.000000 0.395040 0.472109
O O22 0.000000 0.094997 0.580496
#
# Coordination Sequence:
#
# PCOD8219126 Si02
#       8
#     8   8   8   8   8   8   8   8
#     4  11  23  40  65  93 123 159 197 242 292 347
#     4  11  22  38  58  83 115 151 194 245 295 350
#     4  10  19  35  58  86 117 152 194 240 288 347
#     4  11  23  38  53  75 106 147 195 246 303 360
#     4  10  19  33  54  82 113 152 199 249 302 355
#     4   9  19  34  55  81 110 145 188 237 290 348
#     4  10  22  41  65  93 123 158 195 235 288 349
#     4   9  20  35  53  76 108 148 194 246 301 356
#
# _framework density 20.578023000000002
#
# number of rings (size 3 to 8) (size 9 to 14) (size 15 to 20)
#    0.000    1.875    1.250    2.625    0.000    4.250 
#    0.000    3.125    0.000    1.500    0.000    0.000 
#    0.000    0.000    0.000    0.000    0.000    0.000 
#
# Total GULP energy -793144.193781 kJ/mol
# GULP energy per Si atom -12392.878028 kJ/mol
# Density = 2.053119 g / cm^3
# Si number density = 20.578023 Si / 1000 Ang^3
#
#
#
# Elastic Constant Matrix: (Units=GPa)
#
#
# Indices 1 2 3 4 5 6 
#
# 1 92.1365 34.0222 54.3588 0.0000 0.0000 0.0000
# 2 34.0222 59.0021 30.6137 0.0000 0.0000 0.0000
# 3 54.3588 30.6137 130.2476 0.0000 0.0000 0.0000
# 4 0.0000 0.0000 0.0000 9.3054 0.0000 0.0000
# 5 0.0000 0.0000 0.0000 0.0000 38.8614 0.0000
# 6 0.0000 0.0000 0.0000 0.0000 0.0000 13.1455
#
#
#
# Elastic Compliance Matrix: (Units=1/GPa)
#
#
# Indices 1 2 3 4 5 6 
#
# 1 0.016464 -0.006752 -0.005284 0.000000 0.000000 0.000000
# 2 -0.006752 0.022072 -0.002370 0.000000 0.000000 0.000000
# 3 -0.005284 -0.002370 0.010440 0.000000 0.000000 0.000000
# 4 0.000000 0.000000 0.000000 0.107464 0.000000 0.000000
# 5 0.000000 0.000000 0.000000 0.000000 0.025732 0.000000
# 6 0.000000 0.000000 0.000000 0.000000 0.000000 0.076072
#
#
# Mechanical properties :
#
#
# Convention : Reuss Voigt Hill
#
# Bulk Modulus (GPa) = 49.59412 57.70841 53.65127
# Shear Modulus (GPa) = 17.01963 23.08854 20.05409
#
# Velocity S-wave (km/s) = 2.87902 3.35326 3.12515
# Velocity P-wave (km/s) = 5.93334 6.56484 6.25706
#
# Compressibility (1/GPa) = 0.02016368
#
# Stress axis : x y z
#
# Youngs Moduli (GPa) = 60.73714 45.30725 95.78411
#
# Poissons Ratio (x) = 0.30591 0.50616
# Poissons Ratio (y) = 0.41009 0.22699
# Poissons Ratio (z) = 0.32096 0.10737
#
# Static dielectric constant tensor:
#      x y z
#    x 3.932680 0.000000 0.000000 
#    y 0.000000 3.453240 0.000000 
#    z 0.000000 0.000000 3.984980 
# 
# 
# High freq. dielectric constant tensor:
#      x y z
#    x 1.810440 0.000000 0.000000 
#    y 0.000000 1.770130 0.000000 
#    z 0.000000 0.000000 1.823880 
# 
# From -- ./inp_files/31110.got.cif
#   From: 2010.03.12/outbox.cif.g09.slc.cpg/sg53_16_cif.got.tgz:31110.got - 2010.04.16 14:36:59.
