data_PCOD8219500
_publ_section_title
;
Structure prediction by ZEFSAII (Michael W. Deem and Ramdas Pophale) SiO2 
 PCOD8219500
Probable space group: P M N A
;
_chemical_formula_sum "Si O2"
_cell_formula_units_Z 48
_cell_length_a 14.935244
_cell_length_b 28.559658
_cell_length_c 5.091702
_cell_angle_alpha 90.000000
_cell_angle_beta 90.000000
_cell_angle_gamma 90.000000
_cell_volume 2171.842376
_symmetry_space_group_name_H-M "P M N A"
_symmetry_group_IT_number 53
_symmetry_cell_setting 'orthorhombic'
loop_
_space_group_symop_operation_xyz
x,y,z
1/2-x,-y,1/2+z
x,-y,-z
1/2-x,y,1/2-z
-x,-y,-z
1/2+x,y,1/2-z
-x,y,z
1/2+x,-y,1/2+z
loop_
_atom_site_type_symbol
_atom_site_label
_atom_site_fract_x
_atom_site_fract_y
_atom_site_fract_z
Si Si1 0.500000 0.238851 0.611278
Si Si2 0.250000 0.384096 0.750000
Si Si3 0.853079 0.164211 0.765021
Si Si4 0.904337 0.369779 0.090194
Si Si5 0.250000 0.030716 0.250000
Si Si6 0.102989 0.105629 0.265246
Si Si7 0.840924 0.545986 0.619233
Si Si8 0.000000 0.699517 0.607516
O O1 0.589144 0.209052 0.656517
O O2 0.500000 0.257223 0.313416
O O3 0.500000 0.282521 0.811218
O O4 0.314451 0.353388 0.561956
O O5 0.179094 0.416067 0.601322
O O6 0.750000 0.179646 0.750000
O O7 0.885436 0.145646 0.483474
O O8 0.865984 0.124189 0.982200
O O9 0.898534 0.424851 0.170163
O O10 0.912260 0.333679 0.338092
O O11 0.000000 0.365364 0.932027
O O12 0.164562 0.061503 0.335475
O O13 0.277557 0.000000 0.500000
O O14 0.000000 0.089525 0.252974
O O15 0.891042 0.500000 0.500000
O O16 0.750000 0.526554 0.750000
#
# Coordination Sequence:
#
# PCOD8219500 Si02
#       8
#     4   4   8   8   4   8   8   4
#     4  12  24  46  74 102 140 166 222 306 350 416
#     4  10  20  38  66  86 125 171 218 260 326 400
#     4  12  23  43  73 107 132 179 236 288 370 416
#     4   9  23  40  62  92 127 178 211 266 337 415
#     4  12  26  42  66 102 153 197 246 292 340 410
#     4  12  23  43  72 101 144 191 235 297 352 412
#     4  10  19  35  59  92 125 165 222 276 327 381
#     4  10  26  46  67  95 143 171 216 282 350 412
#
# _framework density 22.101051999999999
#
# number of rings (size 3 to 8) (size 9 to 14) (size 15 to 20)
#    0.500    0.667    4.167    2.000    2.333    1.667 
#    1.500    0.833    0.000    0.000    0.000    0.000 
#    0.000    0.000    0.000    0.000    0.000    0.000 
#
# Total GULP energy -594875.804114 kJ/mol
# GULP energy per Si atom -12393.245919 kJ/mol
# Density = 2.205075 g / cm^3
# Si number density = 22.101052 Si / 1000 Ang^3
#
#
#
# Elastic Constant Matrix: (Units=GPa)
#
#
# Indices 1 2 3 4 5 6 
#
# 1 132.6976 31.1154 6.8418 0.0000 0.0000 0.0000
# 2 31.1154 85.0571 2.2467 0.0000 0.0000 0.0000
# 3 6.8418 2.2467 63.8789 0.0000 0.0000 0.0000
# 4 0.0000 0.0000 0.0000 44.7805 0.0000 0.0000
# 5 0.0000 0.0000 0.0000 0.0000 25.4582 0.0000
# 6 0.0000 0.0000 0.0000 0.0000 0.0000 45.2234
#
#
#
# Elastic Compliance Matrix: (Units=1/GPa)
#
#
# Indices 1 2 3 4 5 6 
#
# 1 0.008282 -0.003009 -0.000781 0.000000 0.000000 0.000000
# 2 -0.003009 0.012861 -0.000130 0.000000 0.000000 0.000000
# 3 -0.000781 -0.000130 0.015743 0.000000 0.000000 0.000000
# 4 0.000000 0.000000 0.000000 0.022331 0.000000 0.000000
# 5 0.000000 0.000000 0.000000 0.000000 0.039280 0.000000
# 6 0.000000 0.000000 0.000000 0.000000 0.000000 0.022112
#
#
# Mechanical properties :
#
#
# Convention : Reuss Voigt Hill
#
# Bulk Modulus (GPa) = 34.42917 40.22683 37.32800
# Shear Modulus (GPa) = 36.19740 39.18775 37.69258
#
# Velocity S-wave (km/s) = 4.05138 4.21541 4.13421
# Velocity P-wave (km/s) = 6.12346 6.47562 6.30200
#
# Compressibility (1/GPa) = 0.02904514
#
# Stress axis : x y z
#
# Youngs Moduli (GPa) = 120.74725 77.75456 63.52084
#
# Poissons Ratio (x) = 0.23396 0.04962
# Poissons Ratio (y) = 0.36333 0.00826
# Poissons Ratio (z) = 0.09433 0.01011
#
# Static dielectric constant tensor:
#      x y z
#    x 3.971890 0.000000 0.000000 
#    y 0.000000 3.831220 0.000000 
#    z 0.000000 0.000000 4.127540 
# 
# 
# High freq. dielectric constant tensor:
#      x y z
#    x 1.866940 0.000000 0.000000 
#    y 0.000000 1.855200 0.000000 
#    z 0.000000 0.000000 1.877000 
# 
# From -- ./inp_files/1465.got.cif
#   From: 2010.03.12/outbox.cif.g09.slc.cpg/sg53_1_cif.got.tgz:1465.got - 2010.04.16 14:36:59.
