data_PCOD8219977
_publ_section_title
;
Structure prediction by ZEFSAII (Michael W. Deem and Ramdas Pophale) SiO2 
 PCOD8219977
Probable space group: P M N A
;
_chemical_formula_sum "Si O2"
_cell_formula_units_Z 48
_cell_length_a 9.229341
_cell_length_b 16.464267
_cell_length_c 17.925443
_cell_angle_alpha 90.000000
_cell_angle_beta 90.000000
_cell_angle_gamma 90.000000
_cell_volume 2723.848761
_symmetry_space_group_name_H-M "P M N A"
_symmetry_group_IT_number 53
_symmetry_cell_setting 'orthorhombic'
loop_
_space_group_symop_operation_xyz
x,y,z
1/2-x,-y,1/2+z
x,-y,-z
1/2-x,y,1/2-z
-x,-y,-z
1/2+x,y,1/2-z
-x,y,z
1/2+x,-y,1/2+z
loop_
_atom_site_type_symbol
_atom_site_label
_atom_site_fract_x
_atom_site_fract_y
_atom_site_fract_z
Si Si1 0.171377 0.348780 0.171626
Si Si2 0.672036 0.913742 0.025386
Si Si3 0.829356 0.833879 0.324693
Si Si4 0.333430 0.331634 0.899555
Si Si5 0.169919 0.489286 0.916095
Si Si6 0.831506 0.247091 0.445484
O O1 0.250000 0.345973 0.250000
O O2 0.213426 0.433033 0.132264
O O3 0.230816 0.274605 0.122379
O O4 0.000000 0.339048 0.181846
O O5 0.500000 0.917412 0.028503
O O6 0.727686 0.891293 0.108217
O O7 0.716999 0.844425 0.966345
O O8 0.738965 0.000000 0.000000
O O9 0.750000 0.861937 0.250000
O O10 0.789325 0.740882 0.343949
O O11 0.000000 0.843675 0.313715
O O12 0.500000 0.354577 0.888907
O O13 0.240725 0.410396 0.878370
O O14 0.302541 0.305159 0.984254
O O15 0.000000 0.474663 0.917513
O O16 0.230254 0.500000 0.000000
O O17 0.000000 0.250374 0.421967
#
# Coordination Sequence:
#
# PCOD8219977 Si02
#       6
#     8   8   8   8   8   8
#     4  11  23  37  52  72 102 136 172 214 258 303
#     4   8  15  31  56  81 104 134 171 208 249 304
#     4   9  18  32  50  76 106 135 168 206 254 305
#     4   9  18  31  50  74  99 131 171 208 246 302
#     4  10  20  34  51  73 100 132 172 215 257 298
#     4   9  17  32  54  77  99 129 170 209 249 300
#
# _framework density 17.622123999999999
#
# number of rings (size 3 to 8) (size 9 to 14) (size 15 to 20)
#    0.000    2.667    1.667    2.500    0.000    3.000 
#    0.000    6.667    0.000    4.000    0.000    0.000 
#    0.000    0.000    0.000    0.000    0.000    0.000 
#
# Total GULP energy -595169.310199 kJ/mol
# GULP energy per Si atom -12399.360629 kJ/mol
# Density = 1.758202 g / cm^3
# Si number density = 17.622124 Si / 1000 Ang^3
#
#
#
# Elastic Constant Matrix: (Units=GPa)
#
#
# Indices 1 2 3 4 5 6 
#
# 1 46.1302 45.0707 47.8021 0.0000 0.0000 0.0000
# 2 45.0707 141.1828 67.9377 0.0000 0.0000 0.0000
# 3 47.8021 67.9377 128.9612 0.0000 0.0000 0.0000
# 4 0.0000 0.0000 0.0000 20.8627 0.0000 0.0000
# 5 0.0000 0.0000 0.0000 0.0000 26.4632 0.0000
# 6 0.0000 0.0000 0.0000 0.0000 0.0000 14.4304
#
#
#
# Elastic Compliance Matrix: (Units=1/GPa)
#
#
# Indices 1 2 3 4 5 6 
#
# 1 0.040554 -0.007653 -0.011001 0.000000 0.000000 0.000000
# 2 -0.007653 0.010932 -0.002923 0.000000 0.000000 0.000000
# 3 -0.011001 -0.002923 0.013372 0.000000 0.000000 0.000000
# 4 0.000000 0.000000 0.000000 0.047933 0.000000 0.000000
# 5 0.000000 0.000000 0.000000 0.000000 0.037788 0.000000
# 6 0.000000 0.000000 0.000000 0.000000 0.000000 0.069298
#
#
# Mechanical properties :
#
#
# Convention : Reuss Voigt Hill
#
# Bulk Modulus (GPa) = 46.07032 70.87727 58.47379
# Shear Modulus (GPa) = 18.50036 22.71548 20.60792
#
# Velocity S-wave (km/s) = 3.24363 3.59420 3.42341
# Velocity P-wave (km/s) = 6.34259 7.58501 6.99145
#
# Compressibility (1/GPa) = 0.02170595
#
# Stress axis : x y z
#
# Youngs Moduli (GPa) = 24.65837 91.47072 74.78554
#
# Poissons Ratio (x) = 0.70001 0.82269
# Poissons Ratio (y) = 0.18871 0.21857
# Poissons Ratio (z) = 0.27126 0.26734
#
# Static dielectric constant tensor:
#      x y z
#    x 3.007310 0.000000 0.000000 
#    y 0.000000 3.434780 0.000000 
#    z 0.000000 0.000000 3.237350 
# 
# 
# High freq. dielectric constant tensor:
#      x y z
#    x 1.661130 0.000000 0.000000 
#    y 0.000000 1.678380 0.000000 
#    z 0.000000 0.000000 1.676320 
# 
# From -- ./inp_files/26264.got.cif
#   From: 2010.03.12/outbox.cif.g09.slc.cpg/sg53_14_cif.got.tgz:26264.got - 2010.04.16 14:36:59.
