data_PCOD8219440
_publ_section_title
;
Structure prediction by ZEFSAII (Michael W. Deem and Ramdas Pophale) SiO2 
 PCOD8219440
Probable space group: P M N A
;
_chemical_formula_sum "Si O2"
_cell_formula_units_Z 64
_cell_length_a 9.247631
_cell_length_b 12.351138
_cell_length_c 30.224637
_cell_angle_alpha 90.000000
_cell_angle_beta 90.000000
_cell_angle_gamma 90.000000
_cell_volume 3452.220761
_symmetry_space_group_name_H-M "P M N A"
_symmetry_group_IT_number 53
_symmetry_cell_setting 'orthorhombic'
loop_
_space_group_symop_operation_xyz
x,y,z
1/2-x,-y,1/2+z
x,-y,-z
1/2-x,y,1/2-z
-x,-y,-z
1/2+x,y,1/2-z
-x,y,z
1/2+x,-y,1/2+z
loop_
_atom_site_type_symbol
_atom_site_label
_atom_site_fract_x
_atom_site_fract_y
_atom_site_fract_z
Si Si1 0.155673 0.117977 0.711762
Si Si2 0.829770 0.996176 0.552261
Si Si3 0.169018 0.186289 0.617489
Si Si4 0.658802 0.373053 0.998048
Si Si5 0.666322 0.847625 0.620412
Si Si6 0.340008 0.870851 0.789963
Si Si7 0.337545 0.624969 0.580567
Si Si8 0.830692 0.381193 0.912375
O O1 0.250000 0.175685 0.750000
O O2 0.219280 0.125500 0.662198
O O3 0.000000 0.176557 0.712731
O O4 0.136005 0.993574 0.724627
O O5 0.789715 0.110920 0.575418
O O6 0.000000 0.971169 0.558177
O O7 0.787955 0.000000 0.500000
O O8 0.739722 0.902583 0.577344
O O9 0.254149 0.299790 0.621306
O O10 0.000000 0.212163 0.616304
O O11 0.500000 0.318002 0.991578
O O12 0.729201 0.332242 0.043167
O O13 0.638705 0.500000 0.000000
O O14 0.766887 0.342609 0.959187
O O15 0.500000 0.887976 0.623981
O O16 0.753615 0.872588 0.664413
O O17 0.668874 0.716581 0.617759
O O18 0.250000 0.812727 0.750000
O O19 0.500000 0.816365 0.795361
O O20 0.500000 0.613605 0.560788
O O21 0.291600 0.506347 0.599124
O O22 0.000000 0.360527 0.912082
#
# Coordination Sequence:
#
# PCOD8219440 Si02
#       8
#     8   8   8   8   8   8   8   8
#     4   9  18  33  54  78 107 135 167 215 266 317
#     4  10  22  39  55  75 110 153 186 221 273 326
#     4  10  20  36  54  78 110 141 179 224 266 318
#     4   9  17  30  49  72  96 129 178 226 264 307
#     4  11  22  36  56  81 110 144 184 227 268 321
#     4  10  19  35  57  83 111 140 175 219 274 324
#     4   9  20  36  51  73 106 141 178 224 271 312
#     4  10  20  34  52  74 104 141 179 222 271 317
#
# _framework density 18.538792000000001
#
# number of rings (size 3 to 8) (size 9 to 14) (size 15 to 20)
#    0.000    2.250    1.250    1.500    1.750    4.750 
#    0.000    0.000    0.000    0.750    0.000    1.750 
#    0.000    0.000    0.000    0.000    0.000    0.000 
#
# Total GULP energy -793056.098325 kJ/mol
# GULP energy per Si atom -12391.501536 kJ/mol
# Density = 1.849660 g / cm^3
# Si number density = 18.538792 Si / 1000 Ang^3
#
#
#
# Elastic Constant Matrix: (Units=GPa)
#
#
# Indices 1 2 3 4 5 6 
#
# 1 104.0761 38.5508 55.5560 0.0000 0.0000 0.0000
# 2 38.5508 71.1497 24.0796 0.0000 0.0000 0.0000
# 3 55.5560 24.0796 121.5016 0.0000 0.0000 0.0000
# 4 0.0000 0.0000 0.0000 15.7646 0.0000 0.0000
# 5 0.0000 0.0000 0.0000 0.0000 28.8462 0.0000
# 6 0.0000 0.0000 0.0000 0.0000 0.0000 23.6941
#
#
#
# Elastic Compliance Matrix: (Units=1/GPa)
#
#
# Indices 1 2 3 4 5 6 
#
# 1 0.014871 -0.006170 -0.005577 0.000000 0.000000 0.000000
# 2 -0.006170 0.017625 -0.000672 0.000000 0.000000 0.000000
# 3 -0.005577 -0.000672 0.010913 0.000000 0.000000 0.000000
# 4 0.000000 0.000000 0.000000 0.063433 0.000000 0.000000
# 5 0.000000 0.000000 0.000000 0.000000 0.034667 0.000000
# 6 0.000000 0.000000 0.000000 0.000000 0.000000 0.042205
#
#
# Mechanical properties :
#
#
# Convention : Reuss Voigt Hill
#
# Bulk Modulus (GPa) = 53.84373 59.23335 56.53854
# Shear Modulus (GPa) = 23.28380 25.56373 24.42377
#
# Velocity S-wave (km/s) = 3.54778 3.71743 3.63359
# Velocity P-wave (km/s) = 6.77416 7.10254 6.94029
#
# Compressibility (1/GPa) = 0.01857226
#
# Stress axis : x y z
#
# Youngs Moduli (GPa) = 67.24666 56.73672 91.63022
#
# Poissons Ratio (x) = 0.35006 0.51100
# Poissons Ratio (y) = 0.41491 0.06156
# Poissons Ratio (z) = 0.37502 0.03812
#
# Static dielectric constant tensor:
#      x y z
#    x 3.744500 0.000000 0.000000 
#    y 0.000000 3.248940 0.000000 
#    z 0.000000 0.000000 3.311820 
# 
# 
# High freq. dielectric constant tensor:
#      x y z
#    x 1.730590 0.000000 0.000000 
#    y 0.000000 1.692560 0.000000 
#    z 0.000000 0.000000 1.705140 
# 
# From -- ./inp_files/38185.got.cif
#   From: 2010.03.12/outbox.cif.g09.slc.cpg/sg53_20_cif.got.tgz:38185.got - 2010.04.16 14:36:59.
