data_PCOD8219331
_publ_section_title
;
Structure prediction by ZEFSAII (Michael W. Deem and Ramdas Pophale) SiO2 
 PCOD8219331
Probable space group: P M N A
;
_chemical_formula_sum "Si O2"
_cell_formula_units_Z 64
_cell_length_a 9.458536
_cell_length_b 17.801500
_cell_length_c 19.340700
_cell_angle_alpha 90.000000
_cell_angle_beta 90.000000
_cell_angle_gamma 90.000000
_cell_volume 3256.512190
_symmetry_space_group_name_H-M "P M N A"
_symmetry_group_IT_number 53
_symmetry_cell_setting 'orthorhombic'
loop_
_space_group_symop_operation_xyz
x,y,z
1/2-x,-y,1/2+z
x,-y,-z
1/2-x,y,1/2-z
-x,-y,-z
1/2+x,y,1/2-z
-x,y,z
1/2+x,-y,1/2+z
loop_
_atom_site_type_symbol
_atom_site_label
_atom_site_fract_x
_atom_site_fract_y
_atom_site_fract_z
Si Si1 0.836409 0.799053 0.953342
Si Si2 0.155174 0.311273 0.659099
Si Si3 0.162346 0.447481 0.809701
Si Si4 0.665168 0.861397 0.180972
Si Si5 0.337673 0.422222 0.408311
Si Si6 0.840201 0.082707 0.530880
Si Si7 0.340058 0.719079 0.683368
Si Si8 0.155907 0.337555 0.502541
O O1 0.820900 0.787868 0.870742
O O2 0.758828 0.731499 0.990556
O O3 0.000000 0.799136 0.975534
O O4 0.764295 0.874773 0.979208
O O5 0.278683 0.362410 0.690301
O O6 0.204411 0.224922 0.663544
O O7 0.136071 0.343601 0.583164
O O8 0.000000 0.320433 0.695170
O O9 0.250000 0.491004 0.750000
O O10 0.183478 0.493622 0.880212
O O11 0.000000 0.444771 0.788194
O O12 0.750000 0.887927 0.250000
O O13 0.500000 0.871526 0.197404
O O14 0.706991 0.910199 0.112138
O O15 0.500000 0.409031 0.431645
O O16 0.294485 0.359784 0.351318
O O17 0.233234 0.412234 0.473281
O O18 0.000000 0.115936 0.526066
O O19 0.836775 0.000000 0.500000
O O20 0.250000 0.738386 0.750000
O O21 0.500000 0.712798 0.708738
O O22 0.000000 0.327771 0.467933
#
# Coordination Sequence:
#
# PCOD8219331 Si02
#       8
#     8   8   8   8   8   8   8   8
#     4  10  20  35  56  84 118 149 186 235 285 341
#     4  10  21  37  56  80 112 145 190 242 286 344
#     4  11  23  37  53  74 106 147 193 243 299 355
#     4  10  21  39  61  89 120 152 194 238 284 343
#     4   9  20  36  51  74 109 146 189 243 296 349
#     4  10  21  40  65  90 118 154 194 233 279 340
#     4   9  18  32  51  77 107 144 189 237 285 336
#     4  10  19  34  57  82 108 144 189 236 283 341
#
# _framework density 19.652929
#
# number of rings (size 3 to 8) (size 9 to 14) (size 15 to 20)
#    0.000    2.125    1.250    2.625    0.000    7.250 
#    0.000    3.125    0.000    3.000    0.000    0.000 
#    0.000    0.000    0.000    0.000    0.000    0.000 
#
# Total GULP energy -793118.104621 kJ/mol
# GULP energy per Si atom -12392.470385 kJ/mol
# Density = 1.960820 g / cm^3
# Si number density = 19.652929 Si / 1000 Ang^3
#
#
#
# Elastic Constant Matrix: (Units=GPa)
#
#
# Indices 1 2 3 4 5 6 
#
# 1 114.4448 37.6012 45.3110 0.0000 0.0000 0.0000
# 2 37.6012 70.1882 33.3113 0.0000 0.0000 0.0000
# 3 45.3110 33.3113 97.8131 0.0000 0.0000 0.0000
# 4 0.0000 0.0000 0.0000 21.6291 0.0000 0.0000
# 5 0.0000 0.0000 0.0000 0.0000 34.5236 0.0000
# 6 0.0000 0.0000 0.0000 0.0000 0.0000 -198.7886
#
#
#
# Elastic Compliance Matrix: (Units=1/GPa)
#
#
# Indices 1 2 3 4 5 6 
#
# 1 0.011751 -0.004427 -0.003936 0.000000 0.000000 0.000000
# 2 -0.004427 0.018662 -0.004305 0.000000 0.000000 0.000000
# 3 -0.003936 -0.004305 0.013513 0.000000 0.000000 0.000000
# 4 0.000000 0.000000 0.000000 0.046234 0.000000 0.000000
# 5 0.000000 0.000000 0.000000 0.000000 0.028966 0.000000
# 6 0.000000 0.000000 0.000000 0.000000 0.000000 -0.005030
#
#
# Mechanical properties :
#
#
# Convention : Reuss Voigt Hill
#
# Bulk Modulus (GPa) = 53.79118 57.21032 55.50075
# Shear Modulus (GPa) = 34.33436 -17.44568 8.44434
#
# Velocity S-wave (km/s) = 4.18429 -2.98264 2.07511
# Velocity P-wave (km/s) = 7.12561 4.16077 5.83465
#
# Compressibility (1/GPa) = 0.01859041
#
# Stress axis : x y z
#
# Youngs Moduli (GPa) = 85.10212 53.58435 74.00412
#
# Poissons Ratio (x) = 0.23723 0.29125
# Poissons Ratio (y) = 0.37676 0.31857
# Poissons Ratio (z) = 0.33493 0.23067
#
# Static dielectric constant tensor:
#      x y z
#    x 3.908900 0.000000 0.000000 
#    y 0.000000 3.429380 0.000000 
#    z 0.000000 0.000000 3.782900 
# 
# 
# High freq. dielectric constant tensor:
#      x y z
#    x 1.774600 0.000000 0.000000 
#    y 0.000000 1.738340 0.000000 
#    z 0.000000 0.000000 1.768640 
# 
# From -- ./inp_files/31255.got.cif
#   From: 2010.03.12/outbox.cif.g09.slc.cpg/sg53_16_cif.got.tgz:31255.got - 2010.04.16 14:36:59.
