data_PCOD8219862
_publ_section_title
;
Structure prediction by ZEFSAII (Michael W. Deem and Ramdas Pophale) SiO2 
 PCOD8219862
Probable space group: P M N A
;
_chemical_formula_sum "Si O2"
_cell_formula_units_Z 40
_cell_length_a 8.762697
_cell_length_b 25.803752
_cell_length_c 9.845215
_cell_angle_alpha 90.000000
_cell_angle_beta 90.000000
_cell_angle_gamma 90.000000
_cell_volume 2226.106095
_symmetry_space_group_name_H-M "P M N A"
_symmetry_group_IT_number 53
_symmetry_cell_setting 'orthorhombic'
loop_
_space_group_symop_operation_xyz
x,y,z
1/2-x,-y,1/2+z
x,-y,-z
1/2-x,y,1/2-z
-x,-y,-z
1/2+x,y,1/2-z
-x,y,z
1/2+x,-y,1/2+z
loop_
_atom_site_type_symbol
_atom_site_label
_atom_site_fract_x
_atom_site_fract_y
_atom_site_fract_z
Si Si1 0.178380 0.843618 0.397196
Si Si2 0.678669 0.957530 0.102807
Si Si3 0.180780 0.652580 0.894512
Si Si4 0.679958 0.456143 0.106928
Si Si5 0.179872 0.741503 0.101143
O O1 0.250000 0.845791 0.250000
O O2 0.211354 0.900290 0.462110
O O3 0.258969 0.794746 0.470800
O O4 0.000000 0.832116 0.388216
O O5 0.750000 0.965060 0.250000
O O6 0.500000 0.966125 0.121798
O O7 0.748299 0.000000 0.000000
O O8 0.250000 0.669077 0.750000
O O9 0.247175 0.597639 0.943204
O O10 0.000000 0.648537 0.880237
O O11 0.231272 0.694416 0.005898
O O12 0.750000 0.473432 0.250000
O O13 0.500000 0.448785 0.122453
O O14 0.723848 0.500000 0.000000
O O15 0.250000 0.733054 0.250000
O O16 0.000000 0.744833 0.115293
#
# Coordination Sequence:
#
# PCOD8219862 Si02
#       5
#     8   8   8   8   8
#     4   9  16  28  48  70  95 128 162 200 245 289
#     4   9  18  32  49  71  98 127 162 202 244 292
#     4  10  21  36  54  75 101 134 167 201 245 294
#     4  10  21  36  55  78 103 133 167 203 245 291
#     4  10  20  33  51  76 101 127 164 206 245 289
#
# _framework density 17.968596000000002
#
# number of rings (size 3 to 8) (size 9 to 14) (size 15 to 20)
#    0.000    2.400    0.000    4.800    0.000    6.800 
#    0.000    5.000    0.000    4.800    0.000    0.000 
#    0.000    0.000    0.000    0.000    0.000    0.000 
#
# Total GULP energy -495778.757871 kJ/mol
# GULP energy per Si atom -12394.468947 kJ/mol
# Density = 1.792770 g / cm^3
# Si number density = 17.968596 Si / 1000 Ang^3
#
#
#
# Elastic Constant Matrix: (Units=GPa)
#
#
# Indices 1 2 3 4 5 6 
#
# 1 82.6952 64.1006 40.9264 0.0000 0.0000 0.0000
# 2 64.1006 182.7561 94.7517 0.0000 0.0000 0.0000
# 3 40.9264 94.7517 88.2528 0.0000 0.0000 0.0000
# 4 0.0000 0.0000 0.0000 36.1739 0.0000 0.0000
# 5 0.0000 0.0000 0.0000 0.0000 15.0932 0.0000
# 6 0.0000 0.0000 0.0000 0.0000 0.0000 12.7003
#
#
#
# Elastic Compliance Matrix: (Units=1/GPa)
#
#
# Indices 1 2 3 4 5 6 
#
# 1 0.017036 -0.004239 -0.003349 0.000000 0.000000 0.000000
# 2 -0.004239 0.013396 -0.012417 0.000000 0.000000 0.000000
# 3 -0.003349 -0.012417 0.026216 0.000000 0.000000 0.000000
# 4 0.000000 0.000000 0.000000 0.027644 0.000000 0.000000
# 5 0.000000 0.000000 0.000000 0.000000 0.066255 0.000000
# 6 0.000000 0.000000 0.000000 0.000000 0.000000 0.078738
#
#
# Mechanical properties :
#
#
# Convention : Reuss Voigt Hill
#
# Bulk Modulus (GPa) = 60.10498 83.69573 71.90035
# Shear Modulus (GPa) = 18.19233 23.05519 20.62376
#
# Velocity S-wave (km/s) = 3.18536 3.58590 3.39155
# Velocity P-wave (km/s) = 6.85939 7.98905 7.44568
#
# Compressibility (1/GPa) = 0.01663756
#
# Stress axis : x y z
#
# Youngs Moduli (GPa) = 58.69985 74.64797 38.14497
#
# Poissons Ratio (x) = 0.31641 0.12776
# Poissons Ratio (y) = 0.24881 0.47365
# Poissons Ratio (z) = 0.19661 0.92691
#
# Static dielectric constant tensor:
#      x y z
#    x 3.417880 0.000000 0.000000 
#    y 0.000000 4.116480 0.000000 
#    z 0.000000 0.000000 3.120710 
# 
# 
# High freq. dielectric constant tensor:
#      x y z
#    x 1.709430 0.000000 0.000000 
#    y 0.000000 1.716420 0.000000 
#    z 0.000000 0.000000 1.663830 
# 
# From -- ./inp_files/6495.got.cif
#   From: 2010.03.12/outbox.cif.g09.slc.cpg/sg53_4_cif.got.tgz:6495.got - 2010.04.16 14:36:59.
