data_PCOD8219876
_publ_section_title
;
Structure prediction by ZEFSAII (Michael W. Deem and Ramdas Pophale) SiO2 
 PCOD8219876
Probable space group: P M N A
;
_chemical_formula_sum "Si O2"
_cell_formula_units_Z 40
_cell_length_a 9.052889
_cell_length_b 13.461160
_cell_length_c 18.116384
_cell_angle_alpha 90.000000
_cell_angle_beta 90.000000
_cell_angle_gamma 90.000000
_cell_volume 2207.705803
_symmetry_space_group_name_H-M "P M N A"
_symmetry_group_IT_number 53
_symmetry_cell_setting 'orthorhombic'
loop_
_space_group_symop_operation_xyz
x,y,z
1/2-x,-y,1/2+z
x,-y,-z
1/2-x,y,1/2-z
-x,-y,-z
1/2+x,y,1/2-z
-x,y,z
1/2+x,-y,1/2+z
loop_
_atom_site_type_symbol
_atom_site_label
_atom_site_fract_x
_atom_site_fract_y
_atom_site_fract_z
Si Si1 0.328025 0.100935 0.461829
Si Si2 0.830264 0.308944 0.971799
Si Si3 0.828596 0.394530 0.393758
Si Si4 0.170757 0.818285 0.674378
Si Si5 0.672559 0.581883 0.325020
O O1 0.500000 0.097583 0.441572
O O2 0.291971 0.193290 0.515976
O O3 0.236759 0.109191 0.386992
O O4 0.275262 0.000000 0.500000
O O5 0.797678 0.334116 0.886641
O O6 0.000000 0.331515 0.992303
O O7 0.730892 0.379917 0.023140
O O8 0.800562 0.295246 0.347467
O O9 0.738778 0.478191 0.351529
O O10 0.000000 0.423585 0.397908
O O11 0.250000 0.843328 0.750000
O O12 0.000000 0.842418 0.683187
O O13 0.750000 0.618046 0.250000
O O14 0.500000 0.566378 0.309862
#
# Coordination Sequence:
#
# PCOD8219876 Si02
#       5
#     8   8   8   8   8
#     4   9  18  35  58  78  99 131 169 209 255 305
#     4   9  19  35  53  74 101 133 169 208 251 301
#     4  10  20  33  52  77 103 133 169 207 249 298
#     4  10  20  33  51  77 106 133 164 207 255 300
#     4  11  22  34  49  71 102 138 172 206 246 293
#
# _framework density 18.118357
#
# number of rings (size 3 to 8) (size 9 to 14) (size 15 to 20)
#    0.000    2.200    0.000    3.000    0.000    8.400 
#    0.000    1.000    0.000    2.400    0.000    0.000 
#    0.000    0.000    0.000    0.000    0.000    0.000 
#
# Total GULP energy -496162.202706 kJ/mol
# GULP energy per Si atom -12404.055068 kJ/mol
# Density = 1.807712 g / cm^3
# Si number density = 18.118357 Si / 1000 Ang^3
#
#
#
# Elastic Constant Matrix: (Units=GPa)
#
#
# Indices 1 2 3 4 5 6 
#
# 1 104.9326 48.7899 81.1411 0.0000 0.0000 0.0000
# 2 48.7899 81.5825 65.4668 0.0000 0.0000 0.0000
# 3 81.1411 65.4668 163.0110 0.0000 0.0000 0.0000
# 4 0.0000 0.0000 0.0000 14.8288 0.0000 0.0000
# 5 0.0000 0.0000 0.0000 0.0000 37.8874 0.0000
# 6 0.0000 0.0000 0.0000 0.0000 0.0000 21.8108
#
#
#
# Elastic Compliance Matrix: (Units=1/GPa)
#
#
# Indices 1 2 3 4 5 6 
#
# 1 0.016724 -0.004901 -0.006356 0.000000 0.000000 0.000000
# 2 -0.004901 0.019523 -0.005401 0.000000 0.000000 0.000000
# 3 -0.006356 -0.005401 0.011468 0.000000 0.000000 0.000000
# 4 0.000000 0.000000 0.000000 0.067436 0.000000 0.000000
# 5 0.000000 0.000000 0.000000 0.000000 0.026394 0.000000
# 6 0.000000 0.000000 0.000000 0.000000 0.000000 0.045849
#
#
# Mechanical properties :
#
#
# Convention : Reuss Voigt Hill
#
# Bulk Modulus (GPa) = 69.45577 82.25796 75.85687
# Shear Modulus (GPa) = 22.17213 25.18063 23.67638
#
# Velocity S-wave (km/s) = 3.50199 3.73203 3.61884
# Velocity P-wave (km/s) = 7.40065 8.00435 7.70841
#
# Compressibility (1/GPa) = 0.01439765
#
# Stress axis : x y z
#
# Youngs Moduli (GPa) = 59.79517 51.22294 87.20266
#
# Poissons Ratio (x) = 0.25104 0.55428
# Poissons Ratio (y) = 0.29305 0.47098
# Poissons Ratio (z) = 0.38007 0.27665
#
# Static dielectric constant tensor:
#      x y z
#    x 3.443100 0.000000 0.000000 
#    y 0.000000 3.241100 0.000000 
#    z 0.000000 0.000000 3.429780 
# 
# 
# High freq. dielectric constant tensor:
#      x y z
#    x 1.711260 0.000000 0.000000 
#    y 0.000000 1.684880 0.000000 
#    z 0.000000 0.000000 1.705930 
# 
# From -- ./inp_files/19828.got.cif
#   From: 2010.03.12/outbox.cif.g09.slc.cpg/sg53_10_cif.got.tgz:19828.got - 2010.04.16 14:36:59.
