data_PCOD8219625
_publ_section_title
;
Structure prediction by ZEFSAII (Michael W. Deem and Ramdas Pophale) SiO2 
 PCOD8219625
Probable space group: P M N A
;
_chemical_formula_sum "Si O2"
_cell_formula_units_Z 60
_cell_length_a 14.490810
_cell_length_b 11.344040
_cell_length_c 18.577590
_cell_angle_alpha 90.000000
_cell_angle_beta 90.000000
_cell_angle_gamma 90.000000
_cell_volume 3053.864653
_symmetry_space_group_name_H-M "P M N A"
_symmetry_group_IT_number 53
_symmetry_cell_setting 'orthorhombic'
loop_
_space_group_symop_operation_xyz
x,y,z
1/2-x,-y,1/2+z
x,-y,-z
1/2-x,y,1/2-z
-x,-y,-z
1/2+x,y,1/2-z
-x,y,z
1/2+x,-y,1/2+z
loop_
_atom_site_type_symbol
_atom_site_label
_atom_site_fract_x
_atom_site_fract_y
_atom_site_fract_z
Si Si1 0.716272 0.452684 0.421115
Si Si2 0.398110 0.606705 0.708255
Si Si3 0.232813 0.024318 0.374422
Si Si4 0.250000 0.203044 0.250000
Si Si5 0.260214 0.216420 0.012723
Si Si6 0.670982 0.411000 0.807089
Si Si7 0.396909 0.905602 0.438381
Si Si8 0.893393 0.805734 0.387573
O O1 0.689469 0.500000 0.500000
O O2 0.627391 0.448296 0.369401
O O3 0.755981 0.320490 0.429044
O O4 0.791178 0.535118 0.382113
O O5 0.500000 0.658199 0.703310
O O6 0.333832 0.715551 0.726840
O O7 0.394461 0.507651 0.770132
O O8 0.218491 0.119672 0.313639
O O9 0.219200 0.090895 0.450300
O O10 0.335169 0.963883 0.374193
O O11 0.154594 0.926526 0.362862
O O12 0.162312 0.205543 0.969255
O O13 0.343987 0.243465 0.958951
O O14 0.750000 0.378678 0.750000
O O15 0.615373 0.292320 0.824823
O O16 0.500000 0.865819 0.410877
O O17 0.413393 0.000000 0.500000
O O18 0.000000 0.830340 0.403799
#
# Coordination Sequence:
#
# PCOD8219625 Si02
#       8
#     8   8   8   4   8   8   8   8
#     4  11  20  39  66  91 125 161 206 260 321 369
#     4  11  23  41  67  94 124 165 207 259 317 376
#     4  10  22  37  60  85 123 161 208 252 306 361
#     4  12  22  42  62  88 126 170 210 254 308 366
#     4  10  19  37  61  90 122 158 196 256 311 369
#     4  10  21  41  66  88 122 167 205 254 316 379
#     4   8  16  32  55  82 111 149 190 237 299 360
#     4  11  23  39  63  92 123 163 207 256 305 368
#
# _framework density 19.647237000000001
#
# number of rings (size 3 to 8) (size 9 to 14) (size 15 to 20)
#    0.000    1.733    4.667    1.600    0.933    2.933 
#    0.000    3.333    0.000    0.000    0.000    0.000 
#    0.000    0.000    0.000    0.000    0.000    0.000 
#
# Total GULP energy -743743.084337 kJ/mol
# GULP energy per Si atom -12395.718072 kJ/mol
# Density = 1.960252 g / cm^3
# Si number density = 19.647237 Si / 1000 Ang^3
#
#
#
# Elastic Constant Matrix: (Units=GPa)
#
#
# Indices 1 2 3 4 5 6 
#
# 1 154.4745 47.8148 42.4413 0.0000 0.0000 0.0000
# 2 47.8148 109.7003 40.6446 0.0000 0.0000 0.0000
# 3 42.4413 40.6446 100.3074 0.0000 0.0000 0.0000
# 4 0.0000 0.0000 0.0000 33.6061 0.0000 0.0000
# 5 0.0000 0.0000 0.0000 0.0000 7.6267 0.0000
# 6 0.0000 0.0000 0.0000 0.0000 0.0000 -45.3058
#
#
#
# Elastic Compliance Matrix: (Units=1/GPa)
#
#
# Indices 1 2 3 4 5 6 
#
# 1 0.007908 -0.002597 -0.002294 0.000000 0.000000 0.000000
# 2 -0.002597 0.011579 -0.003593 0.000000 0.000000 0.000000
# 3 -0.002294 -0.003593 0.012396 0.000000 0.000000 0.000000
# 4 0.000000 0.000000 0.000000 0.029757 0.000000 0.000000
# 5 0.000000 0.000000 0.000000 0.000000 0.131119 0.000000
# 6 0.000000 0.000000 0.000000 0.000000 0.000000 -0.022072
#
#
# Mechanical properties :
#
#
# Convention : Reuss Voigt Hill
#
# Bulk Modulus (GPa) = 67.04537 69.58708 68.31623
# Shear Modulus (GPa) = 25.95736 14.75748 20.35742
#
# Velocity S-wave (km/s) = 3.63874 2.74363 3.22242
# Velocity P-wave (km/s) = 7.20087 6.74773 6.97798
#
# Compressibility (1/GPa) = 0.01491527
#
# Stress axis : x y z
#
# Youngs Moduli (GPa) = 126.46203 86.36429 80.67346
#
# Poissons Ratio (x) = 0.22428 0.18503
# Poissons Ratio (y) = 0.32841 0.28986
# Poissons Ratio (z) = 0.29004 0.31031
#
# Static dielectric constant tensor:
#      x y z
#    x 3.529840 0.000000 0.000000 
#    y 0.000000 3.651830 0.000000 
#    z 0.000000 0.000000 3.644650 
# 
# 
# High freq. dielectric constant tensor:
#      x y z
#    x 1.746450 0.000000 0.000000 
#    y 0.000000 1.774080 0.000000 
#    z 0.000000 0.000000 1.763430 
# 
# From -- ./inp_files/28510.got.cif
#   From: 2010.03.12/outbox.cif.g09.slc.cpg/sg53_15_cif.got.tgz:28510.got - 2010.04.16 14:36:59.
