data_PCOD8219799
_publ_section_title
;
Structure prediction by ZEFSAII (Michael W. Deem and Ramdas Pophale) SiO2 
 PCOD8219799
Probable space group: P M N A
;
_chemical_formula_sum "Si O2"
_cell_formula_units_Z 64
_cell_length_a 8.887838
_cell_length_b 27.168885
_cell_length_c 14.639368
_cell_angle_alpha 90.000000
_cell_angle_beta 90.000000
_cell_angle_gamma 90.000000
_cell_volume 3535.006964
_symmetry_space_group_name_H-M "P M N A"
_symmetry_group_IT_number 53
_symmetry_cell_setting 'orthorhombic'
loop_
_space_group_symop_operation_xyz
x,y,z
1/2-x,-y,1/2+z
x,-y,-z
1/2-x,y,1/2-z
-x,-y,-z
1/2+x,y,1/2-z
-x,y,z
1/2+x,-y,1/2+z
loop_
_atom_site_type_symbol
_atom_site_label
_atom_site_fract_x
_atom_site_fract_y
_atom_site_fract_z
Si Si1 0.824923 0.581830 0.343671
Si Si2 0.822015 0.886509 0.537940
Si Si3 0.324854 0.466835 0.156088
Si Si4 0.175265 0.693474 0.842574
Si Si5 0.332097 0.019179 0.398349
Si Si6 0.677213 0.076028 0.839608
Si Si7 0.822217 0.608198 0.976088
Si Si8 0.321818 0.194402 0.345612
O O1 0.750000 0.599431 0.250000
O O2 0.795911 0.524243 0.360110
O O3 0.745285 0.612649 0.423098
O O4 0.000000 0.594541 0.341143
O O5 0.757281 0.929492 0.602639
O O6 0.777531 0.894667 0.431615
O O7 0.747856 0.835798 0.570372
O O8 0.000000 0.884893 0.550251
O O9 0.250000 0.448819 0.250000
O O10 0.500000 0.453923 0.159866
O O11 0.248772 0.439050 0.072487
O O12 0.250000 0.674087 0.750000
O O13 0.225505 0.658228 0.924857
O O14 0.224068 0.749162 0.865324
O O15 0.000000 0.690242 0.825287
O O16 0.500000 0.026555 0.357366
O O17 0.344582 0.000000 0.500000
O O18 0.240173 0.979542 0.340202
O O19 0.750000 0.102308 0.750000
O O20 0.500000 0.073984 0.828208
O O21 0.000000 0.601177 0.980623
O O22 0.250000 0.176736 0.250000
O O23 0.500000 0.186568 0.341423
#
# Coordination Sequence:
#
# PCOD8219799 Si02
#       8
#     8   8   8   8   8   8   8   8
#     4  10  21  36  52  72 101 137 175 214 253 296
#     4  10  20  34  52  76 104 133 169 211 253 298
#     4  10  20  33  49  73 105 138 173 211 252 299
#     4   9  20  36  54  78 105 131 161 202 251 303
#     4   9  17  30  48  70  97 130 167 204 244 290
#     4  10  20  33  50  73 104 138 171 209 249 292
#     4  11  21  33  52  77 104 135 171 209 253 304
#     4  10  20  36  56  77 102 131 164 204 252 303
#
# _framework density 18.104631000000001
#
# number of rings (size 3 to 8) (size 9 to 14) (size 15 to 20)
#    0.000    2.125    0.000    3.375    0.000    9.000 
#    0.000    2.500    0.000    0.750    0.000    1.750 
#    0.000    0.000    0.000    0.000    0.000    0.000 
#
# Total GULP energy -793746.577119 kJ/mol
# GULP energy per Si atom -12402.290267 kJ/mol
# Density = 1.806342 g / cm^3
# Si number density = 18.104631 Si / 1000 Ang^3
#
#
#
# Elastic Constant Matrix: (Units=GPa)
#
#
# Indices 1 2 3 4 5 6 
#
# 1 103.3138 46.1658 63.7312 0.0000 0.0000 0.0000
# 2 46.1658 75.6024 60.4906 0.0000 0.0000 0.0000
# 3 63.7312 60.4906 140.4690 0.0000 0.0000 0.0000
# 4 0.0000 0.0000 0.0000 23.0314 0.0000 0.0000
# 5 0.0000 0.0000 0.0000 0.0000 36.0153 0.0000
# 6 0.0000 0.0000 0.0000 0.0000 0.0000 3.8157
#
#
#
# Elastic Compliance Matrix: (Units=1/GPa)
#
#
# Indices 1 2 3 4 5 6 
#
# 1 0.014853 -0.005611 -0.004322 0.000000 0.000000 0.000000
# 2 -0.005611 0.022300 -0.007057 0.000000 0.000000 0.000000
# 3 -0.004322 -0.007057 0.012119 0.000000 0.000000 0.000000
# 4 0.000000 0.000000 0.000000 0.043419 0.000000 0.000000
# 5 0.000000 0.000000 0.000000 0.000000 0.027766 0.000000
# 6 0.000000 0.000000 0.000000 0.000000 0.000000 0.262077
#
#
# Mechanical properties :
#
#
# Convention : Reuss Voigt Hill
#
# Bulk Modulus (GPa) = 65.40116 73.35118 69.37617
# Shear Modulus (GPa) = 11.85920 22.50565 17.18243
#
# Velocity S-wave (km/s) = 2.56215 3.52957 3.08403
# Velocity P-wave (km/s) = 6.70486 7.56397 7.14733
#
# Compressibility (1/GPa) = 0.01529025
#
# Stress axis : x y z
#
# Youngs Moduli (GPa) = 67.32601 44.84235 82.51355
#
# Poissons Ratio (x) = 0.25163 0.35666
# Poissons Ratio (y) = 0.37780 0.58233
# Poissons Ratio (z) = 0.29101 0.31647
#
# Static dielectric constant tensor:
#      x y z
#    x 3.472150 0.000000 0.000000 
#    y 0.000000 3.258440 0.000000 
#    z 0.000000 0.000000 3.425320 
# 
# 
# High freq. dielectric constant tensor:
#      x y z
#    x 1.717910 0.000000 0.000000 
#    y 0.000000 1.675160 0.000000 
#    z 0.000000 0.000000 1.702210 
# 
# From -- ./inp_files/21029.got.cif
#   From: 2010.03.12/outbox.cif.g09.slc.cpg/sg53_11_cif.got.tgz:21029.got - 2010.04.16 14:36:59.
