data_PCOD8219237
_publ_section_title
;
Structure prediction by ZEFSAII (Michael W. Deem and Ramdas Pophale) SiO2 
 PCOD8219237
Probable space group: P M N A
;
_chemical_formula_sum "Si O2"
_cell_formula_units_Z 64
_cell_length_a 13.134614
_cell_length_b 10.170992
_cell_length_c 29.428920
_cell_angle_alpha 90.000000
_cell_angle_beta 90.000000
_cell_angle_gamma 90.000000
_cell_volume 3931.469867
_symmetry_space_group_name_H-M "P M N A"
_symmetry_group_IT_number 53
_symmetry_cell_setting 'orthorhombic'
loop_
_space_group_symop_operation_xyz
x,y,z
1/2-x,-y,1/2+z
x,-y,-z
1/2-x,y,1/2-z
-x,-y,-z
1/2+x,y,1/2-z
-x,y,z
1/2+x,-y,1/2+z
loop_
_atom_site_type_symbol
_atom_site_label
_atom_site_fract_x
_atom_site_fract_y
_atom_site_fract_z
Si Si1 0.386544 0.034524 0.227019
Si Si2 0.807581 0.895528 0.822048
Si Si3 0.884483 0.727293 0.278093
Si Si4 0.117729 0.865105 0.121944
Si Si5 0.686025 0.633778 0.317542
Si Si6 0.878681 0.374870 0.135856
Si Si7 0.378947 0.614272 0.532306
Si Si8 0.621195 0.865245 0.480395
O O1 0.500000 0.059042 0.208645
O O2 0.310096 0.110836 0.193703
O O3 0.379064 0.089808 0.278052
O O4 0.359238 0.880511 0.228783
O O5 0.836837 0.766109 0.849372
O O6 0.818326 0.020935 0.854399
O O7 0.806532 0.667108 0.314876
O O8 0.868490 0.653676 0.230593
O O9 0.000000 0.705391 0.295143
O O10 0.130935 0.725539 0.145994
O O11 0.158994 0.846876 0.071010
O O12 0.000000 0.907537 0.122687
O O13 0.672059 0.483284 0.331933
O O14 0.843025 0.402497 0.084206
O O15 0.000000 0.378207 0.140498
O O16 0.334671 0.500000 0.500000
O O17 0.500000 0.613457 0.530482
O O18 0.335341 0.749952 0.512148
O O19 0.500000 0.865088 0.481887
O O20 0.666222 0.000000 0.500000
#
# Coordination Sequence:
#
# PCOD8219237 Si02
#       8
#     8   8   8   8   8   8   8   8
#     4  10  19  34  53  71  97 130 163 205 251 286
#     4  11  20  33  48  74  99 131 169 200 239 292
#     4  10  19  34  53  71  97 126 162 212 250 276
#     4  11  18  28  49  70  94 127 167 202 230 281
#     4  11  20  33  48  74  95 127 170 199 232 285
#     4  11  22  32  47  72 106 135 160 199 239 284
#     4   9  17  31  45  62  94 134 162 185 234 292
#     4   9  17  27  41  64  92 122 155 194 237 280
#
# _framework density 16.278898000000002
#
# number of rings (size 3 to 8) (size 9 to 14) (size 15 to 20)
#    0.000    1.750    2.500    4.500    0.000    6.000 
#    0.000    1.875    0.000    0.000    0.000    0.000 
#    0.000   20.000    0.000    0.000    0.000    0.000 
#
# Total GULP energy -793670.995848 kJ/mol
# GULP energy per Si atom -12401.109310 kJ/mol
# Density = 1.624185 g / cm^3
# Si number density = 16.278898 Si / 1000 Ang^3
#
#
#
# Elastic Constant Matrix: (Units=GPa)
#
#
# Indices 1 2 3 4 5 6 
#
# 1 76.5165 14.8416 23.7259 0.0000 0.0000 0.0000
# 2 14.8416 82.4722 28.2867 0.0000 0.0000 0.0000
# 3 23.7259 28.2867 86.5550 0.0000 0.0000 0.0000
# 4 0.0000 0.0000 0.0000 16.8631 0.0000 0.0000
# 5 0.0000 0.0000 0.0000 0.0000 14.3459 0.0000
# 6 0.0000 0.0000 0.0000 0.0000 0.0000 20.1939
#
#
#
# Elastic Compliance Matrix: (Units=1/GPa)
#
#
# Indices 1 2 3 4 5 6 
#
# 1 0.014424 -0.001396 -0.003498 0.000000 0.000000 0.000000
# 2 -0.001396 0.013791 -0.004124 0.000000 0.000000 0.000000
# 3 -0.003498 -0.004124 0.013860 0.000000 0.000000 0.000000
# 4 0.000000 0.000000 0.000000 0.059301 0.000000 0.000000
# 5 0.000000 0.000000 0.000000 0.000000 0.069706 0.000000
# 6 0.000000 0.000000 0.000000 0.000000 0.000000 0.049520
#
#
# Mechanical properties :
#
#
# Convention : Reuss Voigt Hill
#
# Bulk Modulus (GPa) = 41.59866 42.13912 41.86889
# Shear Modulus (GPa) = 20.27147 22.19321 21.23234
#
# Velocity S-wave (km/s) = 3.53265 3.69631 3.61541
# Velocity P-wave (km/s) = 6.49990 6.64521 6.57296
#
# Compressibility (1/GPa) = 0.02403924
#
# Stress axis : x y z
#
# Youngs Moduli (GPa) = 69.32685 72.51034 72.15029
#
# Poissons Ratio (x) = 0.10124 0.25236
# Poissons Ratio (y) = 0.09679 0.29757
# Poissons Ratio (z) = 0.24248 0.29906
#
# Static dielectric constant tensor:
#      x y z
#    x 2.854670 0.000000 0.000000 
#    y 0.000000 3.122500 0.000000 
#    z 0.000000 0.000000 3.152650 
# 
# 
# High freq. dielectric constant tensor:
#      x y z
#    x 1.586150 0.000000 0.000000 
#    y 0.000000 1.633650 0.000000 
#    z 0.000000 0.000000 1.625790 
# 
# From -- ./inp_files/38957.got.cif
#   From: 2010.03.12/outbox.cif.g09.slc.cpg/sg53_20_cif.got.tgz:38957.got - 2010.04.16 14:36:59.
