data_PCOD8219604
_publ_section_title
;
Structure prediction by ZEFSAII (Michael W. Deem and Ramdas Pophale) SiO2 
 PCOD8219604
Probable space group: P M N A
;
_chemical_formula_sum "Si O2"
_cell_formula_units_Z 64
_cell_length_a 15.513881
_cell_length_b 15.422227
_cell_length_c 12.436059
_cell_angle_alpha 90.000000
_cell_angle_beta 90.000000
_cell_angle_gamma 90.000000
_cell_volume 2975.433997
_symmetry_space_group_name_H-M "P M N A"
_symmetry_group_IT_number 53
_symmetry_cell_setting 'orthorhombic'
loop_
_space_group_symop_operation_xyz
x,y,z
1/2-x,-y,1/2+z
x,-y,-z
1/2-x,y,1/2-z
-x,-y,-z
1/2+x,y,1/2-z
-x,y,z
1/2+x,-y,1/2+z
loop_
_atom_site_type_symbol
_atom_site_label
_atom_site_fract_x
_atom_site_fract_y
_atom_site_fract_z
Si Si1 0.752091 0.160703 0.372060
Si Si2 0.903705 0.162639 0.524833
Si Si3 0.648023 0.817066 0.259638
Si Si4 0.401686 0.101144 0.515990
Si Si5 0.752402 0.363975 0.367607
Si Si6 0.904427 0.632003 0.488175
Si Si7 0.649041 0.622542 0.244713
Si Si8 0.409778 0.535199 0.612288
O O1 0.750000 0.121031 0.250000
O O2 0.831939 0.121304 0.443227
O O3 0.661724 0.147755 0.432247
O O4 0.766270 0.262407 0.362636
O O5 0.887306 0.138448 0.649818
O O6 0.896419 0.265230 0.515400
O O7 0.000000 0.130419 0.491751
O O8 0.750000 0.816929 0.250000
O O9 0.618460 0.873686 0.361106
O O10 0.611799 0.718588 0.274429
O O11 0.500000 0.127246 0.487839
O O12 0.386654 0.000000 0.500000
O O13 0.750000 0.406696 0.250000
O O14 0.832548 0.406696 0.431022
O O15 0.659557 0.389713 0.413331
O O16 0.884350 0.593704 0.371810
O O17 0.000000 0.602895 0.525793
O O18 0.750000 0.632323 0.250000
O O19 0.621626 0.547669 0.323157
O O20 0.437590 0.500000 0.500000
O O21 0.500000 0.572950 0.663471
#
# Coordination Sequence:
#
# PCOD8219604 Si02
#       8
#     8   8   8   8   8   8   8   8
#     4  10  22  41  63  88 122 169 212 250 304 375
#     4   9  17  33  61  96 125 150 196 260 312 364
#     4  10  19  36  67  97 123 161 204 253 317 373
#     4  11  25  42  63  94 129 163 201 253 315 376
#     4  10  22  39  59  83 116 159 206 248 301 363
#     4   9  18  34  59  88 116 148 196 257 312 360
#     4  10  20  35  61  90 119 156 200 254 314 367
#     4  11  24  37  52  81 122 162 203 251 304 360
#
# _framework density 21.509467999999998
#
# number of rings (size 3 to 8) (size 9 to 14) (size 15 to 20)
#    0.000    2.000    1.250    1.875    3.500    3.500 
#    0.000    2.500    0.000    4.500    0.000    0.000 
#    0.000    0.000    0.000    0.000    0.000    0.000 
#
# Total GULP energy -793002.496306 kJ/mol
# GULP energy per Si atom -12390.664005 kJ/mol
# Density = 2.146051 g / cm^3
# Si number density = 21.509468 Si / 1000 Ang^3
#
#
#
# Elastic Constant Matrix: (Units=GPa)
#
#
# Indices 1 2 3 4 5 6 
#
# 1 155.8293 17.5233 66.1563 0.0000 0.0000 0.0000
# 2 17.5233 26.5282 31.3657 0.0000 0.0000 0.0000
# 3 66.1563 31.3657 160.9835 0.0000 0.0000 0.0000
# 4 0.0000 0.0000 0.0000 21.2153 0.0000 0.0000
# 5 0.0000 0.0000 0.0000 0.0000 64.1446 0.0000
# 6 0.0000 0.0000 0.0000 0.0000 0.0000 14.8107
#
#
#
# Elastic Compliance Matrix: (Units=1/GPa)
#
#
# Indices 1 2 3 4 5 6 
#
# 1 0.007838 -0.001779 -0.002874 0.000000 0.000000 0.000000
# 2 -0.001779 0.049383 -0.008891 0.000000 0.000000 0.000000
# 3 -0.002874 -0.008891 0.009125 0.000000 0.000000 0.000000
# 4 0.000000 0.000000 0.000000 0.047136 0.000000 0.000000
# 5 0.000000 0.000000 0.000000 0.000000 0.015590 0.000000
# 6 0.000000 0.000000 0.000000 0.000000 0.000000 0.067519
#
#
# Mechanical properties :
#
#
# Convention : Reuss Voigt Hill
#
# Bulk Modulus (GPa) = 25.47245 63.71461 44.59353
# Shear Modulus (GPa) = 21.11815 35.25382 28.18599
#
# Velocity S-wave (km/s) = 3.13678 4.05284 3.62387
# Velocity P-wave (km/s) = 4.99873 7.18238 6.18765
#
# Compressibility (1/GPa) = 0.03925811
#
# Stress axis : x y z
#
# Youngs Moduli (GPa) = 127.59078 20.25005 109.58611
#
# Poissons Ratio (x) = 0.03602 0.31498
# Poissons Ratio (y) = 0.22695 0.97429
# Poissons Ratio (z) = 0.36673 0.18004
#
# Static dielectric constant tensor:
#      x y z
#    x 4.462210 0.000000 0.000000 
#    y 0.000000 3.517050 0.000000 
#    z 0.000000 0.000000 4.223340 
# 
# 
# High freq. dielectric constant tensor:
#      x y z
#    x 1.864560 0.000000 0.000000 
#    y 0.000000 1.810190 0.000000 
#    z 0.000000 0.000000 1.849930 
# 
# From -- ./inp_files/16251.got.cif
#   From: 2010.03.12/outbox.cif.g09.slc.cpg/sg53_9_cif.got.tgz:16251.got - 2010.04.16 14:36:59.
