data_PCOD8219666
_publ_section_title
;
Structure prediction by ZEFSAII (Michael W. Deem and Ramdas Pophale) SiO2 
 PCOD8219666
Probable space group: P M N A
;
_chemical_formula_sum "Si O2"
_cell_formula_units_Z 64
_cell_length_a 8.733563
_cell_length_b 23.787901
_cell_length_c 15.058804
_cell_angle_alpha 90.000000
_cell_angle_beta 90.000000
_cell_angle_gamma 90.000000
_cell_volume 3128.513695
_symmetry_space_group_name_H-M "P M N A"
_symmetry_group_IT_number 53
_symmetry_cell_setting 'orthorhombic'
loop_
_space_group_symop_operation_xyz
x,y,z
1/2-x,-y,1/2+z
x,-y,-z
1/2-x,y,1/2-z
-x,-y,-z
1/2+x,y,1/2-z
-x,y,z
1/2+x,-y,1/2+z
loop_
_atom_site_type_symbol
_atom_site_label
_atom_site_fract_x
_atom_site_fract_y
_atom_site_fract_z
Si Si1 0.680742 0.811318 0.983747
Si Si2 0.680913 0.399787 0.348017
Si Si3 0.178979 0.510991 0.346210
Si Si4 0.819708 0.107888 0.158896
Si Si5 0.176892 0.996071 0.395416
Si Si6 0.679039 0.635375 0.152945
Si Si7 0.819991 0.126758 0.658612
Si Si8 0.680400 0.693005 0.511838
O O1 0.500000 0.803125 0.974472
O O2 0.729081 0.829320 0.082915
O O3 0.765603 0.754184 0.957589
O O4 0.734610 0.860775 0.920168
O O5 0.750000 0.390543 0.250000
O O6 0.500000 0.401804 0.339325
O O7 0.740060 0.458100 0.394594
O O8 0.736369 0.349762 0.411952
O O9 0.250000 0.512101 0.250000
O O10 0.212063 0.572610 0.386957
O O11 0.000000 0.498290 0.342049
O O12 0.750000 0.131989 0.250000
O O13 0.783258 0.041796 0.152065
O O14 0.000000 0.118883 0.155221
O O15 0.000000 0.006244 0.368411
O O16 0.196929 0.000000 0.500000
O O17 0.239872 0.935724 0.363818
O O18 0.750000 0.644443 0.250000
O O19 0.500000 0.646150 0.162885
O O20 0.747142 0.679270 0.083583
O O21 0.750000 0.149137 0.750000
O O22 0.000000 0.124563 0.666876
O O23 0.500000 0.690994 0.501249
#
# Coordination Sequence:
#
# PCOD8219666 Si02
#       8
#     8   8   8   8   8   8   8   8
#     4  11  24  45  65  85 117 160 205 255 308 355
#     4  10  21  37  59  86 119 155 194 240 299 358
#     4   9  17  31  55  86 119 152 193 239 294 357
#     4  12  25  41  64  94 125 161 204 248 302 363
#     4  10  19  38  64  92 129 163 195 243 299 355
#     4  10  21  38  61  89 120 158 198 246 301 357
#     4  10  22  39  63  91 121 158 197 241 297 354
#     4  11  25  42  60  87 119 156 203 254 301 359
#
# _framework density 20.456997999999999
#
# number of rings (size 3 to 8) (size 9 to 14) (size 15 to 20)
#    0.000    1.625    1.250    4.125    0.000    7.750 
#    0.000    5.000    0.000    0.000    0.000    0.000 
#    0.000    0.000    0.000    0.000    0.000    0.000 
#
# Total GULP energy -793644.781758 kJ/mol
# GULP energy per Si atom -12400.699715 kJ/mol
# Density = 2.041044 g / cm^3
# Si number density = 20.456998 Si / 1000 Ang^3
#
#
#
# Elastic Constant Matrix: (Units=GPa)
#
#
# Indices 1 2 3 4 5 6 
#
# 1 58.4958 22.5607 29.7549 0.0000 0.0000 0.0000
# 2 22.5607 78.7566 8.1531 0.0000 0.0000 0.0000
# 3 29.7549 8.1531 78.1329 0.0000 0.0000 0.0000
# 4 0.0000 0.0000 0.0000 23.7028 0.0000 0.0000
# 5 0.0000 0.0000 0.0000 0.0000 26.1401 0.0000
# 6 0.0000 0.0000 0.0000 0.0000 0.0000 37.1010
#
#
#
# Elastic Compliance Matrix: (Units=1/GPa)
#
#
# Indices 1 2 3 4 5 6 
#
# 1 0.023638 -0.005903 -0.008386 0.000000 0.000000 0.000000
# 2 -0.005903 0.014310 0.000755 0.000000 0.000000 0.000000
# 3 -0.008386 0.000755 0.015913 0.000000 0.000000 0.000000
# 4 0.000000 0.000000 0.000000 0.042189 0.000000 0.000000
# 5 0.000000 0.000000 0.000000 0.000000 0.038255 0.000000
# 6 0.000000 0.000000 0.000000 0.000000 0.000000 0.026953
#
#
# Mechanical properties :
#
#
# Convention : Reuss Voigt Hill
#
# Bulk Modulus (GPa) = 37.32313 37.36918 37.34615
# Shear Modulus (GPa) = 25.34747 27.71654 26.53200
#
# Velocity S-wave (km/s) = 3.52385 3.68485 3.60525
# Velocity P-wave (km/s) = 5.90262 6.03415 5.96875
#
# Compressibility (1/GPa) = 0.02679304
#
# Stress axis : x y z
#
# Youngs Moduli (GPa) = 42.30565 69.88010 62.83995
#
# Poissons Ratio (x) = 0.41251 0.52696
# Poissons Ratio (y) = 0.24973 -0.04743
# Poissons Ratio (z) = 0.35476 -0.05274
#
# Static dielectric constant tensor:
#      x y z
#    x 3.663830 0.000000 0.000000 
#    y 0.000000 4.044490 0.000000 
#    z 0.000000 0.000000 5.461960 
# 
# 
# High freq. dielectric constant tensor:
#      x y z
#    x 1.803310 0.000000 0.000000 
#    y 0.000000 1.804610 0.000000 
#    z 0.000000 0.000000 1.798190 
# 
# From -- ./inp_files/20843.got.cif
#   From: 2010.03.12/outbox.cif.g09.slc.cpg/sg53_11_cif.got.tgz:20843.got - 2010.04.16 14:36:59.
