data_PCOD8219351
_publ_section_title
;
Structure prediction by ZEFSAII (Michael W. Deem and Ramdas Pophale) SiO2 
 PCOD8219351
Probable space group: P M N A
;
_chemical_formula_sum "Si O2"
_cell_formula_units_Z 64
_cell_length_a 14.849930
_cell_length_b 9.363504
_cell_length_c 22.983011
_cell_angle_alpha 90.000000
_cell_angle_beta 90.000000
_cell_angle_gamma 90.000000
_cell_volume 3195.727440
_symmetry_space_group_name_H-M "P M N A"
_symmetry_group_IT_number 53
_symmetry_cell_setting 'orthorhombic'
loop_
_space_group_symop_operation_xyz
x,y,z
1/2-x,-y,1/2+z
x,-y,-z
1/2-x,y,1/2-z
-x,-y,-z
1/2+x,y,1/2-z
-x,y,z
1/2+x,-y,1/2+z
loop_
_atom_site_type_symbol
_atom_site_label
_atom_site_fract_x
_atom_site_fract_y
_atom_site_fract_z
Si Si1 0.896570 0.737386 0.117665
Si Si2 0.097143 0.795241 0.662591
Si Si3 0.897851 0.375221 0.221161
Si Si4 0.401684 0.441415 0.436566
Si Si5 0.216936 0.236981 0.118843
Si Si6 0.396726 0.121382 0.852476
Si Si7 0.259971 0.942598 0.434162
Si Si8 0.894018 0.309561 0.754630
O O1 0.882371 0.567145 0.109861
O O2 0.869619 0.771706 0.184783
O O3 0.000000 0.778115 0.104512
O O4 0.836184 0.821739 0.070954
O O5 0.103290 0.729222 0.725297
O O6 0.176134 0.731759 0.622376
O O7 0.107013 0.963303 0.673665
O O8 0.000000 0.759956 0.633186
O O9 0.836433 0.295327 0.174378
O O10 0.857248 0.528002 0.241743
O O11 0.000000 0.394991 0.196998
O O12 0.400310 0.500000 0.500000
O O13 0.500000 0.373349 0.423624
O O14 0.323880 0.322573 0.435381
O O15 0.204712 0.068896 0.107932
O O16 0.500000 0.162593 0.869597
O O17 0.334078 0.124862 0.910326
O O18 0.355820 0.226795 0.802266
O O19 0.246627 0.000000 0.500000
O O20 0.000000 0.313343 0.746821
#
# Coordination Sequence:
#
# PCOD8219351 Si02
#       8
#     8   8   8   8   8   8   8   8
#     4  10  21  37  55  82 119 155 194 240 294 351
#     4   9  20  36  55  81 114 147 183 232 286 343
#     4  10  19  34  57  87 118 146 182 229 287 358
#     4  10  20  36  58  82 113 156 199 238 284 340
#     4  11  21  36  57  81 113 149 197 238 285 345
#     4   9  20  40  63  84 112 152 192 244 305 353
#     4  11  25  40  56  84 117 156 207 251 290 346
#     4   9  18  35  58  87 117 144 185 235 294 363
#
# _framework density 20.026738999999999
#
# number of rings (size 3 to 8) (size 9 to 14) (size 15 to 20)
#    0.000    2.125    1.250    1.500    1.750    3.000 
#    2.250    0.000    0.000    0.375    0.000    0.000 
#    0.000    0.000    0.000    0.000    0.000    0.000 
#
# Total GULP energy -793107.911469 kJ/mol
# GULP energy per Si atom -12392.311117 kJ/mol
# Density = 1.998116 g / cm^3
# Si number density = 20.026739 Si / 1000 Ang^3
#
#
#
# Elastic Constant Matrix: (Units=GPa)
#
#
# Indices 1 2 3 4 5 6 
#
# 1 116.7432 48.8883 33.4641 0.0000 0.0000 0.0000
# 2 48.8883 62.7754 21.0705 0.0000 0.0000 0.0000
# 3 33.4641 21.0705 70.3609 0.0000 0.0000 0.0000
# 4 0.0000 0.0000 0.0000 28.2387 0.0000 0.0000
# 5 0.0000 0.0000 0.0000 0.0000 25.7740 0.0000
# 6 0.0000 0.0000 0.0000 0.0000 0.0000 32.6972
#
#
#
# Elastic Compliance Matrix: (Units=1/GPa)
#
#
# Indices 1 2 3 4 5 6 
#
# 1 0.013500 -0.009292 -0.003638 0.000000 0.000000 0.000000
# 2 -0.009292 0.024106 -0.002799 0.000000 0.000000 0.000000
# 3 -0.003638 -0.002799 0.016781 0.000000 0.000000 0.000000
# 4 0.000000 0.000000 0.000000 0.035412 0.000000 0.000000
# 5 0.000000 0.000000 0.000000 0.000000 0.038799 0.000000
# 6 0.000000 0.000000 0.000000 0.000000 0.000000 0.030584
#
#
# Mechanical properties :
#
#
# Convention : Reuss Voigt Hill
#
# Bulk Modulus (GPa) = 43.61548 50.74728 47.18138
# Shear Modulus (GPa) = 25.21634 27.10576 26.16105
#
# Velocity S-wave (km/s) = 3.55228 3.68296 3.61821
# Velocity P-wave (km/s) = 6.21698 6.59396 6.40824
#
# Compressibility (1/GPa) = 0.02292764
#
# Stress axis : x y z
#
# Youngs Moduli (GPa) = 74.07401 41.48306 59.59125
#
# Poissons Ratio (x) = 0.38548 0.21679
# Poissons Ratio (y) = 0.68833 0.16682
# Poissons Ratio (z) = 0.26948 0.11613
#
# Static dielectric constant tensor:
#      x y z
#    x 4.000140 0.000000 0.000000 
#    y 0.000000 3.862240 0.000000 
#    z 0.000000 0.000000 3.593160 
# 
# 
# High freq. dielectric constant tensor:
#      x y z
#    x 1.782330 0.000000 0.000000 
#    y 0.000000 1.777210 0.000000 
#    z 0.000000 0.000000 1.771030 
# 
# From -- ./inp_files/35348.got.cif
#   From: 2010.03.12/outbox.cif.g09.slc.cpg/sg53_18_cif.got.tgz:35348.got - 2010.04.16 14:36:59.
