data_PCOD8219017
_publ_section_title
;
Structure prediction by ZEFSAII (Michael W. Deem and Ramdas Pophale) SiO2 
 PCOD8219017
Probable space group: P M N A
;
_chemical_formula_sum "Si O2"
_cell_formula_units_Z 56
_cell_length_a 9.118968
_cell_length_b 14.179239
_cell_length_c 20.862166
_cell_angle_alpha 90.000000
_cell_angle_beta 90.000000
_cell_angle_gamma 90.000000
_cell_volume 2697.478621
_symmetry_space_group_name_H-M "P M N A"
_symmetry_group_IT_number 53
_symmetry_cell_setting 'orthorhombic'
loop_
_space_group_symop_operation_xyz
x,y,z
1/2-x,-y,1/2+z
x,-y,-z
1/2-x,y,1/2-z
-x,-y,-z
1/2+x,y,1/2-z
-x,y,z
1/2+x,-y,1/2+z
loop_
_atom_site_type_symbol
_atom_site_label
_atom_site_fract_x
_atom_site_fract_y
_atom_site_fract_z
Si Si1 0.336683 0.807915 0.872193
Si Si2 0.660966 0.337540 0.305539
Si Si3 0.325424 0.310918 0.610831
Si Si4 0.836283 0.519136 0.919924
Si Si5 0.674046 0.002014 0.926694
Si Si6 0.335212 0.330796 0.009280
Si Si7 0.823757 0.151786 0.682772
O O1 0.500000 0.823619 0.844752
O O2 0.234711 0.764135 0.817729
O O3 0.342615 0.735045 0.930036
O O4 0.267639 0.906504 0.894184
O O5 0.750000 0.390915 0.250000
O O6 0.500000 0.317111 0.279834
O O7 0.661962 0.402870 0.366119
O O8 0.500000 0.296483 0.616771
O O9 0.275965 0.421638 0.610701
O O10 0.260946 0.273508 0.543168
O O11 0.243554 0.255499 0.668038
O O12 0.741887 0.567139 0.977535
O O13 0.000000 0.500931 0.945855
O O14 0.500000 0.002384 0.932114
O O15 0.723198 0.086347 0.878412
O O16 0.738174 0.000000 0.000000
O O17 0.500000 0.350255 0.983741
O O18 0.750000 0.116658 0.750000
O O19 0.000000 0.155669 0.690679
#
# Coordination Sequence:
#
# PCOD8219017 Si02
#       7
#     8   8   8   8   8   8   8
#     4   9  18  34  56  82 111 142 176 216 270 333
#     4  10  20  35  53  75 105 139 179 224 272 326
#     4  11  22  37  57  80 111 152 193 233 282 337
#     4   9  20  36  53  77 111 150 189 235 288 338
#     4   9  18  36  63  90 115 147 189 237 289 346
#     4  10  19  32  55  87 118 147 184 231 282 340
#     4  11  24  42  62  85 116 153 196 246 299 358
#
# _framework density 20.760126
#
# number of rings (size 3 to 8) (size 9 to 14) (size 15 to 20)
#    0.000    2.143    0.000    3.000    0.000    7.429 
#    0.000    4.286    0.000    3.000    0.000    0.000 
#    0.000    0.000    0.000    0.000    0.000    0.000 
#
# Total GULP energy -693882.036966 kJ/mol
# GULP energy per Si atom -12390.750660 kJ/mol
# Density = 2.071288 g / cm^3
# Si number density = 20.760126 Si / 1000 Ang^3
#
#
#
# Elastic Constant Matrix: (Units=GPa)
#
#
# Indices 1 2 3 4 5 6 
#
# 1 100.1490 26.7613 35.4164 0.0000 0.0000 0.0000
# 2 26.7613 98.0639 28.1974 0.0000 0.0000 0.0000
# 3 35.4164 28.1974 100.4928 0.0000 0.0000 0.0000
# 4 0.0000 0.0000 0.0000 22.8250 0.0000 0.0000
# 5 0.0000 0.0000 0.0000 0.0000 31.7039 0.0000
# 6 0.0000 0.0000 0.0000 0.0000 0.0000 54.9861
#
#
#
# Elastic Compliance Matrix: (Units=1/GPa)
#
#
# Indices 1 2 3 4 5 6 
#
# 1 0.011830 -0.002208 -0.003550 0.000000 0.000000 0.000000
# 2 -0.002208 0.011504 -0.002450 0.000000 0.000000 0.000000
# 3 -0.003550 -0.002450 0.011889 0.000000 0.000000 0.000000
# 4 0.000000 0.000000 0.000000 0.043812 0.000000 0.000000
# 5 0.000000 0.000000 0.000000 0.000000 0.031542 0.000000
# 6 0.000000 0.000000 0.000000 0.000000 0.000000 0.018186
#
#
# Mechanical properties :
#
#
# Convention : Reuss Voigt Hill
#
# Bulk Modulus (GPa) = 53.16576 53.27288 53.21932
# Shear Modulus (GPa) = 33.01440 35.79170 34.40305
#
# Velocity S-wave (km/s) = 3.99216 4.15668 4.07525
# Velocity P-wave (km/s) = 6.84945 6.98242 6.91625
#
# Compressibility (1/GPa) = 0.01880910
#
# Stress axis : x y z
#
# Youngs Moduli (GPa) = 84.52768 86.92338 84.10797
#
# Poissons Ratio (x) = 0.19190 0.29857
# Poissons Ratio (y) = 0.18662 0.20606
# Poissons Ratio (z) = 0.30006 0.21296
#
# Static dielectric constant tensor:
#      x y z
#    x 3.996900 0.000000 0.000000 
#    y 0.000000 3.911640 0.000000 
#    z 0.000000 0.000000 3.859070 
# 
# 
# High freq. dielectric constant tensor:
#      x y z
#    x 1.799740 0.000000 0.000000 
#    y 0.000000 1.811970 0.000000 
#    z 0.000000 0.000000 1.816290 
# 
# From -- ./inp_files/30829.got.cif
#   From: 2010.03.12/outbox.cif.g09.slc.cpg/sg53_16_cif.got.tgz:30829.got - 2010.04.16 14:36:59.
