data_PCOD8219375
_publ_section_title
;
Structure prediction by ZEFSAII (Michael W. Deem and Ramdas Pophale) SiO2 
 PCOD8219375
Probable space group: P M N A
;
_chemical_formula_sum "Si O2"
_cell_formula_units_Z 48
_cell_length_a 17.573396
_cell_length_b 14.160943
_cell_length_c 10.250578
_cell_angle_alpha 90.000000
_cell_angle_beta 90.000000
_cell_angle_gamma 90.000000
_cell_volume 2550.916394
_symmetry_space_group_name_H-M "P M N A"
_symmetry_group_IT_number 53
_symmetry_cell_setting 'orthorhombic'
loop_
_space_group_symop_operation_xyz
x,y,z
1/2-x,-y,1/2+z
x,-y,-z
1/2-x,y,1/2-z
-x,-y,-z
1/2+x,y,1/2-z
-x,y,z
1/2+x,-y,1/2+z
loop_
_atom_site_type_symbol
_atom_site_label
_atom_site_fract_x
_atom_site_fract_y
_atom_site_fract_z
Si Si1 0.909506 0.893259 0.477489
Si Si2 0.909944 0.608404 0.149981
Si Si3 0.911670 0.890053 0.990816
Si Si4 0.090011 0.787917 0.729707
Si Si5 0.660767 0.207508 0.732819
Si Si6 0.909749 0.600539 0.853162
O O1 0.876308 0.828725 0.595121
O O2 0.877791 0.855933 0.342362
O O3 0.000000 0.889691 0.471781
O O4 0.881260 0.000000 0.500000
O O5 0.868638 0.684581 0.241742
O O6 0.883847 0.503205 0.195450
O O7 0.000000 0.621740 0.164721
O O8 0.882957 0.622135 0.000535
O O9 0.860629 0.834755 0.093304
O O10 0.000000 0.866355 0.018964
O O11 0.886914 0.857225 0.847135
O O12 0.894819 0.000000 0.000000
O O13 0.122429 0.682179 0.757285
O O14 0.000000 0.783950 0.717472
O O15 0.750000 0.205923 0.750000
O O16 0.000000 0.602985 0.855562
#
# Coordination Sequence:
#
# PCOD8219375 Si02
#       6
#     8   8   8   8   8   8
#     4  10  21  38  59  82 111 145 180 226 283 329
#     4   9  16  31  57  82 105 137 186 238 280 318
#     4  10  19  34  59  84 103 135 191 242 270 313
#     4   9  16  30  55  84 107 130 176 236 283 322
#     4  12  24  36  53  79 118 155 182 218 273 340
#     4   8  14  27  56  88 104 128 176 241 290 313
#
# _framework density 18.816766999999999
#
# number of rings (size 3 to 8) (size 9 to 14) (size 15 to 20)
#    0.000    2.333    1.667    3.500    0.000    3.333 
#    0.000    1.667    7.333    4.000    0.000    0.000 
#    0.000    0.000    0.000    0.000    0.000    0.000 
#
# Total GULP energy -595071.087758 kJ/mol
# GULP energy per Si atom -12397.314328 kJ/mol
# Density = 1.877394 g / cm^3
# Si number density = 18.816767 Si / 1000 Ang^3
#
#
#
# Elastic Constant Matrix: (Units=GPa)
#
#
# Indices 1 2 3 4 5 6 
#
# 1 30.9933 19.2772 1.0130 0.0000 0.0000 0.0000
# 2 19.2772 143.4283 31.6564 0.0000 0.0000 0.0000
# 3 1.0130 31.6564 53.1252 0.0000 0.0000 0.0000
# 4 0.0000 0.0000 0.0000 38.2524 0.0000 0.0000
# 5 0.0000 0.0000 0.0000 0.0000 33.3351 0.0000
# 6 0.0000 0.0000 0.0000 0.0000 0.0000 0.7804
#
#
#
# Elastic Compliance Matrix: (Units=1/GPa)
#
#
# Indices 1 2 3 4 5 6 
#
# 1 0.035493 -0.005321 0.002494 0.000000 0.000000 0.000000
# 2 -0.005321 0.008826 -0.005158 0.000000 0.000000 0.000000
# 3 0.002494 -0.005158 0.021849 0.000000 0.000000 0.000000
# 4 0.000000 0.000000 0.000000 0.026142 0.000000 0.000000
# 5 0.000000 0.000000 0.000000 0.000000 0.029998 0.000000
# 6 0.000000 0.000000 0.000000 0.000000 0.000000 1.281429
#
#
# Mechanical properties :
#
#
# Convention : Reuss Voigt Hill
#
# Bulk Modulus (GPa) = 19.92082 36.82664 28.37373
# Shear Modulus (GPa) = 3.48083 26.18026 14.83054
#
# Velocity S-wave (km/s) = 1.36157 3.73410 2.81046
# Velocity P-wave (km/s) = 3.61684 6.18102 5.06392
#
# Compressibility (1/GPa) = 0.05019873
#
# Stress axis : x y z
#
# Youngs Moduli (GPa) = 28.17457 113.30690 45.76822
#
# Poissons Ratio (x) = 0.60288 -0.11414
# Poissons Ratio (y) = 0.14991 0.23605
# Poissons Ratio (z) = -0.07026 0.58439
#
# Static dielectric constant tensor:
#      x y z
#    x 3.060580 0.000000 0.000000 
#    y 0.000000 4.022970 0.000000 
#    z 0.000000 0.000000 3.506710 
# 
# 
# High freq. dielectric constant tensor:
#      x y z
#    x 1.676730 0.000000 0.000000 
#    y 0.000000 1.755690 0.000000 
#    z 0.000000 0.000000 1.721740 
# 
# From -- ./inp_files/9988.got.cif
#   From: 2010.03.12/outbox.cif.g09.slc.cpg/sg53_5_cif.got.tgz:9988.got - 2010.04.16 14:36:59.
