data_PCOD8219747
_publ_section_title
;
Structure prediction by ZEFSAII (Michael W. Deem and Ramdas Pophale) SiO2 
 PCOD8219747
Probable space group: P M N A
;
_chemical_formula_sum "Si O2"
_cell_formula_units_Z 64
_cell_length_a 9.595631
_cell_length_b 9.879468
_cell_length_c 39.415543
_cell_angle_alpha 90.000000
_cell_angle_beta 90.000000
_cell_angle_gamma 90.000000
_cell_volume 3736.582811
_symmetry_space_group_name_H-M "P M N A"
_symmetry_group_IT_number 53
_symmetry_cell_setting 'orthorhombic'
loop_
_space_group_symop_operation_xyz
x,y,z
1/2-x,-y,1/2+z
x,-y,-z
1/2-x,y,1/2-z
-x,-y,-z
1/2+x,y,1/2-z
-x,y,z
1/2+x,-y,1/2+z
loop_
_atom_site_type_symbol
_atom_site_label
_atom_site_fract_x
_atom_site_fract_y
_atom_site_fract_z
Si Si1 0.847914 0.213493 0.778433
Si Si2 0.664003 0.297086 0.091822
Si Si3 0.665764 0.111087 0.974979
Si Si4 0.836185 0.208504 0.854348
Si Si5 0.834193 0.636770 0.515864
Si Si6 0.164877 0.480259 0.143626
Si Si7 0.153482 0.532379 0.779575
Si Si8 0.836563 0.019502 0.597717
O O1 0.750000 0.146654 0.750000
O O2 0.790931 0.181658 0.815688
O O3 0.858178 0.373411 0.773438
O O4 0.000000 0.148406 0.773611
O O5 0.500000 0.328139 0.095640
O O6 0.718186 0.335377 0.054083
O O7 0.748592 0.386524 0.118421
O O8 0.695650 0.139919 0.098800
O O9 0.500000 0.102651 0.975223
O O10 0.719681 0.082851 0.937330
O O11 0.720980 0.252795 0.989214
O O12 0.729303 0.000000 0.000000
O O13 0.798488 0.362948 0.864517
O O14 0.748420 0.097614 0.874003
O O15 0.000000 0.183636 0.859732
O O16 0.772817 0.500000 0.500000
O O17 0.000000 0.636424 0.516703
O O18 0.210213 0.441818 0.182199
O O19 0.000000 0.455984 0.139033
O O20 0.250000 0.597517 0.750000
O O21 0.000000 0.597667 0.775851
O O22 0.000000 0.046738 0.602813
#
# Coordination Sequence:
#
# PCOD8219747 Si02
#       8
#     8   8   8   8   8   8   8   8
#     4   8  14  26  45  69  97 126 156 196 243 288
#     4  10  20  33  49  74 103 129 164 208 249 292
#     4   9  15  28  47  67  95 127 158 200 250 292
#     4   9  19  34  50  72 102 134 167 201 242 294
#     4   9  17  28  45  71  99 125 157 201 251 298
#     4   9  19  34  50  71 102 136 165 198 245 298
#     4   8  14  26  45  69  96 125 158 196 240 289
#     4  10  20  32  50  75 100 129 167 208 247 291
#
# _framework density 17.127949000000001
#
# number of rings (size 3 to 8) (size 9 to 14) (size 15 to 20)
#    0.000    3.000    1.250    1.500    1.750    2.000 
#    0.000    2.500    0.000    2.250    0.000    0.000 
#    0.000    0.000    0.000    0.000    0.000    0.000 
#
# Total GULP energy -793131.979932 kJ/mol
# GULP energy per Si atom -12392.687186 kJ/mol
# Density = 1.708896 g / cm^3
# Si number density = 17.127949 Si / 1000 Ang^3
#
#
#
# Elastic Constant Matrix: (Units=GPa)
#
#
# Indices 1 2 3 4 5 6 
#
# 1 51.4070 42.4836 60.3177 0.0000 0.0000 0.0000
# 2 42.4836 106.6179 72.9813 0.0000 0.0000 0.0000
# 3 60.3177 72.9813 147.3188 0.0000 0.0000 0.0000
# 4 0.0000 0.0000 0.0000 20.9997 0.0000 0.0000
# 5 0.0000 0.0000 0.0000 0.0000 20.8720 0.0000
# 6 0.0000 0.0000 0.0000 0.0000 0.0000 25.2654
#
#
#
# Elastic Compliance Matrix: (Units=1/GPa)
#
#
# Indices 1 2 3 4 5 6 
#
# 1 0.040889 -0.007313 -0.013118 0.000000 0.000000 0.000000
# 2 -0.007313 0.015500 -0.004684 0.000000 0.000000 0.000000
# 3 -0.013118 -0.004684 0.014480 0.000000 0.000000 0.000000
# 4 0.000000 0.000000 0.000000 0.047620 0.000000 0.000000
# 5 0.000000 0.000000 0.000000 0.000000 0.047911 0.000000
# 6 0.000000 0.000000 0.000000 0.000000 0.000000 0.039580
#
#
# Mechanical properties :
#
#
# Convention : Reuss Voigt Hill
#
# Bulk Modulus (GPa) = 48.45765 72.98989 60.72377
# Shear Modulus (GPa) = 19.00497 22.06482 20.53490
#
# Velocity S-wave (km/s) = 3.33466 3.59309 3.46629
# Velocity P-wave (km/s) = 6.57112 7.74085 7.17985
#
# Compressibility (1/GPa) = 0.02063658
#
# Stress axis : x y z
#
# Youngs Moduli (GPa) = 24.45673 64.51715 69.06187
#
# Poissons Ratio (x) = 0.47181 0.90598
# Poissons Ratio (y) = 0.17885 0.32351
# Poissons Ratio (z) = 0.32083 0.30222
#
# Static dielectric constant tensor:
#      x y z
#    x 3.081740 0.000000 0.000000 
#    y 0.000000 3.057080 0.000000 
#    z 0.000000 0.000000 3.401470 
# 
# 
# High freq. dielectric constant tensor:
#      x y z
#    x 1.629710 0.000000 0.000000 
#    y 0.000000 1.639790 0.000000 
#    z 0.000000 0.000000 1.674700 
# 
# From -- ./inp_files/38743.got.cif
#   From: 2010.03.12/outbox.cif.g09.slc.cpg/sg53_20_cif.got.tgz:38743.got - 2010.04.16 14:36:59.
