data_PCOD8219592
_publ_section_title
;
Structure prediction by ZEFSAII (Michael W. Deem and Ramdas Pophale) SiO2 
 PCOD8219592
Probable space group: P M N A
;
_chemical_formula_sum "Si O2"
_cell_formula_units_Z 64
_cell_length_a 18.449362
_cell_length_b 18.384828
_cell_length_c 9.306834
_cell_angle_alpha 90.000000
_cell_angle_beta 90.000000
_cell_angle_gamma 90.000000
_cell_volume 3156.769641
_symmetry_space_group_name_H-M "P M N A"
_symmetry_group_IT_number 53
_symmetry_cell_setting 'orthorhombic'
loop_
_space_group_symop_operation_xyz
x,y,z
1/2-x,-y,1/2+z
x,-y,-z
1/2-x,y,1/2-z
-x,-y,-z
1/2+x,y,1/2-z
-x,y,z
1/2+x,-y,1/2+z
loop_
_atom_site_type_symbol
_atom_site_label
_atom_site_fract_x
_atom_site_fract_y
_atom_site_fract_z
Si Si1 0.831721 0.562588 0.209837
Si Si2 0.080010 0.228796 0.535900
Si Si3 0.833701 0.402613 0.234746
Si Si4 0.582630 0.169383 0.654152
Si Si5 0.150456 0.697513 0.005098
Si Si6 0.918851 0.604744 0.474426
Si Si7 0.773244 0.799819 0.586119
Si Si8 0.285536 0.071613 0.594637
O O1 0.750000 0.580006 0.250000
O O2 0.837994 0.479876 0.148255
O O3 0.883551 0.558856 0.347637
O O4 0.854219 0.627247 0.105863
O O5 0.100671 0.186705 0.680957
O O6 0.079310 0.312668 0.577300
O O7 0.140483 0.214963 0.414512
O O8 0.000000 0.204742 0.479145
O O9 0.750000 0.380061 0.250000
O O10 0.872249 0.336545 0.148640
O O11 0.870266 0.407758 0.387469
O O12 0.500000 0.144596 0.633468
O O13 0.595014 0.240684 0.555373
O O14 0.633271 0.102773 0.608907
O O15 0.230637 0.733668 0.992372
O O16 0.000000 0.576086 0.504632
O O17 0.750000 0.811614 0.750000
O O18 0.762843 0.872108 0.493724
O O19 0.250000 0.055860 0.750000
O O20 0.290468 0.000000 0.500000
#
# Coordination Sequence:
#
# PCOD8219592 Si02
#       8
#     8   8   8   8   8   8   8   8
#     4  11  22  36  58  81 118 167 217 266 325 387
#     4  10  19  36  63  91 124 164 210 259 310 369
#     4  11  23  39  54  85 123 163 211 272 328 382
#     4  10  22  40  64  94 127 164 208 255 307 373
#     4  11  22  35  61  88 119 159 214 269 318 373
#     4  11  23  39  60  86 119 163 213 264 321 384
#     4  11  22  39  64  98 129 162 208 262 310 367
#     4  11  23  42  69 100 133 171 206 245 298 364
#
# _framework density 20.273890000000002
#
# number of rings (size 3 to 8) (size 9 to 14) (size 15 to 20)
#    0.000    1.250    2.500    4.500    0.000    3.750 
#    0.000    3.750    0.000    5.250    0.000    0.000 
#    0.000    0.000    0.000    0.000    0.000    0.000 
#
# Total GULP energy -793369.027544 kJ/mol
# GULP energy per Si atom -12396.391055 kJ/mol
# Density = 2.022775 g / cm^3
# Si number density = 20.273890 Si / 1000 Ang^3
#
#
#
# Elastic Constant Matrix: (Units=GPa)
#
#
# Indices 1 2 3 4 5 6 
#
# 1 123.9274 24.4824 42.5610 0.0000 0.0000 0.0000
# 2 24.4824 107.3043 42.8753 0.0000 0.0000 0.0000
# 3 42.5610 42.8753 99.2344 0.0000 0.0000 0.0000
# 4 0.0000 0.0000 0.0000 27.8521 0.0000 0.0000
# 5 0.0000 0.0000 0.0000 0.0000 28.1932 0.0000
# 6 0.0000 0.0000 0.0000 0.0000 0.0000 12.9837
#
#
#
# Elastic Compliance Matrix: (Units=1/GPa)
#
#
# Indices 1 2 3 4 5 6 
#
# 1 0.009501 -0.000652 -0.003793 0.000000 0.000000 0.000000
# 2 -0.000652 0.011309 -0.004606 0.000000 0.000000 0.000000
# 3 -0.003793 -0.004606 0.013694 0.000000 0.000000 0.000000
# 4 0.000000 0.000000 0.000000 0.035904 0.000000 0.000000
# 5 0.000000 0.000000 0.000000 0.000000 0.035469 0.000000
# 6 0.000000 0.000000 0.000000 0.000000 0.000000 0.077020
#
#
# Mechanical properties :
#
#
# Convention : Reuss Voigt Hill
#
# Bulk Modulus (GPa) = 60.97348 61.14480 61.05914
# Shear Modulus (GPa) = 24.21701 28.50897 26.36299
#
# Velocity S-wave (km/s) = 3.45989 3.75399 3.60994
# Velocity P-wave (km/s) = 6.78979 7.00106 6.89623
#
# Compressibility (1/GPa) = 0.01640057
#
# Stress axis : x y z
#
# Youngs Moduli (GPa) = 105.25498 88.42820 73.02368
#
# Poissons Ratio (x) = 0.05766 0.27698
# Poissons Ratio (y) = 0.06864 0.33637
# Poissons Ratio (z) = 0.39924 0.40733
#
# Static dielectric constant tensor:
#      x y z
#    x 3.693740 0.000000 0.000000 
#    y 0.000000 3.729300 0.000000 
#    z 0.000000 0.000000 3.634550 
# 
# 
# High freq. dielectric constant tensor:
#      x y z
#    x 1.786100 0.000000 0.000000 
#    y 0.000000 1.791790 0.000000 
#    z 0.000000 0.000000 1.792400 
# 
# From -- ./inp_files/10261.got.cif
#   From: 2010.03.12/outbox.cif.g09.slc.cpg/sg53_6_cif.got.tgz:10261.got - 2010.04.16 14:36:59.
