data_PCOD8219120
_publ_section_title
;
Structure prediction by ZEFSAII (Michael W. Deem and Ramdas Pophale) SiO2 
 PCOD8219120
Probable space group: P M N A
;
_chemical_formula_sum "Si O2"
_cell_formula_units_Z 56
_cell_length_a 9.364600
_cell_length_b 21.464705
_cell_length_c 14.268236
_cell_angle_alpha 90.000000
_cell_angle_beta 90.000000
_cell_angle_gamma 90.000000
_cell_volume 2868.034953
_symmetry_space_group_name_H-M "P M N A"
_symmetry_group_IT_number 53
_symmetry_cell_setting 'orthorhombic'
loop_
_space_group_symop_operation_xyz
x,y,z
1/2-x,-y,1/2+z
x,-y,-z
1/2-x,y,1/2-z
-x,-y,-z
1/2+x,y,1/2-z
-x,y,z
1/2+x,-y,1/2+z
loop_
_atom_site_type_symbol
_atom_site_label
_atom_site_fract_x
_atom_site_fract_y
_atom_site_fract_z
Si Si1 0.655182 0.245196 0.669104
Si Si2 0.169164 0.229758 0.039692
Si Si3 0.344281 0.388674 0.669359
Si Si4 0.166932 0.910558 0.966209
Si Si5 0.830275 0.974443 0.153002
Si Si6 0.661706 0.428433 0.997272
Si Si7 0.665268 0.667815 0.843893
O O1 0.750000 0.212611 0.750000
O O2 0.500000 0.211877 0.669201
O O3 0.723851 0.238907 0.566626
O O4 0.635376 0.317053 0.695845
O O5 0.261292 0.274103 0.105152
O O6 0.000000 0.245165 0.048839
O O7 0.205884 0.158885 0.067603
O O8 0.250000 0.422278 0.750000
O O9 0.500000 0.421201 0.664670
O O10 0.267549 0.392100 0.570178
O O11 0.000000 0.921235 0.970587
O O12 0.218488 0.924134 0.073318
O O13 0.224477 0.958838 0.888238
O O14 0.750000 0.959875 0.250000
O O15 0.000000 0.973205 0.171980
O O16 0.500000 0.422881 0.959059
O O17 0.676287 0.396101 0.097824
O O18 0.709793 0.500000 0.000000
O O19 0.750000 0.653768 0.750000
O O20 0.500000 0.684790 0.823890
#
# Coordination Sequence:
#
# PCOD8219120 Si02
#       7
#     8   8   8   8   8   8   8
#     4   9  18  30  49  76 106 138 173 214 265 325
#     4  10  19  36  58  81 111 147 188 231 275 328
#     4  10  19  33  54  81 109 140 175 217 268 325
#     4   8  17  33  54  77 108 148 185 223 273 331
#     4   9  17  33  54  78 107 145 187 227 275 323
#     4  10  22  40  60  83 111 143 183 230 278 327
#     4  11  24  41  61  83 112 148 184 229 278 328
#
# _framework density 19.525563999999999
#
# number of rings (size 3 to 8) (size 9 to 14) (size 15 to 20)
#    0.000    2.429    1.429    1.714    0.000    3.714 
#    0.000    5.714    0.000    0.000    0.000    0.000 
#    0.000    0.000    0.000    0.000    0.000    0.000 
#
# Total GULP energy -694119.000080 kJ/mol
# GULP energy per Si atom -12394.982144 kJ/mol
# Density = 1.948112 g / cm^3
# Si number density = 19.525564 Si / 1000 Ang^3
#
#
#
# Elastic Constant Matrix: (Units=GPa)
#
#
# Indices 1 2 3 4 5 6 
#
# 1 91.5045 22.9307 50.0503 0.0000 0.0000 0.0000
# 2 22.9307 80.9151 17.3606 0.0000 0.0000 0.0000
# 3 50.0503 17.3606 104.6378 0.0000 0.0000 0.0000
# 4 0.0000 0.0000 0.0000 11.8838 0.0000 0.0000
# 5 0.0000 0.0000 0.0000 0.0000 37.8385 0.0000
# 6 0.0000 0.0000 0.0000 0.0000 0.0000 14.4655
#
#
#
# Elastic Compliance Matrix: (Units=1/GPa)
#
#
# Indices 1 2 3 4 5 6 
#
# 1 0.015427 -0.002892 -0.006899 0.000000 0.000000 0.000000
# 2 -0.002892 0.013357 -0.000833 0.000000 0.000000 0.000000
# 3 -0.006899 -0.000833 0.012995 0.000000 0.000000 0.000000
# 4 0.000000 0.000000 0.000000 0.084148 0.000000 0.000000
# 5 0.000000 0.000000 0.000000 0.000000 0.026428 0.000000
# 6 0.000000 0.000000 0.000000 0.000000 0.000000 0.069130
#
#
# Mechanical properties :
#
#
# Convention : Reuss Voigt Hill
#
# Bulk Modulus (GPa) = 48.70655 50.86006 49.78331
# Shear Modulus (GPa) = 20.03398 25.28526 22.65962
#
# Velocity S-wave (km/s) = 3.20666 3.60249 3.41032
# Velocity P-wave (km/s) = 6.22169 6.58851 6.40772
#
# Compressibility (1/GPa) = 0.02053112
#
# Stress axis : x y z
#
# Youngs Moduli (GPa) = 64.82282 74.86831 76.95291
#
# Poissons Ratio (x) = 0.21649 0.53091
# Poissons Ratio (y) = 0.18744 0.06410
# Poissons Ratio (z) = 0.44722 0.06236
#
# Static dielectric constant tensor:
#      x y z
#    x 3.663040 0.000000 0.000000 
#    y 0.000000 3.619070 0.000000 
#    z 0.000000 0.000000 3.533210 
# 
# 
# High freq. dielectric constant tensor:
#      x y z
#    x 1.746230 0.000000 0.000000 
#    y 0.000000 1.748490 0.000000 
#    z 0.000000 0.000000 1.761490 
# 
# From -- ./inp_files/20603.got.cif
#   From: 2010.03.12/outbox.cif.g09.slc.cpg/sg53_11_cif.got.tgz:20603.got - 2010.04.16 14:36:59.
