data_PCOD8219417
_publ_section_title
;
Structure prediction by ZEFSAII (Michael W. Deem and Ramdas Pophale) SiO2 
 PCOD8219417
Probable space group: P M N A
;
_chemical_formula_sum "Si O2"
_cell_formula_units_Z 56
_cell_length_a 8.877638
_cell_length_b 19.122559
_cell_length_c 17.793641
_cell_angle_alpha 90.000000
_cell_angle_beta 90.000000
_cell_angle_gamma 90.000000
_cell_volume 3020.704661
_symmetry_space_group_name_H-M "P M N A"
_symmetry_group_IT_number 53
_symmetry_cell_setting 'orthorhombic'
loop_
_space_group_symop_operation_xyz
x,y,z
1/2-x,-y,1/2+z
x,-y,-z
1/2-x,y,1/2-z
-x,-y,-z
1/2+x,y,1/2-z
-x,y,z
1/2+x,-y,1/2+z
loop_
_atom_site_type_symbol
_atom_site_label
_atom_site_fract_x
_atom_site_fract_y
_atom_site_fract_z
Si Si1 0.177486 0.842282 0.469848
Si Si2 0.177982 0.338518 0.329639
Si Si3 0.670776 0.427352 0.966650
Si Si4 0.177355 0.707285 0.976028
Si Si5 0.678274 0.059752 0.830380
Si Si6 0.669433 0.949630 0.570642
Si Si7 0.666376 0.505414 0.821581
O O1 0.253572 0.766373 0.469722
O O2 0.219450 0.880299 0.391291
O O3 0.238969 0.881842 0.543890
O O4 0.000000 0.835191 0.478126
O O5 0.250000 0.317910 0.250000
O O6 0.249532 0.288888 0.393223
O O7 0.225317 0.418822 0.351573
O O8 0.000000 0.325743 0.327221
O O9 0.500000 0.410570 0.996260
O O10 0.671794 0.440707 0.878052
O O11 0.730065 0.500000 0.000000
O O12 0.784943 0.366229 0.985232
O O13 0.000000 0.717257 0.969858
O O14 0.750000 0.079925 0.750000
O O15 0.500000 0.051490 0.821480
O O16 0.746427 0.986247 0.859422
O O17 0.500000 0.928892 0.595642
O O18 0.663787 0.000000 0.500000
O O19 0.750000 0.476421 0.750000
O O20 0.500000 0.522433 0.794173
#
# Coordination Sequence:
#
# PCOD8219417 Si02
#       7
#     8   8   8   8   8   8   8
#     4  10  21  38  58  81 113 154 193 231 278 335
#     4  10  19  35  55  78 105 137 176 223 278 338
#     4  10  19  36  56  76 104 142 185 232 287 340
#     4  12  24  36  54  82 112 148 190 235 285 341
#     4  10  20  35  59  89 118 151 191 231 275 326
#     4   9  17  32  56  84 113 143 178 222 267 316
#     4   9  18  32  53  76 101 133 171 222 281 336
#
# _framework density 18.538722
#
# number of rings (size 3 to 8) (size 9 to 14) (size 15 to 20)
#    0.000    2.000    1.429    3.000    0.000    4.857 
#    0.000    1.429    0.000    0.000    0.000    0.000 
#    0.000    0.000    0.000    0.000    0.000    0.000 
#
# Total GULP energy -694259.307564 kJ/mol
# GULP energy per Si atom -12397.487635 kJ/mol
# Density = 1.849653 g / cm^3
# Si number density = 18.538722 Si / 1000 Ang^3
#
#
#
# Elastic Constant Matrix: (Units=GPa)
#
#
# Indices 1 2 3 4 5 6 
#
# 1 122.2146 46.3670 59.8477 0.0000 0.0000 0.0000
# 2 46.3670 88.3001 46.8024 0.0000 0.0000 0.0000
# 3 59.8477 46.8024 103.6732 0.0000 0.0000 0.0000
# 4 0.0000 0.0000 0.0000 14.2671 0.0000 0.0000
# 5 0.0000 0.0000 0.0000 0.0000 33.4106 0.0000
# 6 0.0000 0.0000 0.0000 0.0000 0.0000 28.2456
#
#
#
# Elastic Compliance Matrix: (Units=1/GPa)
#
#
# Indices 1 2 3 4 5 6 
#
# 1 0.012181 -0.003509 -0.005448 0.000000 0.000000 0.000000
# 2 -0.003509 0.015898 -0.005151 0.000000 0.000000 0.000000
# 3 -0.005448 -0.005151 0.015116 0.000000 0.000000 0.000000
# 4 0.000000 0.000000 0.000000 0.070092 0.000000 0.000000
# 5 0.000000 0.000000 0.000000 0.000000 0.029931 0.000000
# 6 0.000000 0.000000 0.000000 0.000000 0.000000 0.035404
#
#
# Mechanical properties :
#
#
# Convention : Reuss Voigt Hill
#
# Bulk Modulus (GPa) = 66.75975 68.91357 67.83666
# Shear Modulus (GPa) = 23.60371 25.92936 24.76654
#
# Velocity S-wave (km/s) = 3.57208 3.74392 3.65901
# Velocity P-wave (km/s) = 7.28712 7.47949 7.38393
#
# Compressibility (1/GPa) = 0.01497909
#
# Stress axis : x y z
#
# Youngs Moduli (GPa) = 82.09251 62.90085 66.15427
#
# Poissons Ratio (x) = 0.22072 0.36040
# Poissons Ratio (y) = 0.28806 0.34079
# Poissons Ratio (z) = 0.44723 0.32403
#
# Static dielectric constant tensor:
#      x y z
#    x 3.476540 0.000000 0.000000 
#    y 0.000000 3.289940 0.000000 
#    z 0.000000 0.000000 3.550820 
# 
# 
# High freq. dielectric constant tensor:
#      x y z
#    x 1.727320 0.000000 0.000000 
#    y 0.000000 1.698210 0.000000 
#    z 0.000000 0.000000 1.715900 
# 
# From -- ./inp_files/26718.got.cif
#   From: 2010.03.12/outbox.cif.g09.slc.cpg/sg53_14_cif.got.tgz:26718.got - 2010.04.16 14:36:59.
