data_PCOD8219971
_publ_section_title
;
Structure prediction by ZEFSAII (Michael W. Deem and Ramdas Pophale) SiO2 
 PCOD8219971
Probable space group: P M N A
;
_chemical_formula_sum "Si O2"
_cell_formula_units_Z 48
_cell_length_a 22.173519
_cell_length_b 9.948026
_cell_length_c 11.212751
_cell_angle_alpha 90.000000
_cell_angle_beta 90.000000
_cell_angle_gamma 90.000000
_cell_volume 2473.339378
_symmetry_space_group_name_H-M "P M N A"
_symmetry_group_IT_number 53
_symmetry_cell_setting 'orthorhombic'
loop_
_space_group_symop_operation_xyz
x,y,z
1/2-x,-y,1/2+z
x,-y,-z
1/2-x,y,1/2-z
-x,-y,-z
1/2+x,y,1/2-z
-x,y,z
1/2+x,-y,1/2+z
loop_
_atom_site_type_symbol
_atom_site_label
_atom_site_fract_x
_atom_site_fract_y
_atom_site_fract_z
Si Si1 0.570513 0.139730 0.762421
Si Si2 0.344310 0.357949 0.691851
Si Si3 0.430981 0.165210 0.244274
Si Si4 0.273193 0.364529 0.933854
Si Si5 0.068323 0.432206 0.128963
Si Si6 0.138669 0.847175 0.506133
O O1 0.500000 0.175250 0.750810
O O2 0.609769 0.233387 0.675150
O O3 0.583763 0.987863 0.717731
O O4 0.591531 0.172177 0.897454
O O5 0.302820 0.352026 0.805782
O O6 0.299707 0.358085 0.577084
O O7 0.383747 0.492153 0.711185
O O8 0.500000 0.173143 0.204085
O O9 0.418511 0.271610 0.352998
O O10 0.393147 0.199848 0.127146
O O11 0.292541 0.500000 0.000000
O O12 0.299752 0.238151 0.004989
O O13 0.000000 0.461756 0.170090
O O14 0.079097 0.500000 0.000000
O O15 0.160434 0.000000 0.500000
#
# Coordination Sequence:
#
# PCOD8219971 Si02
#       6
#     8   8   8   8   8   8
#     4   9  17  31  53  80 107 133 163 207 266 324
#     4  10  20  34  51  71  99 133 169 211 253 299
#     4   9  17  31  53  80 106 132 165 208 263 323
#     4  10  20  34  51  71  98 133 171 209 251 301
#     4  10  20  34  51  71  98 132 170 211 252 299
#     4   9  17  31  53  80 107 131 161 209 267 323
#
# _framework density 19.406960999999999
#
# number of rings (size 3 to 8) (size 9 to 14) (size 15 to 20)
#    0.000    2.500    0.000    2.500    0.000    2.000 
#    0.000    4.167    0.000   20.000    0.000    0.000 
#    0.000    0.000    0.000    0.000    0.000    0.000 
#
# Total GULP energy -594702.234904 kJ/mol
# GULP energy per Si atom -12389.629894 kJ/mol
# Density = 1.936279 g / cm^3
# Si number density = 19.406961 Si / 1000 Ang^3
#
#
#
# Elastic Constant Matrix: (Units=GPa)
#
#
# Indices 1 2 3 4 5 6 
#
# 1 113.5075 71.8871 18.8831 0.0000 0.0000 0.0000
# 2 71.8871 144.8285 38.3331 0.0000 0.0000 0.0000
# 3 18.8831 38.3331 41.3396 0.0000 0.0000 0.0000
# 4 0.0000 0.0000 0.0000 31.4778 0.0000 0.0000
# 5 0.0000 0.0000 0.0000 0.0000 8.6158 0.0000
# 6 0.0000 0.0000 0.0000 0.0000 0.0000 31.5416
#
#
#
# Elastic Compliance Matrix: (Units=1/GPa)
#
#
# Indices 1 2 3 4 5 6 
#
# 1 0.012849 -0.006394 0.000059 0.000000 0.000000 0.000000
# 2 -0.006394 0.012332 -0.008515 0.000000 0.000000 0.000000
# 3 0.000059 -0.008515 0.032058 0.000000 0.000000 0.000000
# 4 0.000000 0.000000 0.000000 0.031768 0.000000 0.000000
# 5 0.000000 0.000000 0.000000 0.000000 0.116065 0.000000
# 6 0.000000 0.000000 0.000000 0.000000 0.000000 0.031704
#
#
# Mechanical properties :
#
#
# Convention : Reuss Voigt Hill
#
# Bulk Modulus (GPa) = 36.30869 61.98691 49.14780
# Shear Modulus (GPa) = 18.13859 25.69853 21.91856
#
# Velocity S-wave (km/s) = 3.06051 3.64289 3.36433
# Velocity P-wave (km/s) = 5.58916 7.05011 6.36171
#
# Compressibility (1/GPa) = 0.02754162
#
# Stress axis : x y z
#
# Youngs Moduli (GPa) = 77.82494 81.09073 31.19339
#
# Poissons Ratio (x) = 0.51846 -0.00185
# Poissons Ratio (y) = 0.49758 0.26560
# Poissons Ratio (z) = -0.00462 0.69045
#
# Static dielectric constant tensor:
#      x y z
#    x 3.875030 0.000000 0.000000 
#    y 0.000000 3.764810 0.000000 
#    z 0.000000 0.000000 3.501360 
# 
# 
# High freq. dielectric constant tensor:
#      x y z
#    x 1.762640 0.000000 0.000000 
#    y 0.000000 1.762030 0.000000 
#    z 0.000000 0.000000 1.729400 
# 
# From -- ./inp_files/18279.got.cif
#   From: 2010.03.12/outbox.cif.g09.slc.cpg/sg53_10_cif.got.tgz:18279.got - 2010.04.16 14:36:59.
