data_PCOD8219290
_publ_section_title
;
Structure prediction by ZEFSAII (Michael W. Deem and Ramdas Pophale) SiO2 
 PCOD8219290
Probable space group: P M N A
;
_chemical_formula_sum "Si O2"
_cell_formula_units_Z 48
_cell_length_a 8.690956
_cell_length_b 31.047418
_cell_length_c 9.613228
_cell_angle_alpha 90.000000
_cell_angle_beta 90.000000
_cell_angle_gamma 90.000000
_cell_volume 2593.954074
_symmetry_space_group_name_H-M "P M N A"
_symmetry_group_IT_number 53
_symmetry_cell_setting 'orthorhombic'
loop_
_space_group_symop_operation_xyz
x,y,z
1/2-x,-y,1/2+z
x,-y,-z
1/2-x,y,1/2-z
-x,-y,-z
1/2+x,y,1/2-z
-x,y,z
1/2+x,-y,1/2+z
loop_
_atom_site_type_symbol
_atom_site_label
_atom_site_fract_x
_atom_site_fract_y
_atom_site_fract_z
Si Si1 0.682514 0.723673 0.904963
Si Si2 0.817686 0.132710 0.399258
Si Si3 0.317962 0.462715 0.097440
Si Si4 0.818968 0.965048 0.605473
Si Si5 0.317375 0.202982 0.596108
Si Si6 0.678547 0.369972 0.101199
O O1 0.750000 0.729250 0.750000
O O2 0.500000 0.732632 0.899553
O O3 0.720690 0.675840 0.970233
O O4 0.763954 0.755988 0.008911
O O5 0.750000 0.147029 0.250000
O O6 0.770522 0.083566 0.433757
O O7 0.743759 0.160179 0.521934
O O8 0.000000 0.139752 0.395399
O O9 0.250000 0.468142 0.250000
O O10 0.500000 0.467863 0.108754
O O11 0.272217 0.415551 0.029683
O O12 0.247538 0.500000 0.000000
O O13 0.750000 0.979226 0.750000
O O14 0.000000 0.968563 0.614351
O O15 0.749788 0.000000 0.500000
O O16 0.250000 0.205734 0.750000
O O17 0.500000 0.201699 0.604341
O O18 0.750000 0.369045 0.250000
O O19 0.500000 0.371339 0.126755
#
# Coordination Sequence:
#
# PCOD8219290 Si02
#       6
#     8   8   8   8   8   8
#     4  10  19  34  56  80 104 133 172 214 258 308
#     4  10  20  37  59  82 109 142 181 220 258 304
#     4   9  17  30  48  71 100 132 167 207 250 297
#     4   9  19  35  55  81 111 142 177 216 257 303
#     4  12  25  40  56  77 106 138 173 214 264 315
#     4   8  15  28  48  72  98 129 166 208 249 294
#
# _framework density 18.504567999999999
#
# number of rings (size 3 to 8) (size 9 to 14) (size 15 to 20)
#    0.000    2.333    0.000    3.000    0.000    2.667 
#    0.000    2.500    0.000    2.000    0.000    0.000 
#    0.000    0.000    0.000    0.000    0.000    0.000 
#
# Total GULP energy -594706.105167 kJ/mol
# GULP energy per Si atom -12389.710524 kJ/mol
# Density = 1.846245 g / cm^3
# Si number density = 18.504568 Si / 1000 Ang^3
#
#
#
# Elastic Constant Matrix: (Units=GPa)
#
#
# Indices 1 2 3 4 5 6 
#
# 1 67.2271 44.3218 43.4793 0.0000 0.0000 0.0000
# 2 44.3218 159.3987 88.6809 0.0000 0.0000 0.0000
# 3 43.4793 88.6809 119.0680 0.0000 0.0000 0.0000
# 4 0.0000 0.0000 0.0000 30.2768 0.0000 0.0000
# 5 0.0000 0.0000 0.0000 0.0000 29.6428 0.0000
# 6 0.0000 0.0000 0.0000 0.0000 0.0000 18.2622
#
#
#
# Elastic Compliance Matrix: (Units=1/GPa)
#
#
# Indices 1 2 3 4 5 6 
#
# 1 0.020071 -0.002567 -0.005417 0.000000 0.000000 0.000000
# 2 -0.002567 0.011041 -0.007286 0.000000 0.000000 0.000000
# 3 -0.005417 -0.007286 0.015803 0.000000 0.000000 0.000000
# 4 0.000000 0.000000 0.000000 0.033029 0.000000 0.000000
# 5 0.000000 0.000000 0.000000 0.000000 0.033735 0.000000
# 6 0.000000 0.000000 0.000000 0.000000 0.000000 0.054758
#
#
# Mechanical properties :
#
#
# Convention : Reuss Voigt Hill
#
# Bulk Modulus (GPa) = 61.06931 77.62864 69.34898
# Shear Modulus (GPa) = 24.45773 26.91716 25.68745
#
# Velocity S-wave (km/s) = 3.63948 3.81809 3.72985
# Velocity P-wave (km/s) = 7.12285 7.84087 7.49047
#
# Compressibility (1/GPa) = 0.01637484
#
# Stress axis : x y z
#
# Youngs Moduli (GPa) = 49.82317 90.57422 63.27881
#
# Poissons Ratio (x) = 0.23250 0.34281
# Poissons Ratio (y) = 0.12789 0.46103
# Poissons Ratio (z) = 0.26991 0.65989
#
# Static dielectric constant tensor:
#      x y z
#    x 3.569660 0.000000 0.000000 
#    y 0.000000 4.281170 0.000000 
#    z 0.000000 0.000000 3.266260 
# 
# 
# High freq. dielectric constant tensor:
#      x y z
#    x 1.723120 0.000000 0.000000 
#    y 0.000000 1.746670 0.000000 
#    z 0.000000 0.000000 1.688100 
# 
# From -- ./inp_files/6717.got.cif
#   From: 2010.03.12/outbox.cif.g09.slc.cpg/sg53_4_cif.got.tgz:6717.got - 2010.04.16 14:36:59.
