data_PCOD8219980
_publ_section_title
;
Structure prediction by ZEFSAII (Michael W. Deem and Ramdas Pophale) SiO2 
 PCOD8219980
Probable space group: P M N A
;
_chemical_formula_sum "Si O2"
_cell_formula_units_Z 56
_cell_length_a 8.915539
_cell_length_b 17.153954
_cell_length_c 19.889946
_cell_angle_alpha 90.000000
_cell_angle_beta 90.000000
_cell_angle_gamma 90.000000
_cell_volume 3041.903617
_symmetry_space_group_name_H-M "P M N A"
_symmetry_group_IT_number 53
_symmetry_cell_setting 'orthorhombic'
loop_
_space_group_symop_operation_xyz
x,y,z
1/2-x,-y,1/2+z
x,-y,-z
1/2-x,y,1/2-z
-x,-y,-z
1/2+x,y,1/2-z
-x,y,z
1/2+x,-y,1/2+z
loop_
_atom_site_type_symbol
_atom_site_label
_atom_site_fract_x
_atom_site_fract_y
_atom_site_fract_z
Si Si1 0.176844 0.441408 0.680691
Si Si2 0.674718 0.815726 0.318849
Si Si3 0.323091 0.950715 0.407480
Si Si4 0.322453 0.114525 0.451113
Si Si5 0.174821 0.621009 0.682158
Si Si6 0.176716 0.676568 0.082528
Si Si7 0.177759 0.722876 0.556084
O O1 0.250000 0.410298 0.750000
O O2 0.219102 0.531386 0.669475
O O3 0.245312 0.396952 0.617243
O O4 0.000000 0.426796 0.684547
O O5 0.750000 0.790664 0.250000
O O6 0.500000 0.818243 0.304867
O O7 0.735428 0.900526 0.343878
O O8 0.716106 0.753688 0.375716
O O9 0.500000 0.943033 0.412814
O O10 0.262779 0.911078 0.475652
O O11 0.280637 0.042123 0.401301
O O12 0.500000 0.132850 0.450543
O O13 0.231334 0.189709 0.427774
O O14 0.250000 0.653212 0.750000
O O15 0.230297 0.670874 0.618902
O O16 0.000000 0.630576 0.692744
O O17 0.000000 0.661875 0.078166
O O18 0.242023 0.686984 0.008554
O O19 0.000000 0.720762 0.545344
#
# Coordination Sequence:
#
# PCOD8219980 Si02
#       7
#     8   8   8   8   8   8   8
#     4  10  20  37  58  80 109 145 185 225 272 325
#     4  10  20  34  51  75 108 144 181 220 265 319
#     4   8  15  31  54  75  99 137 181 219 258 316
#     4   9  16  32  57  78 100 137 180 219 264 320
#     4   9  21  40  60  80 106 143 181 223 276 334
#     4  11  22  36  55  80 110 146 189 226 268 328
#     4  11  22  36  55  83 115 141 175 229 284 324
#
# _framework density 18.409524999999999
#
# number of rings (size 3 to 8) (size 9 to 14) (size 15 to 20)
#    0.000    2.286    1.429    2.571    0.000    4.571 
#    0.000    5.714    0.000    3.429    0.000    0.000 
#    0.000    0.000    0.000    0.000    0.000    0.000 
#
# Total GULP energy -694319.459404 kJ/mol
# GULP energy per Si atom -12398.561775 kJ/mol
# Density = 1.836762 g / cm^3
# Si number density = 18.409525 Si / 1000 Ang^3
#
#
#
# Elastic Constant Matrix: (Units=GPa)
#
#
# Indices 1 2 3 4 5 6 
#
# 1 59.0947 48.1475 53.3581 0.0000 0.0000 0.0000
# 2 48.1475 112.9646 72.0513 0.0000 0.0000 0.0000
# 3 53.3581 72.0513 135.8465 0.0000 0.0000 0.0000
# 4 0.0000 0.0000 0.0000 78.1368 0.0000 0.0000
# 5 0.0000 0.0000 0.0000 0.0000 27.1481 0.0000
# 6 0.0000 0.0000 0.0000 0.0000 0.0000 22.6877
#
#
#
# Elastic Compliance Matrix: (Units=1/GPa)
#
#
# Indices 1 2 3 4 5 6 
#
# 1 0.030426 -0.008078 -0.007666 0.000000 0.000000 0.000000
# 2 -0.008078 0.015523 -0.005060 0.000000 0.000000 0.000000
# 3 -0.007666 -0.005060 0.013056 0.000000 0.000000 0.000000
# 4 0.000000 0.000000 0.000000 0.012798 0.000000 0.000000
# 5 0.000000 0.000000 0.000000 0.000000 0.036835 0.000000
# 6 0.000000 0.000000 0.000000 0.000000 0.000000 0.044077
#
#
# Mechanical properties :
#
#
# Convention : Reuss Voigt Hill
#
# Bulk Modulus (GPa) = 57.48536 72.77994 65.13265
# Shear Modulus (GPa) = 24.98475 34.55113 29.76794
#
# Velocity S-wave (km/s) = 3.68797 4.33691 4.02554
# Velocity P-wave (km/s) = 7.03054 8.04351 7.55402
#
# Compressibility (1/GPa) = 0.01739573
#
# Stress axis : x y z
#
# Youngs Moduli (GPa) = 32.86698 64.42078 76.59239
#
# Poissons Ratio (x) = 0.52042 0.58715
# Poissons Ratio (y) = 0.26551 0.38757
# Poissons Ratio (z) = 0.25196 0.32598
#
# Static dielectric constant tensor:
#      x y z
#    x 3.226250 0.000000 0.000000 
#    y 0.000000 3.651120 0.000000 
#    z 0.000000 0.000000 3.361530 
# 
# 
# High freq. dielectric constant tensor:
#      x y z
#    x 1.701420 0.000000 0.000000 
#    y 0.000000 1.722610 0.000000 
#    z 0.000000 0.000000 1.704770 
# 
# From -- ./inp_files/31029.got.cif
#   From: 2010.03.12/outbox.cif.g09.slc.cpg/sg53_16_cif.got.tgz:31029.got - 2010.04.16 14:36:59.
