data_PCOD8219874
_publ_section_title
;
Structure prediction by ZEFSAII (Michael W. Deem and Ramdas Pophale) SiO2 
 PCOD8219874
Probable space group: P M N A
;
_chemical_formula_sum "Si O2"
_cell_formula_units_Z 64
_cell_length_a 8.735858
_cell_length_b 20.421093
_cell_length_c 18.597043
_cell_angle_alpha 90.000000
_cell_angle_beta 90.000000
_cell_angle_gamma 90.000000
_cell_volume 3317.633781
_symmetry_space_group_name_H-M "P M N A"
_symmetry_group_IT_number 53
_symmetry_cell_setting 'orthorhombic'
loop_
_space_group_symop_operation_xyz
x,y,z
1/2-x,-y,1/2+z
x,-y,-z
1/2-x,y,1/2-z
-x,-y,-z
1/2+x,y,1/2-z
-x,y,z
1/2+x,-y,1/2+z
loop_
_atom_site_type_symbol
_atom_site_label
_atom_site_fract_x
_atom_site_fract_y
_atom_site_fract_z
Si Si1 0.818785 0.622313 0.171133
Si Si2 0.818675 0.375724 0.173274
Si Si3 0.318318 0.737785 0.432400
Si Si4 0.680324 0.261951 0.085445
Si Si5 0.321386 0.123800 0.409044
Si Si6 0.178048 0.116898 0.927994
Si Si7 0.682117 0.995916 0.327369
Si Si8 0.318556 0.499222 0.419252
O O1 0.750000 0.623097 0.250000
O O2 0.766648 0.687861 0.129421
O O3 0.754137 0.560398 0.126613
O O4 0.000000 0.618879 0.178058
O O5 0.750000 0.394295 0.250000
O O6 0.750613 0.307471 0.146789
O O7 0.767017 0.432295 0.118298
O O8 0.000000 0.370378 0.179139
O O9 0.500000 0.737480 0.444071
O O10 0.246404 0.716745 0.508264
O O11 0.257612 0.810240 0.410727
O O12 0.500000 0.269855 0.084426
O O13 0.723829 0.188168 0.107280
O O14 0.500000 0.140834 0.399245
O O15 0.289312 0.098468 0.489589
O O16 0.264858 0.066656 0.356176
O O17 0.000000 0.117403 0.911385
O O18 0.253041 0.061433 0.877684
O O19 0.750000 0.983728 0.250000
O O20 0.500000 0.993095 0.325950
O O21 0.249835 0.500000 0.500000
O O22 0.500000 0.505211 0.423074
#
# Coordination Sequence:
#
# PCOD8219874 Si02
#       8
#     8   8   8   8   8   8   8   8
#     4  10  20  34  54  81 112 145 179 218 265 315
#     4  11  22  37  57  80 110 145 180 219 265 318
#     4   9  18  35  58  80 106 144 185 219 258 314
#     4  11  22  36  56  82 109 136 174 224 273 321
#     4   9  18  35  57  76  99 137 182 221 259 311
#     4   8  15  31  55  78  98 131 180 221 252 298
#     4  10  20  33  51  76 106 138 173 216 264 315
#     4   9  18  34  57  81 105 139 183 224 262 311
#
# _framework density 19.290858
#
# number of rings (size 3 to 8) (size 9 to 14) (size 15 to 20)
#    0.000    2.375    0.000    3.750    0.000    5.500 
#    0.000    4.375    0.000    6.375    0.000    0.000 
#    0.000    0.000    0.000    0.000    0.000    0.000 
#
# Total GULP energy -793619.474001 kJ/mol
# GULP energy per Si atom -12400.304281 kJ/mol
# Density = 1.924695 g / cm^3
# Si number density = 19.290858 Si / 1000 Ang^3
#
#
#
# Elastic Constant Matrix: (Units=GPa)
#
#
# Indices 1 2 3 4 5 6 
#
# 1 46.8411 29.7197 29.7849 0.0000 0.0000 0.0000
# 2 29.7197 98.3095 55.9032 0.0000 0.0000 0.0000
# 3 29.7849 55.9032 121.3848 0.0000 0.0000 0.0000
# 4 0.0000 0.0000 0.0000 32.0065 0.0000 0.0000
# 5 0.0000 0.0000 0.0000 0.0000 32.5096 0.0000
# 6 0.0000 0.0000 0.0000 0.0000 0.0000 12.3211
#
#
#
# Elastic Compliance Matrix: (Units=1/GPa)
#
#
# Indices 1 2 3 4 5 6 
#
# 1 0.027775 -0.006125 -0.003994 0.000000 0.000000 0.000000
# 2 -0.006125 0.015132 -0.005466 0.000000 0.000000 0.000000
# 3 -0.003994 -0.005466 0.011736 0.000000 0.000000 0.000000
# 4 0.000000 0.000000 0.000000 0.031244 0.000000 0.000000
# 5 0.000000 0.000000 0.000000 0.000000 0.030760 0.000000
# 6 0.000000 0.000000 0.000000 0.000000 0.000000 0.081162
#
#
# Mechanical properties :
#
#
# Convention : Reuss Voigt Hill
#
# Bulk Modulus (GPa) = 42.60485 55.26125 48.93305
# Shear Modulus (GPa) = 21.11460 25.44260 23.27860
#
# Velocity S-wave (km/s) = 3.31197 3.63560 3.47755
# Velocity P-wave (km/s) = 6.06292 6.80676 6.44558
#
# Compressibility (1/GPa) = 0.02347150
#
# Stress axis : x y z
#
# Youngs Moduli (GPa) = 36.00358 66.08593 85.21016
#
# Poissons Ratio (x) = 0.40479 0.34036
# Poissons Ratio (y) = 0.22053 0.46575
# Poissons Ratio (z) = 0.14381 0.36122
#
# Static dielectric constant tensor:
#      x y z
#    x 3.169320 0.000000 0.000000 
#    y 0.000000 3.845630 0.000000 
#    z 0.000000 0.000000 3.654840 
# 
# 
# High freq. dielectric constant tensor:
#      x y z
#    x 1.715870 0.000000 0.000000 
#    y 0.000000 1.767460 0.000000 
#    z 0.000000 0.000000 1.754090 
# 
# From -- ./inp_files/26978.got.cif
#   From: 2010.03.12/outbox.cif.g09.slc.cpg/sg53_14_cif.got.tgz:26978.got - 2010.04.16 14:36:59.
