data_PCOD8219463
_publ_section_title
;
Structure prediction by ZEFSAII (Michael W. Deem and Ramdas Pophale) SiO2 
 PCOD8219463
Probable space group: P M N A
;
_chemical_formula_sum "Si O2"
_cell_formula_units_Z 56
_cell_length_a 14.629243
_cell_length_b 9.795358
_cell_length_c 19.194900
_cell_angle_alpha 90.000000
_cell_angle_beta 90.000000
_cell_angle_gamma 90.000000
_cell_volume 2750.603688
_symmetry_space_group_name_H-M "P M N A"
_symmetry_group_IT_number 53
_symmetry_cell_setting 'orthorhombic'
loop_
_space_group_symop_operation_xyz
x,y,z
1/2-x,-y,1/2+z
x,-y,-z
1/2-x,y,1/2-z
-x,-y,-z
1/2+x,y,1/2-z
-x,y,z
1/2+x,-y,1/2+z
loop_
_atom_site_type_symbol
_atom_site_label
_atom_site_fract_x
_atom_site_fract_y
_atom_site_fract_z
Si Si1 0.606207 0.017847 0.788463
Si Si2 0.605596 0.889672 0.059651
Si Si3 0.265452 0.612490 0.593947
Si Si4 0.263743 0.309070 0.554321
Si Si5 0.601108 0.724619 0.826966
Si Si6 0.349850 0.510170 0.721377
Si Si7 0.396174 0.780383 0.329022
O O1 0.500000 0.049913 0.783909
O O2 0.640723 0.057409 0.865390
O O3 0.648515 0.109696 0.725521
O O4 0.628767 0.856906 0.780125
O O5 0.500000 0.845542 0.061274
O O6 0.666220 0.759501 0.042682
O O7 0.623830 0.000000 0.000000
O O8 0.238369 0.453458 0.587932
O O9 0.308450 0.670780 0.522530
O O10 0.175514 0.700453 0.613056
O O11 0.341656 0.612597 0.654704
O O12 0.333583 0.221979 0.601724
O O13 0.500000 0.750809 0.860696
O O14 0.592862 0.592673 0.778086
O O15 0.250000 0.474516 0.750000
O O16 0.400637 0.369363 0.705412
O O17 0.500000 0.820450 0.350264
#
# Coordination Sequence:
#
# PCOD8219463 Si02
#       7
#     8   8   8   8   8   8   8
#     4   9  20  35  54  82 114 147 191 239 284 347
#     4  10  21  37  56  83 119 153 190 236 289 358
#     4   9  20  37  54  81 118 147 193 247 284 352
#     4  10  21  38  58  82 116 157 198 240 293 348
#     4  10  19  35  58  83 116 151 184 236 301 350
#     4   9  19  35  55  83 115 149 194 245 294 350
#     4  10  21  38  59  85 116 152 203 250 289 344
#
# _framework density 20.359166999999999
#
# number of rings (size 3 to 8) (size 9 to 14) (size 15 to 20)
#    0.000    2.429    0.000    1.286    6.000    2.286 
#   10.286    7.857    0.000    0.429    0.000    0.000 
#    0.000    0.000    0.000    0.000    0.000    0.000 
#
# Total GULP energy -694063.492909 kJ/mol
# GULP energy per Si atom -12393.990945 kJ/mol
# Density = 2.031283 g / cm^3
# Si number density = 20.359167 Si / 1000 Ang^3
#
#
#
# Elastic Constant Matrix: (Units=GPa)
#
#
# Indices 1 2 3 4 5 6 
#
# 1 63.0388 27.1830 31.7087 0.0000 0.0000 0.0000
# 2 27.1830 64.2940 31.1024 0.0000 0.0000 0.0000
# 3 31.7087 31.1024 127.9465 0.0000 0.0000 0.0000
# 4 0.0000 0.0000 0.0000 31.3418 0.0000 0.0000
# 5 0.0000 0.0000 0.0000 0.0000 21.1421 0.0000
# 6 0.0000 0.0000 0.0000 0.0000 0.0000 20.6947
#
#
#
# Elastic Compliance Matrix: (Units=1/GPa)
#
#
# Indices 1 2 3 4 5 6 
#
# 1 0.020621 -0.007078 -0.003390 0.000000 0.000000 0.000000
# 2 -0.007078 0.020056 -0.003121 0.000000 0.000000 0.000000
# 3 -0.003390 -0.003121 0.009415 0.000000 0.000000 0.000000
# 4 0.000000 0.000000 0.000000 0.031906 0.000000 0.000000
# 5 0.000000 0.000000 0.000000 0.000000 0.047299 0.000000
# 6 0.000000 0.000000 0.000000 0.000000 0.000000 0.048321
#
#
# Mechanical properties :
#
#
# Convention : Reuss Voigt Hill
#
# Bulk Modulus (GPa) = 43.64401 48.36306 46.00353
# Shear Modulus (GPa) = 23.53670 25.65473 24.59572
#
# Velocity S-wave (km/s) = 3.40380 3.55365 3.47953
# Velocity P-wave (km/s) = 6.07712 6.37530 6.22799
#
# Compressibility (1/GPa) = 0.02291265
#
# Stress axis : x y z
#
# Youngs Moduli (GPa) = 48.49529 49.86002 106.21856
#
# Poissons Ratio (x) = 0.35293 0.36004
# Poissons Ratio (y) = 0.34327 0.33153
# Poissons Ratio (z) = 0.16438 0.15562
#
# Static dielectric constant tensor:
#      x y z
#    x 3.408410 0.000000 0.000000 
#    y 0.000000 3.627090 0.000000 
#    z 0.000000 0.000000 4.038580 
# 
# 
# High freq. dielectric constant tensor:
#      x y z
#    x 1.772010 0.000000 0.000000 
#    y 0.000000 1.792810 0.000000 
#    z 0.000000 0.000000 1.801590 
# 
# From -- ./inp_files/32408.got.cif
#   From: 2010.03.12/outbox.cif.g09.slc.cpg/sg53_17_cif.got.tgz:32408.got - 2010.04.16 14:36:59.
