data_PCOD8219086
_publ_section_title
;
Structure prediction by ZEFSAII (Michael W. Deem and Ramdas Pophale) SiO2 
 PCOD8219086
Probable space group: P M N A
;
_chemical_formula_sum "Si O2"
_cell_formula_units_Z 48
_cell_length_a 8.619149
_cell_length_b 15.145729
_cell_length_c 19.320082
_cell_angle_alpha 90.000000
_cell_angle_beta 90.000000
_cell_angle_gamma 90.000000
_cell_volume 2522.107163
_symmetry_space_group_name_H-M "P M N A"
_symmetry_group_IT_number 53
_symmetry_cell_setting 'orthorhombic'
loop_
_space_group_symop_operation_xyz
x,y,z
1/2-x,-y,1/2+z
x,-y,-z
1/2-x,y,1/2-z
-x,-y,-z
1/2+x,y,1/2-z
-x,y,z
1/2+x,-y,1/2+z
loop_
_atom_site_type_symbol
_atom_site_label
_atom_site_fract_x
_atom_site_fract_y
_atom_site_fract_z
Si Si1 0.317336 0.374190 0.175576
Si Si2 0.184088 0.560795 0.175209
Si Si3 0.316093 0.039745 0.429133
Si Si4 0.184025 0.108008 0.826124
Si Si5 0.816227 0.726039 0.087730
Si Si6 0.815869 0.759906 0.932701
O O1 0.250000 0.347697 0.250000
O O2 0.500000 0.384140 0.182351
O O3 0.247354 0.466867 0.149420
O O4 0.274029 0.299279 0.121694
O O5 0.250000 0.586223 0.250000
O O6 0.241612 0.634313 0.120830
O O7 0.000000 0.556654 0.179841
O O8 0.500000 0.036724 0.435032
O O9 0.261587 0.140011 0.418454
O O10 0.245238 0.000000 0.500000
O O11 0.258604 0.980712 0.364781
O O12 0.250000 0.108154 0.750000
O O13 0.250545 0.192282 0.867871
O O14 0.000000 0.111882 0.822585
O O15 0.000000 0.732242 0.088659
O O16 0.758301 0.731790 0.008939
O O17 0.000000 0.747876 0.923983
#
# Coordination Sequence:
#
# PCOD8219086 Si02
#       6
#     8   8   8   8   8   8
#     4  11  23  40  58  79 107 142 182 228 276 328
#     4  10  19  34  55  80 108 144 183 225 272 324
#     4   9  16  31  57  81 105 143 188 225 262 315
#     4  10  19  33  53  82 112 143 182 224 269 321
#     4   9  18  32  55  82 110 143 183 221 265 327
#     4  10  19  35  59  84 108 143 185 228 269 319
#
# _framework density 19.031704999999999
#
# number of rings (size 3 to 8) (size 9 to 14) (size 15 to 20)
#    0.000    2.167    1.667    3.500    0.000    1.333 
#    0.000    9.167    0.000    1.000    0.000    0.000 
#    0.000    0.000    0.000    0.000    0.000    0.000 
#
# Total GULP energy -595217.280305 kJ/mol
# GULP energy per Si atom -12400.360006 kJ/mol
# Density = 1.898839 g / cm^3
# Si number density = 19.031705 Si / 1000 Ang^3
#
#
#
# Elastic Constant Matrix: (Units=GPa)
#
#
# Indices 1 2 3 4 5 6 
#
# 1 56.3061 36.3548 27.9970 0.0000 0.0000 0.0000
# 2 36.3548 175.1521 103.0150 0.0000 0.0000 0.0000
# 3 27.9970 103.0150 148.2808 0.0000 0.0000 0.0000
# 4 0.0000 0.0000 0.0000 42.9837 0.0000 0.0000
# 5 0.0000 0.0000 0.0000 0.0000 28.9992 0.0000
# 6 0.0000 0.0000 0.0000 0.0000 0.0000 20.5696
#
#
#
# Elastic Compliance Matrix: (Units=1/GPa)
#
#
# Indices 1 2 3 4 5 6 
#
# 1 0.020721 -0.003381 -0.001563 0.000000 0.000000 0.000000
# 2 -0.003381 0.010206 -0.006452 0.000000 0.000000 0.000000
# 3 -0.001563 -0.006452 0.011521 0.000000 0.000000 0.000000
# 4 0.000000 0.000000 0.000000 0.023265 0.000000 0.000000
# 5 0.000000 0.000000 0.000000 0.000000 0.034484 0.000000
# 6 0.000000 0.000000 0.000000 0.000000 0.000000 0.048615
#
#
# Mechanical properties :
#
#
# Convention : Reuss Voigt Hill
#
# Bulk Modulus (GPa) = 50.87759 79.38584 65.13172
# Shear Modulus (GPa) = 28.06534 32.66865 30.36699
#
# Velocity S-wave (km/s) = 3.84430 4.14761 3.99883
# Velocity P-wave (km/s) = 6.81879 8.04611 7.45774
#
# Compressibility (1/GPa) = 0.01965502
#
# Stress axis : x y z
#
# Youngs Moduli (GPa) = 48.26124 97.98366 86.79552
#
# Poissons Ratio (x) = 0.33133 0.13567
# Poissons Ratio (y) = 0.16319 0.55999
# Poissons Ratio (z) = 0.07543 0.63217
#
# Static dielectric constant tensor:
#      x y z
#    x 3.127730 0.000000 0.000000 
#    y 0.000000 3.787290 0.000000 
#    z 0.000000 0.000000 3.589300 
# 
# 
# High freq. dielectric constant tensor:
#      x y z
#    x 1.706270 0.000000 0.000000 
#    y 0.000000 1.755110 0.000000 
#    z 0.000000 0.000000 1.745560 
# 
# From -- ./inp_files/26205.got.cif
#   From: 2010.03.12/outbox.cif.g09.slc.cpg/sg53_14_cif.got.tgz:26205.got - 2010.04.16 14:36:59.
