data_PCOD8219020
_publ_section_title
;
Structure prediction by ZEFSAII (Michael W. Deem and Ramdas Pophale) SiO2 
 PCOD8219020
Probable space group: P M N A
;
_chemical_formula_sum "Si O2"
_cell_formula_units_Z 40
_cell_length_a 16.527084
_cell_length_b 13.303707
_cell_length_c 8.587569
_cell_angle_alpha 90.000000
_cell_angle_beta 90.000000
_cell_angle_gamma 90.000000
_cell_volume 1888.161532
_symmetry_space_group_name_H-M "P M N A"
_symmetry_group_IT_number 53
_symmetry_cell_setting 'orthorhombic'
loop_
_space_group_symop_operation_xyz
x,y,z
1/2-x,-y,1/2+z
x,-y,-z
1/2-x,y,1/2-z
-x,-y,-z
1/2+x,y,1/2-z
-x,y,z
1/2+x,-y,1/2+z
loop_
_atom_site_type_symbol
_atom_site_label
_atom_site_fract_x
_atom_site_fract_y
_atom_site_fract_z
Si Si1 0.159623 0.393025 0.814142
Si Si2 0.904915 0.188428 0.857691
Si Si3 0.592694 0.405185 0.347170
Si Si4 0.837950 0.792997 0.805114
Si Si5 0.410546 0.009996 0.182140
O O1 0.250000 0.389305 0.750000
O O2 0.114192 0.290595 0.760219
O O3 0.116993 0.495135 0.748318
O O4 0.151787 0.397919 0.002358
O O5 0.000000 0.185164 0.900385
O O6 0.877049 0.092924 0.756527
O O7 0.849662 0.186312 0.011607
O O8 0.500000 0.413150 0.402127
O O9 0.605593 0.301513 0.251475
O O10 0.750000 0.759444 0.750000
O O11 0.855169 0.895873 0.717508
O O12 0.500000 0.030732 0.250232
O O13 0.413480 0.000000 0.000000
#
# Coordination Sequence:
#
# PCOD8219020 Si02
#       5
#     8   8   8   8   8
#     4  10  19  32  56  88 117 144 189 247 294 336
#     4  10  21  40  63  85 116 163 206 236 287 365
#     4  10  20  38  60  83 115 158 200 233 285 361
#     4  11  22  35  58  89 117 149 197 251 299 344
#     4  10  22  39  59  84 117 156 198 244 293 353
#
# _framework density 21.184628
#
# number of rings (size 3 to 8) (size 9 to 14) (size 15 to 20)
#    0.000    1.800    0.000    6.600    0.000    7.200 
#    0.000    0.000    0.000    0.000    0.000   30.800 
#    0.000    0.000    0.000    0.000    0.000    0.000 
#
# Total GULP energy -495645.112798 kJ/mol
# GULP energy per Si atom -12391.127820 kJ/mol
# Density = 2.113641 g / cm^3
# Si number density = 21.184628 Si / 1000 Ang^3
#
#
#
# Elastic Constant Matrix: (Units=GPa)
#
#
# Indices 1 2 3 4 5 6 
#
# 1 123.0931 48.5443 44.5659 0.0000 0.0000 0.0000
# 2 48.5443 205.1788 29.6245 0.0000 0.0000 0.0000
# 3 44.5659 29.6245 49.4755 0.0000 0.0000 0.0000
# 4 0.0000 0.0000 0.0000 9.0057 0.0000 0.0000
# 5 0.0000 0.0000 0.0000 0.0000 35.1901 0.0000
# 6 0.0000 0.0000 0.0000 0.0000 0.0000 -8.0222
#
#
#
# Elastic Compliance Matrix: (Units=1/GPa)
#
#
# Indices 1 2 3 4 5 6 
#
# 1 0.012438 -0.001451 -0.010335 0.000000 0.000000 0.000000
# 2 -0.001451 0.005504 -0.001989 0.000000 0.000000 0.000000
# 3 -0.010335 -0.001989 0.030713 0.000000 0.000000 0.000000
# 4 0.000000 0.000000 0.000000 0.111040 0.000000 0.000000
# 5 0.000000 0.000000 0.000000 0.000000 0.028417 0.000000
# 6 0.000000 0.000000 0.000000 0.000000 0.000000 -0.124655
#
#
# Mechanical properties :
#
#
# Convention : Reuss Voigt Hill
#
# Bulk Modulus (GPa) = 47.38196 69.24632 58.31414
# Shear Modulus (GPa) = 50.99886 24.23559 37.61722
#
# Velocity S-wave (km/s) = 4.91180 3.38600 4.21846
# Velocity P-wave (km/s) = 7.38799 6.93143 7.16335
#
# Compressibility (1/GPa) = 0.02110508
#
# Stress axis : x y z
#
# Youngs Moduli (GPa) = 80.40037 181.67996 32.56003
#
# Poissons Ratio (x) = 0.26353 0.33651
# Poissons Ratio (y) = 0.11662 0.06477
# Poissons Ratio (z) = 0.83094 0.36139
#
# Static dielectric constant tensor:
#      x y z
#    x 3.786270 0.000000 0.000000 
#    y 0.000000 4.882320 0.000000 
#    z 0.000000 0.000000 3.351110 
# 
# 
# High freq. dielectric constant tensor:
#      x y z
#    x 1.821510 0.000000 0.000000 
#    y 0.000000 1.875070 0.000000 
#    z 0.000000 0.000000 1.780990 
# 
# From -- ./inp_files/8341.got.cif
#   From: 2010.03.12/outbox.cif.g09.slc.cpg/sg53_5_cif.got.tgz:8341.got - 2010.04.16 14:36:59.
