data_PCOD8219023
_publ_section_title
;
Structure prediction by ZEFSAII (Michael W. Deem and Ramdas Pophale) SiO2 
 PCOD8219023
Probable space group: P M N A
;
_chemical_formula_sum "Si O2"
_cell_formula_units_Z 64
_cell_length_a 9.254518
_cell_length_b 20.724403
_cell_length_c 19.939622
_cell_angle_alpha 90.000000
_cell_angle_beta 90.000000
_cell_angle_gamma 90.000000
_cell_volume 3824.307052
_symmetry_space_group_name_H-M "P M N A"
_symmetry_group_IT_number 53
_symmetry_cell_setting 'orthorhombic'
loop_
_space_group_symop_operation_xyz
x,y,z
1/2-x,-y,1/2+z
x,-y,-z
1/2-x,y,1/2-z
-x,-y,-z
1/2+x,y,1/2-z
-x,y,z
1/2+x,-y,1/2+z
loop_
_atom_site_type_symbol
_atom_site_label
_atom_site_fract_x
_atom_site_fract_y
_atom_site_fract_z
Si Si1 0.333551 0.475400 0.815226
Si Si2 0.828209 0.374894 0.318123
Si Si3 0.669396 0.565710 0.037992
Si Si4 0.167316 0.049728 0.054812
Si Si5 0.844736 0.188071 0.307028
Si Si6 0.159227 0.039077 0.310180
Si Si7 0.661259 0.192278 0.434936
Si Si8 0.332672 0.333056 0.450502
O O1 0.250000 0.448295 0.750000
O O2 0.500000 0.465336 0.798650
O O3 0.297039 0.549743 0.828686
O O4 0.290371 0.437992 0.883251
O O5 0.750000 0.351353 0.250000
O O6 0.754687 0.338424 0.380686
O O7 0.000000 0.360948 0.315746
O O8 0.500000 0.579859 0.027251
O O9 0.711954 0.500000 0.000000
O O10 0.761916 0.623778 0.007928
O O11 0.255825 0.033204 0.120847
O O12 0.192023 0.123670 0.027896
O O13 0.000000 0.036995 0.070932
O O14 0.225776 0.000000 0.000000
O O15 0.750000 0.222501 0.250000
O O16 0.862530 0.113172 0.290492
O O17 0.776920 0.200117 0.377899
O O18 0.000000 0.222710 0.306811
O O19 0.250000 0.005260 0.250000
O O20 0.000000 0.006643 0.316438
O O21 0.500000 0.187979 0.403627
O O22 0.675169 0.258302 0.477862
O O23 0.500000 0.353276 0.439320
#
# Coordination Sequence:
#
# PCOD8219023 Si02
#       8
#     8   8   8   8   8   8   8   8
#     4   9  18  32  51  72  95 123 156 198 242 281
#     4  10  19  33  49  68  96 131 168 203 238 279
#     4  10  19  35  53  71  97 129 161 198 244 284
#     4   9  17  31  51  71  92 124 161 197 241 290
#     4   9  16  26  42  62  85 119 159 192 226 268
#     4   9  16  26  42  66  95 123 153 191 231 274
#     4   9  19  33  45  63  94 123 155 197 238 284
#     4  11  22  33  47  70  97 129 164 201 243 287
#
# _framework density 16.735057999999999
#
# number of rings (size 3 to 8) (size 9 to 14) (size 15 to 20)
#    0.000    2.500    1.250    1.500    0.000    6.000 
#    0.000    0.000    0.000    0.000    0.000    0.875 
#    0.000    2.000    0.000    0.000    0.000    0.000 
#
# Total GULP energy -793018.954309 kJ/mol
# GULP energy per Si atom -12390.921161 kJ/mol
# Density = 1.669697 g / cm^3
# Si number density = 16.735058 Si / 1000 Ang^3
#
#
#
# Elastic Constant Matrix: (Units=GPa)
#
#
# Indices 1 2 3 4 5 6 
#
# 1 101.9695 45.3356 53.8078 0.0000 0.0000 0.0000
# 2 45.3356 84.8659 54.8461 0.0000 0.0000 0.0000
# 3 53.8078 54.8461 100.9569 0.0000 0.0000 0.0000
# 4 0.0000 0.0000 0.0000 9.7437 0.0000 0.0000
# 5 0.0000 0.0000 0.0000 0.0000 27.1224 0.0000
# 6 0.0000 0.0000 0.0000 0.0000 0.0000 184.6511
#
#
#
# Elastic Compliance Matrix: (Units=1/GPa)
#
#
# Indices 1 2 3 4 5 6 
#
# 1 0.014581 -0.004264 -0.005455 0.000000 0.000000 0.000000
# 2 -0.004264 0.019406 -0.008270 0.000000 0.000000 0.000000
# 3 -0.005455 -0.008270 0.017305 0.000000 0.000000 0.000000
# 4 0.000000 0.000000 0.000000 0.102630 0.000000 0.000000
# 5 0.000000 0.000000 0.000000 0.000000 0.036870 0.000000
# 6 0.000000 0.000000 0.000000 0.000000 0.000000 0.005416
#
#
# Mechanical properties :
#
#
# Convention : Reuss Voigt Hill
#
# Bulk Modulus (GPa) = 65.29697 66.19681 65.74689
# Shear Modulus (GPa) = 21.07129 53.22362 37.14746
#
# Velocity S-wave (km/s) = 3.55224 5.64559 4.71652
# Velocity P-wave (km/s) = 7.47846 9.06303 8.30861
#
# Compressibility (1/GPa) = 0.01531465
#
# Stress axis : x y z
#
# Youngs Moduli (GPa) = 68.58195 51.53165 57.78592
#
# Poissons Ratio (x) = 0.21972 0.31522
# Poissons Ratio (y) = 0.29242 0.47788
# Poissons Ratio (z) = 0.37411 0.42615
#
# Static dielectric constant tensor:
#      x y z
#    x 3.393300 0.000000 0.000000 
#    y 0.000000 3.097450 0.000000 
#    z 0.000000 0.000000 3.018560 
# 
# 
# High freq. dielectric constant tensor:
#      x y z
#    x 1.661080 0.000000 0.000000 
#    y 0.000000 1.616930 0.000000 
#    z 0.000000 0.000000 1.621650 
# 
# From -- ./inp_files/31168.got.cif
#   From: 2010.03.12/outbox.cif.g09.slc.cpg/sg53_16_cif.got.tgz:31168.got - 2010.04.16 14:36:59.
