data_PCOD8219151
_publ_section_title
;
Structure prediction by ZEFSAII (Michael W. Deem and Ramdas Pophale) SiO2 
 PCOD8219151
Probable space group: P M N A
;
_chemical_formula_sum "Si O2"
_cell_formula_units_Z 52
_cell_length_a 13.882205
_cell_length_b 11.473131
_cell_length_c 18.473607
_cell_angle_alpha 90.000000
_cell_angle_beta 90.000000
_cell_angle_gamma 90.000000
_cell_volume 2942.334921
_symmetry_space_group_name_H-M "P M N A"
_symmetry_group_IT_number 53
_symmetry_cell_setting 'orthorhombic'
loop_
_space_group_symop_operation_xyz
x,y,z
1/2-x,-y,1/2+z
x,-y,-z
1/2-x,y,1/2-z
-x,-y,-z
1/2+x,y,1/2-z
-x,y,z
1/2+x,-y,1/2+z
loop_
_atom_site_type_symbol
_atom_site_label
_atom_site_fract_x
_atom_site_fract_y
_atom_site_fract_z
Si Si1 0.892310 0.812847 0.625634
Si Si2 0.654455 0.407998 0.208678
Si Si3 0.610054 0.238564 0.969021
Si Si4 0.269087 0.552588 0.078793
Si Si5 0.607252 0.597330 0.320138
Si Si6 0.750000 0.780995 0.250000
Si Si7 0.610430 0.066078 0.846793
O O1 0.895025 0.714332 0.688033
O O2 0.844097 0.771765 0.549927
O O3 0.000000 0.846702 0.603033
O O4 0.847753 0.933859 0.654690
O O5 0.750000 0.371830 0.250000
O O6 0.670546 0.473993 0.133717
O O7 0.594995 0.491549 0.262526
O O8 0.500000 0.287928 0.971126
O O9 0.677865 0.323346 0.922272
O O10 0.612482 0.114004 0.928975
O O11 0.157972 0.556662 0.105395
O O12 0.271818 0.500000 0.000000
O O13 0.500000 0.644084 0.337157
O O14 0.676322 0.698667 0.292248
O O15 0.815683 0.860739 0.299642
O O16 0.500000 0.074699 0.816299
#
# Coordination Sequence:
#
# PCOD8219151 Si02
#       7
#     8   8   8   8   8   4   8
#     4  10  20  33  53  81 110 142 174 217 274 325
#     4  10  20  35  53  81 110 142 179 220 272 326
#     4  10  19  33  55  81 110 139 174 223 274 322
#     4  11  20  35  54  83 112 140 184 223 275 329
#     4  11  22  38  58  80 109 143 182 230 277 325
#     4  12  20  36  56  80 102 148 186 220 268 316
#     4  10  21  35  52  80 112 139 179 223 264 318
#
# _framework density 17.67304
#
# number of rings (size 3 to 8) (size 9 to 14) (size 15 to 20)
#    0.000    1.538    5.385    1.385    1.077    4.923 
#    0.000    0.000    0.000    0.000    0.000    3.231 
#    0.000    0.000    0.000    0.000    0.000    0.000 
#
# Total GULP energy -644408.062905 kJ/mol
# GULP energy per Si atom -12392.462748 kJ/mol
# Density = 1.763281 g / cm^3
# Si number density = 17.673040 Si / 1000 Ang^3
#
#
#
# Elastic Constant Matrix: (Units=GPa)
#
#
# Indices 1 2 3 4 5 6 
#
# 1 83.9971 28.5148 13.8926 0.0000 0.0000 0.0000
# 2 28.5148 114.9866 30.5367 0.0000 0.0000 0.0000
# 3 13.8926 30.5367 67.0272 0.0000 0.0000 0.0000
# 4 0.0000 0.0000 0.0000 27.7508 0.0000 0.0000
# 5 0.0000 0.0000 0.0000 0.0000 14.0479 0.0000
# 6 0.0000 0.0000 0.0000 0.0000 0.0000 24.9687
#
#
#
# Elastic Compliance Matrix: (Units=1/GPa)
#
#
# Indices 1 2 3 4 5 6 
#
# 1 0.013115 -0.002879 -0.001407 0.000000 0.000000 0.000000
# 2 -0.002879 0.010526 -0.004199 0.000000 0.000000 0.000000
# 3 -0.001407 -0.004199 0.017124 0.000000 0.000000 0.000000
# 4 0.000000 0.000000 0.000000 0.036035 0.000000 0.000000
# 5 0.000000 0.000000 0.000000 0.000000 0.071185 0.000000
# 6 0.000000 0.000000 0.000000 0.000000 0.000000 0.040050
#
#
# Mechanical properties :
#
#
# Convention : Reuss Voigt Hill
#
# Bulk Modulus (GPa) = 42.02383 45.76658 43.89520
# Shear Modulus (GPa) = 23.48136 26.22461 24.85299
#
# Velocity S-wave (km/s) = 3.64903 3.85629 3.75409
# Velocity P-wave (km/s) = 6.44856 6.76613 6.60925
#
# Compressibility (1/GPa) = 0.02379602
#
# Stress axis : x y z
#
# Youngs Moduli (GPa) = 76.24795 95.00682 58.39840
#
# Poissons Ratio (x) = 0.27350 0.08216
# Poissons Ratio (y) = 0.21950 0.24519
# Poissons Ratio (z) = 0.10727 0.39890
#
# Static dielectric constant tensor:
#      x y z
#    x 3.354780 0.000000 0.000000 
#    y 0.000000 3.361710 0.000000 
#    z 0.000000 0.000000 3.313430 
# 
# 
# High freq. dielectric constant tensor:
#      x y z
#    x 1.663940 0.000000 0.000000 
#    y 0.000000 1.689390 0.000000 
#    z 0.000000 0.000000 1.682080 
# 
# From -- ./inp_files/28418.got.cif
#   From: 2010.03.12/outbox.cif.g09.slc.cpg/sg53_15_cif.got.tgz:28418.got - 2010.04.16 14:36:59.
