data_PCOD8219633
_publ_section_title
;
Structure prediction by ZEFSAII (Michael W. Deem and Ramdas Pophale) SiO2 
 PCOD8219633
Probable space group: P M N A
;
_chemical_formula_sum "Si O2"
_cell_formula_units_Z 64
_cell_length_a 8.686711
_cell_length_b 23.905609
_cell_length_c 15.484845
_cell_angle_alpha 90.000000
_cell_angle_beta 90.000000
_cell_angle_gamma 90.000000
_cell_volume 3215.600204
_symmetry_space_group_name_H-M "P M N A"
_symmetry_group_IT_number 53
_symmetry_cell_setting 'orthorhombic'
loop_
_space_group_symop_operation_xyz
x,y,z
1/2-x,-y,1/2+z
x,-y,-z
1/2-x,y,1/2-z
-x,-y,-z
1/2+x,y,1/2-z
-x,y,z
1/2+x,-y,1/2+z
loop_
_atom_site_type_symbol
_atom_site_label
_atom_site_fract_x
_atom_site_fract_y
_atom_site_fract_z
Si Si1 0.683273 0.813754 0.003308
Si Si2 0.817074 0.384425 0.339501
Si Si3 0.318024 0.499459 0.400114
Si Si4 0.681272 0.117526 0.160369
Si Si5 0.179342 0.004037 0.600699
Si Si6 0.683018 0.614391 0.160693
Si Si7 0.680842 0.116938 0.659427
Si Si8 0.817373 0.687332 0.499486
O O1 0.500000 0.816711 0.008038
O O2 0.748747 0.844504 0.086029
O O3 0.745876 0.750426 0.001818
O O4 0.745277 0.844228 0.917200
O O5 0.750000 0.360597 0.250000
O O6 0.754484 0.446280 0.354179
O O7 0.755591 0.343997 0.415336
O O8 0.000000 0.385816 0.336101
O O9 0.269316 0.500000 0.500000
O O10 0.500000 0.498621 0.387785
O O11 0.248599 0.552888 0.353353
O O12 0.750000 0.139663 0.250000
O O13 0.500000 0.122963 0.164476
O O14 0.731260 0.053609 0.144801
O O15 0.279584 0.052207 0.643773
O O16 0.000000 0.017505 0.615866
O O17 0.216404 0.000000 0.500000
O O18 0.750000 0.638657 0.250000
O O19 0.500000 0.612103 0.163898
O O20 0.743461 0.654885 0.084810
O O21 0.750000 0.137257 0.750000
O O22 0.500000 0.124856 0.661427
O O23 0.000000 0.687579 0.500261
#
# Coordination Sequence:
#
# PCOD8219633 Si02
#       8
#     8   8   8   8   8   8   8   8
#     4  10  21  43  65  85 116 159 204 250 297 351
#     4  11  22  39  61  90 122 158 198 241 294 354
#     4  11  22  37  60  90 120 155 194 242 296 352
#     4  10  21  36  60  88 120 156 193 240 294 352
#     4  10  19  37  62  90 120 158 196 240 301 358
#     4  11  22  39  61  89 119 154 193 241 295 356
#     4  12  25  40  61  91 122 159 199 247 300 358
#     4   9  21  40  64  86 114 156 202 244 295 350
#
# _framework density 19.902971000000001
#
# number of rings (size 3 to 8) (size 9 to 14) (size 15 to 20)
#    0.000    1.500    2.500    3.000    0.000    3.750 
#    0.000    3.750    0.000    0.000    0.000    0.000 
#    0.000    0.000    0.000    0.000    0.000    0.000 
#
# Total GULP energy -793908.606202 kJ/mol
# GULP energy per Si atom -12404.821972 kJ/mol
# Density = 1.985767 g / cm^3
# Si number density = 19.902971 Si / 1000 Ang^3
#
#
#
# Elastic Constant Matrix: (Units=GPa)
#
#
# Indices 1 2 3 4 5 6 
#
# 1 52.7573 28.8355 39.2858 0.0000 0.0000 0.0000
# 2 28.8355 149.7121 82.0163 0.0000 0.0000 0.0000
# 3 39.2858 82.0163 189.8135 0.0000 0.0000 0.0000
# 4 0.0000 0.0000 0.0000 5.6246 0.0000 0.0000
# 5 0.0000 0.0000 0.0000 0.0000 34.4092 0.0000
# 6 0.0000 0.0000 0.0000 0.0000 0.0000 2.7445
#
#
#
# Elastic Compliance Matrix: (Units=1/GPa)
#
#
# Indices 1 2 3 4 5 6 
#
# 1 0.023044 -0.002392 -0.003736 0.000000 0.000000 0.000000
# 2 -0.002392 0.008999 -0.003393 0.000000 0.000000 0.000000
# 3 -0.003736 -0.003393 0.007508 0.000000 0.000000 0.000000
# 4 0.000000 0.000000 0.000000 0.177790 0.000000 0.000000
# 5 0.000000 0.000000 0.000000 0.000000 0.029062 0.000000
# 6 0.000000 0.000000 0.000000 0.000000 0.000000 0.364364
#
#
# Mechanical properties :
#
#
# Convention : Reuss Voigt Hill
#
# Bulk Modulus (GPa) = 48.75984 76.95091 62.85537
# Shear Modulus (GPa) = 7.85366 24.69868 16.27617
#
# Velocity S-wave (km/s) = 1.98860 3.52654 2.86278
# Velocity P-wave (km/s) = 5.46120 7.43834 6.52509
#
# Compressibility (1/GPa) = 0.02050868
#
# Stress axis : x y z
#
# Youngs Moduli (GPa) = 43.39529 111.12155 133.19429
#
# Poissons Ratio (x) = 0.26577 0.49761
# Poissons Ratio (y) = 0.10379 0.45198
# Poissons Ratio (z) = 0.16212 0.37708
#
# Static dielectric constant tensor:
#      x y z
#    x 3.429690 0.000000 0.000000 
#    y 0.000000 3.749790 0.000000 
#    z 0.000000 0.000000 3.964430 
# 
# 
# High freq. dielectric constant tensor:
#      x y z
#    x 1.762030 0.000000 0.000000 
#    y 0.000000 1.774790 0.000000 
#    z 0.000000 0.000000 1.797840 
# 
# From -- ./inp_files/20847.got.cif
#   From: 2010.03.12/outbox.cif.g09.slc.cpg/sg53_11_cif.got.tgz:20847.got - 2010.04.16 14:36:59.
