data_PCOD8219753
_publ_section_title
;
Structure prediction by ZEFSAII (Michael W. Deem and Ramdas Pophale) SiO2 
 PCOD8219753
Probable space group: P M N A
;
_chemical_formula_sum "Si O2"
_cell_formula_units_Z 64
_cell_length_a 9.527635
_cell_length_b 9.853586
_cell_length_c 37.484570
_cell_angle_alpha 90.000000
_cell_angle_beta 90.000000
_cell_angle_gamma 90.000000
_cell_volume 3519.102817
_symmetry_space_group_name_H-M "P M N A"
_symmetry_group_IT_number 53
_symmetry_cell_setting 'orthorhombic'
loop_
_space_group_symop_operation_xyz
x,y,z
1/2-x,-y,1/2+z
x,-y,-z
1/2-x,y,1/2-z
-x,-y,-z
1/2+x,y,1/2-z
-x,y,z
1/2+x,-y,1/2+z
loop_
_atom_site_type_symbol
_atom_site_label
_atom_site_fract_x
_atom_site_fract_y
_atom_site_fract_z
Si Si1 0.665874 0.650245 0.400089
Si Si2 0.666629 0.336985 0.395409
Si Si3 0.338242 0.720914 0.166043
Si Si4 0.333318 0.855569 0.541881
Si Si5 0.333601 0.158166 0.537343
Si Si6 0.336816 0.029388 0.785839
Si Si7 0.842212 0.482521 0.283067
Si Si8 0.161386 0.766794 0.671102
O O1 0.500000 0.664837 0.394642
O O2 0.712004 0.493057 0.401311
O O3 0.740895 0.732227 0.368462
O O4 0.718114 0.722802 0.436408
O O5 0.500000 0.324846 0.390898
O O6 0.724204 0.250327 0.428959
O O7 0.736605 0.274108 0.360611
O O8 0.500000 0.741772 0.154636
O O9 0.310224 0.573661 0.182555
O O10 0.293856 0.829685 0.195835
O O11 0.500000 0.850420 0.542150
O O12 0.276998 0.812185 0.502650
O O13 0.281426 0.009208 0.550514
O O14 0.500000 0.155932 0.536254
O O15 0.250000 0.007386 0.750000
O O16 0.500000 0.024894 0.775260
O O17 0.300918 0.916206 0.815345
O O18 0.750000 0.527534 0.250000
O O19 0.812209 0.329075 0.294751
O O20 0.000000 0.504322 0.269920
O O21 0.000000 0.754745 0.658101
#
# Coordination Sequence:
#
# PCOD8219753 Si02
#       8
#     8   8   8   8   8   8   8   8
#     4  10  20  32  50  79 107 134 174 217 253 296
#     4  10  20  32  50  79 107 134 174 217 253 296
#     4  10  21  37  53  74 105 139 170 205 257 313
#     4   8  15  29  49  74 105 138 170 208 256 304
#     4   8  15  29  49  74 105 138 170 208 256 304
#     4  10  22  38  56  78 103 132 171 215 260 311
#     4  10  20  34  54  74  97 132 169 205 250 301
#     4  10  21  37  53  74 105 139 170 205 257 313
#
# _framework density 18.186454000000001
#
# number of rings (size 3 to 8) (size 9 to 14) (size 15 to 20)
#    0.000    2.500    1.250    1.500    1.750    2.500 
#    0.000    2.500    0.000    0.750    0.000    3.500 
#    0.000    0.000    0.000    0.000    0.000    0.000 
#
# Total GULP energy -793510.950255 kJ/mol
# GULP energy per Si atom -12398.608598 kJ/mol
# Density = 1.814506 g / cm^3
# Si number density = 18.186454 Si / 1000 Ang^3
#
#
#
# Elastic Constant Matrix: (Units=GPa)
#
#
# Indices 1 2 3 4 5 6 
#
# 1 39.3092 30.4761 47.1912 0.0000 0.0000 0.0000
# 2 30.4761 93.3068 50.7729 0.0000 0.0000 0.0000
# 3 47.1912 50.7729 122.4757 0.0000 0.0000 0.0000
# 4 0.0000 0.0000 0.0000 5.9122 0.0000 0.0000
# 5 0.0000 0.0000 0.0000 0.0000 20.8618 0.0000
# 6 0.0000 0.0000 0.0000 0.0000 0.0000 19.3381
#
#
#
# Elastic Compliance Matrix: (Units=1/GPa)
#
#
# Indices 1 2 3 4 5 6 
#
# 1 0.051340 -0.007754 -0.016568 0.000000 0.000000 0.000000
# 2 -0.007754 0.015010 -0.003235 0.000000 0.000000 0.000000
# 3 -0.016568 -0.003235 0.015890 0.000000 0.000000 0.000000
# 4 0.000000 0.000000 0.000000 0.169143 0.000000 0.000000
# 5 0.000000 0.000000 0.000000 0.000000 0.047934 0.000000
# 6 0.000000 0.000000 0.000000 0.000000 0.000000 0.051711
#
#
# Mechanical properties :
#
#
# Convention : Reuss Voigt Hill
#
# Bulk Modulus (GPa) = 36.86280 56.88580 46.87430
# Shear Modulus (GPa) = 12.04286 17.66585 14.85435
#
# Velocity S-wave (km/s) = 2.57609 3.12007 2.86104
# Velocity P-wave (km/s) = 5.40016 6.65784 6.06171
#
# Compressibility (1/GPa) = 0.02712762
#
# Stress axis : x y z
#
# Youngs Moduli (GPa) = 19.47784 66.62149 62.93391
#
# Poissons Ratio (x) = 0.51656 1.04267
# Poissons Ratio (y) = 0.15102 0.20359
# Poissons Ratio (z) = 0.32270 0.21552
#
# Static dielectric constant tensor:
#      x y z
#    x 3.036580 0.000000 0.000000 
#    y 0.000000 3.615370 0.000000 
#    z 0.000000 0.000000 3.383480 
# 
# 
# High freq. dielectric constant tensor:
#      x y z
#    x 1.669350 0.000000 0.000000 
#    y 0.000000 1.718230 0.000000 
#    z 0.000000 0.000000 1.706830 
# 
# From -- ./inp_files/38733.got.cif
#   From: 2010.03.12/outbox.cif.g09.slc.cpg/sg53_20_cif.got.tgz:38733.got - 2010.04.16 14:36:59.
