data_PCOD8219312
_publ_section_title
;
Structure prediction by ZEFSAII (Michael W. Deem and Ramdas Pophale) SiO2 
 PCOD8219312
Probable space group: P M N A
;
_chemical_formula_sum "Si O2"
_cell_formula_units_Z 48
_cell_length_a 9.180139
_cell_length_b 10.012516
_cell_length_c 27.836227
_cell_angle_alpha 90.000000
_cell_angle_beta 90.000000
_cell_angle_gamma 90.000000
_cell_volume 2558.602675
_symmetry_space_group_name_H-M "P M N A"
_symmetry_group_IT_number 53
_symmetry_cell_setting 'orthorhombic'
loop_
_space_group_symop_operation_xyz
x,y,z
1/2-x,-y,1/2+z
x,-y,-z
1/2-x,y,1/2-z
-x,-y,-z
1/2+x,y,1/2-z
-x,y,z
1/2+x,-y,1/2+z
loop_
_atom_site_type_symbol
_atom_site_label
_atom_site_fract_x
_atom_site_fract_y
_atom_site_fract_z
Si Si1 0.327502 0.274873 0.602856
Si Si2 0.832522 0.777089 0.611228
Si Si3 0.168394 0.959997 0.446285
Si Si4 0.169506 0.152088 0.797175
Si Si5 0.830998 0.487997 0.445092
Si Si6 0.170865 0.156950 0.202172
O O1 0.500000 0.279324 0.597964
O O2 0.267374 0.165443 0.566252
O O3 0.279570 0.238184 0.657096
O O4 0.261341 0.417435 0.589643
O O5 0.802781 0.662359 0.572302
O O6 0.731642 0.756749 0.657781
O O7 0.000000 0.775600 0.627900
O O8 0.790303 0.916922 0.587452
O O9 0.000000 0.918614 0.440861
O O10 0.206008 0.000000 0.500000
O O11 0.250000 0.207471 0.750000
O O12 0.000000 0.168098 0.787390
O O13 0.210388 0.997995 0.806738
O O14 0.776745 0.500000 0.500000
O O15 0.000000 0.528811 0.441417
O O16 0.250000 0.209032 0.250000
O O17 0.000000 0.181637 0.207320
#
# Coordination Sequence:
#
# PCOD8219312 Si02
#       6
#     8   8   8   8   8   8
#     4  11  22  37  56  85 118 148 187 233 286 340
#     4  10  20  35  57  84 112 147 192 236 282 333
#     4  10  20  35  57  83 110 145 190 237 282 333
#     4   9  19  34  54  82 114 146 182 228 279 335
#     4  10  22  41  61  81 112 154 197 236 277 333
#     4  10  19  34  56  83 116 148 184 232 284 338
#
# _framework density 18.760238999999999
#
# number of rings (size 3 to 8) (size 9 to 14) (size 15 to 20)
#    0.000    2.000    1.667    2.000    0.000    6.000 
#    0.000    2.500    0.000    2.000    0.000    0.000 
#    0.000    0.000    0.000    0.000    0.000    0.000 
#
# Total GULP energy -595408.360604 kJ/mol
# GULP energy per Si atom -12404.340846 kJ/mol
# Density = 1.871754 g / cm^3
# Si number density = 18.760239 Si / 1000 Ang^3
#
#
#
# Elastic Constant Matrix: (Units=GPa)
#
#
# Indices 1 2 3 4 5 6 
#
# 1 63.2468 16.4678 43.8067 0.0000 0.0000 0.0000
# 2 16.4678 36.6017 8.7546 0.0000 0.0000 0.0000
# 3 43.8067 8.7546 122.1245 0.0000 0.0000 0.0000
# 4 0.0000 0.0000 0.0000 29.4705 0.0000 0.0000
# 5 0.0000 0.0000 0.0000 0.0000 33.1340 0.0000
# 6 0.0000 0.0000 0.0000 0.0000 0.0000 28.2097
#
#
#
# Elastic Compliance Matrix: (Units=1/GPa)
#
#
# Indices 1 2 3 4 5 6 
#
# 1 0.023477 -0.008697 -0.007798 0.000000 0.000000 0.000000
# 2 -0.008697 0.031020 0.000896 0.000000 0.000000 0.000000
# 3 -0.007798 0.000896 0.010921 0.000000 0.000000 0.000000
# 4 0.000000 0.000000 0.000000 0.033932 0.000000 0.000000
# 5 0.000000 0.000000 0.000000 0.000000 0.030181 0.000000
# 6 0.000000 0.000000 0.000000 0.000000 0.000000 0.035449
#
#
# Mechanical properties :
#
#
# Convention : Reuss Voigt Hill
#
# Bulk Modulus (GPa) = 29.22297 40.00348 34.61322
# Shear Modulus (GPa) = 24.08665 28.35910 26.22287
#
# Velocity S-wave (km/s) = 3.58707 3.89223 3.74276
# Velocity P-wave (km/s) = 5.72425 6.44741 6.09656
#
# Compressibility (1/GPa) = 0.03421966
#
# Stress axis : x y z
#
# Youngs Moduli (GPa) = 42.59559 32.23733 91.56500
#
# Poissons Ratio (x) = 0.28038 0.71400
# Poissons Ratio (y) = 0.37048 -0.08206
# Poissons Ratio (z) = 0.33215 -0.02889
#
# Static dielectric constant tensor:
#      x y z
#    x 3.394110 0.000000 0.000000 
#    y 0.000000 3.274170 0.000000 
#    z 0.000000 0.000000 3.635640 
# 
# 
# High freq. dielectric constant tensor:
#      x y z
#    x 1.725540 0.000000 0.000000 
#    y 0.000000 1.710620 0.000000 
#    z 0.000000 0.000000 1.741730 
# 
# From -- ./inp_files/37761.got.cif
#   From: 2010.03.12/outbox.cif.g09.slc.cpg/sg53_19_cif.got.tgz:37761.got - 2010.04.16 14:36:59.
