data_PCOD8219295
_publ_section_title
;
Structure prediction by ZEFSAII (Michael W. Deem and Ramdas Pophale) SiO2 
 PCOD8219295
Probable space group: P M N A
;
_chemical_formula_sum "Si O2"
_cell_formula_units_Z 64
_cell_length_a 17.210233
_cell_length_b 8.971890
_cell_length_c 21.925840
_cell_angle_alpha 90.000000
_cell_angle_beta 90.000000
_cell_angle_gamma 90.000000
_cell_volume 3385.532061
_symmetry_space_group_name_H-M "P M N A"
_symmetry_group_IT_number 53
_symmetry_cell_setting 'orthorhombic'
loop_
_space_group_symop_operation_xyz
x,y,z
1/2-x,-y,1/2+z
x,-y,-z
1/2-x,y,1/2-z
-x,-y,-z
1/2+x,y,1/2-z
-x,y,z
1/2+x,-y,1/2+z
loop_
_atom_site_type_symbol
_atom_site_label
_atom_site_fract_x
_atom_site_fract_y
_atom_site_fract_z
Si Si1 0.407771 0.655234 0.299635
Si Si2 0.758484 0.324863 0.491554
Si Si3 0.297043 0.165220 0.374965
Si Si4 0.822915 0.153917 0.707937
Si Si5 0.796760 0.178996 0.889554
Si Si6 0.370336 0.850611 0.829447
Si Si7 0.411845 0.682553 0.712592
Si Si8 0.912876 0.842888 0.531712
O O1 0.500000 0.673998 0.303709
O O2 0.375743 0.716904 0.235647
O O3 0.369053 0.744869 0.355142
O O4 0.380818 0.483925 0.299229
O O5 0.757467 0.500000 0.500000
O O6 0.711947 0.278423 0.431068
O O7 0.709177 0.250437 0.544713
O O8 0.848427 0.273281 0.491099
O O9 0.220747 0.180028 0.334210
O O10 0.367833 0.205305 0.331574
O O11 0.310443 0.997142 0.397885
O O12 0.750000 0.106558 0.750000
O O13 0.785398 0.209477 0.644492
O O14 0.880705 0.014520 0.699418
O O15 0.405464 0.727477 0.783925
O O16 0.411796 0.850787 0.894954
O O17 0.500000 0.691779 0.691943
O O18 0.000000 0.792631 0.511974
O O19 0.892139 0.000000 0.500000
#
# Coordination Sequence:
#
# PCOD8219295 Si02
#       8
#     8   8   8   8   8   8   8   8
#     4  10  22  36  52  80 116 146 176 225 283 334
#     4  11  22  37  59  83 109 143 182 228 281 334
#     4  10  21  37  59  81 106 142 186 232 273 328
#     4   9  18  32  53  78 104 138 180 224 267 318
#     4  10  20  38  59  80 106 142 188 229 271 330
#     4  10  19  34  56  80 107 144 189 228 272 328
#     4  11  22  35  52  80 115 145 178 226 283 336
#     4  10  21  37  56  81 115 153 192 234 275 320
#
# _framework density 18.903970999999999
#
# number of rings (size 3 to 8) (size 9 to 14) (size 15 to 20)
#    0.000    1.875    0.000    6.375    0.000    7.750 
#    0.000    1.250    0.000    3.750    0.000    0.000 
#    0.000    0.000    0.000    0.000    0.000    0.000 
#
# Total GULP energy -793592.818509 kJ/mol
# GULP energy per Si atom -12399.887789 kJ/mol
# Density = 1.886095 g / cm^3
# Si number density = 18.903971 Si / 1000 Ang^3
#
#
#
# Elastic Constant Matrix: (Units=GPa)
#
#
# Indices 1 2 3 4 5 6 
#
# 1 70.9408 49.4224 30.0566 0.0000 0.0000 0.0000
# 2 49.4224 131.5884 56.9162 0.0000 0.0000 0.0000
# 3 30.0566 56.9162 98.1971 0.0000 0.0000 0.0000
# 4 0.0000 0.0000 0.0000 29.6269 0.0000 0.0000
# 5 0.0000 0.0000 0.0000 0.0000 17.8927 0.0000
# 6 0.0000 0.0000 0.0000 0.0000 0.0000 24.9820
#
#
#
# Elastic Compliance Matrix: (Units=1/GPa)
#
#
# Indices 1 2 3 4 5 6 
#
# 1 0.019472 -0.006320 -0.002297 0.000000 0.000000 0.000000
# 2 -0.006320 0.012193 -0.005133 0.000000 0.000000 0.000000
# 3 -0.002297 -0.005133 0.013862 0.000000 0.000000 0.000000
# 4 0.000000 0.000000 0.000000 0.033753 0.000000 0.000000
# 5 0.000000 0.000000 0.000000 0.000000 0.055889 0.000000
# 6 0.000000 0.000000 0.000000 0.000000 0.000000 0.040029
#
#
# Mechanical properties :
#
#
# Convention : Reuss Voigt Hill
#
# Bulk Modulus (GPa) = 55.47054 63.72406 59.59730
# Shear Modulus (GPa) = 23.95700 25.45574 24.70637
#
# Velocity S-wave (km/s) = 3.56378 3.67356 3.61909
# Velocity P-wave (km/s) = 6.80743 7.19555 7.00418
#
# Compressibility (1/GPa) = 0.01802759
#
# Stress axis : x y z
#
# Youngs Moduli (GPa) = 51.35466 82.01246 72.14070
#
# Poissons Ratio (x) = 0.51831 0.16571
# Poissons Ratio (y) = 0.32456 0.37029
# Poissons Ratio (z) = 0.11797 0.42096
#
# Static dielectric constant tensor:
#      x y z
#    x 3.386790 0.000000 0.000000 
#    y 0.000000 3.526070 0.000000 
#    z 0.000000 0.000000 3.637500 
# 
# 
# High freq. dielectric constant tensor:
#      x y z
#    x 1.727800 0.000000 0.000000 
#    y 0.000000 1.736550 0.000000 
#    z 0.000000 0.000000 1.739040 
# 
# From -- ./inp_files/32826.got.cif
#   From: 2010.03.12/outbox.cif.g09.slc.cpg/sg53_17_cif.got.tgz:32826.got - 2010.04.16 14:36:59.
