data_PCOD8219792
_publ_section_title
;
Structure prediction by ZEFSAII (Michael W. Deem and Ramdas Pophale) SiO2 
 PCOD8219792
Probable space group: P M N A
;
_chemical_formula_sum "Si O2"
_cell_formula_units_Z 64
_cell_length_a 9.183264
_cell_length_b 14.615669
_cell_length_c 27.155170
_cell_angle_alpha 90.000000
_cell_angle_beta 90.000000
_cell_angle_gamma 90.000000
_cell_volume 3644.754615
_symmetry_space_group_name_H-M "P M N A"
_symmetry_group_IT_number 53
_symmetry_cell_setting 'orthorhombic'
loop_
_space_group_symop_operation_xyz
x,y,z
1/2-x,-y,1/2+z
x,-y,-z
1/2-x,y,1/2-z
-x,-y,-z
1/2+x,y,1/2-z
-x,y,z
1/2+x,-y,1/2+z
loop_
_atom_site_type_symbol
_atom_site_label
_atom_site_fract_x
_atom_site_fract_y
_atom_site_fract_z
Si Si1 0.837226 0.180070 0.421408
Si Si2 0.333417 0.486499 0.798885
Si Si3 0.828198 0.821774 0.110862
Si Si4 0.328966 0.007626 0.443466
Si Si5 0.826734 0.279967 0.697762
Si Si6 0.835873 0.266841 0.525593
Si Si7 0.656131 0.591514 0.525434
Si Si8 0.168559 0.622868 0.614571
O O1 0.732495 0.094195 0.413099
O O2 0.827877 0.198428 0.479736
O O3 0.790672 0.268335 0.388254
O O4 0.000000 0.151157 0.406522
O O5 0.250000 0.511230 0.750000
O O6 0.500000 0.482593 0.784010
O O7 0.291444 0.384977 0.819726
O O8 0.301803 0.572564 0.834168
O O9 0.741253 0.793677 0.159976
O O10 0.779061 0.755089 0.067630
O O11 0.000000 0.812026 0.120404
O O12 0.784997 0.922279 0.091044
O O13 0.500000 0.019154 0.446898
O O14 0.267377 0.000000 0.500000
O O15 0.750000 0.262243 0.750000
O O16 0.000000 0.263031 0.701841
O O17 0.784525 0.363667 0.505751
O O18 0.000000 0.272693 0.547023
O O19 0.612200 0.500000 0.500000
O O20 0.500000 0.646664 0.529774
O O21 0.722756 0.570154 0.578669
O O22 0.000000 0.612103 0.598330
#
# Coordination Sequence:
#
# PCOD8219792 Si02
#       8
#     8   8   8   8   8   8   8   8
#     4   9  18  32  51  74 104 139 178 221 261 307
#     4   9  19  36  58  82 108 137 175 219 266 320
#     4  11  22  35  54  79 108 142 180 227 273 322
#     4  10  20  34  52  76 108 145 180 220 270 315
#     4  10  21  38  58  82 108 141 179 222 273 323
#     4  10  20  33  49  72 102 140 179 217 262 315
#     4  10  21  33  45  69 102 139 179 217 258 309
#     4   9  19  35  52  75 105 140 174 213 265 317
#
# _framework density 17.559481000000002
#
# number of rings (size 3 to 8) (size 9 to 14) (size 15 to 20)
#    0.000    2.250    1.250    2.250    1.750    5.250 
#    0.000    0.000    0.000    0.750    0.000    3.500 
#    0.000    0.000    0.000    0.000    0.000    0.000 
#
# Total GULP energy -792913.583716 kJ/mol
# GULP energy per Si atom -12389.274746 kJ/mol
# Density = 1.751951 g / cm^3
# Si number density = 17.559481 Si / 1000 Ang^3
#
#
#
# Elastic Constant Matrix: (Units=GPa)
#
#
# Indices 1 2 3 4 5 6 
#
# 1 72.3278 52.7312 50.4942 0.0000 0.0000 0.0000
# 2 52.7312 92.2540 66.0812 0.0000 0.0000 0.0000
# 3 50.4942 66.0812 93.7972 0.0000 0.0000 0.0000
# 4 0.0000 0.0000 0.0000 22.9699 0.0000 0.0000
# 5 0.0000 0.0000 0.0000 0.0000 33.5063 0.0000
# 6 0.0000 0.0000 0.0000 0.0000 0.0000 24.9429
#
#
#
# Elastic Compliance Matrix: (Units=1/GPa)
#
#
# Indices 1 2 3 4 5 6 
#
# 1 0.025838 -0.009701 -0.007075 0.000000 0.000000 0.000000
# 2 -0.009701 0.025524 -0.012760 0.000000 0.000000 0.000000
# 3 -0.007075 -0.012760 0.023460 0.000000 0.000000 0.000000
# 4 0.000000 0.000000 0.000000 0.043535 0.000000 0.000000
# 5 0.000000 0.000000 0.000000 0.000000 0.029845 0.000000
# 6 0.000000 0.000000 0.000000 0.000000 0.000000 0.040091
#
#
# Mechanical properties :
#
#
# Convention : Reuss Voigt Hill
#
# Bulk Modulus (GPa) = 63.49135 66.33245 64.91190
# Shear Modulus (GPa) = 19.79300 22.22200 21.00750
#
# Velocity S-wave (km/s) = 3.36102 3.56128 3.46260
# Velocity P-wave (km/s) = 7.16228 7.40055 7.28239
#
# Compressibility (1/GPa) = 0.01575018
#
# Stress axis : x y z
#
# Youngs Moduli (GPa) = 38.70338 39.17835 42.62651
#
# Poissons Ratio (x) = 0.38005 0.30158
# Poissons Ratio (y) = 0.37545 0.54391
# Poissons Ratio (z) = 0.27383 0.49992
#
# Static dielectric constant tensor:
#      x y z
#    x 3.509740 0.000000 0.000000 
#    y 0.000000 3.899980 0.000000 
#    z 0.000000 0.000000 2.965900 
# 
# 
# High freq. dielectric constant tensor:
#      x y z
#    x 1.693100 0.000000 0.000000 
#    y 0.000000 1.672030 0.000000 
#    z 0.000000 0.000000 1.651680 
# 
# From -- ./inp_files/34184.got.cif
#   From: 2010.03.12/outbox.cif.g09.slc.cpg/sg53_18_cif.got.tgz:34184.got - 2010.04.16 14:36:59.
