data_PCOD8219612
_publ_section_title
;
Structure prediction by ZEFSAII (Michael W. Deem and Ramdas Pophale) SiO2 
 PCOD8219612
Probable space group: P M N A
;
_chemical_formula_sum "Si O2"
_cell_formula_units_Z 48
_cell_length_a 19.106165
_cell_length_b 13.911797
_cell_length_c 9.402170
_cell_angle_alpha 90.000000
_cell_angle_beta 90.000000
_cell_angle_gamma 90.000000
_cell_volume 2499.107024
_symmetry_space_group_name_H-M "P M N A"
_symmetry_group_IT_number 53
_symmetry_cell_setting 'orthorhombic'
loop_
_space_group_symop_operation_xyz
x,y,z
1/2-x,-y,1/2+z
x,-y,-z
1/2-x,y,1/2-z
-x,-y,-z
1/2+x,y,1/2-z
-x,y,z
1/2+x,-y,1/2+z
loop_
_atom_site_type_symbol
_atom_site_label
_atom_site_fract_x
_atom_site_fract_y
_atom_site_fract_z
Si Si1 0.716343 0.242570 0.029775
Si Si2 0.923474 0.386553 0.979944
Si Si3 0.139661 0.235230 0.183394
Si Si4 0.282273 0.415884 0.608842
Si Si5 0.919168 0.029124 0.155278
Si Si6 0.311311 0.939304 0.141217
O O1 0.658990 0.255575 0.152884
O O2 0.790640 0.209567 0.094195
O O3 0.724917 0.343546 0.951381
O O4 0.689199 0.171337 0.906744
O O5 0.900845 0.329127 0.123736
O O6 0.000000 0.347296 0.928521
O O7 0.931675 0.500000 0.000000
O O8 0.859695 0.367354 0.867837
O O9 0.090300 0.142660 0.177743
O O10 0.296035 0.500000 0.500000
O O11 0.250000 0.461337 0.750000
O O12 0.000000 0.002138 0.167062
O O13 0.882709 0.967010 0.279246
O O14 0.889705 0.000000 0.000000
O O15 0.250000 0.964897 0.250000
O O16 0.300234 0.000000 0.000000
#
# Coordination Sequence:
#
# PCOD8219612 Si02
#       6
#     8   8   8   8   8   8
#     4  10  21  35  58  87 119 154 202 248 296 357
#     4   9  19  35  60  88 118 157 200 240 295 365
#     4  10  19  37  59  87 119 157 200 250 300 356
#     4  10  22  36  61  91 121 154 196 253 302 357
#     4  11  24  40  59  86 121 160 203 252 305 362
#     4  12  22  37  60  87 119 158 204 251 303 362
#
# _framework density 19.206859000000001
#
# number of rings (size 3 to 8) (size 9 to 14) (size 15 to 20)
#    0.000    1.667    1.667    3.500    7.000    1.667 
#    0.000    0.000    0.000    2.500    0.000    0.000 
#    0.000    0.000    0.000    0.000    0.000    0.000 
#
# Total GULP energy -594913.139878 kJ/mol
# GULP energy per Si atom -12394.023747 kJ/mol
# Density = 1.916314 g / cm^3
# Si number density = 19.206859 Si / 1000 Ang^3
#
#
#
# Elastic Constant Matrix: (Units=GPa)
#
#
# Indices 1 2 3 4 5 6 
#
# 1 109.1274 40.2315 67.7385 0.0000 0.0000 0.0000
# 2 40.2315 95.2058 33.8891 0.0000 0.0000 0.0000
# 3 67.7385 33.8891 120.0233 0.0000 0.0000 0.0000
# 4 0.0000 0.0000 0.0000 35.7617 0.0000 0.0000
# 5 0.0000 0.0000 0.0000 0.0000 17.2616 0.0000
# 6 0.0000 0.0000 0.0000 0.0000 0.0000 25.0069
#
#
#
# Elastic Compliance Matrix: (Units=1/GPa)
#
#
# Indices 1 2 3 4 5 6 
#
# 1 0.015222 -0.003751 -0.007532 0.000000 0.000000 0.000000
# 2 -0.003751 0.012602 -0.001441 0.000000 0.000000 0.000000
# 3 -0.007532 -0.001441 0.012989 0.000000 0.000000 0.000000
# 4 0.000000 0.000000 0.000000 0.027963 0.000000 0.000000
# 5 0.000000 0.000000 0.000000 0.000000 0.057932 0.000000
# 6 0.000000 0.000000 0.000000 0.000000 0.000000 0.039989
#
#
# Mechanical properties :
#
#
# Convention : Reuss Voigt Hill
#
# Bulk Modulus (GPa) = 65.08374 67.56388 66.32381
# Shear Modulus (GPa) = 25.34650 27.77253 26.55952
#
# Velocity S-wave (km/s) = 3.63665 3.80672 3.72266
# Velocity P-wave (km/s) = 7.18282 7.38747 7.28586
#
# Compressibility (1/GPa) = 0.01536482
#
# Stress axis : x y z
#
# Youngs Moduli (GPa) = 65.69583 79.35432 76.98686
#
# Poissons Ratio (x) = 0.29769 0.57983
# Poissons Ratio (y) = 0.24645 0.11093
# Poissons Ratio (z) = 0.49479 0.11435
#
# Static dielectric constant tensor:
#      x y z
#    x 3.739100 0.000000 0.000000 
#    y 0.000000 4.304690 0.000000 
#    z 0.000000 0.000000 3.490310 
# 
# 
# High freq. dielectric constant tensor:
#      x y z
#    x 1.746240 0.000000 0.000000 
#    y 0.000000 1.751650 0.000000 
#    z 0.000000 0.000000 1.735210 
# 
# From -- ./inp_files/10935.got.cif
#   From: 2010.03.12/outbox.cif.g09.slc.cpg/sg53_6_cif.got.tgz:10935.got - 2010.04.16 14:36:59.
