data_PCOD8219383
_publ_section_title
;
Structure prediction by ZEFSAII (Michael W. Deem and Ramdas Pophale) SiO2 
 PCOD8219383
Probable space group: P M N A
;
_chemical_formula_sum "Si O2"
_cell_formula_units_Z 56
_cell_length_a 20.660329
_cell_length_b 9.738516
_cell_length_c 14.273865
_cell_angle_alpha 90.000000
_cell_angle_beta 90.000000
_cell_angle_gamma 90.000000
_cell_volume 2871.915120
_symmetry_space_group_name_H-M "P M N A"
_symmetry_group_IT_number 53
_symmetry_cell_setting 'orthorhombic'
loop_
_space_group_symop_operation_xyz
x,y,z
1/2-x,-y,1/2+z
x,-y,-z
1/2-x,y,1/2-z
-x,-y,-z
1/2+x,y,1/2-z
-x,y,z
1/2+x,-y,1/2+z
loop_
_atom_site_type_symbol
_atom_site_label
_atom_site_fract_x
_atom_site_fract_y
_atom_site_fract_z
Si Si1 0.782830 0.127473 0.061034
Si Si2 0.863554 0.895617 0.575891
Si Si3 0.821949 0.971703 0.232460
Si Si4 0.076447 0.397626 0.419751
Si Si5 0.379303 0.651733 0.535434
Si Si6 0.424217 0.470869 0.281246
Si Si7 0.073644 0.234136 0.854676
O O1 0.707484 0.148861 0.044555
O O2 0.811244 0.271748 0.028934
O O3 0.804524 0.101711 0.167740
O O4 0.809058 0.000000 0.000000
O O5 0.908115 0.762403 0.568034
O O6 0.893394 0.000000 0.500000
O O7 0.858872 0.971823 0.676123
O O8 0.750000 0.901102 0.250000
O O9 0.872831 0.874314 0.178936
O O10 0.105145 0.500000 0.500000
O O11 0.107486 0.439689 0.319642
O O12 0.000000 0.415370 0.419094
O O13 0.368292 0.500000 0.500000
O O14 0.404309 0.643663 0.642042
O O15 0.427203 0.738269 0.467220
O O16 0.500000 0.460401 0.272890
O O17 0.403749 0.624476 0.307227
O O18 0.000000 0.190037 0.826414
#
# Coordination Sequence:
#
# PCOD8219383 Si02
#       7
#     8   8   8   8   8   8   8
#     4  10  19  37  57  80 119 152 184 232 288 348
#     4  10  23  38  58  82 109 151 196 241 290 344
#     4  10  21  38  58  82 118 159 195 238 294 351
#     4  10  22  40  59  81 111 150 199 252 299 342
#     4  10  19  34  59  89 118 150 186 232 290 359
#     4   9  19  36  57  81 117 154 186 236 301 353
#     4  10  20  35  59  91 119 150 191 237 293 361
#
# _framework density 19.499182999999999
#
# number of rings (size 3 to 8) (size 9 to 14) (size 15 to 20)
#    0.000    2.143    1.429    1.286    2.000    3.143 
#    0.000    5.000    0.000    0.000    0.000    0.000 
#    0.000    0.000    0.000    0.000    0.000    0.000 
#
# Total GULP energy -693881.606016 kJ/mol
# GULP energy per Si atom -12390.742965 kJ/mol
# Density = 1.945480 g / cm^3
# Si number density = 19.499183 Si / 1000 Ang^3
#
#
#
# Elastic Constant Matrix: (Units=GPa)
#
#
# Indices 1 2 3 4 5 6 
#
# 1 55.7533 29.7049 13.9597 0.0000 0.0000 0.0000
# 2 29.7049 63.0023 36.2557 0.0000 0.0000 0.0000
# 3 13.9597 36.2557 137.5635 0.0000 0.0000 0.0000
# 4 0.0000 0.0000 0.0000 22.9534 0.0000 0.0000
# 5 0.0000 0.0000 0.0000 0.0000 20.2541 0.0000
# 6 0.0000 0.0000 0.0000 0.0000 0.0000 29.3911
#
#
#
# Elastic Compliance Matrix: (Units=1/GPa)
#
#
# Indices 1 2 3 4 5 6 
#
# 1 0.024002 -0.011688 0.000645 0.000000 0.000000 0.000000
# 2 -0.011688 0.024401 -0.005245 0.000000 0.000000 0.000000
# 3 0.000645 -0.005245 0.008586 0.000000 0.000000 0.000000
# 4 0.000000 0.000000 0.000000 0.043566 0.000000 0.000000
# 5 0.000000 0.000000 0.000000 0.000000 0.049373 0.000000
# 6 0.000000 0.000000 0.000000 0.000000 0.000000 0.034024
#
#
# Mechanical properties :
#
#
# Convention : Reuss Voigt Hill
#
# Bulk Modulus (GPa) = 40.96094 46.23995 43.60044
# Shear Modulus (GPa) = 22.25521 26.27964 24.26743
#
# Velocity S-wave (km/s) = 3.38204 3.67513 3.53162
# Velocity P-wave (km/s) = 6.02520 6.46328 6.24808
#
# Compressibility (1/GPa) = 0.02441350
#
# Stress axis : x y z
#
# Youngs Moduli (GPa) = 41.66362 40.98130 116.46427
#
# Poissons Ratio (x) = 0.47897 -0.07508
# Poissons Ratio (y) = 0.48695 0.61087
# Poissons Ratio (z) = -0.02686 0.21495
#
# Static dielectric constant tensor:
#      x y z
#    x 3.368680 0.000000 0.000000 
#    y 0.000000 3.484860 0.000000 
#    z 0.000000 0.000000 4.155240 
# 
# 
# High freq. dielectric constant tensor:
#      x y z
#    x 1.740270 0.000000 0.000000 
#    y 0.000000 1.750500 0.000000 
#    z 0.000000 0.000000 1.777540 
# 
# From -- ./inp_files/24314.got.cif
#   From: 2010.03.12/outbox.cif.g09.slc.cpg/sg53_13_cif.got.tgz:24314.got - 2010.04.16 14:36:59.
