data_PCOD8219222
_publ_section_title
;
Structure prediction by ZEFSAII (Michael W. Deem and Ramdas Pophale) SiO2 
 PCOD8219222
Probable space group: P M N A
;
_chemical_formula_sum "Si O2"
_cell_formula_units_Z 64
_cell_length_a 26.684946
_cell_length_b 12.712475
_cell_length_c 9.930160
_cell_angle_alpha 90.000000
_cell_angle_beta 90.000000
_cell_angle_gamma 90.000000
_cell_volume 3368.625146
_symmetry_space_group_name_H-M "P M N A"
_symmetry_group_IT_number 53
_symmetry_cell_setting 'orthorhombic'
loop_
_space_group_symop_operation_xyz
x,y,z
1/2-x,-y,1/2+z
x,-y,-z
1/2-x,y,1/2-z
-x,-y,-z
1/2+x,y,1/2-z
-x,y,z
1/2+x,-y,1/2+z
loop_
_atom_site_type_symbol
_atom_site_label
_atom_site_fract_x
_atom_site_fract_y
_atom_site_fract_z
Si Si1 0.639382 0.133842 0.222246
Si Si2 0.942633 0.707619 0.668331
Si Si3 0.193511 0.118148 0.003636
Si Si4 0.866219 0.107063 0.742923
Si Si5 0.701599 0.792715 0.035538
Si Si6 0.557480 0.721505 0.150714
Si Si7 0.103120 0.493617 0.656349
Si Si8 0.288399 0.437872 0.872672
O O1 0.589140 0.201295 0.239210
O O2 0.673532 0.150143 0.351659
O O3 0.672751 0.174091 0.098577
O O4 0.621267 0.013660 0.209008
O O5 0.935622 0.719730 0.508943
O O6 0.922830 0.595135 0.723597
O O7 0.000000 0.720864 0.712070
O O8 0.147923 0.126492 0.898293
O O9 0.238720 0.196893 0.973017
O O10 0.215551 0.000000 0.000000
O O11 0.817394 0.135604 0.656896
O O12 0.914075 0.177192 0.707993
O O13 0.690275 0.672227 0.071987
O O14 0.500000 0.731856 0.193905
O O15 0.579774 0.614300 0.215447
O O16 0.089774 0.500000 0.500000
O O17 0.162857 0.499748 0.681997
O O18 0.250000 0.425518 0.750000
O O19 0.263990 0.500000 0.000000
#
# Coordination Sequence:
#
# PCOD8219222 Si02
#       8
#     8   8   8   8   8   8   8   8
#     4  11  22  37  57  86 118 154 196 245 294 348
#     4  10  20  35  58  86 113 150 197 247 296 349
#     4  10  23  38  57  82 116 162 200 232 288 362
#     4  11  21  37  57  86 119 150 197 247 294 351
#     4  12  21  37  60  86 120 154 195 244 288 348
#     4  10  19  33  58  86 112 149 194 248 302 344
#     4   9  17  35  56  81 116 149 191 239 286 349
#     4  11  23  37  57  87 122 160 197 240 296 351
#
# _framework density 18.998849
#
# number of rings (size 3 to 8) (size 9 to 14) (size 15 to 20)
#    0.000    1.500    2.500    4.500    0.000    6.000 
#    0.000    1.875    0.000    2.250    0.000    1.750 
#    0.000    0.000    0.000    0.000    0.000    0.000 
#
# Total GULP energy -793723.997741 kJ/mol
# GULP energy per Si atom -12401.937465 kJ/mol
# Density = 1.895561 g / cm^3
# Si number density = 18.998849 Si / 1000 Ang^3
#
#
#
# Elastic Constant Matrix: (Units=GPa)
#
#
# Indices 1 2 3 4 5 6 
#
# 1 102.5541 63.0702 17.1099 0.0000 0.0000 0.0000
# 2 63.0702 134.7037 30.9570 0.0000 0.0000 0.0000
# 3 17.1099 30.9570 62.0869 0.0000 0.0000 0.0000
# 4 0.0000 0.0000 0.0000 1.1041 0.0000 0.0000
# 5 0.0000 0.0000 0.0000 0.0000 9.4202 0.0000
# 6 0.0000 0.0000 0.0000 0.0000 0.0000 3.6379
#
#
#
# Elastic Compliance Matrix: (Units=1/GPa)
#
#
# Indices 1 2 3 4 5 6 
#
# 1 0.013718 -0.006273 -0.000653 0.000000 0.000000 0.000000
# 2 -0.006273 0.011253 -0.003882 0.000000 0.000000 0.000000
# 3 -0.000653 -0.003882 0.018222 0.000000 0.000000 0.000000
# 4 0.000000 0.000000 0.000000 0.905713 0.000000 0.000000
# 5 0.000000 0.000000 0.000000 0.000000 0.106155 0.000000
# 6 0.000000 0.000000 0.000000 0.000000 0.000000 0.274882
#
#
# Mechanical properties :
#
#
# Convention : Reuss Voigt Hill
#
# Bulk Modulus (GPa) = 46.34490 57.95766 52.15128
# Shear Modulus (GPa) = 3.67986 15.37963 9.52974
#
# Velocity S-wave (km/s) = 1.39323 2.84826 2.24206
# Velocity P-wave (km/s) = 5.19948 6.43342 5.84908
#
# Compressibility (1/GPa) = 0.02157735
#
# Stress axis : x y z
#
# Youngs Moduli (GPa) = 72.89934 88.86621 54.87885
#
# Poissons Ratio (x) = 0.55744 0.03582
# Poissons Ratio (y) = 0.45728 0.21305
# Poissons Ratio (z) = 0.04758 0.34499
#
# Static dielectric constant tensor:
#      x y z
#    x 3.405360 0.000000 0.000000 
#    y 0.000000 3.694000 0.000000 
#    z 0.000000 0.000000 3.256430 
# 
# 
# High freq. dielectric constant tensor:
#      x y z
#    x 1.739030 0.000000 0.000000 
#    y 0.000000 1.753680 0.000000 
#    z 0.000000 0.000000 1.707670 
# 
# From -- ./inp_files/13267.got.cif
#   From: 2010.03.12/outbox.cif.g09.slc.cpg/sg53_7_cif.got.tgz:13267.got - 2010.04.16 14:36:59.
