data_PCOD8219506
_publ_section_title
;
Structure prediction by ZEFSAII (Michael W. Deem and Ramdas Pophale) SiO2 
 PCOD8219506
Probable space group: P M N A
;
_chemical_formula_sum "Si O2"
_cell_formula_units_Z 64
_cell_length_a 19.176683
_cell_length_b 18.013195
_cell_length_c 9.634471
_cell_angle_alpha 90.000000
_cell_angle_beta 90.000000
_cell_angle_gamma 90.000000
_cell_volume 3328.067404
_symmetry_space_group_name_H-M "P M N A"
_symmetry_group_IT_number 53
_symmetry_cell_setting 'orthorhombic'
loop_
_space_group_symop_operation_xyz
x,y,z
1/2-x,-y,1/2+z
x,-y,-z
1/2-x,y,1/2-z
-x,-y,-z
1/2+x,y,1/2-z
-x,y,z
1/2+x,-y,1/2+z
loop_
_atom_site_type_symbol
_atom_site_label
_atom_site_fract_x
_atom_site_fract_y
_atom_site_fract_z
Si Si1 0.079286 0.358771 0.189447
Si Si2 0.421490 0.913353 0.026831
Si Si3 0.181201 0.163331 0.325685
Si Si4 0.187256 0.669712 0.578138
Si Si5 0.580210 0.820313 0.289842
Si Si6 0.183625 0.583518 0.999637
Si Si7 0.421590 0.193328 0.406854
Si Si8 0.325791 0.316443 0.766908
O O1 0.124358 0.361256 0.329750
O O2 0.110111 0.418596 0.082096
O O3 0.084983 0.281773 0.105796
O O4 0.000000 0.378198 0.229167
O O5 0.500000 0.882638 0.984673
O O6 0.408694 0.890733 0.188330
O O7 0.353308 0.882398 0.950119
O O8 0.421504 0.000000 0.000000
O O9 0.250000 0.129807 0.250000
O O10 0.199163 0.243941 0.386876
O O11 0.122212 0.155971 0.211628
O O12 0.263028 0.631511 0.596951
O O13 0.165946 0.649958 0.420444
O O14 0.500000 0.797979 0.302321
O O15 0.607861 0.836436 0.445460
O O16 0.616351 0.746061 0.237918
O O17 0.212865 0.500000 0.000000
O O18 0.170360 0.617583 0.152934
O O19 0.500000 0.165988 0.383933
O O20 0.250000 0.277788 0.750000
#
# Coordination Sequence:
#
# PCOD8219506 Si02
#       8
#     8   8   8   8   8   8   8   8
#     4  10  20  35  57  84 116 150 196 252 304 356
#     4  10  22  41  63  89 124 164 203 249 313 377
#     4  11  21  35  59  87 120 157 199 254 300 362
#     4  10  21  37  58  86 116 155 203 246 300 369
#     4  10  19  35  60  86 114 149 195 250 298 357
#     4  11  23  39  60  84 121 160 202 251 312 376
#     4   9  18  33  56  86 115 149 197 245 294 354
#     4  10  21  35  57  87 113 151 201 250 299 354
#
# _framework density 19.230378999999999
#
# number of rings (size 3 to 8) (size 9 to 14) (size 15 to 20)
#    0.000    1.875    2.500    2.250    1.750    4.250 
#    0.000    2.500    0.000    5.625    0.000    0.000 
#    0.000    0.000    0.000    0.000    0.000    0.000 
#
# Total GULP energy -793007.075255 kJ/mol
# GULP energy per Si atom -12390.735551 kJ/mol
# Density = 1.918661 g / cm^3
# Si number density = 19.230379 Si / 1000 Ang^3
#
#
#
# Elastic Constant Matrix: (Units=GPa)
#
#
# Indices 1 2 3 4 5 6 
#
# 1 88.0775 23.4851 53.0147 0.0000 0.0000 0.0000
# 2 23.4851 69.3733 32.0937 0.0000 0.0000 0.0000
# 3 53.0147 32.0937 131.6043 0.0000 0.0000 0.0000
# 4 0.0000 0.0000 0.0000 22.6008 0.0000 0.0000
# 5 0.0000 0.0000 0.0000 0.0000 32.7185 0.0000
# 6 0.0000 0.0000 0.0000 0.0000 0.0000 56.0426
#
#
#
# Elastic Compliance Matrix: (Units=1/GPa)
#
#
# Indices 1 2 3 4 5 6 
#
# 1 0.015406 -0.002642 -0.005562 0.000000 0.000000 0.000000
# 2 -0.002642 0.016701 -0.003008 0.000000 0.000000 0.000000
# 3 -0.005562 -0.003008 0.010573 0.000000 0.000000 0.000000
# 4 0.000000 0.000000 0.000000 0.044246 0.000000 0.000000
# 5 0.000000 0.000000 0.000000 0.000000 0.030564 0.000000
# 6 0.000000 0.000000 0.000000 0.000000 0.000000 0.017844
#
#
# Mechanical properties :
#
#
# Convention : Reuss Voigt Hill
#
# Bulk Modulus (GPa) = 49.37131 56.24911 52.81021
# Shear Modulus (GPa) = 30.39343 34.30314 32.34828
#
# Velocity S-wave (km/s) = 3.97985 4.22809 4.10585
# Velocity P-wave (km/s) = 6.84458 7.29035 7.07098
#
# Compressibility (1/GPa) = 0.02025468
#
# Stress axis : x y z
#
# Youngs Moduli (GPa) = 64.91063 59.87653 94.58450
#
# Poissons Ratio (x) = 0.15822 0.52604
# Poissons Ratio (y) = 0.17152 0.28454
# Poissons Ratio (z) = 0.36101 0.18013
#
# Static dielectric constant tensor:
#      x y z
#    x 4.053690 0.000000 0.000000 
#    y 0.000000 3.104860 0.000000 
#    z 0.000000 0.000000 3.813560 
# 
# 
# High freq. dielectric constant tensor:
#      x y z
#    x 1.757150 0.000000 0.000000 
#    y 0.000000 1.702180 0.000000 
#    z 0.000000 0.000000 1.767140 
# 
# From -- ./inp_files/11226.got.cif
#   From: 2010.03.12/outbox.cif.g09.slc.cpg/sg53_6_cif.got.tgz:11226.got - 2010.04.16 14:36:59.
