data_PCOD8219828
_publ_section_title
;
Structure prediction by ZEFSAII (Michael W. Deem and Ramdas Pophale) SiO2 
 PCOD8219828
Probable space group: P M N A
;
_chemical_formula_sum "Si O2"
_cell_formula_units_Z 48
_cell_length_a 8.683820
_cell_length_b 31.085979
_cell_length_c 9.011292
_cell_angle_alpha 90.000000
_cell_angle_beta 90.000000
_cell_angle_gamma 90.000000
_cell_volume 2432.553635
_symmetry_space_group_name_H-M "P M N A"
_symmetry_group_IT_number 53
_symmetry_cell_setting 'orthorhombic'
loop_
_space_group_symop_operation_xyz
x,y,z
1/2-x,-y,1/2+z
x,-y,-z
1/2-x,y,1/2-z
-x,-y,-z
1/2+x,y,1/2-z
-x,y,z
1/2+x,-y,1/2+z
loop_
_atom_site_type_symbol
_atom_site_label
_atom_site_fract_x
_atom_site_fract_y
_atom_site_fract_z
Si Si1 0.318126 0.041558 0.586868
Si Si2 0.182126 0.380531 0.910814
Si Si3 0.317487 0.302577 0.088276
Si Si4 0.319278 0.873701 0.087554
Si Si5 0.322932 0.543192 0.907635
Si Si6 0.819840 0.779448 0.411484
O O1 0.250000 0.039065 0.750000
O O2 0.500000 0.042307 0.593953
O O3 0.259040 0.085482 0.504219
O O4 0.256477 0.000000 0.500000
O O5 0.250000 0.390469 0.750000
O O6 0.000000 0.375673 0.900198
O O7 0.253801 0.336920 0.972791
O O8 0.224251 0.419497 0.017933
O O9 0.250000 0.311153 0.250000
O O10 0.500000 0.306396 0.096923
O O11 0.262043 0.255941 0.029070
O O12 0.250000 0.872871 0.250000
O O13 0.500000 0.881916 0.093774
O O14 0.279264 0.826689 0.019088
O O15 0.250000 0.533012 0.750000
O O16 0.500000 0.558184 0.892762
O O17 0.309088 0.500000 0.000000
O O18 0.750000 0.771393 0.250000
O O19 0.000000 0.775232 0.386677
#
# Coordination Sequence:
#
# PCOD8219828 Si02
#       6
#     8   8   8   8   8   8
#     4  10  20  33  50  74 102 134 174 217 264 319
#     4  12  25  42  64  90 120 154 195 241 288 338
#     4  11  23  40  59  83 116 152 190 231 281 336
#     4   9  16  29  50  75 102 134 173 217 267 320
#     4  11  24  42  65  93 125 161 200 242 290 342
#     4   9  19  34  55  81 107 137 177 224 271 325
#
# _framework density 19.732348999999999
#
# number of rings (size 3 to 8) (size 9 to 14) (size 15 to 20)
#    0.000    1.667    0.000    6.000    0.000    7.333 
#    0.000    0.833    0.000    4.000    0.000    0.000 
#    0.000    0.000    0.000    0.000    0.000    0.000 
#
# Total GULP energy -595094.390465 kJ/mol
# GULP energy per Si atom -12397.799801 kJ/mol
# Density = 1.968744 g / cm^3
# Si number density = 19.732349 Si / 1000 Ang^3
#
#
#
# Elastic Constant Matrix: (Units=GPa)
#
#
# Indices 1 2 3 4 5 6 
#
# 1 91.2290 44.2486 28.9441 0.0000 0.0000 0.0000
# 2 44.2486 134.6258 30.7881 0.0000 0.0000 0.0000
# 3 28.9441 30.7881 82.6125 0.0000 0.0000 0.0000
# 4 0.0000 0.0000 0.0000 -9.4766 0.0000 0.0000
# 5 0.0000 0.0000 0.0000 0.0000 22.7541 0.0000
# 6 0.0000 0.0000 0.0000 0.0000 0.0000 52.5805
#
#
#
# Elastic Compliance Matrix: (Units=1/GPa)
#
#
# Indices 1 2 3 4 5 6 
#
# 1 0.013890 -0.003774 -0.003460 0.000000 0.000000 0.000000
# 2 -0.003774 0.009145 -0.002086 0.000000 0.000000 0.000000
# 3 -0.003460 -0.002086 0.014094 0.000000 0.000000 0.000000
# 4 0.000000 0.000000 0.000000 -0.105523 0.000000 0.000000
# 5 0.000000 0.000000 0.000000 0.000000 0.043948 0.000000
# 6 0.000000 0.000000 0.000000 0.000000 0.000000 0.019018
#
#
# Mechanical properties :
#
#
# Convention : Reuss Voigt Hill
#
# Bulk Modulus (GPa) = 54.08454 57.38099 55.73276
# Shear Modulus (GPa) = 258.05389 26.80403 142.42896
#
# Velocity S-wave (km/s) = 11.44819 3.68962 8.50512
# Velocity P-wave (km/s) = 14.22029 6.87705 11.16939
#
# Compressibility (1/GPa) = 0.01848957
#
# Stress axis : x y z
#
# Youngs Moduli (GPa) = 71.99628 109.34344 70.95036
#
# Poissons Ratio (x) = 0.41266 0.24548
# Poissons Ratio (y) = 0.27171 0.14801
# Poissons Ratio (z) = 0.24910 0.22810
#
# Static dielectric constant tensor:
#      x y z
#    x 3.759960 0.000000 0.000000 
#    y 0.000000 4.647660 0.000000 
#    z 0.000000 0.000000 3.441230 
# 
# 
# High freq. dielectric constant tensor:
#      x y z
#    x 1.781820 0.000000 0.000000 
#    y 0.000000 1.798310 0.000000 
#    z 0.000000 0.000000 1.744540 
# 
# From -- ./inp_files/6733.got.cif
#   From: 2010.03.12/outbox.cif.g09.slc.cpg/sg53_4_cif.got.tgz:6733.got - 2010.04.16 14:36:59.
