data_PCOD8219212
_publ_section_title
;
Structure prediction by ZEFSAII (Michael W. Deem and Ramdas Pophale) SiO2 
 PCOD8219212
Probable space group: P M N A
;
_chemical_formula_sum "Si O2"
_cell_formula_units_Z 44
_cell_length_a 17.812916
_cell_length_b 9.198036
_cell_length_c 14.539360
_cell_angle_alpha 90.000000
_cell_angle_beta 90.000000
_cell_angle_gamma 90.000000
_cell_volume 2382.184612
_symmetry_space_group_name_H-M "P M N A"
_symmetry_group_IT_number 53
_symmetry_cell_setting 'orthorhombic'
loop_
_space_group_symop_operation_xyz
x,y,z
1/2-x,-y,1/2+z
x,-y,-z
1/2-x,y,1/2-z
-x,-y,-z
1/2+x,y,1/2-z
-x,y,z
1/2+x,-y,1/2+z
loop_
_atom_site_type_symbol
_atom_site_label
_atom_site_fract_x
_atom_site_fract_y
_atom_site_fract_z
Si Si1 0.202828 0.515473 0.602645
Si Si2 0.584874 0.419721 0.258525
Si Si3 0.717725 0.000000 0.500000
Si Si4 0.844207 0.722483 0.912749
Si Si5 0.414931 0.681339 0.401328
Si Si6 0.266737 0.201610 0.649729
O O1 0.169857 0.500000 0.500000
O O2 0.135183 0.558355 0.669090
O O3 0.265547 0.639806 0.603101
O O4 0.237036 0.364250 0.637673
O O5 0.500000 0.404303 0.223481
O O6 0.610417 0.277758 0.316281
O O7 0.594773 0.546456 0.333261
O O8 0.667508 0.110101 0.439646
O O9 0.768499 0.093991 0.571982
O O10 0.891258 0.641320 0.993862
O O11 0.500000 0.740987 0.399237
O O12 0.356990 0.804053 0.365448
O O13 0.250000 0.139246 0.750000
#
# Coordination Sequence:
#
# PCOD8219212 Si02
#       6
#     8   8   4   8   8   8
#     4  12  20  37  63  82 113 149 199 247 283 328
#     4  11  22  34  57  90 114 147 192 242 294 337
#     4  10  24  34  57  90 117 154 190 232 290 346
#     4  11  20  37  57  88 116 147 184 237 297 351
#     4  10  19  33  57  88 112 139 181 236 296 343
#     4  11  20  39  57  87 114 153 194 234 290 344
#
# _framework density 18.470441000000001
#
# number of rings (size 3 to 8) (size 9 to 14) (size 15 to 20)
#    0.000    1.091    7.273    1.636    0.000    3.273 
#    0.000   11.364    0.000    0.000    0.000    1.909 
#    0.000    0.000    0.000    0.000    0.000    0.000 
#
# Total GULP energy -545270.316298 kJ/mol
# GULP energy per Si atom -12392.507189 kJ/mol
# Density = 1.842840 g / cm^3
# Si number density = 18.470441 Si / 1000 Ang^3
#
#
#
# Elastic Constant Matrix: (Units=GPa)
#
#
# Indices 1 2 3 4 5 6 
#
# 1 129.8845 30.0861 77.1577 0.0000 0.0000 0.0000
# 2 30.0861 89.5118 34.8094 0.0000 0.0000 0.0000
# 3 77.1577 34.8094 146.1347 0.0000 0.0000 0.0000
# 4 0.0000 0.0000 0.0000 24.9294 0.0000 0.0000
# 5 0.0000 0.0000 0.0000 0.0000 35.6398 0.0000
# 6 0.0000 0.0000 0.0000 0.0000 0.0000 5.6031
#
#
#
# Elastic Compliance Matrix: (Units=1/GPa)
#
#
# Indices 1 2 3 4 5 6 
#
# 1 0.011434 -0.001648 -0.005644 0.000000 0.000000 0.000000
# 2 -0.001648 0.012550 -0.002119 0.000000 0.000000 0.000000
# 3 -0.005644 -0.002119 0.010328 0.000000 0.000000 0.000000
# 4 0.000000 0.000000 0.000000 0.040113 0.000000 0.000000
# 5 0.000000 0.000000 0.000000 0.000000 0.028058 0.000000
# 6 0.000000 0.000000 0.000000 0.000000 0.000000 0.178471
#
#
# Mechanical properties :
#
#
# Convention : Reuss Voigt Hill
#
# Bulk Modulus (GPa) = 64.56492 72.18195 68.37343
# Shear Modulus (GPa) = 16.39660 28.13300 22.26480
#
# Velocity S-wave (km/s) = 2.98270 3.90697 3.47569
# Velocity P-wave (km/s) = 6.84790 7.71473 7.29420
#
# Compressibility (1/GPa) = 0.01548829
#
# Stress axis : x y z
#
# Youngs Moduli (GPa) = 87.45849 79.68273 96.82406
#
# Poissons Ratio (x) = 0.13133 0.54652
# Poissons Ratio (y) = 0.14414 0.20519
# Poissons Ratio (z) = 0.49366 0.16886
#
# Static dielectric constant tensor:
#      x y z
#    x 3.347670 0.000000 0.000000 
#    y 0.000000 3.329960 0.000000 
#    z 0.000000 0.000000 3.750970 
# 
# 
# High freq. dielectric constant tensor:
#      x y z
#    x 1.690580 0.000000 0.000000 
#    y 0.000000 1.697610 0.000000 
#    z 0.000000 0.000000 1.732250 
# 
# From -- ./inp_files/23547.got.cif
#   From: 2010.03.12/outbox.cif.g09.slc.cpg/sg53_12_cif.got.tgz:23547.got - 2010.04.16 14:36:59.
