data_PCOD8219399
_publ_section_title
;
Structure prediction by ZEFSAII (Michael W. Deem and Ramdas Pophale) SiO2 
 PCOD8219399
Probable space group: P M N A
;
_chemical_formula_sum "Si O2"
_cell_formula_units_Z 64
_cell_length_a 18.173923
_cell_length_b 5.888027
_cell_length_c 28.654111
_cell_angle_alpha 90.000000
_cell_angle_beta 90.000000
_cell_angle_gamma 90.000000
_cell_volume 3066.234850
_symmetry_space_group_name_H-M "P M N A"
_symmetry_group_IT_number 53
_symmetry_cell_setting 'orthorhombic'
loop_
_space_group_symop_operation_xyz
x,y,z
1/2-x,-y,1/2+z
x,-y,-z
1/2-x,y,1/2-z
-x,-y,-z
1/2+x,y,1/2-z
-x,y,z
1/2+x,-y,1/2+z
loop_
_atom_site_type_symbol
_atom_site_label
_atom_site_fract_x
_atom_site_fract_y
_atom_site_fract_z
Si Si1 0.583303 0.107185 0.306547
Si Si2 0.175600 0.553393 0.352702
Si Si3 0.583138 0.761521 0.796907
Si Si4 0.416322 0.063923 0.887810
Si Si5 0.416234 0.435757 0.389990
Si Si6 0.780695 0.832495 0.579529
Si Si7 0.188553 0.183972 0.863642
Si Si8 0.652475 0.248003 0.477228
O O1 0.500000 0.014389 0.309338
O O2 0.606392 0.148802 0.253350
O O3 0.591762 0.331141 0.338124
O O4 0.637439 0.914033 0.323617
O O5 0.138114 0.443735 0.307697
O O6 0.111607 0.679205 0.382379
O O7 0.216001 0.378466 0.386284
O O8 0.241621 0.713311 0.335709
O O9 0.500000 0.667452 0.795769
O O10 0.591452 0.952234 0.836673
O O11 0.500000 0.056991 0.906467
O O12 0.363200 0.936524 0.925281
O O13 0.500000 0.515652 0.398803
O O14 0.360282 0.645120 0.394568
O O15 0.392771 0.249185 0.428477
O O16 0.741932 0.757015 0.531059
O O17 0.722201 0.010444 0.599691
O O18 0.633713 0.500000 0.500000
O O19 0.629691 0.000000 0.500000
#
# Coordination Sequence:
#
# PCOD8219399 Si02
#       8
#     8   8   8   8   8   8   8   8
#     4  10  21  37  59  81 123 173 209 261 316 376
#     4  10  19  34  62  84 122 164 207 265 314 373
#     4   9  19  36  54  88 125 161 215 262 310 368
#     4   9  19  35  62  92 123 164 210 258 311 378
#     4  11  24  42  64  90 123 167 214 264 323 390
#     4  10  21  40  62  90 126 164 203 260 324 397
#     4  11  19  38  60  83 121 170 218 257 322 385
#     4  12  26  44  72 100 128 167 215 277 340 402
#
# _framework density 20.872503999999999
#
# number of rings (size 3 to 8) (size 9 to 14) (size 15 to 20)
#    0.000    1.750    2.500    1.500    1.750    2.000 
#    0.000   18.750    0.000    0.750    0.000    0.000 
#    0.000    0.000    0.000    0.000    0.000    0.000 
#
# Total GULP energy -793020.213725 kJ/mol
# GULP energy per Si atom -12390.940839 kJ/mol
# Density = 2.082500 g / cm^3
# Si number density = 20.872504 Si / 1000 Ang^3
#
#
#
# Elastic Constant Matrix: (Units=GPa)
#
#
# Indices 1 2 3 4 5 6 
#
# 1 114.1964 38.0513 5.3959 0.0000 0.0000 0.0000
# 2 38.0513 95.7587 10.0566 0.0000 0.0000 0.0000
# 3 5.3959 10.0566 26.9144 0.0000 0.0000 0.0000
# 4 0.0000 0.0000 0.0000 21.0077 0.0000 0.0000
# 5 0.0000 0.0000 0.0000 0.0000 22.8302 0.0000
# 6 0.0000 0.0000 0.0000 0.0000 0.0000 37.7923
#
#
#
# Elastic Compliance Matrix: (Units=1/GPa)
#
#
# Indices 1 2 3 4 5 6 
#
# 1 0.010101 -0.003956 -0.000547 0.000000 0.000000 0.000000
# 2 -0.003956 0.012419 -0.003847 0.000000 0.000000 0.000000
# 3 -0.000547 -0.003847 0.038702 0.000000 0.000000 0.000000
# 4 0.000000 0.000000 0.000000 0.047602 0.000000 0.000000
# 5 0.000000 0.000000 0.000000 0.000000 0.043802 0.000000
# 6 0.000000 0.000000 0.000000 0.000000 0.000000 0.026460
#
#
# Mechanical properties :
#
#
# Convention : Reuss Voigt Hill
#
# Bulk Modulus (GPa) = 22.46118 38.20857 30.33487
# Shear Modulus (GPa) = 23.73868 28.55043 26.14455
#
# Velocity S-wave (km/s) = 3.37607 3.70246 3.54303
# Velocity P-wave (km/s) = 5.09722 6.05169 5.59485
#
# Compressibility (1/GPa) = 0.04452127
#
# Stress axis : x y z
#
# Youngs Moduli (GPa) = 99.00031 80.52129 25.83849
#
# Poissons Ratio (x) = 0.31857 0.01413
# Poissons Ratio (y) = 0.39168 0.09941
# Poissons Ratio (z) = 0.05413 0.30978
#
# Static dielectric constant tensor:
#      x y z
#    x 4.070480 0.000000 0.000000 
#    y 0.000000 3.963280 0.000000 
#    z 0.000000 0.000000 3.565380 
# 
# 
# High freq. dielectric constant tensor:
#      x y z
#    x 1.833780 0.000000 0.000000 
#    y 0.000000 1.823150 0.000000 
#    z 0.000000 0.000000 1.783950 
# 
# From -- ./inp_files/39028.got.cif
#   From: 2010.03.12/outbox.cif.g09.slc.cpg/sg53_20_cif.got.tgz:39028.got - 2010.04.16 14:36:59.
