data_PCOD8219809
_publ_section_title
;
Structure prediction by ZEFSAII (Michael W. Deem and Ramdas Pophale) SiO2 
 PCOD8219809
Probable space group: P M N A
;
_chemical_formula_sum "Si O2"
_cell_formula_units_Z 48
_cell_length_a 9.215312
_cell_length_b 18.511294
_cell_length_c 16.435771
_cell_angle_alpha 90.000000
_cell_angle_beta 90.000000
_cell_angle_gamma 90.000000
_cell_volume 2803.734616
_symmetry_space_group_name_H-M "P M N A"
_symmetry_group_IT_number 53
_symmetry_cell_setting 'orthorhombic'
loop_
_space_group_symop_operation_xyz
x,y,z
1/2-x,-y,1/2+z
x,-y,-z
1/2-x,y,1/2-z
-x,-y,-z
1/2+x,y,1/2-z
-x,y,z
1/2+x,-y,1/2+z
loop_
_atom_site_type_symbol
_atom_site_label
_atom_site_fract_x
_atom_site_fract_y
_atom_site_fract_z
Si Si1 0.164103 0.339108 0.170221
Si Si2 0.833117 0.921814 0.025027
Si Si3 0.829402 0.838958 0.333090
Si Si4 0.332878 0.297591 0.929522
Si Si5 0.170799 0.581505 0.994847
Si Si6 0.662994 0.216466 0.438787
O O1 0.250000 0.361487 0.250000
O O2 0.217565 0.385124 0.092174
O O3 0.182457 0.252743 0.150478
O O4 0.000000 0.359364 0.189896
O O5 0.737572 0.889753 0.097427
O O6 0.000000 0.927502 0.054534
O O7 0.822051 0.870380 0.944182
O O8 0.772025 0.000000 0.000000
O O9 0.750000 0.858877 0.250000
O O10 0.803307 0.753396 0.351187
O O11 0.000000 0.855827 0.326696
O O12 0.500000 0.318699 0.936825
O O13 0.241654 0.372104 0.931233
O O14 0.287586 0.249450 0.005897
O O15 0.000000 0.584321 0.008009
O O16 0.229687 0.500000 0.000000
O O17 0.500000 0.238937 0.470180
#
# Coordination Sequence:
#
# PCOD8219809 Si02
#       6
#     8   8   8   8   8   8
#     4   9  17  29  46  67  90 118 152 189 228 271
#     4   9  17  31  52  74  97 127 161 198 242 292
#     4  10  20  33  50  72  98 128 164 205 247 290
#     4   9  17  29  47  71  93 116 153 197 235 273
#     4   9  18  33  51  69  92 125 159 189 232 292
#     4   8  15  29  47  66  90 122 157 187 223 279
#
# _framework density 17.120021999999999
#
# number of rings (size 3 to 8) (size 9 to 14) (size 15 to 20)
#    0.000    3.000    0.000    2.000    0.000    5.333 
#    0.000    1.667    0.000    6.000    0.000    0.000 
#    0.000    0.000    0.000    0.000    0.000    0.000 
#
# Total GULP energy -594639.655234 kJ/mol
# GULP energy per Si atom -12388.326151 kJ/mol
# Density = 1.708106 g / cm^3
# Si number density = 17.120022 Si / 1000 Ang^3
#
#
#
# Elastic Constant Matrix: (Units=GPa)
#
#
# Indices 1 2 3 4 5 6 
#
# 1 65.2021 42.1830 40.3418 0.0000 0.0000 0.0000
# 2 42.1830 138.1509 41.8900 0.0000 0.0000 0.0000
# 3 40.3418 41.8900 75.9502 0.0000 0.0000 0.0000
# 4 0.0000 0.0000 0.0000 16.5329 0.0000 0.0000
# 5 0.0000 0.0000 0.0000 0.0000 22.3373 0.0000
# 6 0.0000 0.0000 0.0000 0.0000 0.0000 22.7587
#
#
#
# Elastic Compliance Matrix: (Units=1/GPa)
#
#
# Indices 1 2 3 4 5 6 
#
# 1 0.024801 -0.004297 -0.010803 0.000000 0.000000 0.000000
# 2 -0.004297 0.009437 -0.002922 0.000000 0.000000 0.000000
# 3 -0.010803 -0.002922 0.020517 0.000000 0.000000 0.000000
# 4 0.000000 0.000000 0.000000 0.060485 0.000000 0.000000
# 5 0.000000 0.000000 0.000000 0.000000 0.044768 0.000000
# 6 0.000000 0.000000 0.000000 0.000000 0.000000 0.043939
#
#
# Mechanical properties :
#
#
# Convention : Reuss Voigt Hill
#
# Bulk Modulus (GPa) = 53.45028 58.68143 56.06586
# Shear Modulus (GPa) = 20.30629 22.65168 21.47898
#
# Velocity S-wave (km/s) = 3.44774 3.64140 3.54589
# Velocity P-wave (km/s) = 6.86570 7.21323 7.04161
#
# Compressibility (1/GPa) = 0.01870897
#
# Stress axis : x y z
#
# Youngs Moduli (GPa) = 40.32063 105.97026 48.74076
#
# Poissons Ratio (x) = 0.45535 0.52657
# Poissons Ratio (y) = 0.17326 0.14244
# Poissons Ratio (z) = 0.43560 0.30968
#
# Static dielectric constant tensor:
#      x y z
#    x 3.182630 0.000000 0.000000 
#    y 0.000000 3.438680 0.000000 
#    z 0.000000 0.000000 2.968440 
# 
# 
# High freq. dielectric constant tensor:
#      x y z
#    x 1.663090 0.000000 0.000000 
#    y 0.000000 1.659060 0.000000 
#    z 0.000000 0.000000 1.626130 
# 
# From -- ./inp_files/26401.got.cif
#   From: 2010.03.12/outbox.cif.g09.slc.cpg/sg53_14_cif.got.tgz:26401.got - 2010.04.16 14:36:59.
