data_PCOD8219438
_publ_section_title
;
Structure prediction by ZEFSAII (Michael W. Deem and Ramdas Pophale) SiO2 
 PCOD8219438
Probable space group: P M N A
;
_chemical_formula_sum "Si O2"
_cell_formula_units_Z 48
_cell_length_a 8.549559
_cell_length_b 9.080316
_cell_length_c 30.766240
_cell_angle_alpha 90.000000
_cell_angle_beta 90.000000
_cell_angle_gamma 90.000000
_cell_volume 2388.466199
_symmetry_space_group_name_H-M "P M N A"
_symmetry_group_IT_number 53
_symmetry_cell_setting 'orthorhombic'
loop_
_space_group_symop_operation_xyz
x,y,z
1/2-x,-y,1/2+z
x,-y,-z
1/2-x,y,1/2-z
-x,-y,-z
1/2+x,y,1/2-z
-x,y,z
1/2+x,-y,1/2+z
loop_
_atom_site_type_symbol
_atom_site_label
_atom_site_fract_x
_atom_site_fract_y
_atom_site_fract_z
Si Si1 0.816373 0.074230 0.875033
Si Si2 0.683686 0.096956 0.204170
Si Si3 0.315003 0.584094 0.703965
Si Si4 0.818779 0.598413 0.957922
Si Si5 0.317930 0.085153 0.043222
Si Si6 0.314578 0.406004 0.621762
O O1 0.754548 0.239409 0.883965
O O2 0.000000 0.070099 0.865043
O O3 0.725168 0.018410 0.832945
O O4 0.781414 0.974389 0.916532
O O5 0.750000 0.038613 0.250000
O O6 0.500000 0.116235 0.208505
O O7 0.756465 0.253910 0.191796
O O8 0.250000 0.528743 0.750000
O O9 0.500000 0.587976 0.706130
O O10 0.253932 0.471439 0.667393
O O11 0.716306 0.743639 0.963393
O O12 0.750532 0.506826 0.917248
O O13 0.000000 0.642113 0.951295
O O14 0.795667 0.500000 0.000000
O O15 0.500000 0.060011 0.052911
O O16 0.264347 0.000000 0.000000
O O17 0.500000 0.407715 0.619771
#
# Coordination Sequence:
#
# PCOD8219438 Si02
#       6
#     8   8   8   8   8   8
#     4  11  22  39  61  85 115 152 193 238 288 341
#     4  11  22  38  59  86 117 152 194 237 286 342
#     4  10  19  35  57  82 112 148 190 235 284 337
#     4  10  20  37  62  88 112 145 191 237 284 341
#     4  11  24  40  58  85 120 155 192 236 287 342
#     4   9  20  36  56  83 113 144 184 235 286 337
#
# _framework density 20.096578000000001
#
# number of rings (size 3 to 8) (size 9 to 14) (size 15 to 20)
#    0.000    1.667    0.000    6.000    0.000    5.000 
#    0.000    7.500    0.000    0.000    0.000    0.000 
#    0.000    0.000    0.000    0.000    0.000    0.000 
#
# Total GULP energy -595429.725141 kJ/mol
# GULP energy per Si atom -12404.785940 kJ/mol
# Density = 2.005084 g / cm^3
# Si number density = 20.096578 Si / 1000 Ang^3
#
#
#
# Elastic Constant Matrix: (Units=GPa)
#
#
# Indices 1 2 3 4 5 6 
#
# 1 60.3378 15.9547 31.9063 0.0000 0.0000 0.0000
# 2 15.9547 117.6194 61.0896 0.0000 0.0000 0.0000
# 3 31.9063 61.0896 133.8202 0.0000 0.0000 0.0000
# 4 0.0000 0.0000 0.0000 39.2948 0.0000 0.0000
# 5 0.0000 0.0000 0.0000 0.0000 29.7282 0.0000
# 6 0.0000 0.0000 0.0000 0.0000 0.0000 7.2276
#
#
#
# Elastic Compliance Matrix: (Units=1/GPa)
#
#
# Indices 1 2 3 4 5 6 
#
# 1 0.018972 -0.000294 -0.004389 0.000000 0.000000 0.000000
# 2 -0.000294 0.011149 -0.005019 0.000000 0.000000 0.000000
# 3 -0.004389 -0.005019 0.010811 0.000000 0.000000 0.000000
# 4 0.000000 0.000000 0.000000 0.025449 0.000000 0.000000
# 5 0.000000 0.000000 0.000000 0.000000 0.033638 0.000000
# 6 0.000000 0.000000 0.000000 0.000000 0.000000 0.138359
#
#
# Mechanical properties :
#
#
# Convention : Reuss Voigt Hill
#
# Bulk Modulus (GPa) = 46.45442 58.85319 52.65381
# Shear Modulus (GPa) = 18.87094 28.77189 23.82142
#
# Velocity S-wave (km/s) = 3.06766 3.78786 3.44662
# Velocity P-wave (km/s) = 5.97605 6.96271 6.48816
#
# Compressibility (1/GPa) = 0.02152648
#
# Stress axis : x y z
#
# Youngs Moduli (GPa) = 52.70898 89.69508 92.50113
#
# Poissons Ratio (x) = 0.02635 0.40602
# Poissons Ratio (y) = 0.01548 0.46431
# Poissons Ratio (z) = 0.23136 0.45022
#
# Static dielectric constant tensor:
#      x y z
#    x 3.499030 0.000000 0.000000 
#    y 0.000000 3.740190 0.000000 
#    z 0.000000 0.000000 3.884590 
# 
# 
# High freq. dielectric constant tensor:
#      x y z
#    x 1.773960 0.000000 0.000000 
#    y 0.000000 1.789380 0.000000 
#    z 0.000000 0.000000 1.801680 
# 
# From -- ./inp_files/37756.got.cif
#   From: 2010.03.12/outbox.cif.g09.slc.cpg/sg53_19_cif.got.tgz:37756.got - 2010.04.16 14:36:59.
