data_PCOD8219393
_publ_section_title
;
Structure prediction by ZEFSAII (Michael W. Deem and Ramdas Pophale) SiO2 
 PCOD8219393
Probable space group: P M N A
;
_chemical_formula_sum "Si O2"
_cell_formula_units_Z 64
_cell_length_a 15.340766
_cell_length_b 23.633009
_cell_length_c 9.053483
_cell_angle_alpha 90.000000
_cell_angle_beta 90.000000
_cell_angle_gamma 90.000000
_cell_volume 3282.326328
_symmetry_space_group_name_H-M "P M N A"
_symmetry_group_IT_number 53
_symmetry_cell_setting 'orthorhombic'
loop_
_space_group_symop_operation_xyz
x,y,z
1/2-x,-y,1/2+z
x,-y,-z
1/2-x,y,1/2-z
-x,-y,-z
1/2+x,y,1/2-z
-x,y,z
1/2+x,-y,1/2+z
loop_
_atom_site_type_symbol
_atom_site_label
_atom_site_fract_x
_atom_site_fract_y
_atom_site_fract_z
Si Si1 0.746892 0.559901 0.424803
Si Si2 0.403447 0.636232 0.070978
Si Si3 0.154928 0.248481 0.069501
Si Si4 0.100134 0.123838 0.081297
Si Si5 0.902124 0.871225 0.577039
Si Si6 0.147806 0.747137 0.585603
Si Si7 0.402696 0.642882 0.408968
Si Si8 0.753108 0.940170 0.425704
O O1 0.736350 0.500000 0.500000
O O2 0.750000 0.550992 0.250000
O O3 0.834263 0.590029 0.486247
O O4 0.665265 0.598139 0.476578
O O5 0.500000 0.609643 0.055913
O O6 0.380344 0.652110 0.238165
O O7 0.401721 0.693898 0.980292
O O8 0.112485 0.188367 0.029875
O O9 0.255251 0.248546 0.019173
O O10 0.147956 0.262045 0.240694
O O11 0.102735 0.296227 0.983624
O O12 0.126424 0.117426 0.253472
O O13 0.000000 0.105729 0.055243
O O14 0.161445 0.083885 0.984081
O O15 0.902793 0.804341 0.544430
O O16 0.834011 0.900426 0.468224
O O17 0.000000 0.894302 0.547851
O O18 0.500000 0.618594 0.432073
O O19 0.750000 0.946323 0.250000
O O20 0.770941 0.000000 0.500000
#
# Coordination Sequence:
#
# PCOD8219393 Si02
#       8
#     8   8   8   8   8   8   8   8
#     4  10  22  39  56  77 107 144 190 238 285 334
#     4  10  21  37  57  82 114 150 186 228 282 342
#     4  10  19  34  60  90 120 152 188 230 280 340
#     4  10  21  40  65  91 122 158 196 241 293 349
#     4  10  21  40  65  91 122 158 196 241 293 349
#     4  10  19  34  60  90 120 152 188 230 280 340
#     4  10  21  37  57  82 114 150 186 228 282 342
#     4  12  26  43  64  87 119 158 202 250 295 348
#
# _framework density 19.498366999999998
#
# number of rings (size 3 to 8) (size 9 to 14) (size 15 to 20)
#    0.000    1.750    2.500    1.875    0.000    5.000 
#    0.000    0.000    0.000    0.000    0.000    0.000 
#    0.000    0.000    0.000    0.000    0.000    0.000 
#
# Total GULP energy -793770.083784 kJ/mol
# GULP energy per Si atom -12402.657559 kJ/mol
# Density = 1.945399 g / cm^3
# Si number density = 19.498367 Si / 1000 Ang^3
#
#
#
# Elastic Constant Matrix: (Units=GPa)
#
#
# Indices 1 2 3 4 5 6 
#
# 1 110.1562 17.5181 22.8166 0.0000 0.0000 0.0000
# 2 17.5181 72.5135 24.3089 0.0000 0.0000 0.0000
# 3 22.8166 24.3089 53.4735 0.0000 0.0000 0.0000
# 4 0.0000 0.0000 0.0000 33.8210 0.0000 0.0000
# 5 0.0000 0.0000 0.0000 0.0000 19.5580 0.0000
# 6 0.0000 0.0000 0.0000 0.0000 0.0000 11.0310
#
#
#
# Elastic Compliance Matrix: (Units=1/GPa)
#
#
# Indices 1 2 3 4 5 6 
#
# 1 0.010041 -0.001167 -0.003754 0.000000 0.000000 0.000000
# 2 -0.001167 0.016406 -0.006960 0.000000 0.000000 0.000000
# 3 -0.003754 -0.006960 0.023466 0.000000 0.000000 0.000000
# 4 0.000000 0.000000 0.000000 0.029567 0.000000 0.000000
# 5 0.000000 0.000000 0.000000 0.000000 0.051130 0.000000
# 6 0.000000 0.000000 0.000000 0.000000 0.000000 0.090653
#
#
# Mechanical properties :
#
#
# Convention : Reuss Voigt Hill
#
# Bulk Modulus (GPa) = 38.23900 40.60337 39.42119
# Shear Modulus (GPa) = 19.70495 24.31532 22.01013
#
# Velocity S-wave (km/s) = 3.18243 3.53518 3.36344
# Velocity P-wave (km/s) = 5.75828 6.12638 5.94518
#
# Compressibility (1/GPa) = 0.02615131
#
# Stress axis : x y z
#
# Youngs Moduli (GPa) = 99.58984 60.95432 42.61396
#
# Poissons Ratio (x) = 0.07116 0.15996
# Poissons Ratio (y) = 0.11626 0.29659
# Poissons Ratio (z) = 0.37384 0.42423
#
# Static dielectric constant tensor:
#      x y z
#    x 3.780450 0.000000 0.000000 
#    y 0.000000 3.454320 0.000000 
#    z 0.000000 0.000000 3.401310 
# 
# 
# High freq. dielectric constant tensor:
#      x y z
#    x 1.777850 0.000000 0.000000 
#    y 0.000000 1.753160 0.000000 
#    z 0.000000 0.000000 1.744570 
# 
# From -- ./inp_files/8981.got.cif
#   From: 2010.03.12/outbox.cif.g09.slc.cpg/sg53_5_cif.got.tgz:8981.got - 2010.04.16 14:36:59.
