data_PCOD8219824
_publ_section_title
;
Structure prediction by ZEFSAII (Michael W. Deem and Ramdas Pophale) SiO2 
 PCOD8219824
Probable space group: P M N A
;
_chemical_formula_sum "Si O2"
_cell_formula_units_Z 32
_cell_length_a 8.918738
_cell_length_b 20.950756
_cell_length_c 9.277824
_cell_angle_alpha 90.000000
_cell_angle_beta 90.000000
_cell_angle_gamma 90.000000
_cell_volume 1733.601343
_symmetry_space_group_name_H-M "P M N A"
_symmetry_group_IT_number 53
_symmetry_cell_setting 'orthorhombic'
loop_
_space_group_symop_operation_xyz
x,y,z
1/2-x,-y,1/2+z
x,-y,-z
1/2-x,y,1/2-z
-x,-y,-z
1/2+x,y,1/2-z
-x,y,z
1/2+x,-y,1/2+z
loop_
_atom_site_type_symbol
_atom_site_label
_atom_site_fract_x
_atom_site_fract_y
_atom_site_fract_z
Si Si1 0.824548 0.183688 0.595067
Si Si2 0.323037 0.939452 0.406009
Si Si3 0.823080 0.440051 0.404630
Si Si4 0.825181 0.675851 0.404239
O O1 0.750000 0.186086 0.750000
O O2 0.743619 0.124313 0.514180
O O3 0.794909 0.253680 0.526232
O O4 0.000000 0.168980 0.607312
O O5 0.250000 0.948158 0.250000
O O6 0.500000 0.932478 0.390455
O O7 0.276614 0.000000 0.500000
O O8 0.772216 0.500000 0.500000
O O9 0.750000 0.446094 0.250000
O O10 0.763415 0.375974 0.482913
O O11 0.000000 0.438186 0.383845
O O12 0.750000 0.666234 0.250000
O O13 0.000000 0.665374 0.376623
#
# Coordination Sequence:
#
# PCOD8219824 Si02
#       4
#     8   8   8   8
#     4   9  16  28  48  71  97 128 162 201 244 291
#     4  10  20  33  50  73  99 128 165 205 245 293
#     4  10  21  36  53  75 103 133 167 205 244 290
#     4   9  18  32  51  76 101 127 163 204 245 292
#
# _framework density 18.458684999999999
#
# number of rings (size 3 to 8) (size 9 to 14) (size 15 to 20)
#    0.000    2.500    0.000    3.750    0.000    4.500 
#    0.000    1.250    0.000    6.000    0.000    0.000 
#    0.000    0.000    0.000    0.000    0.000    0.000 
#
# Total GULP energy -396565.705075 kJ/mol
# GULP energy per Si atom -12392.678284 kJ/mol
# Density = 1.841667 g / cm^3
# Si number density = 18.458685 Si / 1000 Ang^3
#
#
#
# Elastic Constant Matrix: (Units=GPa)
#
#
# Indices 1 2 3 4 5 6 
#
# 1 67.9677 60.3790 35.6759 0.0000 0.0000 0.0000
# 2 60.3790 208.6157 77.7672 0.0000 0.0000 0.0000
# 3 35.6759 77.7672 93.8048 0.0000 0.0000 0.0000
# 4 0.0000 0.0000 0.0000 34.0863 0.0000 0.0000
# 5 0.0000 0.0000 0.0000 0.0000 23.1984 0.0000
# 6 0.0000 0.0000 0.0000 0.0000 0.0000 1.0894
#
#
#
# Elastic Compliance Matrix: (Units=1/GPa)
#
#
# Indices 1 2 3 4 5 6 
#
# 1 0.020913 -0.004469 -0.004249 0.000000 0.000000 0.000000
# 2 -0.004469 0.007892 -0.004843 0.000000 0.000000 0.000000
# 3 -0.004249 -0.004843 0.016292 0.000000 0.000000 0.000000
# 4 0.000000 0.000000 0.000000 0.029337 0.000000 0.000000
# 5 0.000000 0.000000 0.000000 0.000000 0.043107 0.000000
# 6 0.000000 0.000000 0.000000 0.000000 0.000000 0.917942
#
#
# Mechanical properties :
#
#
# Convention : Reuss Voigt Hill
#
# Bulk Modulus (GPa) = 55.63330 79.78139 67.70735
# Shear Modulus (GPa) = 4.67903 24.77923 14.72913
#
# Velocity S-wave (km/s) = 1.59385 3.66787 2.82787
# Velocity P-wave (km/s) = 5.79586 7.82644 6.88640
#
# Compressibility (1/GPa) = 0.01797485
#
# Stress axis : x y z
#
# Youngs Moduli (GPa) = 47.81718 126.70288 61.38088
#
# Poissons Ratio (x) = 0.56623 0.26079
# Poissons Ratio (y) = 0.21369 0.29730
# Poissons Ratio (z) = 0.20316 0.61368
#
# Static dielectric constant tensor:
#      x y z
#    x 3.415960 0.000000 0.000000 
#    y 0.000000 4.574700 0.000000 
#    z 0.000000 0.000000 3.023840 
# 
# 
# High freq. dielectric constant tensor:
#      x y z
#    x 1.719830 0.000000 0.000000 
#    y 0.000000 1.748480 0.000000 
#    z 0.000000 0.000000 1.672360 
# 
# From -- ./inp_files/6016.got.cif
#   From: 2010.03.12/outbox.cif.g09.slc.cpg/sg53_4_cif.got.tgz:6016.got - 2010.04.16 14:36:59.
