data_PCOD8219884
_publ_section_title
;
Structure prediction by ZEFSAII (Michael W. Deem and Ramdas Pophale) SiO2 
 PCOD8219884
Probable space group: P M N A
;
_chemical_formula_sum "Si O2"
_cell_formula_units_Z 56
_cell_length_a 9.464673
_cell_length_b 15.212352
_cell_length_c 20.284016
_cell_angle_alpha 90.000000
_cell_angle_beta 90.000000
_cell_angle_gamma 90.000000
_cell_volume 2920.491351
_symmetry_space_group_name_H-M "P M N A"
_symmetry_group_IT_number 53
_symmetry_cell_setting 'orthorhombic'
loop_
_space_group_symop_operation_xyz
x,y,z
1/2-x,-y,1/2+z
x,-y,-z
1/2-x,y,1/2-z
-x,-y,-z
1/2+x,y,1/2-z
-x,y,z
1/2+x,-y,1/2+z
loop_
_atom_site_type_symbol
_atom_site_label
_atom_site_fract_x
_atom_site_fract_y
_atom_site_fract_z
Si Si1 0.335739 0.519959 0.685330
Si Si2 0.168008 0.919254 0.449977
Si Si3 0.845320 0.312648 0.110170
Si Si4 0.670256 0.953110 0.316424
Si Si5 0.156880 0.728458 0.496307
Si Si6 0.155273 0.848122 0.805611
Si Si7 0.159338 0.448619 0.567032
O O1 0.250000 0.492224 0.750000
O O2 0.500000 0.494455 0.694594
O O3 0.314926 0.624095 0.672261
O O4 0.273180 0.469881 0.622614
O O5 0.257627 0.916531 0.382482
O O6 0.216235 0.825573 0.480697
O O7 0.000000 0.921676 0.434159
O O8 0.207563 0.000000 0.500000
O O9 0.735671 0.325712 0.052713
O O10 0.837062 0.210859 0.129932
O O11 0.000000 0.334943 0.081731
O O12 0.750000 0.916880 0.250000
O O13 0.500000 0.933732 0.313911
O O14 0.707238 0.055367 0.323674
O O15 0.162980 0.658269 0.436996
O O16 0.000000 0.742811 0.522661
O O17 0.250000 0.803673 0.750000
O O18 0.000000 0.852521 0.775086
O O19 0.201423 0.500000 0.500000
O O20 0.000000 0.477832 0.587315
#
# Coordination Sequence:
#
# PCOD8219884 Si02
#       7
#     8   8   8   8   8   8   8
#     4  11  23  37  57  85 117 152 190 236 288 340
#     4  10  21  37  57  85 119 150 188 239 289 340
#     4  10  20  33  51  79 113 145 181 228 280 338
#     4  10  20  35  56  79 108 149 194 238 288 342
#     4  10  21  36  57  83 109 146 189 228 280 340
#     4   9  18  31  47  72 105 142 182 224 274 334
#     4  10  20  38  61  83 111 148 189 232 278 334
#
# _framework density 19.174856999999999
#
# number of rings (size 3 to 8) (size 9 to 14) (size 15 to 20)
#    0.000    2.000    1.429    2.143    0.000    3.429 
#    0.000    0.714    0.000    0.000    0.000    0.000 
#    0.000    0.000    0.000    0.000    0.000    0.000 
#
# Total GULP energy -693870.018397 kJ/mol
# GULP energy per Si atom -12390.536043 kJ/mol
# Density = 1.913121 g / cm^3
# Si number density = 19.174857 Si / 1000 Ang^3
#
#
#
# Elastic Constant Matrix: (Units=GPa)
#
#
# Indices 1 2 3 4 5 6 
#
# 1 99.8924 28.6214 67.1810 0.0000 0.0000 0.0000
# 2 28.6214 83.4804 25.3237 0.0000 0.0000 0.0000
# 3 67.1810 25.3237 110.7976 0.0000 0.0000 0.0000
# 4 0.0000 0.0000 0.0000 18.9748 0.0000 0.0000
# 5 0.0000 0.0000 0.0000 0.0000 41.2753 0.0000
# 6 0.0000 0.0000 0.0000 0.0000 0.0000 22.1606
#
#
#
# Elastic Compliance Matrix: (Units=1/GPa)
#
#
# Indices 1 2 3 4 5 6 
#
# 1 0.017577 -0.003001 -0.009972 0.000000 0.000000 0.000000
# 2 -0.003001 0.013384 -0.001239 0.000000 0.000000 0.000000
# 3 -0.009972 -0.001239 0.015355 0.000000 0.000000 0.000000
# 4 0.000000 0.000000 0.000000 0.052701 0.000000 0.000000
# 5 0.000000 0.000000 0.000000 0.000000 0.024228 0.000000
# 6 0.000000 0.000000 0.000000 0.000000 0.000000 0.045125
#
#
# Mechanical properties :
#
#
# Convention : Reuss Voigt Hill
#
# Bulk Modulus (GPa) = 55.89290 59.60251 57.74770
# Shear Modulus (GPa) = 24.65996 28.01844 26.33920
#
# Velocity S-wave (km/s) = 3.59005 3.82672 3.71027
# Velocity P-wave (km/s) = 6.81153 7.11872 6.96682
#
# Compressibility (1/GPa) = 0.01789136
#
# Stress axis : x y z
#
# Youngs Moduli (GPa) = 56.89251 74.71730 65.12589
#
# Poissons Ratio (x) = 0.22426 0.64941
# Poissons Ratio (y) = 0.17076 0.08070
# Poissons Ratio (z) = 0.56731 0.09258
#
# Static dielectric constant tensor:
#      x y z
#    x 3.616130 0.000000 0.000000 
#    y 0.000000 3.583510 0.000000 
#    z 0.000000 0.000000 3.358330 
# 
# 
# High freq. dielectric constant tensor:
#      x y z
#    x 1.752360 0.000000 0.000000 
#    y 0.000000 1.741210 0.000000 
#    z 0.000000 0.000000 1.730350 
# 
# From -- ./inp_files/30729.got.cif
#   From: 2010.03.12/outbox.cif.g09.slc.cpg/sg53_16_cif.got.tgz:30729.got - 2010.04.16 14:36:59.
