data_PCOD8219063
_publ_section_title
;
Structure prediction by ZEFSAII (Michael W. Deem and Ramdas Pophale) SiO2 
 PCOD8219063
Probable space group: P M N A
;
_chemical_formula_sum "Si O2"
_cell_formula_units_Z 64
_cell_length_a 9.318738
_cell_length_b 25.588204
_cell_length_c 13.821647
_cell_angle_alpha 90.000000
_cell_angle_beta 90.000000
_cell_angle_gamma 90.000000
_cell_volume 3295.768534
_symmetry_space_group_name_H-M "P M N A"
_symmetry_group_IT_number 53
_symmetry_cell_setting 'orthorhombic'
loop_
_space_group_symop_operation_xyz
x,y,z
1/2-x,-y,1/2+z
x,-y,-z
1/2-x,y,1/2-z
-x,-y,-z
1/2+x,y,1/2-z
-x,y,z
1/2+x,-y,1/2+z
loop_
_atom_site_type_symbol
_atom_site_label
_atom_site_fract_x
_atom_site_fract_y
_atom_site_fract_z
Si Si1 0.832033 0.188375 0.659505
Si Si2 0.334087 0.780834 0.944593
Si Si3 0.167442 0.419820 0.045078
Si Si4 0.344153 0.126508 0.395262
Si Si5 0.332764 0.014731 0.341915
Si Si6 0.155338 0.904425 0.107254
Si Si7 0.169903 0.670353 0.648188
Si Si8 0.334049 0.474089 0.652479
O O1 0.750000 0.216366 0.750000
O O2 0.791066 0.216686 0.558359
O O3 0.780944 0.127433 0.660829
O O4 0.000000 0.190862 0.679461
O O5 0.500000 0.793746 0.934179
O O6 0.256473 0.823691 0.875656
O O7 0.292903 0.724847 0.902738
O O8 0.270598 0.373045 0.075480
O O9 0.202790 0.467813 0.116284
O O10 0.000000 0.404357 0.054309
O O11 0.204882 0.434100 0.934013
O O12 0.500000 0.134431 0.344033
O O13 0.266463 0.071558 0.367556
O O14 0.369681 0.124909 0.508222
O O15 0.250000 0.992608 0.250000
O O16 0.500000 0.024411 0.323876
O O17 0.307817 0.965857 0.415205
O O18 0.000000 0.901948 0.163236
O O19 0.250000 0.666244 0.750000
O O20 0.000000 0.662775 0.663911
O O21 0.250000 0.459738 0.750000
O O22 0.500000 0.469605 0.678382
#
# Coordination Sequence:
#
# PCOD8219063 Si02
#       8
#     8   8   8   8   8   8   8   8
#     4  10  19  33  53  76 101 129 163 205 254 310
#     4   9  21  39  55  74 102 133 169 215 263 310
#     4   9  19  36  56  83 118 154 192 233 273 318
#     4   9  18  33  52  70  90 122 162 202 247 300
#     4  10  20  31  44  66  95 123 153 193 242 300
#     4   9  17  31  50  70  93 122 157 197 243 299
#     4  11  23  39  59  82 108 141 182 229 276 320
#     4   9  18  33  55  84 121 159 193 230 273 320
#
# _framework density 19.418841
#
# number of rings (size 3 to 8) (size 9 to 14) (size 15 to 20)
#    0.000    2.500    0.000    2.625    0.000    7.500 
#    0.000    4.375    0.000    6.750    0.000    0.000 
#    0.000    0.000    0.000    0.000    0.000    0.000 
#
# Total GULP energy -792894.456190 kJ/mol
# GULP energy per Si atom -12388.975878 kJ/mol
# Density = 1.937464 g / cm^3
# Si number density = 19.418841 Si / 1000 Ang^3
#
#
#
# Elastic Constant Matrix: (Units=GPa)
#
#
# Indices 1 2 3 4 5 6 
#
# 1 76.0634 55.8766 42.7020 0.0000 0.0000 0.0000
# 2 55.8766 125.3986 44.3577 0.0000 0.0000 0.0000
# 3 42.7020 44.3577 85.3345 0.0000 0.0000 0.0000
# 4 0.0000 0.0000 0.0000 22.4005 0.0000 0.0000
# 5 0.0000 0.0000 0.0000 0.0000 27.5229 0.0000
# 6 0.0000 0.0000 0.0000 0.0000 0.0000 27.3539
#
#
#
# Elastic Compliance Matrix: (Units=1/GPa)
#
#
# Indices 1 2 3 4 5 6 
#
# 1 0.022930 -0.007546 -0.007552 0.000000 0.000000 0.000000
# 2 -0.007546 0.012255 -0.002594 0.000000 0.000000 0.000000
# 3 -0.007552 -0.002594 0.016846 0.000000 0.000000 0.000000
# 4 0.000000 0.000000 0.000000 0.044642 0.000000 0.000000
# 5 0.000000 0.000000 0.000000 0.000000 0.036333 0.000000
# 6 0.000000 0.000000 0.000000 0.000000 0.000000 0.036558
#
#
# Mechanical properties :
#
#
# Convention : Reuss Voigt Hill
#
# Bulk Modulus (GPa) = 60.07148 63.62989 61.85068
# Shear Modulus (GPa) = 23.75344 25.04616 24.39980
#
# Velocity S-wave (km/s) = 3.50125 3.59526 3.54856
# Velocity P-wave (km/s) = 6.88090 7.07621 6.97924
#
# Compressibility (1/GPa) = 0.01664684
#
# Stress axis : x y z
#
# Youngs Moduli (GPa) = 43.61126 81.60206 59.36160
#
# Poissons Ratio (x) = 0.61577 0.44828
# Poissons Ratio (y) = 0.32909 0.15398
# Poissons Ratio (z) = 0.32934 0.21167
#
# Static dielectric constant tensor:
#      x y z
#    x 3.601020 0.000000 0.000000 
#    y 0.000000 3.466320 0.000000 
#    z 0.000000 0.000000 3.573490 
# 
# 
# High freq. dielectric constant tensor:
#      x y z
#    x 1.752390 0.000000 0.000000 
#    y 0.000000 1.742020 0.000000 
#    z 0.000000 0.000000 1.754560 
# 
# From -- ./inp_files/20819.got.cif
#   From: 2010.03.12/outbox.cif.g09.slc.cpg/sg53_11_cif.got.tgz:20819.got - 2010.04.16 14:36:59.
