data_PCOD8219878
_publ_section_title
;
Structure prediction by ZEFSAII (Michael W. Deem and Ramdas Pophale) SiO2 
 PCOD8219878
Probable space group: P M N A
;
_chemical_formula_sum "Si O2"
_cell_formula_units_Z 64
_cell_length_a 9.236436
_cell_length_b 22.581266
_cell_length_c 16.208139
_cell_angle_alpha 90.000000
_cell_angle_beta 90.000000
_cell_angle_gamma 90.000000
_cell_volume 3380.538330
_symmetry_space_group_name_H-M "P M N A"
_symmetry_group_IT_number 53
_symmetry_cell_setting 'orthorhombic'
loop_
_space_group_symop_operation_xyz
x,y,z
1/2-x,-y,1/2+z
x,-y,-z
1/2-x,y,1/2-z
-x,-y,-z
1/2+x,y,1/2-z
-x,y,z
1/2+x,-y,1/2+z
loop_
_atom_site_type_symbol
_atom_site_label
_atom_site_fract_x
_atom_site_fract_y
_atom_site_fract_z
Si Si1 0.171040 0.386308 0.665841
Si Si2 0.656113 0.184567 0.547912
Si Si3 0.669577 0.119728 0.174231
Si Si4 0.336644 0.935285 0.530998
Si Si5 0.335376 0.430020 0.504324
Si Si6 0.338246 0.231984 0.366191
Si Si7 0.829416 0.632943 0.834252
Si Si8 0.335244 0.750812 0.172909
O O1 0.250000 0.409826 0.750000
O O2 0.235729 0.413590 0.582279
O O3 0.202454 0.317109 0.656289
O O4 0.000000 0.400893 0.672202
O O5 0.500000 0.198260 0.590461
O O6 0.672828 0.113566 0.541120
O O7 0.658012 0.218928 0.462333
O O8 0.791952 0.209669 0.595903
O O9 0.750000 0.087765 0.250000
O O10 0.500000 0.117582 0.185431
O O11 0.715103 0.082386 0.095572
O O12 0.721974 0.188025 0.173625
O O13 0.500000 0.934103 0.568704
O O14 0.295899 0.000000 0.500000
O O15 0.330994 0.500000 0.500000
O O16 0.500000 0.407408 0.519967
O O17 0.278634 0.403152 0.416537
O O18 0.500000 0.220868 0.329626
O O19 0.287195 0.298775 0.349276
O O20 0.750000 0.610428 0.750000
O O21 0.000000 0.623815 0.820970
O O22 0.250000 0.776381 0.250000
O O23 0.500000 0.760782 0.192517
#
# Coordination Sequence:
#
# PCOD8219878 Si02
#       8
#     8   8   8   8   8   8   8   8
#     4  10  21  37  59  85 111 142 181 227 277 328
#     4   9  17  31  53  78 104 135 170 213 265 317
#     4  11  21  33  52  78 107 136 170 212 256 304
#     4   9  19  37  57  75 100 136 176 215 257 306
#     4  10  22  40  59  80 109 146 188 231 274 322
#     4   9  18  33  53  78 107 138 171 209 262 322
#     4  10  21  36  55  80 111 146 181 222 272 327
#     4  10  20  33  51  77 107 137 172 215 265 320
#
# _framework density 18.931896999999999
#
# number of rings (size 3 to 8) (size 9 to 14) (size 15 to 20)
#    0.000    2.250    0.000    3.750    0.000    7.500 
#    0.000    1.875    0.000    0.000    0.000    0.000 
#    0.000    0.000    0.000    0.000    0.000    0.000 
#
# Total GULP energy -793235.075293 kJ/mol
# GULP energy per Si atom -12394.298051 kJ/mol
# Density = 1.888881 g / cm^3
# Si number density = 18.931897 Si / 1000 Ang^3
#
#
#
# Elastic Constant Matrix: (Units=GPa)
#
#
# Indices 1 2 3 4 5 6 
#
# 1 109.7060 42.7757 60.0230 0.0000 0.0000 0.0000
# 2 42.7757 74.8745 45.6409 0.0000 0.0000 0.0000
# 3 60.0230 45.6409 115.2404 0.0000 0.0000 0.0000
# 4 0.0000 0.0000 0.0000 5.7488 0.0000 0.0000
# 5 0.0000 0.0000 0.0000 0.0000 37.3515 0.0000
# 6 0.0000 0.0000 0.0000 0.0000 0.0000 -67.2984
#
#
#
# Elastic Compliance Matrix: (Units=1/GPa)
#
#
# Indices 1 2 3 4 5 6 
#
# 1 0.013873 -0.004641 -0.005387 0.000000 0.000000 0.000000
# 2 -0.004641 0.019159 -0.005170 0.000000 0.000000 0.000000
# 3 -0.005387 -0.005170 0.013531 0.000000 0.000000 0.000000
# 4 0.000000 0.000000 0.000000 0.173949 0.000000 0.000000
# 5 0.000000 0.000000 0.000000 0.000000 0.026773 0.000000
# 6 0.000000 0.000000 0.000000 0.000000 0.000000 -0.014859
#
#
# Mechanical properties :
#
#
# Convention : Reuss Voigt Hill
#
# Bulk Modulus (GPa) = 61.86399 66.30001 64.08200
# Shear Modulus (GPa) = 18.64199 5.25248 11.94723
#
# Velocity S-wave (km/s) = 3.14138 1.66746 2.51482
# Velocity P-wave (km/s) = 6.77538 6.22925 6.50804
#
# Compressibility (1/GPa) = 0.01616449
#
# Stress axis : x y z
#
# Youngs Moduli (GPa) = 72.08481 52.19468 73.90323
#
# Poissons Ratio (x) = 0.24226 0.39814
# Poissons Ratio (y) = 0.33458 0.38211
# Poissons Ratio (z) = 0.38834 0.26987
#
# Static dielectric constant tensor:
#      x y z
#    x 3.549220 0.000000 0.000000 
#    y 0.000000 3.399480 0.000000 
#    z 0.000000 0.000000 2.447140 
# 
# 
# High freq. dielectric constant tensor:
#      x y z
#    x 1.736800 0.000000 0.000000 
#    y 0.000000 1.722610 0.000000 
#    z 0.000000 0.000000 1.737800 
# 
# From -- ./inp_files/20961.got.cif
#   From: 2010.03.12/outbox.cif.g09.slc.cpg/sg53_11_cif.got.tgz:20961.got - 2010.04.16 14:36:59.
