data_PCOD8219745
_publ_section_title
;
Structure prediction by ZEFSAII (Michael W. Deem and Ramdas Pophale) SiO2 
 PCOD8219745
Probable space group: P M N A
;
_chemical_formula_sum "Si O2"
_cell_formula_units_Z 64
_cell_length_a 8.727907
_cell_length_b 15.385906
_cell_length_c 28.342889
_cell_angle_alpha 90.000000
_cell_angle_beta 90.000000
_cell_angle_gamma 90.000000
_cell_volume 3806.074639
_symmetry_space_group_name_H-M "P M N A"
_symmetry_group_IT_number 53
_symmetry_cell_setting 'orthorhombic'
loop_
_space_group_symop_operation_xyz
x,y,z
1/2-x,-y,1/2+z
x,-y,-z
1/2-x,y,1/2-z
-x,-y,-z
1/2+x,y,1/2-z
-x,y,z
1/2+x,-y,1/2+z
loop_
_atom_site_type_symbol
_atom_site_label
_atom_site_fract_x
_atom_site_fract_y
_atom_site_fract_z
Si Si1 0.819271 0.607235 0.798985
Si Si2 0.821666 0.184378 0.458339
Si Si3 0.331108 0.013393 0.444533
Si Si4 0.677658 0.420637 0.797290
Si Si5 0.821900 0.497305 0.945128
Si Si6 0.176805 0.338243 0.604823
Si Si7 0.679311 0.342767 0.107919
Si Si8 0.680806 0.177384 0.559805
O O1 0.750000 0.642946 0.750000
O O2 0.762564 0.509952 0.809646
O O3 0.765157 0.667400 0.842164
O O4 0.000000 0.608483 0.795157
O O5 0.771658 0.261007 0.423514
O O6 0.726666 0.196846 0.505978
O O7 0.000000 0.188092 0.470743
O O8 0.783611 0.092385 0.432806
O O9 0.500000 0.036353 0.424549
O O10 0.273170 0.920743 0.424040
O O11 0.342646 0.000000 0.500000
O O12 0.750000 0.378908 0.750000
O O13 0.500000 0.441867 0.788769
O O14 0.702906 0.353717 0.839703
O O15 0.779034 0.402419 0.926354
O O16 0.723028 0.568735 0.918275
O O17 0.000000 0.515958 0.935747
O O18 0.781143 0.500000 0.000000
O O19 0.229274 0.240429 0.594887
O O20 0.000000 0.351443 0.590819
O O21 0.500000 0.344399 0.118003
O O22 0.500000 0.191890 0.564205
#
# Coordination Sequence:
#
# PCOD8219745 Si02
#       8
#     8   8   8   8   8   8   8   8
#     4  11  21  34  54  74  96 127 164 207 253 295
#     4  10  20  32  50  74 101 133 167 207 249 292
#     4   8  16  31  49  70  97 129 164 206 250 291
#     4  10  20  34  52  73  97 126 162 206 251 295
#     4  11  23  35  48  68  96 134 174 205 240 290
#     4  11  22  34  50  72  99 131 166 205 248 294
#     4  11  22  35  49  71 101 132 168 205 247 295
#     4  10  20  33  50  72 101 134 169 207 246 294
#
# _framework density 16.815225000000002
#
# number of rings (size 3 to 8) (size 9 to 14) (size 15 to 20)
#    0.000    1.750    1.250    5.625    0.000    9.250 
#    0.000    0.000    0.000    0.000    0.000    0.875 
#    0.000    4.000    0.000    0.000    0.000    0.000 
#
# Total GULP energy -793686.960676 kJ/mol
# GULP energy per Si atom -12401.358761 kJ/mol
# Density = 1.677695 g / cm^3
# Si number density = 16.815225 Si / 1000 Ang^3
#
#
#
# Elastic Constant Matrix: (Units=GPa)
#
#
# Indices 1 2 3 4 5 6 
#
# 1 73.4536 14.6834 34.8363 0.0000 0.0000 0.0000
# 2 14.6834 72.7944 26.5325 0.0000 0.0000 0.0000
# 3 34.8363 26.5325 81.0987 0.0000 0.0000 0.0000
# 4 0.0000 0.0000 0.0000 11.1661 0.0000 0.0000
# 5 0.0000 0.0000 0.0000 0.0000 27.5646 0.0000
# 6 0.0000 0.0000 0.0000 0.0000 0.0000 28.3800
#
#
#
# Elastic Compliance Matrix: (Units=1/GPa)
#
#
# Indices 1 2 3 4 5 6 
#
# 1 0.017146 -0.000879 -0.007078 0.000000 0.000000 0.000000
# 2 -0.000879 0.015642 -0.004740 0.000000 0.000000 0.000000
# 3 -0.007078 -0.004740 0.016922 0.000000 0.000000 0.000000
# 4 0.000000 0.000000 0.000000 0.089557 0.000000 0.000000
# 5 0.000000 0.000000 0.000000 0.000000 0.036278 0.000000
# 6 0.000000 0.000000 0.000000 0.000000 0.000000 0.035236
#
#
# Mechanical properties :
#
#
# Convention : Reuss Voigt Hill
#
# Bulk Modulus (GPa) = 41.12346 42.16123 41.64235
# Shear Modulus (GPa) = 20.46824 23.50844 21.98834
#
# Velocity S-wave (km/s) = 3.49269 3.74310 3.62006
# Velocity P-wave (km/s) = 6.38548 6.61882 6.50319
#
# Compressibility (1/GPa) = 0.02431702
#
# Stress axis : x y z
#
# Youngs Moduli (GPa) = 58.32106 63.92937 59.09568
#
# Poissons Ratio (x) = 0.05619 0.41827
# Poissons Ratio (y) = 0.05126 0.28012
# Poissons Ratio (z) = 0.41279 0.30303
#
# Static dielectric constant tensor:
#      x y z
#    x 3.263840 0.000000 0.000000 
#    y 0.000000 3.316680 0.000000 
#    z 0.000000 0.000000 3.647210 
# 
# 
# High freq. dielectric constant tensor:
#      x y z
#    x 1.665360 0.000000 0.000000 
#    y 0.000000 1.634360 0.000000 
#    z 0.000000 0.000000 1.629180 
# 
# From -- ./inp_files/38470.got.cif
#   From: 2010.03.12/outbox.cif.g09.slc.cpg/sg53_20_cif.got.tgz:38470.got - 2010.04.16 14:36:59.
