data_PCOD8219985
_publ_section_title
;
Structure prediction by ZEFSAII (Michael W. Deem and Ramdas Pophale) SiO2 
 PCOD8219985
Probable space group: P M N A
;
_chemical_formula_sum "Si O2"
_cell_formula_units_Z 48
_cell_length_a 8.918320
_cell_length_b 30.775116
_cell_length_c 9.371552
_cell_angle_alpha 90.000000
_cell_angle_beta 90.000000
_cell_angle_gamma 90.000000
_cell_volume 2572.138021
_symmetry_space_group_name_H-M "P M N A"
_symmetry_group_IT_number 53
_symmetry_cell_setting 'orthorhombic'
loop_
_space_group_symop_operation_xyz
x,y,z
1/2-x,-y,1/2+z
x,-y,-z
1/2-x,y,1/2-z
-x,-y,-z
1/2+x,y,1/2-z
-x,y,z
1/2+x,-y,1/2+z
loop_
_atom_site_type_symbol
_atom_site_label
_atom_site_fract_x
_atom_site_fract_y
_atom_site_fract_z
Si Si1 0.176945 0.459384 0.905152
Si Si2 0.676670 0.621264 0.596567
Si Si3 0.823574 0.698189 0.101659
Si Si4 0.175815 0.204194 0.895986
Si Si5 0.321782 0.872841 0.596912
Si Si6 0.676553 0.040772 0.097739
O O1 0.250000 0.461050 0.750000
O O2 0.000000 0.460052 0.882425
O O3 0.230916 0.500000 0.000000
O O4 0.229846 0.416545 0.989598
O O5 0.750000 0.615340 0.750000
O O6 0.500000 0.619499 0.619435
O O7 0.728985 0.666763 0.526117
O O8 0.750000 0.683400 0.250000
O O9 0.773365 0.747124 0.059740
O O10 0.000000 0.694579 0.124595
O O11 0.250000 0.189538 0.750000
O O12 0.000000 0.202370 0.873609
O O13 0.229696 0.169900 0.012844
O O14 0.250000 0.867245 0.750000
O O15 0.500000 0.877368 0.605719
O O16 0.251978 0.916428 0.526379
O O17 0.750000 0.031593 0.250000
O O18 0.500000 0.048456 0.115769
O O19 0.713973 0.000000 0.000000
#
# Coordination Sequence:
#
# PCOD8219985 Si02
#       6
#     8   8   8   8   8   8
#     4  10  21  36  54  78 106 136 173 215 258 306
#     4  10  21  35  52  76 105 136 172 213 255 304
#     4   9  18  34  53  74 101 132 169 210 252 300
#     4   9  19  34  52  75 102 132 167 208 251 297
#     4  10  20  34  52  74 101 132 165 203 248 296
#     4  10  21  36  54  76 101 131 167 205 247 296
#
# _framework density 18.661517
#
# number of rings (size 3 to 8) (size 9 to 14) (size 15 to 20)
#    0.000    2.333    0.000    3.000    0.000    5.667 
#    0.000    3.333    0.000    0.000    0.000    0.000 
#    0.000    0.000    0.000    0.000    0.000    0.000 
#
# Total GULP energy -595175.868743 kJ/mol
# GULP energy per Si atom -12399.497265 kJ/mol
# Density = 1.861904 g / cm^3
# Si number density = 18.661517 Si / 1000 Ang^3
#
#
#
# Elastic Constant Matrix: (Units=GPa)
#
#
# Indices 1 2 3 4 5 6 
#
# 1 51.7422 49.1124 45.9361 0.0000 0.0000 0.0000
# 2 49.1124 157.7773 93.7222 0.0000 0.0000 0.0000
# 3 45.9361 93.7222 134.3368 0.0000 0.0000 0.0000
# 4 0.0000 0.0000 0.0000 21.7592 0.0000 0.0000
# 5 0.0000 0.0000 0.0000 0.0000 34.0346 0.0000
# 6 0.0000 0.0000 0.0000 0.0000 0.0000 14.3878
#
#
#
# Elastic Compliance Matrix: (Units=1/GPa)
#
#
# Indices 1 2 3 4 5 6 
#
# 1 0.030411 -0.005617 -0.006480 0.000000 0.000000 0.000000
# 2 -0.005617 0.011861 -0.006354 0.000000 0.000000 0.000000
# 3 -0.006480 -0.006354 0.014093 0.000000 0.000000 0.000000
# 4 0.000000 0.000000 0.000000 0.045958 0.000000 0.000000
# 5 0.000000 0.000000 0.000000 0.000000 0.029382 0.000000
# 6 0.000000 0.000000 0.000000 0.000000 0.000000 0.069503
#
#
# Mechanical properties :
#
#
# Convention : Reuss Voigt Hill
#
# Bulk Modulus (GPa) = 51.38167 80.15531 65.76849
# Shear Modulus (GPa) = 20.44168 24.37537 22.40852
#
# Velocity S-wave (km/s) = 3.31326 3.61804 3.46900
# Velocity P-wave (km/s) = 6.49848 7.77811 7.16691
#
# Compressibility (1/GPa) = 0.01946219
#
# Stress axis : x y z
#
# Youngs Moduli (GPa) = 32.88271 84.30963 70.95664
#
# Poissons Ratio (x) = 0.47356 0.45982
# Poissons Ratio (y) = 0.18470 0.45088
# Poissons Ratio (z) = 0.21309 0.53573
#
# Static dielectric constant tensor:
#      x y z
#    x 3.379200 0.000000 0.000000 
#    y 0.000000 3.949630 0.000000 
#    z 0.000000 0.000000 3.350380 
# 
# 
# High freq. dielectric constant tensor:
#      x y z
#    x 1.721480 0.000000 0.000000 
#    y 0.000000 1.743780 0.000000 
#    z 0.000000 0.000000 1.719570 
# 
# From -- ./inp_files/6737.got.cif
#   From: 2010.03.12/outbox.cif.g09.slc.cpg/sg53_4_cif.got.tgz:6737.got - 2010.04.16 14:36:59.
