data_PCOD8219495
_publ_section_title
;
Structure prediction by ZEFSAII (Michael W. Deem and Ramdas Pophale) SiO2 
 PCOD8219495
Probable space group: P M N A
;
_chemical_formula_sum "Si O2"
_cell_formula_units_Z 64
_cell_length_a 17.724821
_cell_length_b 22.533844
_cell_length_c 8.146642
_cell_angle_alpha 90.000000
_cell_angle_beta 90.000000
_cell_angle_gamma 90.000000
_cell_volume 3253.836850
_symmetry_space_group_name_H-M "P M N A"
_symmetry_group_IT_number 53
_symmetry_cell_setting 'orthorhombic'
loop_
_space_group_symop_operation_xyz
x,y,z
1/2-x,-y,1/2+z
x,-y,-z
1/2-x,y,1/2-z
-x,-y,-z
1/2+x,y,1/2-z
-x,y,z
1/2+x,-y,1/2+z
loop_
_atom_site_type_symbol
_atom_site_label
_atom_site_fract_x
_atom_site_fract_y
_atom_site_fract_z
Si Si1 0.088622 0.676755 0.926421
Si Si2 0.338222 0.563586 0.439060
Si Si3 0.410645 0.248807 0.740590
Si Si4 0.834352 0.998543 0.187564
Si Si5 0.659886 0.563390 0.064925
Si Si6 0.411399 0.320732 0.058163
Si Si7 0.412830 0.066108 0.070156
Si Si8 0.337428 0.126411 0.797321
O O1 0.108115 0.702973 0.743491
O O2 0.000000 0.668299 0.944720
O O3 0.126470 0.612740 0.943035
O O4 0.118676 0.717992 0.075793
O O5 0.367393 0.500000 0.500000
O O6 0.248956 0.567789 0.454502
O O7 0.365504 0.572913 0.252629
O O8 0.500000 0.246215 0.743985
O O9 0.379208 0.182869 0.724727
O O10 0.379536 0.278958 0.910134
O O11 0.750000 0.003522 0.250000
O O12 0.872306 0.934603 0.227106
O O13 0.884829 0.055297 0.243791
O O14 0.827664 0.000000 0.000000
O O15 0.630675 0.500000 0.000000
O O16 0.623069 0.614022 0.954765
O O17 0.500000 0.326096 0.034694
O O18 0.500000 0.086028 0.060016
O O19 0.359332 0.117458 0.990624
O O20 0.397265 0.000000 0.000000
O O21 0.250000 0.132228 0.750000
#
# Coordination Sequence:
#
# PCOD8219495 Si02
#       8
#     8   8   8   8   8   8   8   8
#     4  10  21  38  59  82 109 145 190 236 287 347
#     4  10  20  34  54  81 112 144 181 231 289 344
#     4  10  21  39  59  79 115 155 191 242 292 340
#     4  10  19  35  59  87 123 160 196 245 297 349
#     4  10  20  34  54  81 112 145 182 229 287 348
#     4  10  21  38  59  81 107 146 190 233 290 348
#     4   9  18  34  57  84 116 154 193 236 290 345
#     4  10  20  36  59  86 116 154 196 236 288 349
#
# _framework density 19.669087000000001
#
# number of rings (size 3 to 8) (size 9 to 14) (size 15 to 20)
#    0.000    2.125    1.250    3.000    0.000    3.750 
#    2.250    0.000    0.000    0.000    0.000    0.000 
#    0.000    0.000    0.000    0.000    0.000    0.000 
#
# Total GULP energy -793061.716244 kJ/mol
# GULP energy per Si atom -12391.589316 kJ/mol
# Density = 1.962432 g / cm^3
# Si number density = 19.669087 Si / 1000 Ang^3
#
#
#
# Elastic Constant Matrix: (Units=GPa)
#
#
# Indices 1 2 3 4 5 6 
#
# 1 42.1116 31.7485 42.1349 0.0000 0.0000 0.0000
# 2 31.7485 102.3529 49.6240 0.0000 0.0000 0.0000
# 3 42.1349 49.6240 149.9345 0.0000 0.0000 0.0000
# 4 0.0000 0.0000 0.0000 25.4971 0.0000 0.0000
# 5 0.0000 0.0000 0.0000 0.0000 25.0578 0.0000
# 6 0.0000 0.0000 0.0000 0.0000 0.0000 21.1337
#
#
#
# Elastic Compliance Matrix: (Units=1/GPa)
#
#
# Indices 1 2 3 4 5 6 
#
# 1 0.037619 -0.007794 -0.007992 0.000000 0.000000 0.000000
# 2 -0.007794 0.013252 -0.002196 0.000000 0.000000 0.000000
# 3 -0.007992 -0.002196 0.009642 0.000000 0.000000 0.000000
# 4 0.000000 0.000000 0.000000 0.039220 0.000000 0.000000
# 5 0.000000 0.000000 0.000000 0.000000 0.039908 0.000000
# 6 0.000000 0.000000 0.000000 0.000000 0.000000 0.047318
#
#
# Mechanical properties :
#
#
# Convention : Reuss Voigt Hill
#
# Bulk Modulus (GPa) = 40.73392 60.15711 50.44551
# Shear Modulus (GPa) = 21.63503 25.73050 23.68277
#
# Velocity S-wave (km/s) = 3.32015 3.62079 3.47372
# Velocity P-wave (km/s) = 5.95419 6.93766 6.46466
#
# Compressibility (1/GPa) = 0.02454957
#
# Stress axis : x y z
#
# Youngs Moduli (GPa) = 26.58223 75.45825 103.70947
#
# Poissons Ratio (x) = 0.58813 0.82887
# Poissons Ratio (y) = 0.20718 0.22773
# Poissons Ratio (z) = 0.21245 0.16569
#
# Static dielectric constant tensor:
#      x y z
#    x 3.333940 0.000000 0.000000 
#    y 0.000000 3.564270 0.000000 
#    z 0.000000 0.000000 4.135190 
# 
# 
# High freq. dielectric constant tensor:
#      x y z
#    x 1.751070 0.000000 0.000000 
#    y 0.000000 1.754880 0.000000 
#    z 0.000000 0.000000 1.777680 
# 
# From -- ./inp_files/10201.got.cif
#   From: 2010.03.12/outbox.cif.g09.slc.cpg/sg53_6_cif.got.tgz:10201.got - 2010.04.16 14:36:59.
