data_PCOD8219938
_publ_section_title
;
Structure prediction by ZEFSAII (Michael W. Deem and Ramdas Pophale) SiO2 
 PCOD8219938
Probable space group: P M N A
;
_chemical_formula_sum "Si O2"
_cell_formula_units_Z 64
_cell_length_a 14.371568
_cell_length_b 17.141476
_cell_length_c 13.526457
_cell_angle_alpha 90.000000
_cell_angle_beta 90.000000
_cell_angle_gamma 90.000000
_cell_volume 3332.241166
_symmetry_space_group_name_H-M "P M N A"
_symmetry_group_IT_number 53
_symmetry_cell_setting 'orthorhombic'
loop_
_space_group_symop_operation_xyz
x,y,z
1/2-x,-y,1/2+z
x,-y,-z
1/2-x,y,1/2-z
-x,-y,-z
1/2+x,y,1/2-z
-x,y,z
1/2+x,-y,1/2+z
loop_
_atom_site_type_symbol
_atom_site_label
_atom_site_fract_x
_atom_site_fract_y
_atom_site_fract_z
Si Si1 0.234614 0.660284 0.139132
Si Si2 0.779351 0.233828 0.031056
Si Si3 0.396718 0.248037 0.147807
Si Si4 0.393313 0.480694 0.689634
Si Si5 0.392415 0.078920 0.218270
Si Si6 0.392400 0.654273 0.670538
Si Si7 0.606200 0.557841 0.086957
Si Si8 0.781367 0.940129 0.911882
O O1 0.250000 0.689900 0.250000
O O2 0.164832 0.586790 0.136440
O O3 0.329990 0.634557 0.085424
O O4 0.197179 0.734939 0.078970
O O5 0.670524 0.244488 0.054586
O O6 0.836050 0.286256 0.105708
O O7 0.804623 0.143631 0.040417
O O8 0.500000 0.251379 0.102866
O O9 0.385213 0.172802 0.219637
O O10 0.375858 0.324046 0.214436
O O11 0.500000 0.464795 0.662339
O O12 0.360164 0.565282 0.650858
O O13 0.378430 0.483147 0.807359
O O14 0.500000 0.051414 0.201233
O O15 0.324496 0.050084 0.129264
O O16 0.354453 0.045981 0.322538
O O17 0.500000 0.663892 0.643369
O O18 0.500000 0.584632 0.071450
O O19 0.637296 0.500000 0.000000
O O20 0.799113 0.000000 0.000000
#
# Coordination Sequence:
#
# PCOD8219938 Si02
#       8
#     8   8   8   8   8   8   8   8
#     4  10  23  38  52  74 108 151 193 230 273 325
#     4  11  22  35  57  82 110 146 186 226 283 335
#     4   9  18  33  56  86 116 138 171 229 290 339
#     4   9  20  37  53  74 108 146 184 230 278 325
#     4   9  18  37  61  87 122 153 180 228 292 340
#     4  10  20  33  54  84 113 140 178 230 283 338
#     4   9  19  34  52  75 103 140 187 232 275 322
#     4  10  21  38  59  92 118 151 190 234 285 347
#
# _framework density 19.206294
#
# number of rings (size 3 to 8) (size 9 to 14) (size 15 to 20)
#    0.000    2.375    1.250    0.375    3.500    3.500 
#    2.250    1.250    0.000    0.000    0.000    0.000 
#    0.000    0.000    0.000    0.000    0.000    0.000 
#
# Total GULP energy -793378.226372 kJ/mol
# GULP energy per Si atom -12396.534787 kJ/mol
# Density = 1.916258 g / cm^3
# Si number density = 19.206294 Si / 1000 Ang^3
#
#
#
# Elastic Constant Matrix: (Units=GPa)
#
#
# Indices 1 2 3 4 5 6 
#
# 1 59.7480 25.1047 30.7916 0.0000 0.0000 0.0000
# 2 25.1047 88.6909 49.6122 0.0000 0.0000 0.0000
# 3 30.7916 49.6122 71.4334 0.0000 0.0000 0.0000
# 4 0.0000 0.0000 0.0000 36.1931 0.0000 0.0000
# 5 0.0000 0.0000 0.0000 0.0000 1.2949 0.0000
# 6 0.0000 0.0000 0.0000 0.0000 0.0000 18.2388
#
#
#
# Elastic Compliance Matrix: (Units=1/GPa)
#
#
# Indices 1 2 3 4 5 6 
#
# 1 0.021636 -0.001484 -0.008296 0.000000 0.000000 0.000000
# 2 -0.001484 0.018540 -0.012237 0.000000 0.000000 0.000000
# 3 -0.008296 -0.012237 0.026074 0.000000 0.000000 0.000000
# 4 0.000000 0.000000 0.000000 0.027630 0.000000 0.000000
# 5 0.000000 0.000000 0.000000 0.000000 0.772254 0.000000
# 6 0.000000 0.000000 0.000000 0.000000 0.000000 0.054828
#
#
# Mechanical properties :
#
#
# Convention : Reuss Voigt Hill
#
# Bulk Modulus (GPa) = 45.01081 47.87657 46.44369
# Shear Modulus (GPa) = 5.14192 18.76961 11.95576
#
# Velocity S-wave (km/s) = 1.63799 3.12951 2.49769
# Velocity P-wave (km/s) = 5.20228 6.16767 5.70543
#
# Compressibility (1/GPa) = 0.02221688
#
# Stress axis : x y z
#
# Youngs Moduli (GPa) = 46.22014 53.93644 38.35252
#
# Poissons Ratio (x) = 0.08003 0.31816
# Poissons Ratio (y) = 0.06858 0.46933
# Poissons Ratio (z) = 0.38343 0.66003
#
# Static dielectric constant tensor:
#      x y z
#    x 3.746470 0.000000 0.000000 
#    y 0.000000 3.324060 0.000000 
#    z 0.000000 0.000000 3.402490 
# 
# 
# High freq. dielectric constant tensor:
#      x y z
#    x 1.755760 0.000000 0.000000 
#    y 0.000000 1.721150 0.000000 
#    z 0.000000 0.000000 1.735290 
# 
# From -- ./inp_files/16225.got.cif
#   From: 2010.03.12/outbox.cif.g09.slc.cpg/sg53_9_cif.got.tgz:16225.got - 2010.04.16 14:36:59.
