data_PCOD8219887
_publ_section_title
;
Structure prediction by ZEFSAII (Michael W. Deem and Ramdas Pophale) SiO2 
 PCOD8219887
Probable space group: P M N A
;
_chemical_formula_sum "Si O2"
_cell_formula_units_Z 48
_cell_length_a 8.985053
_cell_length_b 9.138992
_cell_length_c 32.363214
_cell_angle_alpha 90.000000
_cell_angle_beta 90.000000
_cell_angle_gamma 90.000000
_cell_volume 2657.483553
_symmetry_space_group_name_H-M "P M N A"
_symmetry_group_IT_number 53
_symmetry_cell_setting 'orthorhombic'
loop_
_space_group_symop_operation_xyz
x,y,z
1/2-x,-y,1/2+z
x,-y,-z
1/2-x,y,1/2-z
-x,-y,-z
1/2+x,y,1/2-z
-x,y,z
1/2+x,-y,1/2+z
loop_
_atom_site_type_symbol
_atom_site_label
_atom_site_fract_x
_atom_site_fract_y
_atom_site_fract_z
Si Si1 0.835921 0.637338 0.167371
Si Si2 0.324753 0.940702 0.872990
Si Si3 0.671385 0.551938 0.046520
Si Si4 0.332841 0.187797 0.582627
Si Si5 0.176571 0.369098 0.116439
Si Si6 0.172182 0.881193 0.291126
O O1 0.839716 0.724075 0.124793
O O2 0.785534 0.472695 0.155917
O O3 0.724310 0.715018 0.199122
O O4 0.000000 0.637916 0.187651
O O5 0.500000 0.925713 0.880293
O O6 0.247391 0.785165 0.873255
O O7 0.256580 0.037274 0.910157
O O8 0.287285 0.012310 0.828799
O O9 0.500000 0.564233 0.060628
O O10 0.746557 0.712204 0.049458
O O11 0.753291 0.432959 0.074755
O O12 0.686372 0.500000 0.000000
O O13 0.500000 0.153086 0.566702
O O14 0.000000 0.356528 0.110017
O O15 0.250000 0.942263 0.250000
O O16 0.000000 0.876017 0.282098
#
# Coordination Sequence:
#
# PCOD8219887 Si02
#       6
#     8   8   8   8   8   8
#     4   8  16  31  50  72  97 127 164 203 244 293
#     4  10  20  34  53  77 105 138 173 210 256 309
#     4  10  20  34  53  77 105 136 170 212 259 305
#     4   9  17  31  52  75 100 133 171 209 249 299
#     4  10  20  34  54  78 103 134 170 210 255 303
#     4  10  20  33  52  76 101 132 168 207 251 299
#
# _framework density 18.062200000000001
#
# number of rings (size 3 to 8) (size 9 to 14) (size 15 to 20)
#    0.000    2.500    0.000    3.500    0.000    8.000 
#    0.000    1.667    0.000    7.000    0.000    0.000 
#    0.000    0.000    0.000    0.000    0.000    0.000 
#
# Total GULP energy -595126.164449 kJ/mol
# GULP energy per Si atom -12398.461759 kJ/mol
# Density = 1.802109 g / cm^3
# Si number density = 18.062200 Si / 1000 Ang^3
#
#
#
# Elastic Constant Matrix: (Units=GPa)
#
#
# Indices 1 2 3 4 5 6 
#
# 1 131.2749 66.6203 46.5191 0.0000 0.0000 0.0000
# 2 66.6203 129.0218 32.8509 0.0000 0.0000 0.0000
# 3 46.5191 32.8509 56.7889 0.0000 0.0000 0.0000
# 4 0.0000 0.0000 0.0000 16.3414 0.0000 0.0000
# 5 0.0000 0.0000 0.0000 0.0000 28.6482 0.0000
# 6 0.0000 0.0000 0.0000 0.0000 0.0000 34.5125
#
#
#
# Elastic Compliance Matrix: (Units=1/GPa)
#
#
# Indices 1 2 3 4 5 6 
#
# 1 0.012685 -0.004578 -0.007742 0.000000 0.000000 0.000000
# 2 -0.004578 0.010742 -0.002463 0.000000 0.000000 0.000000
# 3 -0.007742 -0.002463 0.025376 0.000000 0.000000 0.000000
# 4 0.000000 0.000000 0.000000 0.061194 0.000000 0.000000
# 5 0.000000 0.000000 0.000000 0.000000 0.034906 0.000000
# 6 0.000000 0.000000 0.000000 0.000000 0.000000 0.028975
#
#
# Mechanical properties :
#
#
# Convention : Reuss Voigt Hill
#
# Bulk Modulus (GPa) = 51.98976 67.67402 59.83189
# Shear Modulus (GPa) = 23.82563 27.30678 25.56621
#
# Velocity S-wave (km/s) = 3.63587 3.89243 3.76633
# Velocity P-wave (km/s) = 6.81706 7.59934 7.21880
#
# Compressibility (1/GPa) = 0.01923456
#
# Stress axis : x y z
#
# Youngs Moduli (GPa) = 78.83528 93.09312 39.40690
#
# Poissons Ratio (x) = 0.42622 0.30510
# Poissons Ratio (y) = 0.36094 0.09708
# Poissons Ratio (z) = 0.61036 0.22933
#
# Static dielectric constant tensor:
#      x y z
#    x 3.586140 0.000000 0.000000 
#    y 0.000000 3.474790 0.000000 
#    z 0.000000 0.000000 3.136350 
# 
# 
# High freq. dielectric constant tensor:
#      x y z
#    x 1.717530 0.000000 0.000000 
#    y 0.000000 1.696300 0.000000 
#    z 0.000000 0.000000 1.673590 
# 
# From -- ./inp_files/37782.got.cif
#   From: 2010.03.12/outbox.cif.g09.slc.cpg/sg53_19_cif.got.tgz:37782.got - 2010.04.16 14:36:59.
