data_PCOD8219632
_publ_section_title
;
Structure prediction by ZEFSAII (Michael W. Deem and Ramdas Pophale) SiO2 
 PCOD8219632
Probable space group: P M N A
;
_chemical_formula_sum "Si O2"
_cell_formula_units_Z 48
_cell_length_a 19.761355
_cell_length_b 13.760228
_cell_length_c 8.318043
_cell_angle_alpha 90.000000
_cell_angle_beta 90.000000
_cell_angle_gamma 90.000000
_cell_volume 2261.848494
_symmetry_space_group_name_H-M "P M N A"
_symmetry_group_IT_number 53
_symmetry_cell_setting 'orthorhombic'
loop_
_space_group_symop_operation_xyz
x,y,z
1/2-x,-y,1/2+z
x,-y,-z
1/2-x,y,1/2-z
-x,-y,-z
1/2+x,y,1/2-z
-x,y,z
1/2+x,-y,1/2+z
loop_
_atom_site_type_symbol
_atom_site_label
_atom_site_fract_x
_atom_site_fract_y
_atom_site_fract_z
Si Si1 0.077395 0.942335 0.165682
Si Si2 0.072771 0.405835 0.899172
Si Si3 0.816415 0.423852 0.644852
Si Si4 0.862209 0.222141 0.030071
Si Si5 0.281031 0.211482 0.917140
Si Si6 0.672615 0.909965 0.806859
O O1 0.108608 0.836660 0.125178
O O2 0.000000 0.934535 0.230713
O O3 0.127489 0.991894 0.296447
O O4 0.079345 0.000000 0.000000
O O5 0.117965 0.439162 0.751017
O O6 0.103703 0.326772 0.022013
O O7 0.000000 0.367639 0.835360
O O8 0.060321 0.500000 0.000000
O O9 0.816975 0.500000 0.500000
O O10 0.750000 0.442370 0.750000
O O11 0.822873 0.310934 0.594696
O O12 0.782464 0.239486 0.025917
O O13 0.870958 0.166943 0.199663
O O14 0.250000 0.171140 0.750000
O O15 0.324853 0.128685 0.009032
O O16 0.750000 0.930974 0.750000
#
# Coordination Sequence:
#
# PCOD8219632 Si02
#       6
#     8   8   8   8   8   8
#     4   9  18  35  60  90 124 166 212 259 320 387
#     4  11  24  41  61  92 129 170 216 264 329 396
#     4  11  23  39  65  92 123 166 213 270 330 397
#     4  10  19  37  62  89 126 165 211 263 322 386
#     4  10  20  37  59  91 122 161 206 266 329 378
#     4   9  20  35  61  95 124 162 214 270 323 382
#
# _framework density 21.221581
#
# number of rings (size 3 to 8) (size 9 to 14) (size 15 to 20)
#    0.000    2.000    3.333    1.000    2.333    2.333 
#    0.000    3.333    0.000    1.000    0.000    0.000 
#    0.000    0.000    0.000    0.000    0.000    0.000 
#
# Total GULP energy -594784.614517 kJ/mol
# GULP energy per Si atom -12391.346136 kJ/mol
# Density = 2.117328 g / cm^3
# Si number density = 21.221581 Si / 1000 Ang^3
#
#
#
# Elastic Constant Matrix: (Units=GPa)
#
#
# Indices 1 2 3 4 5 6 
#
# 1 125.9094 33.8956 33.8733 0.0000 0.0000 0.0000
# 2 33.8956 81.1114 39.7719 0.0000 0.0000 0.0000
# 3 33.8733 39.7719 103.8203 0.0000 0.0000 0.0000
# 4 0.0000 0.0000 0.0000 40.0789 0.0000 0.0000
# 5 0.0000 0.0000 0.0000 0.0000 20.6151 0.0000
# 6 0.0000 0.0000 0.0000 0.0000 0.0000 25.9435
#
#
#
# Elastic Compliance Matrix: (Units=1/GPa)
#
#
# Indices 1 2 3 4 5 6 
#
# 1 0.009241 -0.002935 -0.001891 0.000000 0.000000 0.000000
# 2 -0.002935 0.016112 -0.005215 0.000000 0.000000 0.000000
# 3 -0.001891 -0.005215 0.012247 0.000000 0.000000 0.000000
# 4 0.000000 0.000000 0.000000 0.024951 0.000000 0.000000
# 5 0.000000 0.000000 0.000000 0.000000 0.048508 0.000000
# 6 0.000000 0.000000 0.000000 0.000000 0.000000 0.038545
#
#
# Mechanical properties :
#
#
# Convention : Reuss Voigt Hill
#
# Bulk Modulus (GPa) = 57.08012 58.43584 57.75798
# Shear Modulus (GPa) = 28.48613 30.88085 29.68349
#
# Velocity S-wave (km/s) = 3.66774 3.81880 3.74403
# Velocity P-wave (km/s) = 6.70015 6.85858 6.77983
#
# Compressibility (1/GPa) = 0.01751923
#
# Stress axis : x y z
#
# Youngs Moduli (GPa) = 108.21449 62.06532 81.65481
#
# Poissons Ratio (x) = 0.18213 0.15440
# Poissons Ratio (y) = 0.31756 0.42582
# Poissons Ratio (z) = 0.20462 0.32366
#
# Static dielectric constant tensor:
#      x y z
#    x 4.082310 0.000000 0.000000 
#    y 0.000000 3.912110 0.000000 
#    z 0.000000 0.000000 3.997890 
# 
# 
# High freq. dielectric constant tensor:
#      x y z
#    x 1.829670 0.000000 0.000000 
#    y 0.000000 1.839240 0.000000 
#    z 0.000000 0.000000 1.811600 
# 
# From -- ./inp_files/10017.got.cif
#   From: 2010.03.12/outbox.cif.g09.slc.cpg/sg53_6_cif.got.tgz:10017.got - 2010.04.16 14:36:59.
