data_PCOD8219087
_publ_section_title
;
Structure prediction by ZEFSAII (Michael W. Deem and Ramdas Pophale) SiO2 
 PCOD8219087
Probable space group: P M N A
;
_chemical_formula_sum "Si O2"
_cell_formula_units_Z 64
_cell_length_a 17.554877
_cell_length_b 21.073907
_cell_length_c 8.690622
_cell_angle_alpha 90.000000
_cell_angle_beta 90.000000
_cell_angle_gamma 90.000000
_cell_volume 3215.094264
_symmetry_space_group_name_H-M "P M N A"
_symmetry_group_IT_number 53
_symmetry_cell_setting 'orthorhombic'
loop_
_space_group_symop_operation_xyz
x,y,z
1/2-x,-y,1/2+z
x,-y,-z
1/2-x,y,1/2-z
-x,-y,-z
1/2+x,y,1/2-z
-x,y,z
1/2+x,-y,1/2+z
loop_
_atom_site_type_symbol
_atom_site_label
_atom_site_fract_x
_atom_site_fract_y
_atom_site_fract_z
Si Si1 0.670873 0.030036 0.797620
Si Si2 0.345064 0.857743 0.435668
Si Si3 0.587379 0.516712 0.334462
Si Si4 0.414617 0.910589 0.721821
Si Si5 0.588858 0.227145 0.799243
Si Si6 0.809971 0.554902 0.613798
Si Si7 0.089004 0.629135 0.380153
Si Si8 0.178101 0.864754 0.519548
O O1 0.750000 0.994549 0.750000
O O2 0.670060 0.096016 0.705611
O O3 0.669007 0.059353 0.971194
O O4 0.601326 0.985134 0.751816
O O5 0.405787 0.892706 0.544035
O O6 0.379227 0.791995 0.369602
O O7 0.265608 0.843223 0.521102
O O8 0.626202 0.500000 0.500000
O O9 0.500000 0.499552 0.348830
O O10 0.617784 0.472444 0.200709
O O11 0.601561 0.588810 0.277239
O O12 0.500000 0.897163 0.776903
O O13 0.356040 0.864619 0.809844
O O14 0.500000 0.212827 0.804894
O O15 0.607968 0.299772 0.831687
O O16 0.628363 0.184690 0.926711
O O17 0.775021 0.500000 0.500000
O O18 0.750000 0.576163 0.750000
O O19 0.847848 0.611053 0.510929
O O20 0.000000 0.621701 0.435790
#
# Coordination Sequence:
#
# PCOD8219087 Si02
#       8
#     8   8   8   8   8   8   8   8
#     4   9  19  35  55  77 104 141 180 218 271 340
#     4  10  21  38  57  77 107 145 182 221 274 334
#     4   9  17  32  55  83 114 148 185 223 269 324
#     4  12  23  33  52  83 111 136 175 230 282 324
#     4  10  20  38  60  81 106 140 187 231 269 321
#     4  10  19  33  53  82 118 150 183 226 275 321
#     4   9  19  36  59  83 111 151 188 223 274 335
#     4  10  21  38  56  75 106 147 183 219 272 334
#
# _framework density 19.906103999999999
#
# number of rings (size 3 to 8) (size 9 to 14) (size 15 to 20)
#    0.000    2.125    0.000    4.500    0.000    7.500 
#    0.000   10.000    0.000    4.500    0.000    0.000 
#    0.000    0.000    0.000    0.000    0.000    0.000 
#
# Total GULP energy -793105.561516 kJ/mol
# GULP energy per Si atom -12392.274399 kJ/mol
# Density = 1.986080 g / cm^3
# Si number density = 19.906104 Si / 1000 Ang^3
#
#
#
# Elastic Constant Matrix: (Units=GPa)
#
#
# Indices 1 2 3 4 5 6 
#
# 1 98.0167 42.1919 32.2859 0.0000 0.0000 0.0000
# 2 42.1919 97.9419 28.7847 0.0000 0.0000 0.0000
# 3 32.2859 28.7847 78.2345 0.0000 0.0000 0.0000
# 4 0.0000 0.0000 0.0000 19.1667 0.0000 0.0000
# 5 0.0000 0.0000 0.0000 0.0000 35.2943 0.0000
# 6 0.0000 0.0000 0.0000 0.0000 0.0000 20.6009
#
#
#
# Elastic Compliance Matrix: (Units=1/GPa)
#
#
# Indices 1 2 3 4 5 6 
#
# 1 0.013482 -0.004679 -0.003842 0.000000 0.000000 0.000000
# 2 -0.004679 0.013072 -0.002879 0.000000 0.000000 0.000000
# 3 -0.003842 -0.002879 0.015427 0.000000 0.000000 0.000000
# 4 0.000000 0.000000 0.000000 0.052174 0.000000 0.000000
# 5 0.000000 0.000000 0.000000 0.000000 0.028333 0.000000
# 6 0.000000 0.000000 0.000000 0.000000 0.000000 0.048542
#
#
# Mechanical properties :
#
#
# Convention : Reuss Voigt Hill
#
# Bulk Modulus (GPa) = 52.13421 53.41312 52.77366
# Shear Modulus (GPa) = 24.97229 26.40775 25.69002
#
# Velocity S-wave (km/s) = 3.54574 3.64622 3.59633
# Velocity P-wave (km/s) = 6.55820 6.67963 6.61919
#
# Compressibility (1/GPa) = 0.01918126
#
# Stress axis : x y z
#
# Youngs Moduli (GPa) = 74.17353 76.50163 64.82193
#
# Poissons Ratio (x) = 0.35792 0.24907
# Poissons Ratio (y) = 0.34703 0.18660
# Poissons Ratio (z) = 0.28500 0.22022
#
# Static dielectric constant tensor:
#      x y z
#    x 3.695890 0.000000 0.000000 
#    y 0.000000 3.422190 0.000000 
#    z 0.000000 0.000000 3.844070 
# 
# 
# High freq. dielectric constant tensor:
#      x y z
#    x 1.782770 0.000000 0.000000 
#    y 0.000000 1.748090 0.000000 
#    z 0.000000 0.000000 1.784720 
# 
# From -- ./inp_files/10277.got.cif
#   From: 2010.03.12/outbox.cif.g09.slc.cpg/sg53_6_cif.got.tgz:10277.got - 2010.04.16 14:36:59.
