data_PCOD8219454
_publ_section_title
;
Structure prediction by ZEFSAII (Michael W. Deem and Ramdas Pophale) SiO2 
 PCOD8219454
Probable space group: P M N A
;
_chemical_formula_sum "Si O2"
_cell_formula_units_Z 48
_cell_length_a 8.572441
_cell_length_b 16.593526
_cell_length_c 18.080023
_cell_angle_alpha 90.000000
_cell_angle_beta 90.000000
_cell_angle_gamma 90.000000
_cell_volume 2571.829441
_symmetry_space_group_name_H-M "P M N A"
_symmetry_group_IT_number 53
_symmetry_cell_setting 'orthorhombic'
loop_
_space_group_symop_operation_xyz
x,y,z
1/2-x,-y,1/2+z
x,-y,-z
1/2-x,y,1/2-z
-x,-y,-z
1/2+x,y,1/2-z
-x,y,z
1/2+x,-y,1/2+z
loop_
_atom_site_type_symbol
_atom_site_label
_atom_site_fract_x
_atom_site_fract_y
_atom_site_fract_z
Si Si1 0.184093 0.756495 0.544224
Si Si2 0.184723 0.167525 0.827434
Si Si3 0.683665 0.506692 0.415190
Si Si4 0.685284 0.085374 0.969262
Si Si5 0.685012 0.324293 0.895027
Si Si6 0.815734 0.356020 0.330670
O O1 0.238847 0.848369 0.530366
O O2 0.241806 0.701333 0.476616
O O3 0.250583 0.718603 0.619927
O O4 0.000000 0.753702 0.546358
O O5 0.250000 0.133398 0.750000
O O6 0.236141 0.104954 0.890948
O O7 0.257330 0.256344 0.838341
O O8 0.000000 0.173673 0.825677
O O9 0.742829 0.500000 0.500000
O O10 0.500000 0.495406 0.410370
O O11 0.733287 0.590977 0.378196
O O12 0.764358 0.439466 0.365990
O O13 0.500000 0.087038 0.957234
O O14 0.744168 0.000000 0.000000
O O15 0.500000 0.333181 0.888432
O O16 0.750000 0.343848 0.250000
O O17 0.000000 0.354754 0.326948
#
# Coordination Sequence:
#
# PCOD8219454 Si02
#       6
#     8   8   8   8   8   8
#     4   8  16  32  55  79 105 141 181 220 270 329
#     4  11  22  37  57  84 118 151 187 233 288 338
#     4  11  22  35  54  82 113 145 188 234 281 332
#     4   9  18  36  62  89 115 148 188 228 277 341
#     4  10  19  35  58  82 107 144 189 227 278 337
#     4  11  22  37  54  76 108 147 190 233 281 327
#
# _framework density 18.663757
#
# number of rings (size 3 to 8) (size 9 to 14) (size 15 to 20)
#    0.000    2.000    1.667    4.000    0.000    1.667 
#    0.000    5.000    0.000    2.000    0.000    0.000 
#    0.000    0.000    0.000    0.000    0.000    0.000 
#
# Total GULP energy -595158.143240 kJ/mol
# GULP energy per Si atom -12399.127984 kJ/mol
# Density = 1.862128 g / cm^3
# Si number density = 18.663757 Si / 1000 Ang^3
#
#
#
# Elastic Constant Matrix: (Units=GPa)
#
#
# Indices 1 2 3 4 5 6 
#
# 1 61.0879 19.5912 31.7151 0.0000 0.0000 0.0000
# 2 19.5912 137.0676 67.3911 0.0000 0.0000 0.0000
# 3 31.7151 67.3911 135.1132 0.0000 0.0000 0.0000
# 4 0.0000 0.0000 0.0000 22.6697 0.0000 0.0000
# 5 0.0000 0.0000 0.0000 0.0000 21.6532 0.0000
# 6 0.0000 0.0000 0.0000 0.0000 0.0000 20.2989
#
#
#
# Elastic Compliance Matrix: (Units=1/GPa)
#
#
# Indices 1 2 3 4 5 6 
#
# 1 0.018690 -0.000682 -0.004047 0.000000 0.000000 0.000000
# 2 -0.000682 0.009691 -0.004674 0.000000 0.000000 0.000000
# 3 -0.004047 -0.004674 0.010682 0.000000 0.000000 0.000000
# 4 0.000000 0.000000 0.000000 0.044112 0.000000 0.000000
# 5 0.000000 0.000000 0.000000 0.000000 0.046183 0.000000
# 6 0.000000 0.000000 0.000000 0.000000 0.000000 0.049264
#
#
# Mechanical properties :
#
#
# Convention : Reuss Voigt Hill
#
# Bulk Modulus (GPa) = 49.36247 63.40706 56.38477
# Shear Modulus (GPa) = 24.48843 27.22910 25.85877
#
# Velocity S-wave (km/s) = 3.62620 3.82374 3.72628
# Velocity P-wave (km/s) = 6.63613 7.31722 6.98498
#
# Compressibility (1/GPa) = 0.02025830
#
# Stress axis : x y z
#
# Youngs Moduli (GPa) = 53.50584 103.18926 93.61314
#
# Poissons Ratio (x) = 0.07033 0.37886
# Poissons Ratio (y) = 0.03647 0.43751
# Poissons Ratio (z) = 0.21654 0.48227
#
# Static dielectric constant tensor:
#      x y z
#    x 3.305300 0.000000 0.000000 
#    y 0.000000 3.572600 0.000000 
#    z 0.000000 0.000000 3.603580 
# 
# 
# High freq. dielectric constant tensor:
#      x y z
#    x 1.719170 0.000000 0.000000 
#    y 0.000000 1.721440 0.000000 
#    z 0.000000 0.000000 1.720490 
# 
# From -- ./inp_files/20125.got.cif
#   From: 2010.03.12/outbox.cif.g09.slc.cpg/sg53_11_cif.got.tgz:20125.got - 2010.04.16 14:36:59.
