data_PCOD8219931
_publ_section_title
;
Structure prediction by ZEFSAII (Michael W. Deem and Ramdas Pophale) SiO2 
 PCOD8219931
Probable space group: P M N A
;
_chemical_formula_sum "Si O2"
_cell_formula_units_Z 48
_cell_length_a 8.948965
_cell_length_b 16.370898
_cell_length_c 17.843149
_cell_angle_alpha 90.000000
_cell_angle_beta 90.000000
_cell_angle_gamma 90.000000
_cell_volume 2614.067600
_symmetry_space_group_name_H-M "P M N A"
_symmetry_group_IT_number 53
_symmetry_cell_setting 'orthorhombic'
loop_
_space_group_symop_operation_xyz
x,y,z
1/2-x,-y,1/2+z
x,-y,-z
1/2-x,y,1/2-z
-x,-y,-z
1/2+x,y,1/2-z
-x,y,z
1/2+x,-y,1/2+z
loop_
_atom_site_type_symbol
_atom_site_label
_atom_site_fract_x
_atom_site_fract_y
_atom_site_fract_z
Si Si1 0.173842 0.408256 0.980405
Si Si2 0.825869 0.821130 0.393767
Si Si3 0.673755 0.740474 0.949431
Si Si4 0.174842 0.330368 0.824669
Si Si5 0.824953 0.013568 0.914902
Si Si6 0.324269 0.848917 0.669938
O O1 0.212452 0.390756 0.893498
O O2 0.000000 0.391248 0.996241
O O3 0.219829 0.500000 0.000000
O O4 0.270426 0.350796 0.034196
O O5 0.792311 0.797917 0.479632
O O6 0.740912 0.759376 0.339176
O O7 0.764760 0.911551 0.378699
O O8 0.000000 0.817076 0.374677
O O9 0.500000 0.738011 0.929556
O O10 0.763807 0.774397 0.879137
O O11 0.250000 0.367600 0.750000
O O12 0.000000 0.321972 0.811477
O O13 0.000000 0.033440 0.911264
O O14 0.780231 0.934338 0.867874
O O15 0.772644 0.000000 0.000000
O O16 0.250000 0.844260 0.750000
O O17 0.500000 0.839182 0.678003
#
# Coordination Sequence:
#
# PCOD8219931 Si02
#       6
#     8   8   8   8   8   8
#     4   9  19  37  61  86 111 145 186 225 272 333
#     4  10  20  33  54  81 109 143 184 227 271 326
#     4  10  20  35  56  82 110 142 181 224 273 327
#     4  10  20  35  56  81 113 146 180 225 277 331
#     4  10  20  35  55  78 107 147 191 232 277 326
#     4  11  23  38  56  78 109 146 187 234 280 329
#
# _framework density 18.362186999999999
#
# number of rings (size 3 to 8) (size 9 to 14) (size 15 to 20)
#    0.000    2.000    1.667    2.000    0.000    4.667 
#    0.000    2.500    0.000    2.000    0.000    0.000 
#    0.000    0.000    0.000    0.000    0.000    0.000 
#
# Total GULP energy -595446.413167 kJ/mol
# GULP energy per Si atom -12405.133608 kJ/mol
# Density = 1.832039 g / cm^3
# Si number density = 18.362187 Si / 1000 Ang^3
#
#
#
# Elastic Constant Matrix: (Units=GPa)
#
#
# Indices 1 2 3 4 5 6 
#
# 1 85.0565 56.7792 56.3490 0.0000 0.0000 0.0000
# 2 56.7792 127.0291 61.8369 0.0000 0.0000 0.0000
# 3 56.3490 61.8369 123.9300 0.0000 0.0000 0.0000
# 4 0.0000 0.0000 0.0000 22.8538 0.0000 0.0000
# 5 0.0000 0.0000 0.0000 0.0000 31.7477 0.0000
# 6 0.0000 0.0000 0.0000 0.0000 0.0000 28.4592
#
#
#
# Elastic Compliance Matrix: (Units=1/GPa)
#
#
# Indices 1 2 3 4 5 6 
#
# 1 0.019649 -0.005856 -0.006012 0.000000 0.000000 0.000000
# 2 -0.005856 0.012143 -0.003396 0.000000 0.000000 0.000000
# 3 -0.006012 -0.003396 0.012497 0.000000 0.000000 0.000000
# 4 0.000000 0.000000 0.000000 0.043756 0.000000 0.000000
# 5 0.000000 0.000000 0.000000 0.000000 0.031498 0.000000
# 6 0.000000 0.000000 0.000000 0.000000 0.000000 0.035138
#
#
# Mechanical properties :
#
#
# Convention : Reuss Voigt Hill
#
# Bulk Modulus (GPa) = 72.67209 76.21620 74.44414
# Shear Modulus (GPa) = 26.34380 27.34883 26.84631
#
# Velocity S-wave (km/s) = 3.79182 3.86347 3.82782
# Velocity P-wave (km/s) = 7.67030 7.84214 7.75670
#
# Compressibility (1/GPa) = 0.01376044
#
# Stress axis : x y z
#
# Youngs Moduli (GPa) = 50.89314 82.35179 80.01689
#
# Poissons Ratio (x) = 0.48225 0.48107
# Poissons Ratio (y) = 0.29803 0.27176
# Poissons Ratio (z) = 0.30598 0.27969
#
# Static dielectric constant tensor:
#      x y z
#    x 3.390770 0.000000 0.000000 
#    y 0.000000 3.278680 0.000000 
#    z 0.000000 0.000000 3.307880 
# 
# 
# High freq. dielectric constant tensor:
#      x y z
#    x 1.721170 0.000000 0.000000 
#    y 0.000000 1.703480 0.000000 
#    z 0.000000 0.000000 1.708220 
# 
# From -- ./inp_files/20183.got.cif
#   From: 2010.03.12/outbox.cif.g09.slc.cpg/sg53_11_cif.got.tgz:20183.got - 2010.04.16 14:36:59.
