data_PCOD8219676
_publ_section_title
;
Structure prediction by ZEFSAII (Michael W. Deem and Ramdas Pophale) SiO2 
 PCOD8219676
Probable space group: P M N A
;
_chemical_formula_sum "Si O2"
_cell_formula_units_Z 64
_cell_length_a 26.806464
_cell_length_b 18.086815
_cell_length_c 6.690334
_cell_angle_alpha 90.000000
_cell_angle_beta 90.000000
_cell_angle_gamma 90.000000
_cell_volume 3243.765322
_symmetry_space_group_name_H-M "P M N A"
_symmetry_group_IT_number 53
_symmetry_cell_setting 'orthorhombic'
loop_
_space_group_symop_operation_xyz
x,y,z
1/2-x,-y,1/2+z
x,-y,-z
1/2-x,y,1/2-z
-x,-y,-z
1/2+x,y,1/2-z
-x,y,z
1/2+x,-y,1/2+z
loop_
_atom_site_type_symbol
_atom_site_label
_atom_site_fract_x
_atom_site_fract_y
_atom_site_fract_z
Si Si1 0.194263 0.355396 0.239116
Si Si2 0.805840 0.810388 0.751042
Si Si3 0.301164 0.571879 0.363424
Si Si4 0.881407 0.827517 0.090621
Si Si5 0.441646 0.725538 0.111720
Si Si6 0.883079 0.579012 0.463845
Si Si7 0.365887 0.081869 0.967393
Si Si8 0.056420 0.849779 0.704684
O O1 0.250000 0.391072 0.250000
O O2 0.193998 0.273260 0.330257
O O3 0.152845 0.402600 0.351413
O O4 0.183239 0.358274 0.002466
O O5 0.750000 0.842059 0.750000
O O6 0.834576 0.858473 0.590305
O O7 0.830214 0.808972 0.972684
O O8 0.294436 0.500000 0.500000
O O9 0.250000 0.590556 0.250000
O O10 0.347675 0.563782 0.221155
O O11 0.905747 0.760756 0.218459
O O12 0.868050 0.896719 0.234159
O O13 0.921269 0.850996 0.925571
O O14 0.500000 0.726744 0.179309
O O15 0.424602 0.641554 0.073382
O O16 0.435297 0.770415 0.904028
O O17 0.910765 0.500000 0.500000
O O18 0.420801 0.085723 0.065090
O O19 0.343557 0.000000 0.000000
O O20 0.000000 0.871294 0.730564
#
# Coordination Sequence:
#
# PCOD8219676 Si02
#       8
#     8   8   8   8   8   8   8   8
#     4  11  21  37  57  83 117 151 197 254 306 360
#     4  10  23  40  59  90 122 157 208 251 298 361
#     4  12  22  36  55  85 119 160 199 245 309 376
#     4  10  19  39  65  87 119 155 202 252 309 360
#     4  10  22  40  63  88 117 161 213 257 307 368
#     4  12  23  36  56  82 120 160 200 250 309 363
#     4  10  22  40  59  89 127 161 197 244 294 363
#     4   9  19  37  63  91 118 151 197 252 306 361
#
# _framework density 19.730156999999998
#
# number of rings (size 3 to 8) (size 9 to 14) (size 15 to 20)
#    0.000    1.500    2.500    4.125    0.000    3.500 
#    2.250    0.625    0.000    0.375    0.000    0.000 
#    0.000    0.000    0.000    0.000    0.000    0.000 
#
# Total GULP energy -793192.304873 kJ/mol
# GULP energy per Si atom -12393.629764 kJ/mol
# Density = 1.968525 g / cm^3
# Si number density = 19.730157 Si / 1000 Ang^3
#
#
#
# Elastic Constant Matrix: (Units=GPa)
#
#
# Indices 1 2 3 4 5 6 
#
# 1 107.4735 28.4786 43.9295 0.0000 0.0000 0.0000
# 2 28.4786 84.4906 30.9183 0.0000 0.0000 0.0000
# 3 43.9295 30.9183 124.9180 0.0000 0.0000 0.0000
# 4 0.0000 0.0000 0.0000 21.7381 0.0000 0.0000
# 5 0.0000 0.0000 0.0000 0.0000 20.8607 0.0000
# 6 0.0000 0.0000 0.0000 0.0000 0.0000 15.2350
#
#
#
# Elastic Compliance Matrix: (Units=1/GPa)
#
#
# Indices 1 2 3 4 5 6 
#
# 1 0.011365 -0.002604 -0.003352 0.000000 0.000000 0.000000
# 2 -0.002604 0.013611 -0.002453 0.000000 0.000000 0.000000
# 3 -0.003352 -0.002453 0.009791 0.000000 0.000000 0.000000
# 4 0.000000 0.000000 0.000000 0.046002 0.000000 0.000000
# 5 0.000000 0.000000 0.000000 0.000000 0.047937 0.000000
# 6 0.000000 0.000000 0.000000 0.000000 0.000000 0.065638
#
#
# Mechanical properties :
#
#
# Convention : Reuss Voigt Hill
#
# Bulk Modulus (GPa) = 55.71446 58.17052 56.94249
# Shear Modulus (GPa) = 23.02603 25.80383 24.41493
#
# Velocity S-wave (km/s) = 3.41991 3.62033 3.52155
# Velocity P-wave (km/s) = 6.62525 6.85731 6.74228
#
# Compressibility (1/GPa) = 0.01794866
#
# Stress axis : x y z
#
# Youngs Moduli (GPa) = 87.99100 73.46986 102.13201
#
# Poissons Ratio (x) = 0.19131 0.34236
# Poissons Ratio (y) = 0.22913 0.25054
# Poissons Ratio (z) = 0.29496 0.18023
#
# Static dielectric constant tensor:
#      x y z
#    x 3.674390 0.000000 0.000000 
#    y 0.000000 3.559920 0.000000 
#    z 0.000000 0.000000 3.770950 
# 
# 
# High freq. dielectric constant tensor:
#      x y z
#    x 1.762070 0.000000 0.000000 
#    y 0.000000 1.760870 0.000000 
#    z 0.000000 0.000000 1.779200 
# 
# From -- ./inp_files/5467.got.cif
#   From: 2010.03.12/outbox.cif.g09.slc.cpg/sg53_3_cif.got.tgz:5467.got - 2010.04.16 14:36:59.
