data_PCOD8219108
_publ_section_title
;
Structure prediction by ZEFSAII (Michael W. Deem and Ramdas Pophale) SiO2 
 PCOD8219108
Probable space group: P M N A
;
_chemical_formula_sum "Si O2"
_cell_formula_units_Z 64
_cell_length_a 9.038816
_cell_length_b 11.004467
_cell_length_c 34.048043
_cell_angle_alpha 90.000000
_cell_angle_beta 90.000000
_cell_angle_gamma 90.000000
_cell_volume 3386.668691
_symmetry_space_group_name_H-M "P M N A"
_symmetry_group_IT_number 53
_symmetry_cell_setting 'orthorhombic'
loop_
_space_group_symop_operation_xyz
x,y,z
1/2-x,-y,1/2+z
x,-y,-z
1/2-x,y,1/2-z
-x,-y,-z
1/2+x,y,1/2-z
-x,y,z
1/2+x,-y,1/2+z
loop_
_atom_site_type_symbol
_atom_site_label
_atom_site_fract_x
_atom_site_fract_y
_atom_site_fract_z
Si Si1 0.169602 0.126257 0.638518
Si Si2 0.669715 0.242234 0.447348
Si Si3 0.174358 0.745782 0.475944
Si Si4 0.326809 0.262192 0.290261
Si Si5 0.172992 0.981304 0.210367
Si Si6 0.333080 0.386544 0.897992
Si Si7 0.670943 0.037812 0.564459
Si Si8 0.325120 0.621156 0.629590
O O1 0.258951 0.105598 0.677927
O O2 0.181994 0.267355 0.628323
O O3 0.243865 0.043968 0.605391
O O4 0.000000 0.085414 0.643173
O O5 0.500000 0.282411 0.453219
O O6 0.767837 0.302493 0.482021
O O7 0.729822 0.289955 0.405380
O O8 0.686676 0.098244 0.450932
O O9 0.212719 0.645555 0.442794
O O10 0.256653 0.872140 0.466977
O O11 0.000000 0.771236 0.476668
O O12 0.250000 0.307129 0.250000
O O13 0.500000 0.284329 0.284653
O O14 0.262824 0.335278 0.328016
O O15 0.291165 0.121596 0.298763
O O16 0.250000 0.939367 0.250000
O O17 0.000000 0.957263 0.213452
O O18 0.500000 0.437094 0.896963
O O19 0.225065 0.485291 0.879654
O O20 0.500000 0.073755 0.570631
O O21 0.500000 0.625728 0.631972
#
# Coordination Sequence:
#
# PCOD8219108 Si02
#       8
#     8   8   8   8   8   8   8   8
#     4  10  20  35  54  77 106 139 177 219 264 316
#     4  10  21  35  52  78 109 139 174 218 266 318
#     4  10  21  36  53  76 107 140 176 221 269 316
#     4   9  19  36  57  83 112 139 169 210 260 312
#     4  10  19  33  55  83 114 142 170 210 262 320
#     4   9  21  39  54  72 102 139 179 223 265 306
#     4  10  19  33  54  78 106 139 174 216 268 322
#     4  10  21  37  56  78 105 138 180 223 260 308
#
# _framework density 18.897625999999999
#
# number of rings (size 3 to 8) (size 9 to 14) (size 15 to 20)
#    0.000    2.250    0.000    3.375    0.000    9.500 
#    0.000    4.375    0.000    1.500    0.000    0.000 
#    0.000    0.000    0.000    0.000    0.000    0.000 
#
# Total GULP energy -793684.643956 kJ/mol
# GULP energy per Si atom -12401.322562 kJ/mol
# Density = 1.885461 g / cm^3
# Si number density = 18.897626 Si / 1000 Ang^3
#
#
#
# Elastic Constant Matrix: (Units=GPa)
#
#
# Indices 1 2 3 4 5 6 
#
# 1 77.1606 28.2893 54.9902 0.0000 0.0000 0.0000
# 2 28.2893 47.4168 46.0758 0.0000 0.0000 0.0000
# 3 54.9902 46.0758 169.3767 0.0000 0.0000 0.0000
# 4 0.0000 0.0000 0.0000 20.8015 0.0000 0.0000
# 5 0.0000 0.0000 0.0000 0.0000 37.7065 0.0000
# 6 0.0000 0.0000 0.0000 0.0000 0.0000 23.3589
#
#
#
# Elastic Compliance Matrix: (Units=1/GPa)
#
#
# Indices 1 2 3 4 5 6 
#
# 1 0.018446 -0.007049 -0.004071 0.000000 0.000000 0.000000
# 2 -0.007049 0.031361 -0.006243 0.000000 0.000000 0.000000
# 3 -0.004071 -0.006243 0.008924 0.000000 0.000000 0.000000
# 4 0.000000 0.000000 0.000000 0.048073 0.000000 0.000000
# 5 0.000000 0.000000 0.000000 0.000000 0.026521 0.000000
# 6 0.000000 0.000000 0.000000 0.000000 0.000000 0.042810
#
#
# Mechanical properties :
#
#
# Convention : Reuss Voigt Hill
#
# Bulk Modulus (GPa) = 41.65734 61.40720 51.53227
# Shear Modulus (GPa) = 22.84541 27.34663 25.09602
#
# Velocity S-wave (km/s) = 3.48070 3.80820 3.64813
# Velocity P-wave (km/s) = 6.18427 7.20428 6.71368
#
# Compressibility (1/GPa) = 0.02400538
#
# Stress axis : x y z
#
# Youngs Moduli (GPa) = 54.21324 31.88652 112.05804
#
# Poissons Ratio (x) = 0.22477 0.45620
# Poissons Ratio (y) = 0.38214 0.69955
# Poissons Ratio (z) = 0.22071 0.19906
#
# Static dielectric constant tensor:
#      x y z
#    x 3.507180 0.000000 0.000000 
#    y 0.000000 3.198570 0.000000 
#    z 0.000000 0.000000 3.576460 
# 
# 
# High freq. dielectric constant tensor:
#      x y z
#    x 1.736690 0.000000 0.000000 
#    y 0.000000 1.713910 0.000000 
#    z 0.000000 0.000000 1.746680 
# 
# From -- ./inp_files/38153.got.cif
#   From: 2010.03.12/outbox.cif.g09.slc.cpg/sg53_20_cif.got.tgz:38153.got - 2010.04.16 14:36:59.
