data_PCOD8219719
_publ_section_title
;
Structure prediction by ZEFSAII (Michael W. Deem and Ramdas Pophale) SiO2 
 PCOD8219719
Probable space group: P M N A
;
_chemical_formula_sum "Si O2"
_cell_formula_units_Z 64
_cell_length_a 8.909045
_cell_length_b 14.873233
_cell_length_c 26.701658
_cell_angle_alpha 90.000000
_cell_angle_beta 90.000000
_cell_angle_gamma 90.000000
_cell_volume 3538.137961
_symmetry_space_group_name_H-M "P M N A"
_symmetry_group_IT_number 53
_symmetry_cell_setting 'orthorhombic'
loop_
_space_group_symop_operation_xyz
x,y,z
1/2-x,-y,1/2+z
x,-y,-z
1/2-x,y,1/2-z
-x,-y,-z
1/2+x,y,1/2-z
-x,y,z
1/2+x,-y,1/2+z
loop_
_atom_site_type_symbol
_atom_site_label
_atom_site_fract_x
_atom_site_fract_y
_atom_site_fract_z
Si Si1 0.826064 0.186870 0.413578
Si Si2 0.176364 0.492692 0.696512
Si Si3 0.825917 0.825508 0.111438
Si Si4 0.322869 0.009170 0.441838
Si Si5 0.823694 0.290134 0.696026
Si Si6 0.831854 0.260580 0.523485
Si Si7 0.339757 0.596318 0.519472
Si Si8 0.325712 0.642471 0.628828
O O1 0.751811 0.089237 0.410150
O O2 0.802374 0.210539 0.471598
O O3 0.746963 0.257583 0.375799
O O4 0.000000 0.182701 0.398704
O O5 0.250000 0.496677 0.750000
O O6 0.210764 0.391588 0.674810
O O7 0.244597 0.576744 0.667237
O O8 0.000000 0.508140 0.700479
O O9 0.735585 0.787642 0.158939
O O10 0.791218 0.764824 0.063764
O O11 0.000000 0.820631 0.125058
O O12 0.777493 0.924614 0.092914
O O13 0.500000 0.024064 0.443804
O O14 0.263653 0.000000 0.500000
O O15 0.750000 0.275457 0.750000
O O16 0.000000 0.276493 0.702333
O O17 0.798448 0.364422 0.512145
O O18 0.000000 0.246854 0.544132
O O19 0.371038 0.500000 0.500000
O O20 0.500000 0.650442 0.514166
O O21 0.297232 0.591425 0.577266
O O22 0.500000 0.653250 0.643585
#
# Coordination Sequence:
#
# PCOD8219719 Si02
#       8
#     8   8   8   8   8   8   8   8
#     4  10  20  34  53  77 111 148 184 230 278 324
#     4  10  21  38  60  85 112 142 183 230 279 331
#     4  11  22  35  56  81 109 147 187 231 280 332
#     4  10  20  35  55  80 111 149 191 231 275 331
#     4  10  22  40  60  84 113 145 183 231 280 332
#     4  10  20  32  47  73 106 142 182 225 271 321
#     4   9  19  33  47  69 101 143 185 220 263 321
#     4  10  20  34  54  78 109 146 183 224 273 328
#
# _framework density 18.088611
#
# number of rings (size 3 to 8) (size 9 to 14) (size 15 to 20)
#    0.000    2.000    1.250    2.250    1.750    4.500 
#    0.000    0.000    0.000    0.750    0.000    1.750 
#    0.000    0.000    0.000    0.000    0.000    0.000 
#
# Total GULP energy -792956.920427 kJ/mol
# GULP energy per Si atom -12389.951882 kJ/mol
# Density = 1.804744 g / cm^3
# Si number density = 18.088611 Si / 1000 Ang^3
#
#
#
# Elastic Constant Matrix: (Units=GPa)
#
#
# Indices 1 2 3 4 5 6 
#
# 1 91.1811 61.7775 50.5505 0.0000 0.0000 0.0000
# 2 61.7775 115.4055 69.9982 0.0000 0.0000 0.0000
# 3 50.5505 69.9982 63.3331 0.0000 0.0000 0.0000
# 4 0.0000 0.0000 0.0000 24.2103 0.0000 0.0000
# 5 0.0000 0.0000 0.0000 0.0000 31.6120 0.0000
# 6 0.0000 0.0000 0.0000 0.0000 0.0000 32.4696
#
#
#
# Elastic Compliance Matrix: (Units=1/GPa)
#
#
# Indices 1 2 3 4 5 6 
#
# 1 0.020034 -0.003111 -0.012552 0.000000 0.000000 0.000000
# 2 -0.003111 0.026771 -0.027105 0.000000 0.000000 0.000000
# 3 -0.012552 -0.027105 0.055766 0.000000 0.000000 0.000000
# 4 0.000000 0.000000 0.000000 0.041305 0.000000 0.000000
# 5 0.000000 0.000000 0.000000 0.000000 0.031634 0.000000
# 6 0.000000 0.000000 0.000000 0.000000 0.000000 0.030798
#
#
# Mechanical properties :
#
#
# Convention : Reuss Voigt Hill
#
# Bulk Modulus (GPa) = 58.70525 70.50803 64.60664
# Shear Modulus (GPa) = 16.80560 23.49795 20.15177
#
# Velocity S-wave (km/s) = 3.05137 3.60814 3.34137
# Velocity P-wave (km/s) = 6.70367 7.51146 7.11903
#
# Compressibility (1/GPa) = 0.01703425
#
# Stress axis : x y z
#
# Youngs Moduli (GPa) = 49.91594 37.35430 17.93222
#
# Poissons Ratio (x) = 0.11621 0.22508
# Poissons Ratio (y) = 0.15528 0.48605
# Poissons Ratio (z) = 0.62654 1.01249
#
# Static dielectric constant tensor:
#      x y z
#    x 3.611810 0.000000 0.000000 
#    y 0.000000 3.467100 0.000000 
#    z 0.000000 0.000000 3.108750 
# 
# 
# High freq. dielectric constant tensor:
#      x y z
#    x 1.714720 0.000000 0.000000 
#    y 0.000000 1.701540 0.000000 
#    z 0.000000 0.000000 1.675080 
# 
# From -- ./inp_files/34185.got.cif
#   From: 2010.03.12/outbox.cif.g09.slc.cpg/sg53_18_cif.got.tgz:34185.got - 2010.04.16 14:36:59.
