data_PCOD8220710
_publ_section_title
;
Structure prediction by ZEFSAII (Michael W. Deem and Ramdas Pophale) SiO2 
 PCOD8220710
Probable space group: P M N A
;
_chemical_formula_sum "Si O2"
_cell_formula_units_Z 64
_cell_length_a 18.272308
_cell_length_b 18.935230
_cell_length_c 9.701705
_cell_angle_alpha 90.000000
_cell_angle_beta 90.000000
_cell_angle_gamma 90.000000
_cell_volume 3356.696353
_symmetry_space_group_name_H-M "P M N A"
_symmetry_group_IT_number 53
_symmetry_cell_setting 'orthorhombic'
loop_
_space_group_symop_operation_xyz
x,y,z
1/2-x,-y,1/2+z
x,-y,-z
1/2-x,y,1/2-z
-x,-y,-z
1/2+x,y,1/2-z
-x,y,z
1/2+x,-y,1/2+z
loop_
_atom_site_type_symbol
_atom_site_label
_atom_site_fract_x
_atom_site_fract_y
_atom_site_fract_z
Si Si1 0.666037 0.568406 0.412260
Si Si2 0.820476 0.084320 0.345335
Si Si3 0.677854 0.070313 0.838571
Si Si4 0.583299 0.800787 0.221151
Si Si5 0.415596 0.697723 0.977905
Si Si6 0.665981 0.433265 0.906320
Si Si7 0.662282 0.230044 0.257133
Si Si8 0.912952 0.289957 0.979534
O O1 0.646005 0.500000 0.500000
O O2 0.750549 0.590843 0.433079
O O3 0.651564 0.548787 0.253267
O O4 0.614412 0.629905 0.470163
O O5 0.750000 0.082391 0.250000
O O6 0.800575 0.093381 0.506385
O O7 0.866807 0.152418 0.293298
O O8 0.860177 0.007832 0.331063
O O9 0.750000 0.070216 0.750000
O O10 0.623857 0.125273 0.768763
O O11 0.500000 0.819717 0.247172
O O12 0.610160 0.746506 0.336906
O O13 0.596595 0.765571 0.073712
O O14 0.500000 0.687692 0.938854
O O15 0.369440 0.708777 0.839897
O O16 0.388740 0.628650 0.055217
O O17 0.645954 0.500000 0.000000
O O18 0.750000 0.233335 0.250000
O O19 0.631031 0.245291 0.407429
O O20 0.000000 0.288819 0.007945
#
# Coordination Sequence:
#
# PCOD8220710 Si02
#       8
#     8   8   8   8   8   8   8   8
#     4  10  22  40  61  87 121 157 198 241 292 354
#     4   9  20  37  55  91 121 149 194 251 301 349
#     4  10  20  36  63  87 115 155 200 244 298 354
#     4  10  22  39  58  85 120 155 198 242 288 348
#     4  11  22  40  61  86 120 157 199 246 295 351
#     4  10  22  39  61  90 120 154 196 247 296 345
#     4  11  23  39  61  89 120 154 198 248 300 354
#     4  11  24  42  61  86 121 160 199 243 297 355
#
# _framework density 19.066364
#
# number of rings (size 3 to 8) (size 9 to 14) (size 15 to 20)
#    0.000    1.750    2.500    1.125    5.250    1.500 
#    0.000    2.500    0.000    1.500    0.000    0.000 
#    0.000    0.000    0.000    0.000    0.000    0.000 
#
# Total GULP energy -793489.634351 kJ/mol
# GULP energy per Si atom -12398.275537 kJ/mol
# Density = 1.902297 g / cm^3
# Si number density = 19.066364 Si / 1000 Ang^3
#
#
#
# Elastic Constant Matrix: (Units=GPa)
#
#
# Indices 1 2 3 4 5 6 
#
# 1 79.1740 52.0644 37.4548 0.0000 0.0000 0.0000
# 2 52.0644 128.3176 45.5290 0.0000 0.0000 0.0000
# 3 37.4548 45.5290 88.6037 0.0000 0.0000 0.0000
# 4 0.0000 0.0000 0.0000 34.2192 0.0000 0.0000
# 5 0.0000 0.0000 0.0000 0.0000 26.7183 0.0000
# 6 0.0000 0.0000 0.0000 0.0000 0.0000 -433.8041
#
#
#
# Elastic Compliance Matrix: (Units=1/GPa)
#
#
# Indices 1 2 3 4 5 6 
#
# 1 0.018841 -0.005893 -0.004936 0.000000 0.000000 0.000000
# 2 -0.005893 0.011374 -0.003353 0.000000 0.000000 0.000000
# 3 -0.004936 -0.003353 0.015096 0.000000 0.000000 0.000000
# 4 0.000000 0.000000 0.000000 0.029223 0.000000 0.000000
# 5 0.000000 0.000000 0.000000 0.000000 0.037428 0.000000
# 6 0.000000 0.000000 0.000000 0.000000 0.000000 -0.002305
#
#
# Mechanical properties :
#
#
# Convention : Reuss Voigt Hill
#
# Bulk Modulus (GPa) = 59.01318 62.91018 60.96168
# Shear Modulus (GPa) = 34.80173 -63.83684 -14.51756
#
# Velocity S-wave (km/s) = 4.27698 -5.79259 -2.76238
# Velocity P-wave (km/s) = 7.44371 3.41640 4.67638
#
# Compressibility (1/GPa) = 0.01694537
#
# Stress axis : x y z
#
# Youngs Moduli (GPa) = 53.07588 87.91870 66.24256
#
# Poissons Ratio (x) = 0.51812 0.32699
# Poissons Ratio (y) = 0.31279 0.22214
# Poissons Ratio (z) = 0.26200 0.29483
#
# Static dielectric constant tensor:
#      x y z
#    x 3.319750 0.000000 0.000000 
#    y 0.000000 3.800300 0.000000 
#    z 0.000000 0.000000 3.568350 
# 
# 
# High freq. dielectric constant tensor:
#      x y z
#    x 1.720200 0.000000 0.000000 
#    y 0.000000 1.753780 0.000000 
#    z 0.000000 0.000000 1.756860 
# 
# From -- ./inp_files/11212.got.cif
#   From: 2010.03.12/outbox.cif.g09.slc.cpg/sg53_6_cif.got.tgz:11212.got - 2010.04.16 14:36:59.
