data_PCOD8220654
_publ_section_title
;
Structure prediction by ZEFSAII (Michael W. Deem and Ramdas Pophale) SiO2 
 PCOD8220654
Probable space group: P M N A
;
_chemical_formula_sum "Si O2"
_cell_formula_units_Z 56
_cell_length_a 8.756699
_cell_length_b 21.579438
_cell_length_c 14.967703
_cell_angle_alpha 90.000000
_cell_angle_beta 90.000000
_cell_angle_gamma 90.000000
_cell_volume 2828.366656
_symmetry_space_group_name_H-M "P M N A"
_symmetry_group_IT_number 53
_symmetry_cell_setting 'orthorhombic'
loop_
_space_group_symop_operation_xyz
x,y,z
1/2-x,-y,1/2+z
x,-y,-z
1/2-x,y,1/2-z
-x,-y,-z
1/2+x,y,1/2-z
-x,y,z
1/2+x,-y,1/2+z
loop_
_atom_site_type_symbol
_atom_site_label
_atom_site_fract_x
_atom_site_fract_y
_atom_site_fract_z
Si Si1 0.323677 0.146708 0.000265
Si Si2 0.677886 0.710913 0.000797
Si Si3 0.179943 0.924232 0.844511
Si Si4 0.677975 0.620453 0.153176
Si Si5 0.679901 0.361554 0.348082
Si Si6 0.321538 0.516050 0.846675
Si Si7 0.319837 0.945597 0.155695
O O1 0.500000 0.134940 0.025122
O O2 0.292475 0.217771 0.975846
O O3 0.274465 0.106783 0.914843
O O4 0.220517 0.128386 0.084287
O O5 0.500000 0.696555 0.985105
O O6 0.743254 0.670579 0.083450
O O7 0.768163 0.694833 0.910541
O O8 0.250000 0.904090 0.750000
O O9 0.000000 0.931090 0.834360
O O10 0.249783 0.989447 0.877103
O O11 0.750000 0.630347 0.250000
O O12 0.500000 0.630521 0.167783
O O13 0.709002 0.551717 0.110503
O O14 0.750000 0.352371 0.250000
O O15 0.500000 0.362573 0.339198
O O16 0.738835 0.425924 0.394763
O O17 0.250000 0.512308 0.750000
O O18 0.500000 0.531122 0.842076
O O19 0.250000 0.925097 0.250000
O O20 0.500000 0.953669 0.165727
#
# Coordination Sequence:
#
# PCOD8220654 Si02
#       7
#     8   8   8   8   8   8   8
#     4  10  22  39  58  80 112 151 187 225 269 320
#     4  10  22  40  57  78 110 150 190 223 266 326
#     4  11  22  37  60  87 114 144 181 226 275 325
#     4   9  19  35  57  82 110 144 182 226 275 325
#     4  11  22  37  57  81 108 141 181 229 281 330
#     4   9  16  30  53  80 107 138 177 223 276 329
#     4  10  20  36  59  87 116 146 182 224 271 321
#
# _framework density 19.799413999999999
#
# number of rings (size 3 to 8) (size 9 to 14) (size 15 to 20)
#    0.000    2.000    0.000    5.571    0.000    6.286 
#    0.000    2.857    0.000    0.000    0.000    0.000 
#    0.000    0.000    0.000    0.000    0.000    0.000 
#
# Total GULP energy -694361.524747 kJ/mol
# GULP energy per Si atom -12399.312942 kJ/mol
# Density = 1.975435 g / cm^3
# Si number density = 19.799414 Si / 1000 Ang^3
#
#
#
# Elastic Constant Matrix: (Units=GPa)
#
#
# Indices 1 2 3 4 5 6 
#
# 1 100.7423 28.0352 32.3823 0.0000 0.0000 0.0000
# 2 28.0352 85.4477 38.0652 0.0000 0.0000 0.0000
# 3 32.3823 38.0652 80.0383 0.0000 0.0000 0.0000
# 4 0.0000 0.0000 0.0000 26.7663 0.0000 0.0000
# 5 0.0000 0.0000 0.0000 0.0000 29.8631 0.0000
# 6 0.0000 0.0000 0.0000 0.0000 0.0000 25.4434
#
#
#
# Elastic Compliance Matrix: (Units=1/GPa)
#
#
# Indices 1 2 3 4 5 6 
#
# 1 0.011727 -0.002200 -0.003698 0.000000 0.000000 0.000000
# 2 -0.002200 0.015262 -0.006368 0.000000 0.000000 0.000000
# 3 -0.003698 -0.006368 0.017019 0.000000 0.000000 0.000000
# 4 0.000000 0.000000 0.000000 0.037360 0.000000 0.000000
# 5 0.000000 0.000000 0.000000 0.000000 0.033486 0.000000
# 6 0.000000 0.000000 0.000000 0.000000 0.000000 0.039303
#
#
# Mechanical properties :
#
#
# Convention : Reuss Voigt Hill
#
# Bulk Modulus (GPa) = 51.34856 51.46596 51.40726
# Shear Modulus (GPa) = 27.00038 27.59760 27.29899
#
# Velocity S-wave (km/s) = 3.69683 3.73749 3.71722
# Velocity P-wave (km/s) = 6.64927 6.68395 6.66663
#
# Compressibility (1/GPa) = 0.01947474
#
# Stress axis : x y z
#
# Youngs Moduli (GPa) = 85.27048 65.52297 58.75819
#
# Poissons Ratio (x) = 0.14416 0.21731
# Poissons Ratio (y) = 0.18761 0.37418
# Poissons Ratio (z) = 0.31536 0.41726
#
# Static dielectric constant tensor:
#      x y z
#    x 3.598170 0.000000 0.000000 
#    y 0.000000 3.928440 0.000000 
#    z 0.000000 0.000000 3.515640 
# 
# 
# High freq. dielectric constant tensor:
#      x y z
#    x 1.773130 0.000000 0.000000 
#    y 0.000000 1.775490 0.000000 
#    z 0.000000 0.000000 1.765790 
# 
# From -- ./inp_files/20472.got.cif
#   From: 2010.03.12/outbox.cif.g09.slc.cpg/sg53_11_cif.got.tgz:20472.got - 2010.04.16 14:36:59.
