data_PCOD8220158
_publ_section_title
;
Structure prediction by ZEFSAII (Michael W. Deem and Ramdas Pophale) SiO2 
 PCOD8220158
Probable space group: P M N A
;
_chemical_formula_sum "Si O2"
_cell_formula_units_Z 32
_cell_length_a 24.081945
_cell_length_b 4.967689
_cell_length_c 12.758591
_cell_angle_alpha 90.000000
_cell_angle_beta 90.000000
_cell_angle_gamma 90.000000
_cell_volume 1526.330824
_symmetry_space_group_name_H-M "P M N A"
_symmetry_group_IT_number 53
_symmetry_cell_setting 'orthorhombic'
loop_
_space_group_symop_operation_xyz
x,y,z
1/2-x,-y,1/2+z
x,-y,-z
1/2-x,y,1/2-z
-x,-y,-z
1/2+x,y,1/2-z
-x,y,z
1/2+x,-y,1/2+z
loop_
_atom_site_type_symbol
_atom_site_label
_atom_site_fract_x
_atom_site_fract_y
_atom_site_fract_z
Si Si1 0.161368 0.754785 0.429838
Si Si2 0.115621 0.631576 0.212678
Si Si3 0.215234 0.760529 0.070512
Si Si4 0.436734 0.895933 0.613348
O O1 0.170635 0.500000 0.500000
O O2 0.120596 0.652497 0.338022
O O3 0.222859 0.837747 0.387979
O O4 0.135990 0.000000 0.500000
O O5 0.175035 0.724126 0.168950
O O6 0.100299 0.340836 0.164366
O O7 0.067189 0.842408 0.186050
O O8 0.215375 0.500000 0.000000
O O9 0.191032 0.000000 0.000000
O O10 0.500000 0.793522 0.605927
O O11 0.415073 0.000000 0.500000
#
# Coordination Sequence:
#
# PCOD8220158 Si02
#       4
#     8   8   8   8
#     4  10  22  38  56  84 120 155 193 237 279 334
#     4  12  21  37  63  84 114 157 195 231 290 353
#     4  10  20  34  55  87 120 147 185 231 282 346
#     4  11  24  40  60  88 117 145 186 243 301 354
#
# _framework density 20.965309000000001
#
# number of rings (size 3 to 8) (size 9 to 14) (size 15 to 20)
#    0.000    1.250    0.000    7.500    0.000    2.000 
#    0.000   10.000    0.000   15.000    0.000    0.000 
#    0.000    0.000    0.000    0.000    0.000    0.000 
#
# Total GULP energy -396629.480351 kJ/mol
# GULP energy per Si atom -12394.671261 kJ/mol
# Density = 2.091759 g / cm^3
# Si number density = 20.965309 Si / 1000 Ang^3
#
#
#
# Elastic Constant Matrix: (Units=GPa)
#
#
# Indices 1 2 3 4 5 6 
#
# 1 64.2407 23.7952 46.5890 0.0000 0.0000 0.0000
# 2 23.7952 136.5926 45.2631 0.0000 0.0000 0.0000
# 3 46.5890 45.2631 117.3558 0.0000 0.0000 0.0000
# 4 0.0000 0.0000 0.0000 35.9134 0.0000 0.0000
# 5 0.0000 0.0000 0.0000 0.0000 24.5067 0.0000
# 6 0.0000 0.0000 0.0000 0.0000 0.0000 34.7477
#
#
#
# Elastic Compliance Matrix: (Units=1/GPa)
#
#
# Indices 1 2 3 4 5 6 
#
# 1 0.021997 -0.001076 -0.008318 0.000000 0.000000 0.000000
# 2 -0.001076 0.008446 -0.002831 0.000000 0.000000 0.000000
# 3 -0.008318 -0.002831 0.012915 0.000000 0.000000 0.000000
# 4 0.000000 0.000000 0.000000 0.027845 0.000000 0.000000
# 5 0.000000 0.000000 0.000000 0.000000 0.040805 0.000000
# 6 0.000000 0.000000 0.000000 0.000000 0.000000 0.028779
#
#
# Mechanical properties :
#
#
# Convention : Reuss Voigt Hill
#
# Bulk Modulus (GPa) = 52.88148 61.05376 56.96762
# Shear Modulus (GPa) = 29.14789 32.53634 30.84212
#
# Velocity S-wave (km/s) = 3.73271 3.94371 3.83966
# Velocity P-wave (km/s) = 6.62235 7.06552 6.84752
#
# Compressibility (1/GPa) = 0.01891021
#
# Stress axis : x y z
#
# Youngs Moduli (GPa) = 45.46047 118.39298 77.42995
#
# Poissons Ratio (x) = 0.12736 0.64404
# Poissons Ratio (y) = 0.04890 0.21918
# Poissons Ratio (z) = 0.37813 0.33513
#
# Static dielectric constant tensor:
#      x y z
#    x 3.686330 0.000000 0.000000 
#    y 0.000000 3.806250 0.000000 
#    z 0.000000 0.000000 3.576370 
# 
# 
# High freq. dielectric constant tensor:
#      x y z
#    x 1.806270 0.000000 0.000000 
#    y 0.000000 1.837360 0.000000 
#    z 0.000000 0.000000 1.807700 
# 
# From -- ./inp_files/17391.got.cif
#   From: 2010.03.12/outbox.cif.g09.slc.cpg/sg53_9_cif.got.tgz:17391.got - 2010.04.16 14:36:59.
