data_PCOD8220116
_publ_section_title
;
Structure prediction by ZEFSAII (Michael W. Deem and Ramdas Pophale) SiO2 
 PCOD8220116
Probable space group: P M N A
;
_chemical_formula_sum "Si O2"
_cell_formula_units_Z 48
_cell_length_a 18.227273
_cell_length_b 14.110983
_cell_length_c 10.153640
_cell_angle_alpha 90.000000
_cell_angle_beta 90.000000
_cell_angle_gamma 90.000000
_cell_volume 2611.564331
_symmetry_space_group_name_H-M "P M N A"
_symmetry_group_IT_number 53
_symmetry_cell_setting 'orthorhombic'
loop_
_space_group_symop_operation_xyz
x,y,z
1/2-x,-y,1/2+z
x,-y,-z
1/2-x,y,1/2-z
-x,-y,-z
1/2+x,y,1/2-z
-x,y,z
1/2+x,-y,1/2+z
loop_
_atom_site_type_symbol
_atom_site_label
_atom_site_fract_x
_atom_site_fract_y
_atom_site_fract_z
Si Si1 0.664604 0.218031 0.260877
Si Si2 0.413702 0.603380 0.357736
Si Si3 0.414049 0.200808 0.753377
Si Si4 0.413256 0.604704 0.654381
Si Si5 0.325699 0.109089 0.521962
Si Si6 0.155204 0.110097 0.500831
O O1 0.750000 0.238247 0.250000
O O2 0.623933 0.318709 0.250164
O O3 0.644082 0.167035 0.397419
O O4 0.638500 0.150002 0.143756
O O5 0.500000 0.595726 0.371332
O O6 0.389851 0.688774 0.261689
O O7 0.384350 0.622694 0.505389
O O8 0.386797 0.501252 0.302576
O O9 0.500000 0.188790 0.723028
O O10 0.368226 0.138271 0.652298
O O11 0.396620 0.167237 0.899964
O O12 0.500000 0.617025 0.667168
O O13 0.239263 0.125516 0.543547
O O14 0.342871 0.000000 0.500000
O O15 0.133842 0.000000 0.500000
#
# Coordination Sequence:
#
# PCOD8220116 Si02
#       6
#     8   8   8   8   8   8
#     4  10  20  34  55  81 108 138 182 231 265 310
#     4   8  16  31  55  82 104 135 175 219 268 320
#     4  11  21  35  56  84 111 136 178 229 270 312
#     4   9  16  32  57  79 104 140 179 218 269 322
#     4  10  20  37  59  78 102 143 192 225 256 319
#     4  10  22  39  55  75 111 154 179 209 274 333
#
# _framework density 18.379788999999999
#
# number of rings (size 3 to 8) (size 9 to 14) (size 15 to 20)
#    0.000    2.333    1.667    2.500    0.000    4.000 
#    0.000    4.167    0.000    3.000    0.000    0.000 
#    0.000    0.000    0.000    0.000    0.000    0.000 
#
# Total GULP energy -595157.031549 kJ/mol
# GULP energy per Si atom -12399.104824 kJ/mol
# Density = 1.833796 g / cm^3
# Si number density = 18.379789 Si / 1000 Ang^3
#
#
#
# Elastic Constant Matrix: (Units=GPa)
#
#
# Indices 1 2 3 4 5 6 
#
# 1 29.2924 34.2281 18.4775 0.0000 0.0000 0.0000
# 2 34.2281 154.3231 44.6441 0.0000 0.0000 0.0000
# 3 18.4775 44.6441 68.5684 0.0000 0.0000 0.0000
# 4 0.0000 0.0000 0.0000 34.2804 0.0000 0.0000
# 5 0.0000 0.0000 0.0000 0.0000 23.6860 0.0000
# 6 0.0000 0.0000 0.0000 0.0000 0.0000 28.5142
#
#
#
# Elastic Compliance Matrix: (Units=1/GPa)
#
#
# Indices 1 2 3 4 5 6 
#
# 1 0.049069 -0.008696 -0.007561 0.000000 0.000000 0.000000
# 2 -0.008696 0.009525 -0.003858 0.000000 0.000000 0.000000
# 3 -0.007561 -0.003858 0.019133 0.000000 0.000000 0.000000
# 4 0.000000 0.000000 0.000000 0.029171 0.000000 0.000000
# 5 0.000000 0.000000 0.000000 0.000000 0.042219 0.000000
# 6 0.000000 0.000000 0.000000 0.000000 0.000000 0.035070
#
#
# Mechanical properties :
#
#
# Convention : Reuss Voigt Hill
#
# Bulk Modulus (GPa) = 26.66870 49.65369 38.16120
# Shear Modulus (GPa) = 21.10440 27.61840 24.36140
#
# Velocity S-wave (km/s) = 3.39224 3.88061 3.64462
# Velocity P-wave (km/s) = 5.46666 6.86679 6.20634
#
# Compressibility (1/GPa) = 0.03749714
#
# Stress axis : x y z
#
# Youngs Moduli (GPa) = 20.37934 104.98974 52.26442
#
# Poissons Ratio (x) = 0.91299 0.39518
# Poissons Ratio (y) = 0.17722 0.20164
# Poissons Ratio (z) = 0.15409 0.40506
#
# Static dielectric constant tensor:
#      x y z
#    x 3.144040 0.000000 0.000000 
#    y 0.000000 3.728760 0.000000 
#    z 0.000000 0.000000 3.265010 
# 
# 
# High freq. dielectric constant tensor:
#      x y z
#    x 1.688510 0.000000 0.000000 
#    y 0.000000 1.731500 0.000000 
#    z 0.000000 0.000000 1.700000 
# 
# From -- ./inp_files/9930.got.cif
#   From: 2010.03.12/outbox.cif.g09.slc.cpg/sg53_5_cif.got.tgz:9930.got - 2010.04.16 14:36:59.
