data_PCOD8220726
_publ_section_title
;
Structure prediction by ZEFSAII (Michael W. Deem and Ramdas Pophale) SiO2 
 PCOD8220726
Probable space group: P M N A
;
_chemical_formula_sum "Si O2"
_cell_formula_units_Z 56
_cell_length_a 9.433490
_cell_length_b 18.420811
_cell_length_c 15.784553
_cell_angle_alpha 90.000000
_cell_angle_beta 90.000000
_cell_angle_gamma 90.000000
_cell_volume 2742.921810
_symmetry_space_group_name_H-M "P M N A"
_symmetry_group_IT_number 53
_symmetry_cell_setting 'orthorhombic'
loop_
_space_group_symop_operation_xyz
x,y,z
1/2-x,-y,1/2+z
x,-y,-z
1/2-x,y,1/2-z
-x,-y,-z
1/2+x,y,1/2-z
-x,y,z
1/2+x,-y,1/2+z
loop_
_atom_site_type_symbol
_atom_site_label
_atom_site_fract_x
_atom_site_fract_y
_atom_site_fract_z
Si Si1 0.338638 0.085715 0.493764
Si Si2 0.337810 0.839922 0.332084
Si Si3 0.341495 0.719630 0.930774
Si Si4 0.836767 0.550323 0.424298
Si Si5 0.837875 0.304590 0.918688
Si Si6 0.335264 0.142123 0.165353
Si Si7 0.843446 0.586351 0.674639
O O1 0.500000 0.113300 0.475772
O O2 0.283447 0.119427 0.582961
O O3 0.233757 0.106057 0.417398
O O4 0.336192 0.000000 0.500000
O O5 0.250000 0.865437 0.250000
O O6 0.500000 0.862089 0.315460
O O7 0.324328 0.752189 0.341527
O O8 0.500000 0.729043 0.968606
O O9 0.324090 0.770990 0.848839
O O10 0.312515 0.635090 0.908383
O O11 0.225231 0.739373 0.001056
O O12 0.775913 0.500000 0.500000
O O13 0.749056 0.622036 0.402683
O O14 0.823636 0.499014 0.342192
O O15 0.000000 0.572002 0.443466
O O16 0.000000 0.325827 0.936109
O O17 0.250000 0.120074 0.250000
O O18 0.500000 0.117740 0.174419
O O19 0.750000 0.614870 0.750000
O O20 0.000000 0.603472 0.705892
#
# Coordination Sequence:
#
# PCOD8220726 Si02
#       7
#     8   8   8   8   8   8   8
#     4  10  22  43  68  94 129 166 202 251 307 363
#     4  10  23  42  64  92 123 161 207 254 307 363
#     4  10  20  37  59  84 115 157 200 239 298 362
#     4  10  20  37  57  76 108 152 196 242 299 366
#     4  11  22  36  59  88 116 148 199 259 304 355
#     4  11  23  38  63  95 129 166 205 251 300 363
#     4  10  21  36  54  78 110 147 189 239 294 354
#
# _framework density 20.416184999999999
#
# number of rings (size 3 to 8) (size 9 to 14) (size 15 to 20)
#    0.000    1.714    2.857    1.286    0.000    5.143 
#    0.000    4.286    0.000    0.000    0.000    0.000 
#    0.000    0.000    0.000    0.000    0.000    0.000 
#
# Total GULP energy -694175.319302 kJ/mol
# GULP energy per Si atom -12395.987845 kJ/mol
# Density = 2.036972 g / cm^3
# Si number density = 20.416185 Si / 1000 Ang^3
#
#
#
# Elastic Constant Matrix: (Units=GPa)
#
#
# Indices 1 2 3 4 5 6 
#
# 1 112.9462 34.5982 69.6798 0.0000 0.0000 0.0000
# 2 34.5982 81.0786 28.2619 0.0000 0.0000 0.0000
# 3 69.6798 28.2619 118.4083 0.0000 0.0000 0.0000
# 4 0.0000 0.0000 0.0000 13.1527 0.0000 0.0000
# 5 0.0000 0.0000 0.0000 0.0000 36.9814 0.0000
# 6 0.0000 0.0000 0.0000 0.0000 0.0000 28.0364
#
#
#
# Elastic Compliance Matrix: (Units=1/GPa)
#
#
# Indices 1 2 3 4 5 6 
#
# 1 0.014793 -0.003576 -0.007852 0.000000 0.000000 0.000000
# 2 -0.003576 0.014317 -0.001313 0.000000 0.000000 0.000000
# 3 -0.007852 -0.001313 0.013379 0.000000 0.000000 0.000000
# 4 0.000000 0.000000 0.000000 0.076030 0.000000 0.000000
# 5 0.000000 0.000000 0.000000 0.000000 0.027041 0.000000
# 6 0.000000 0.000000 0.000000 0.000000 0.000000 0.035668
#
#
# Mechanical properties :
#
#
# Convention : Reuss Voigt Hill
#
# Bulk Modulus (GPa) = 58.79414 64.16809 61.48112
# Shear Modulus (GPa) = 23.54279 27.62696 25.58488
#
# Velocity S-wave (km/s) = 3.39948 3.68256 3.54385
# Velocity P-wave (km/s) = 6.65349 7.04130 6.85014
#
# Compressibility (1/GPa) = 0.01700850
#
# Stress axis : x y z
#
# Youngs Moduli (GPa) = 67.59892 69.84585 74.74189
#
# Poissons Ratio (x) = 0.24974 0.58687
# Poissons Ratio (y) = 0.24171 0.09814
# Poissons Ratio (z) = 0.53078 0.09172
#
# Static dielectric constant tensor:
#      x y z
#    x 3.721350 0.000000 0.000000 
#    y 0.000000 3.749480 0.000000 
#    z 0.000000 0.000000 3.495990 
# 
# 
# High freq. dielectric constant tensor:
#      x y z
#    x 1.794400 0.000000 0.000000 
#    y 0.000000 1.803000 0.000000 
#    z 0.000000 0.000000 1.785170 
# 
# From -- ./inp_files/20565.got.cif
#   From: 2010.03.12/outbox.cif.g09.slc.cpg/sg53_11_cif.got.tgz:20565.got - 2010.04.16 14:36:59.
