data_PCOD8220178
_publ_section_title
;
Structure prediction by ZEFSAII (Michael W. Deem and Ramdas Pophale) SiO2 
 PCOD8220178
Probable space group: P M N A
;
_chemical_formula_sum "Si O2"
_cell_formula_units_Z 28
_cell_length_a 12.837606
_cell_length_b 9.769915
_cell_length_c 12.060301
_cell_angle_alpha 90.000000
_cell_angle_beta 90.000000
_cell_angle_gamma 90.000000
_cell_volume 1512.630924
_symmetry_space_group_name_H-M "P M N A"
_symmetry_group_IT_number 53
_symmetry_cell_setting 'orthorhombic'
loop_
_space_group_symop_operation_xyz
x,y,z
1/2-x,-y,1/2+z
x,-y,-z
1/2-x,y,1/2-z
-x,-y,-z
1/2+x,y,1/2-z
-x,y,z
1/2+x,-y,1/2+z
loop_
_atom_site_type_symbol
_atom_site_label
_atom_site_fract_x
_atom_site_fract_y
_atom_site_fract_z
Si Si1 0.250000 0.972231 0.750000
Si Si2 0.305376 0.633790 0.569454
Si Si3 0.385528 0.874004 0.422347
Si Si4 0.118569 0.718793 0.696230
O O1 0.188585 0.077571 0.825306
O O2 0.166384 0.872331 0.690578
O O3 0.336152 0.500000 0.500000
O O4 0.323826 0.758638 0.487750
O O5 0.184652 0.627462 0.609253
O O6 0.375492 0.654494 0.679938
O O7 0.500000 0.821823 0.380299
O O8 0.407813 0.000000 0.500000
O O9 0.000000 0.722870 0.656435
#
# Coordination Sequence:
#
# PCOD8220178 Si02
#       4
#     4   8   8   8
#     4  10  20  34  56  88 114 140 190 240 270 324
#     4  10  22  38  57  84 114 148 189 230 275 338
#     4  11  20  36  60  82 109 148 188 228 275 329
#     4  10  20  36  58  81 113 149 184 231 287 333
#
# _framework density 18.510793
#
# number of rings (size 3 to 8) (size 9 to 14) (size 15 to 20)
#    0.000    2.000    5.714    1.714    0.000    5.143 
#    0.000    4.286    0.000    0.000    0.000    0.000 
#    0.000    0.000    0.000    0.000    0.000    0.000 
#
# Total GULP energy -346952.724946 kJ/mol
# GULP energy per Si atom -12391.168748 kJ/mol
# Density = 1.846866 g / cm^3
# Si number density = 18.510793 Si / 1000 Ang^3
#
#
#
# Elastic Constant Matrix: (Units=GPa)
#
#
# Indices 1 2 3 4 5 6 
#
# 1 129.7084 11.0031 29.8027 0.0000 0.0000 0.0000
# 2 11.0031 80.9853 33.2908 0.0000 0.0000 0.0000
# 3 29.8027 33.2908 77.8515 0.0000 0.0000 0.0000
# 4 0.0000 0.0000 0.0000 27.4743 0.0000 0.0000
# 5 0.0000 0.0000 0.0000 0.0000 20.7577 0.0000
# 6 0.0000 0.0000 0.0000 0.0000 0.0000 9.0501
#
#
#
# Elastic Compliance Matrix: (Units=1/GPa)
#
#
# Indices 1 2 3 4 5 6 
#
# 1 0.008456 0.000221 -0.003332 0.000000 0.000000 0.000000
# 2 0.000221 0.014987 -0.006493 0.000000 0.000000 0.000000
# 3 -0.003332 -0.006493 0.016897 0.000000 0.000000 0.000000
# 4 0.000000 0.000000 0.000000 0.036398 0.000000 0.000000
# 5 0.000000 0.000000 0.000000 0.000000 0.048175 0.000000
# 6 0.000000 0.000000 0.000000 0.000000 0.000000 0.110496
#
#
# Mechanical properties :
#
#
# Convention : Reuss Voigt Hill
#
# Bulk Modulus (GPa) = 47.32140 48.52646 47.92393
# Shear Modulus (GPa) = 19.10868 25.75300 22.43084
#
# Velocity S-wave (km/s) = 3.21643 3.73398 3.48483
# Velocity P-wave (km/s) = 6.27802 6.69793 6.49137
#
# Compressibility (1/GPa) = 0.02113209
#
# Stress axis : x y z
#
# Youngs Moduli (GPa) = 118.25404 66.72386 59.18224
#
# Poissons Ratio (x) = -0.01472 0.19717
# Poissons Ratio (y) = -0.02608 0.38428
# Poissons Ratio (z) = 0.39397 0.43325
#
# Static dielectric constant tensor:
#      x y z
#    x 3.532060 0.000000 0.000000 
#    y 0.000000 3.192690 0.000000 
#    z 0.000000 0.000000 3.448720 
# 
# 
# High freq. dielectric constant tensor:
#      x y z
#    x 1.728290 0.000000 0.000000 
#    y 0.000000 1.704960 0.000000 
#    z 0.000000 0.000000 1.702140 
# 
# From -- ./inp_files/15292.got.cif
#   From: 2010.03.12/outbox.cif.g09.slc.cpg/sg53_8_cif.got.tgz:15292.got - 2010.04.16 14:36:59.
