data_PCOD8220309
_publ_section_title
;
Structure prediction by ZEFSAII (Michael W. Deem and Ramdas Pophale) SiO2 
 PCOD8220309
Probable space group: P M N A
;
_chemical_formula_sum "Si O2"
_cell_formula_units_Z 64
_cell_length_a 16.794170
_cell_length_b 20.425867
_cell_length_c 9.366811
_cell_angle_alpha 90.000000
_cell_angle_beta 90.000000
_cell_angle_gamma 90.000000
_cell_volume 3213.148534
_symmetry_space_group_name_H-M "P M N A"
_symmetry_group_IT_number 53
_symmetry_cell_setting 'orthorhombic'
loop_
_space_group_symop_operation_xyz
x,y,z
1/2-x,-y,1/2+z
x,-y,-z
1/2-x,y,1/2-z
-x,-y,-z
1/2+x,y,1/2-z
-x,y,z
1/2+x,-y,1/2+z
loop_
_atom_site_type_symbol
_atom_site_label
_atom_site_fract_x
_atom_site_fract_y
_atom_site_fract_z
Si Si1 0.093023 0.112832 0.616965
Si Si2 0.663006 0.893249 0.809624
Si Si3 0.591144 0.367062 0.369307
Si Si4 0.168778 0.502600 0.830248
Si Si5 0.906894 0.369518 0.816137
Si Si6 0.161968 0.255543 0.298139
Si Si7 0.907574 0.261088 0.600527
Si Si8 0.091230 0.008393 0.844037
O O1 0.150353 0.100102 0.480316
O O2 0.100282 0.188279 0.666766
O O3 0.126463 0.067333 0.745951
O O4 0.000000 0.096444 0.579551
O O5 0.750000 0.914297 0.750000
O O6 0.644668 0.819633 0.758407
O O7 0.598612 0.940013 0.737677
O O8 0.500000 0.387414 0.385294
O O9 0.632774 0.427175 0.286506
O O10 0.628698 0.356446 0.526388
O O11 0.598786 0.299953 0.283999
O O12 0.250000 0.492794 0.750000
O O13 0.113232 0.443889 0.771783
O O14 0.179246 0.500000 0.000000
O O15 0.871981 0.314747 0.709503
O O16 0.000000 0.358947 0.815386
O O17 0.250000 0.276944 0.250000
O O18 0.149765 0.267327 0.464980
O O19 0.000000 0.274515 0.558530
O O20 0.000000 0.026290 0.869646
O O21 0.133248 0.000000 0.000000
#
# Coordination Sequence:
#
# PCOD8220309 Si02
#       8
#     8   8   8   8   8   8   8   8
#     4   9  18  35  58  80 106 143 180 217 268 323
#     4  10  21  36  54  77 106 143 182 219 265 322
#     4  10  20  35  56  79 104 138 177 219 268 317
#     4  10  21  36  54  77 107 142 177 215 262 316
#     4   9  19  35  55  79 106 137 176 220 264 315
#     4  10  21  36  53  77 109 140 176 221 266 317
#     4   9  18  34  56  81 108 139 177 220 265 315
#     4  10  21  35  54  82 111 139 179 229 271 315
#
# _framework density 19.918157999999998
#
# number of rings (size 3 to 8) (size 9 to 14) (size 15 to 20)
#    0.000    2.375    0.000    1.875    0.000    9.000 
#    0.000    2.500    0.000    8.250    0.000    0.000 
#    0.000    0.000    0.000    0.000    0.000    0.000 
#
# Total GULP energy -793368.041747 kJ/mol
# GULP energy per Si atom -12396.375652 kJ/mol
# Density = 1.987282 g / cm^3
# Si number density = 19.918158 Si / 1000 Ang^3
#
#
#
# Elastic Constant Matrix: (Units=GPa)
#
#
# Indices 1 2 3 4 5 6 
#
# 1 27.1017 22.2967 25.7460 0.0000 0.0000 0.0000
# 2 22.2967 133.5896 74.6325 0.0000 0.0000 0.0000
# 3 25.7460 74.6325 102.0265 0.0000 0.0000 0.0000
# 4 0.0000 0.0000 0.0000 35.6194 0.0000 0.0000
# 5 0.0000 0.0000 0.0000 0.0000 21.7745 0.0000
# 6 0.0000 0.0000 0.0000 0.0000 0.0000 24.4032
#
#
#
# Elastic Compliance Matrix: (Units=1/GPa)
#
#
# Indices 1 2 3 4 5 6 
#
# 1 0.048893 -0.002144 -0.010770 0.000000 0.000000 0.000000
# 2 -0.002144 0.012753 -0.008788 0.000000 0.000000 0.000000
# 3 -0.010770 -0.008788 0.018947 0.000000 0.000000 0.000000
# 4 0.000000 0.000000 0.000000 0.028075 0.000000 0.000000
# 5 0.000000 0.000000 0.000000 0.000000 0.045925 0.000000
# 6 0.000000 0.000000 0.000000 0.000000 0.000000 0.040978
#
#
# Mechanical properties :
#
#
# Convention : Reuss Voigt Hill
#
# Bulk Modulus (GPa) = 26.88859 56.45204 41.67031
# Shear Modulus (GPa) = 19.89094 25.69559 22.79327
#
# Velocity S-wave (km/s) = 3.16355 3.59563 3.38649
# Velocity P-wave (km/s) = 5.18390 6.75586 6.02140
#
# Compressibility (1/GPa) = 0.03719050
#
# Stress axis : x y z
#
# Youngs Moduli (GPa) = 20.45290 78.41364 52.77774
#
# Poissons Ratio (x) = 0.16809 0.56841
# Poissons Ratio (y) = 0.04384 0.46380
# Poissons Ratio (z) = 0.22027 0.68908
#
# Static dielectric constant tensor:
#      x y z
#    x 3.373500 0.000000 0.000000 
#    y 0.000000 3.796260 0.000000 
#    z 0.000000 0.000000 3.699910 
# 
# 
# High freq. dielectric constant tensor:
#      x y z
#    x 1.756720 0.000000 0.000000 
#    y 0.000000 1.791140 0.000000 
#    z 0.000000 0.000000 1.770150 
# 
# From -- ./inp_files/10231.got.cif
#   From: 2010.03.12/outbox.cif.g09.slc.cpg/sg53_6_cif.got.tgz:10231.got - 2010.04.16 14:36:59.
