data_PCOD8220798
_publ_section_title
;
Structure prediction by ZEFSAII (Michael W. Deem and Ramdas Pophale) SiO2 
 PCOD8220798
Probable space group: P M N A
;
_chemical_formula_sum "Si O2"
_cell_formula_units_Z 64
_cell_length_a 17.521017
_cell_length_b 20.490318
_cell_length_c 8.953037
_cell_angle_alpha 90.000000
_cell_angle_beta 90.000000
_cell_angle_gamma 90.000000
_cell_volume 3214.240647
_symmetry_space_group_name_H-M "P M N A"
_symmetry_group_IT_number 53
_symmetry_cell_setting 'orthorhombic'
loop_
_space_group_symop_operation_xyz
x,y,z
1/2-x,-y,1/2+z
x,-y,-z
1/2-x,y,1/2-z
-x,-y,-z
1/2+x,y,1/2-z
-x,y,z
1/2+x,-y,1/2+z
loop_
_atom_site_type_symbol
_atom_site_label
_atom_site_fract_x
_atom_site_fract_y
_atom_site_fract_z
Si Si1 0.409592 0.573715 0.162586
Si Si2 0.411113 0.813863 0.823607
Si Si3 0.589358 0.814579 0.153618
Si Si4 0.089769 0.572556 0.672204
Si Si5 0.329474 0.074758 0.677548
Si Si6 0.091852 0.692052 0.874702
Si Si7 0.836219 0.693424 0.192072
Si Si8 0.328861 0.073729 0.327056
O O1 0.500000 0.584152 0.176898
O O2 0.386122 0.500909 0.216274
O O3 0.366048 0.621761 0.271469
O O4 0.379732 0.588036 0.994435
O O5 0.500000 0.807964 0.844370
O O6 0.383111 0.750026 0.735918
O O7 0.394410 0.879395 0.732449
O O8 0.373054 0.818622 0.988194
O O9 0.500000 0.811983 0.139289
O O10 0.607983 0.877507 0.253895
O O11 0.615061 0.748075 0.227436
O O12 0.117440 0.624591 0.794751
O O13 0.000000 0.576392 0.659405
O O14 0.250000 0.094934 0.750000
O O15 0.321569 0.084358 0.502216
O O16 0.351666 0.000241 0.715677
O O17 0.000000 0.693317 0.912763
O O18 0.147446 0.701505 0.016041
O O19 0.750000 0.701789 0.250000
O O20 0.250000 0.093812 0.250000
#
# Coordination Sequence:
#
# PCOD8220798 Si02
#       8
#     8   8   8   8   8   8   8   8
#     4   9  17  35  60  84 112 148 187 231 280 335
#     4  10  22  38  59  85 112 142 187 240 288 335
#     4  11  23  40  61  83 109 148 191 238 288 337
#     4   8  16  33  61  88 110 144 191 233 276 332
#     4  10  21  38  59  86 117 151 190 228 272 335
#     4  10  20  37  60  86 113 146 189 238 284 334
#     4  12  25  38  53  80 116 151 188 233 284 341
#     4  10  21  37  59  84 117 156 188 225 276 331
#
# _framework density 19.911390999999998
#
# number of rings (size 3 to 8) (size 9 to 14) (size 15 to 20)
#    0.000    2.000    0.000    4.500    0.000    7.000 
#    0.000    8.750    0.000    0.000    0.000    0.000 
#    0.000    0.000    0.000    0.000    0.000    0.000 
#
# Total GULP energy -793443.152546 kJ/mol
# GULP energy per Si atom -12397.549259 kJ/mol
# Density = 1.986607 g / cm^3
# Si number density = 19.911391 Si / 1000 Ang^3
#
#
#
# Elastic Constant Matrix: (Units=GPa)
#
#
# Indices 1 2 3 4 5 6 
#
# 1 42.3657 28.8360 36.2637 0.0000 0.0000 0.0000
# 2 28.8360 122.3648 57.1239 0.0000 0.0000 0.0000
# 3 36.2637 57.1239 120.5332 0.0000 0.0000 0.0000
# 4 0.0000 0.0000 0.0000 51.8608 0.0000 0.0000
# 5 0.0000 0.0000 0.0000 0.0000 21.1059 0.0000
# 6 0.0000 0.0000 0.0000 0.0000 0.0000 19.1712
#
#
#
# Elastic Compliance Matrix: (Units=1/GPa)
#
#
# Indices 1 2 3 4 5 6 
#
# 1 0.033299 -0.004071 -0.008089 0.000000 0.000000 0.000000
# 2 -0.004071 0.010992 -0.003984 0.000000 0.000000 0.000000
# 3 -0.008089 -0.003984 0.012618 0.000000 0.000000 0.000000
# 4 0.000000 0.000000 0.000000 0.019282 0.000000 0.000000
# 5 0.000000 0.000000 0.000000 0.000000 0.047380 0.000000
# 6 0.000000 0.000000 0.000000 0.000000 0.000000 0.052162
#
#
# Mechanical properties :
#
#
# Convention : Reuss Voigt Hill
#
# Bulk Modulus (GPa) = 40.61699 58.85676 49.73687
# Shear Modulus (GPa) = 23.12371 29.29693 26.21032
#
# Velocity S-wave (km/s) = 3.41153 3.84000 3.63209
# Velocity P-wave (km/s) = 5.99676 7.02028 6.52861
#
# Compressibility (1/GPa) = 0.02462024
#
# Stress axis : x y z
#
# Youngs Moduli (GPa) = 30.03120 90.97774 79.24887
#
# Poissons Ratio (x) = 0.37036 0.64104
# Poissons Ratio (y) = 0.12225 0.31577
# Poissons Ratio (z) = 0.24292 0.36250
#
# Static dielectric constant tensor:
#      x y z
#    x 3.327890 0.000000 0.000000 
#    y 0.000000 3.921660 0.000000 
#    z 0.000000 0.000000 3.791270 
# 
# 
# High freq. dielectric constant tensor:
#      x y z
#    x 1.745400 0.000000 0.000000 
#    y 0.000000 1.794050 0.000000 
#    z 0.000000 0.000000 1.789750 
# 
# From -- ./inp_files/11232.got.cif
#   From: 2010.03.12/outbox.cif.g09.slc.cpg/sg53_6_cif.got.tgz:11232.got - 2010.04.16 14:36:59.
