data_PCOD8220647
_publ_section_title
;
Structure prediction by ZEFSAII (Michael W. Deem and Ramdas Pophale) SiO2 
 PCOD8220647
Probable space group: P M N A
;
_chemical_formula_sum "Si O2"
_cell_formula_units_Z 64
_cell_length_a 8.950177
_cell_length_b 12.261032
_cell_length_c 29.578086
_cell_angle_alpha 90.000000
_cell_angle_beta 90.000000
_cell_angle_gamma 90.000000
_cell_volume 3245.852028
_symmetry_space_group_name_H-M "P M N A"
_symmetry_group_IT_number 53
_symmetry_cell_setting 'orthorhombic'
loop_
_space_group_symop_operation_xyz
x,y,z
1/2-x,-y,1/2+z
x,-y,-z
1/2-x,y,1/2-z
-x,-y,-z
1/2+x,y,1/2-z
-x,y,z
1/2+x,-y,1/2+z
loop_
_atom_site_type_symbol
_atom_site_label
_atom_site_fract_x
_atom_site_fract_y
_atom_site_fract_z
Si Si1 0.176685 0.258486 0.299143
Si Si2 0.328059 0.494256 0.202980
Si Si3 0.174868 0.722939 0.051418
Si Si4 0.822284 0.880467 0.379966
Si Si5 0.671868 0.290374 0.446993
Si Si6 0.324604 0.269209 0.798580
Si Si7 0.166698 0.505052 0.446378
Si Si8 0.324545 0.113509 0.373303
O O1 0.250000 0.250611 0.250000
O O2 0.210127 0.379149 0.321783
O O3 0.253513 0.167918 0.329458
O O4 0.000000 0.235660 0.295733
O O5 0.250000 0.492294 0.250000
O O6 0.500000 0.494914 0.214723
O O7 0.285146 0.610200 0.179696
O O8 0.263471 0.818103 0.076173
O O9 0.232244 0.606014 0.069499
O O10 0.000000 0.732662 0.061614
O O11 0.212304 0.737337 0.998585
O O12 0.766763 0.819293 0.334500
O O13 0.000000 0.887126 0.382146
O O14 0.752643 0.998979 0.380996
O O15 0.500000 0.324955 0.443005
O O16 0.766111 0.392255 0.427846
O O17 0.710187 0.184965 0.417527
O O18 0.250000 0.248999 0.750000
O O19 0.500000 0.256752 0.790999
O O20 0.162599 0.500000 0.500000
O O21 0.000000 0.519500 0.426101
O O22 0.500000 0.098126 0.365531
#
# Coordination Sequence:
#
# PCOD8220647 Si02
#       8
#     8   8   8   8   8   8   8   8
#     4  10  20  36  59  86 115 147 182 225 279 337
#     4   8  15  30  53  81 110 138 170 212 265 324
#     4  10  20  37  60  84 113 149 187 230 282 338
#     4  11  24  40  56  80 113 148 192 240 285 337
#     4   9  20  38  59  83 113 149 188 232 283 339
#     4   9  19  36  58  83 112 144 178 221 273 329
#     4   9  17  31  55  87 118 146 180 225 279 338
#     4  11  24  41  58  79 109 147 194 241 284 335
#
# _framework density 19.717472999999998
#
# number of rings (size 3 to 8) (size 9 to 14) (size 15 to 20)
#    0.000    2.375    0.000    1.875    0.000    6.500 
#    0.000    5.000    0.000    0.000    0.000    0.000 
#    0.000    0.000    0.000    0.000    0.000    0.000 
#
# Total GULP energy -793250.398350 kJ/mol
# GULP energy per Si atom -12394.537474 kJ/mol
# Density = 1.967260 g / cm^3
# Si number density = 19.717473 Si / 1000 Ang^3
#
#
#
# Elastic Constant Matrix: (Units=GPa)
#
#
# Indices 1 2 3 4 5 6 
#
# 1 95.6174 72.6082 46.6860 0.0000 0.0000 0.0000
# 2 72.6082 180.0104 64.9858 0.0000 0.0000 0.0000
# 3 46.6860 64.9858 84.7228 0.0000 0.0000 0.0000
# 4 0.0000 0.0000 0.0000 63.8354 0.0000 0.0000
# 5 0.0000 0.0000 0.0000 0.0000 27.4125 0.0000
# 6 0.0000 0.0000 0.0000 0.0000 0.0000 37.5690
#
#
#
# Elastic Compliance Matrix: (Units=1/GPa)
#
#
# Indices 1 2 3 4 5 6 
#
# 1 0.016810 -0.004752 -0.005618 0.000000 0.000000 0.000000
# 2 -0.004752 0.009026 -0.004305 0.000000 0.000000 0.000000
# 3 -0.005618 -0.004305 0.018201 0.000000 0.000000 0.000000
# 4 0.000000 0.000000 0.000000 0.015665 0.000000 0.000000
# 5 0.000000 0.000000 0.000000 0.000000 0.036480 0.000000
# 6 0.000000 0.000000 0.000000 0.000000 0.000000 0.026618
#
#
# Mechanical properties :
#
#
# Convention : Reuss Voigt Hill
#
# Bulk Modulus (GPa) = 68.08634 80.99007 74.53820
# Shear Modulus (GPa) = 31.83799 37.50140 34.66969
#
# Velocity S-wave (km/s) = 4.02270 4.36585 4.19779
# Velocity P-wave (km/s) = 7.49547 8.15958 7.83456
#
# Compressibility (1/GPa) = 0.01468723
#
# Stress axis : x y z
#
# Youngs Moduli (GPa) = 59.48828 110.78923 54.94275
#
# Poissons Ratio (x) = 0.52650 0.30866
# Poissons Ratio (y) = 0.28271 0.23651
# Poissons Ratio (z) = 0.33420 0.47691
#
# Static dielectric constant tensor:
#      x y z
#    x 3.688260 0.000000 0.000000 
#    y 0.000000 4.034210 0.000000 
#    z 0.000000 0.000000 3.351420 
# 
# 
# High freq. dielectric constant tensor:
#      x y z
#    x 1.775560 0.000000 0.000000 
#    y 0.000000 1.778620 0.000000 
#    z 0.000000 0.000000 1.755880 
# 
# From -- ./inp_files/38220.got.cif
#   From: 2010.03.12/outbox.cif.g09.slc.cpg/sg53_20_cif.got.tgz:38220.got - 2010.04.16 14:36:59.
