data_PCOD8220776
_publ_section_title
;
Structure prediction by ZEFSAII (Michael W. Deem and Ramdas Pophale) SiO2 
 PCOD8220776
Probable space group: P M N A
;
_chemical_formula_sum "Si O2"
_cell_formula_units_Z 56
_cell_length_a 22.259990
_cell_length_b 7.755592
_cell_length_c 14.960998
_cell_angle_alpha 90.000000
_cell_angle_beta 90.000000
_cell_angle_gamma 90.000000
_cell_volume 2582.857724
_symmetry_space_group_name_H-M "P M N A"
_symmetry_group_IT_number 53
_symmetry_cell_setting 'orthorhombic'
loop_
_space_group_symop_operation_xyz
x,y,z
1/2-x,-y,1/2+z
x,-y,-z
1/2-x,y,1/2-z
-x,-y,-z
1/2+x,y,1/2-z
-x,y,z
1/2+x,-y,1/2+z
loop_
_atom_site_type_symbol
_atom_site_label
_atom_site_fract_x
_atom_site_fract_y
_atom_site_fract_z
Si Si1 0.674105 0.800567 0.888072
Si Si2 0.256533 0.506731 0.395854
Si Si3 0.113008 0.638552 0.106221
Si Si4 0.434453 0.792972 0.219052
Si Si5 0.329377 0.197726 0.901320
Si Si6 0.933199 0.288073 0.073435
Si Si7 0.566356 0.812742 0.765835
O O1 0.729426 0.674716 0.857837
O O2 0.615880 0.731905 0.832786
O O3 0.687653 0.003101 0.868429
O O4 0.661611 0.785416 0.993075
O O5 0.247589 0.500000 0.500000
O O6 0.325738 0.535569 0.371656
O O7 0.221471 0.676158 0.361475
O O8 0.096526 0.765195 0.185357
O O9 0.062718 0.491572 0.096273
O O10 0.112370 0.744092 0.011092
O O11 0.500000 0.702122 0.212754
O O12 0.391403 0.729733 0.139986
O O13 0.442904 0.993522 0.204867
O O14 0.909949 0.193628 0.163153
O O15 0.000000 0.221633 0.048116
O O16 0.500000 0.720805 0.773195
#
# Coordination Sequence:
#
# PCOD8220776 Si02
#       7
#     8   8   8   8   8   8   8
#     4   9  19  39  61  87 121 157 194 245 296 349
#     4  10  20  39  60  85 117 154 205 240 289 352
#     4  11  21  37  57  82 115 155 198 240 295 347
#     4  10  21  38  59  88 120 152 195 248 300 356
#     4   9  20  38  62  86 121 156 194 242 298 351
#     4  10  20  37  59  85 114 152 195 240 296 354
#     4   9  20  38  60  88 119 152 198 246 301 359
#
# _framework density 21.681411000000001
#
# number of rings (size 3 to 8) (size 9 to 14) (size 15 to 20)
#    0.000    2.286    1.429    1.714    2.000    1.714 
#    2.571    6.429    0.000    2.571    0.000    0.000 
#    0.000    0.000    0.000    0.000    0.000    0.000 
#
# Total GULP energy -693784.471808 kJ/mol
# GULP energy per Si atom -12389.008425 kJ/mol
# Density = 2.163206 g / cm^3
# Si number density = 21.681411 Si / 1000 Ang^3
#
#
#
# Elastic Constant Matrix: (Units=GPa)
#
#
# Indices 1 2 3 4 5 6 
#
# 1 135.9292 40.2934 41.9877 0.0000 0.0000 0.0000
# 2 40.2934 59.7333 11.7695 0.0000 0.0000 0.0000
# 3 41.9877 11.7695 68.1056 0.0000 0.0000 0.0000
# 4 0.0000 0.0000 0.0000 21.0528 0.0000 0.0000
# 5 0.0000 0.0000 0.0000 0.0000 24.2484 0.0000
# 6 0.0000 0.0000 0.0000 0.0000 0.0000 26.0153
#
#
#
# Elastic Compliance Matrix: (Units=1/GPa)
#
#
# Indices 1 2 3 4 5 6 
#
# 1 0.010974 -0.006283 -0.005680 0.000000 0.000000 0.000000
# 2 -0.006283 0.020929 0.000257 0.000000 0.000000 0.000000
# 3 -0.005680 0.000257 0.018140 0.000000 0.000000 0.000000
# 4 0.000000 0.000000 0.000000 0.047500 0.000000 0.000000
# 5 0.000000 0.000000 0.000000 0.000000 0.041240 0.000000
# 6 0.000000 0.000000 0.000000 0.000000 0.000000 0.038439
#
#
# Mechanical properties :
#
#
# Convention : Reuss Voigt Hill
#
# Bulk Modulus (GPa) = 37.55030 50.20769 43.87899
# Shear Modulus (GPa) = 23.86522 25.57780 24.72151
#
# Velocity S-wave (km/s) = 3.32131 3.43842 3.38037
# Velocity P-wave (km/s) = 5.66259 6.24267 5.95969
#
# Compressibility (1/GPa) = 0.02663094
#
# Stress axis : x y z
#
# Youngs Moduli (GPa) = 91.12690 47.78086 55.12622
#
# Poissons Ratio (x) = 0.30022 0.31309
# Poissons Ratio (y) = 0.57258 -0.01416
# Poissons Ratio (z) = 0.51756 -0.01228
#
# Static dielectric constant tensor:
#      x y z
#    x 4.309340 0.000000 0.000000 
#    y 0.000000 3.910350 0.000000 
#    z 0.000000 0.000000 3.914270 
# 
# 
# High freq. dielectric constant tensor:
#      x y z
#    x 1.848010 0.000000 0.000000 
#    y 0.000000 1.835260 0.000000 
#    z 0.000000 0.000000 1.847660 
# 
# From -- ./inp_files/24312.got.cif
#   From: 2010.03.12/outbox.cif.g09.slc.cpg/sg53_13_cif.got.tgz:24312.got - 2010.04.16 14:36:59.
