data_PCOD8220446
_publ_section_title
;
Structure prediction by ZEFSAII (Michael W. Deem and Ramdas Pophale) SiO2 
 PCOD8220446
Probable space group: P M N A
;
_chemical_formula_sum "Si O2"
_cell_formula_units_Z 56
_cell_length_a 16.877210
_cell_length_b 32.204515
_cell_length_c 5.101447
_cell_angle_alpha 90.000000
_cell_angle_beta 90.000000
_cell_angle_gamma 90.000000
_cell_volume 2772.750526
_symmetry_space_group_name_H-M "P M N A"
_symmetry_group_IT_number 53
_symmetry_cell_setting 'orthorhombic'
loop_
_space_group_symop_operation_xyz
x,y,z
1/2-x,-y,1/2+z
x,-y,-z
1/2-x,y,1/2-z
-x,-y,-z
1/2+x,y,1/2-z
-x,y,z
1/2+x,-y,1/2+z
loop_
_atom_site_type_symbol
_atom_site_label
_atom_site_fract_x
_atom_site_fract_y
_atom_site_fract_z
Si Si1 0.407472 0.676283 0.503201
Si Si2 0.803066 0.546779 0.499234
Si Si3 0.089570 0.884937 0.642458
Si Si4 0.197832 0.754827 0.005739
Si Si5 0.091644 0.025785 0.240771
Si Si6 0.091468 0.375425 0.514021
Si Si7 0.590719 0.168170 0.660868
O O1 0.500000 0.687857 0.480193
O O2 0.360854 0.717955 0.572482
O O3 0.373775 0.654749 0.239728
O O4 0.390561 0.644333 0.734916
O O5 0.837810 0.500000 0.500000
O O6 0.750000 0.555884 0.750000
O O7 0.875053 0.578397 0.483840
O O8 0.750000 0.554539 0.250000
O O9 0.132086 0.929156 0.704814
O O10 0.127696 0.858593 0.402999
O O11 0.000000 0.894476 0.550643
O O12 0.092727 0.858988 0.903807
O O13 0.250000 0.739757 0.250000
O O14 0.146224 0.792861 0.111827
O O15 0.250000 0.766900 0.750000
O O16 0.000000 0.033423 0.166888
O O17 0.103381 0.000000 0.500000
O O18 0.131471 0.000000 0.000000
O O19 0.000000 0.380834 0.574964
O O20 0.500000 0.182443 0.723918
#
# Coordination Sequence:
#
# PCOD8220446 Si02
#       7
#     8   8   8   8   8   8   8
#     4  10  22  40  59  82 112 145 181 223 279 338
#     4  10  21  36  55  81 114 151 188 227 274 327
#     4   9  17  29  48  73 101 141 184 213 257 323
#     4  12  25  39  57  83 110 138 180 229 277 327
#     4   9  15  23  38  65 103 138 167 209 262 309
#     4  10  21  37  59  84 110 143 184 228 272 326
#     4  10  20  36  55  74 104 144 181 219 264 320
#
# _framework density 20.196549999999998
#
# number of rings (size 3 to 8) (size 9 to 14) (size 15 to 20)
#    0.000    2.000    0.000    3.857    0.000    7.143 
#    0.000    5.714    0.000    5.143    0.000    0.000 
#    0.000   32.000    0.000    0.000    0.000    0.000 
#
# Total GULP energy -694312.174377 kJ/mol
# GULP energy per Si atom -12398.431685 kJ/mol
# Density = 2.015058 g / cm^3
# Si number density = 20.196550 Si / 1000 Ang^3
#
#
#
# Elastic Constant Matrix: (Units=GPa)
#
#
# Indices 1 2 3 4 5 6 
#
# 1 45.4967 56.4237 33.9595 0.0000 0.0000 0.0000
# 2 56.4237 144.7253 36.7736 0.0000 0.0000 0.0000
# 3 33.9595 36.7736 130.2178 0.0000 0.0000 0.0000
# 4 0.0000 0.0000 0.0000 31.9917 0.0000 0.0000
# 5 0.0000 0.0000 0.0000 0.0000 24.7775 0.0000
# 6 0.0000 0.0000 0.0000 0.0000 0.0000 1.0564
#
#
#
# Elastic Compliance Matrix: (Units=1/GPa)
#
#
# Indices 1 2 3 4 5 6 
#
# 1 0.049229 -0.017162 -0.007992 0.000000 0.000000 0.000000
# 2 -0.017162 0.013427 0.000684 0.000000 0.000000 0.000000
# 3 -0.007992 0.000684 0.009570 0.000000 0.000000 0.000000
# 4 0.000000 0.000000 0.000000 0.031258 0.000000 0.000000
# 5 0.000000 0.000000 0.000000 0.000000 0.040359 0.000000
# 6 0.000000 0.000000 0.000000 0.000000 0.000000 0.946572
#
#
# Mechanical properties :
#
#
# Convention : Reuss Voigt Hill
#
# Bulk Modulus (GPa) = 42.94380 63.86147 53.40264
# Shear Modulus (GPa) = 4.35875 24.45066 14.40470
#
# Velocity S-wave (km/s) = 1.47066 3.48319 2.67353
# Velocity P-wave (km/s) = 4.91863 6.91849 6.00243
#
# Compressibility (1/GPa) = 0.02328625
#
# Stress axis : x y z
#
# Youngs Moduli (GPa) = 20.31336 74.47811 104.48812
#
# Poissons Ratio (x) = 1.27819 0.83504
# Poissons Ratio (y) = 0.34862 -0.07146
# Poissons Ratio (z) = 0.16234 -0.05094
#
# Static dielectric constant tensor:
#      x y z
#    x 3.324750 0.000000 0.000000 
#    y 0.000000 6.463200 0.000000 
#    z 0.000000 0.000000 3.914320 
# 
# 
# High freq. dielectric constant tensor:
#      x y z
#    x 1.747610 0.000000 0.000000 
#    y 0.000000 1.801850 0.000000 
#    z 0.000000 0.000000 1.811610 
# 
# From -- ./inp_files/1470.got.cif
#   From: 2010.03.12/outbox.cif.g09.slc.cpg/sg53_1_cif.got.tgz:1470.got - 2010.04.16 14:36:59.
