data_PCOD8220947
_publ_section_title
;
Structure prediction by ZEFSAII (Michael W. Deem and Ramdas Pophale) SiO2 
 PCOD8220947
Probable space group: P M N A
;
_chemical_formula_sum "Si O2"
_cell_formula_units_Z 20
_cell_length_a 16.745891
_cell_length_b 12.245571
_cell_length_c 4.864708
_cell_angle_alpha 90.000000
_cell_angle_beta 90.000000
_cell_angle_gamma 90.000000
_cell_volume 997.571603
_symmetry_space_group_name_H-M "P M N A"
_symmetry_group_IT_number 53
_symmetry_cell_setting 'orthorhombic'
loop_
_space_group_symop_operation_xyz
x,y,z
1/2-x,-y,1/2+z
x,-y,-z
1/2-x,y,1/2-z
-x,-y,-z
1/2+x,y,1/2-z
-x,y,z
1/2+x,-y,1/2+z
loop_
_atom_site_type_symbol
_atom_site_label
_atom_site_fract_x
_atom_site_fract_y
_atom_site_fract_z
Si Si1 0.331676 0.280520 0.872242
Si Si2 0.750000 0.927846 0.250000
Si Si3 0.409370 0.381037 0.397673
O O1 0.250000 0.334420 0.750000
O O2 0.319328 0.148859 0.885720
O O3 0.403903 0.302844 0.662033
O O4 0.350680 0.334038 0.165136
O O5 0.715119 0.000000 0.500000
O O6 0.381514 0.500000 0.500000
O O7 0.500000 0.383639 0.286099
#
# Coordination Sequence:
#
# PCOD8220947 Si02
#       3
#     8   4   8
#     4  10  22  37  61  90 113 159 205 252 284 355
#     4  10  20  38  64  86 114 154 202 258 316 342
#     4  11  22  38  59  87 127 165 191 233 303 365
#
# _framework density 20.048684999999999
#
# number of rings (size 3 to 8) (size 9 to 14) (size 15 to 20)
#    1.200    0.400    0.000    6.000    0.000    6.400 
#    0.000    0.000    0.000   24.000    0.000    0.000 
#    0.000    0.000    0.000    0.000    0.000    0.000 
#
# Total GULP energy -247825.738396 kJ/mol
# GULP energy per Si atom -12391.286920 kJ/mol
# Density = 2.000305 g / cm^3
# Si number density = 20.048685 Si / 1000 Ang^3
#
#
#
# Elastic Constant Matrix: (Units=GPa)
#
#
# Indices 1 2 3 4 5 6 
#
# 1 50.5542 46.4416 23.7479 0.0000 0.0000 0.0000
# 2 46.4416 144.7917 73.7967 0.0000 0.0000 0.0000
# 3 23.7479 73.7967 139.7712 0.0000 0.0000 0.0000
# 4 0.0000 0.0000 0.0000 43.8912 0.0000 0.0000
# 5 0.0000 0.0000 0.0000 0.0000 37.5534 0.0000
# 6 0.0000 0.0000 0.0000 0.0000 0.0000 8.6431
#
#
#
# Elastic Compliance Matrix: (Units=1/GPa)
#
#
# Indices 1 2 3 4 5 6 
#
# 1 0.028044 -0.008984 -0.000021 0.000000 0.000000 0.000000
# 2 -0.008984 0.012327 -0.004982 0.000000 0.000000 0.000000
# 3 -0.000021 -0.004982 0.009789 0.000000 0.000000 0.000000
# 4 0.000000 0.000000 0.000000 0.022784 0.000000 0.000000
# 5 0.000000 0.000000 0.000000 0.000000 0.026629 0.000000
# 6 0.000000 0.000000 0.000000 0.000000 0.000000 0.115700
#
#
# Mechanical properties :
#
#
# Convention : Reuss Voigt Hill
#
# Bulk Modulus (GPa) = 45.07606 69.23219 57.15412
# Shear Modulus (GPa) = 19.94870 30.75959 25.35414
#
# Velocity S-wave (km/s) = 3.15780 3.92119 3.56002
# Velocity P-wave (km/s) = 5.98563 7.42348 6.74299
#
# Compressibility (1/GPa) = 0.02218473
#
# Stress axis : x y z
#
# Youngs Moduli (GPa) = 35.65810 81.11979 102.15866
#
# Poissons Ratio (x) = 0.72880 0.00218
# Poissons Ratio (y) = 0.32036 0.50898
# Poissons Ratio (z) = 0.00076 0.40416
#
# Static dielectric constant tensor:
#      x y z
#    x 3.339220 0.000000 0.000000 
#    y 0.000000 3.609570 0.000000 
#    z 0.000000 0.000000 3.699560 
# 
# 
# High freq. dielectric constant tensor:
#      x y z
#    x 1.753800 0.000000 0.000000 
#    y 0.000000 1.775470 0.000000 
#    z 0.000000 0.000000 1.800560 
# 
# From -- ./inp_files/985.got.cif
#   From: 2010.03.12/outbox.cif.g09.slc.cpg/sg53_1_cif.got.tgz:985.got - 2010.04.16 14:36:59.
