data_PCOD8220317
_publ_section_title
;
Structure prediction by ZEFSAII (Michael W. Deem and Ramdas Pophale) SiO2 
 PCOD8220317
Probable space group: P M N A
;
_chemical_formula_sum "Si O2"
_cell_formula_units_Z 64
_cell_length_a 18.212589
_cell_length_b 21.997628
_cell_length_c 7.434365
_cell_angle_alpha 90.000000
_cell_angle_beta 90.000000
_cell_angle_gamma 90.000000
_cell_volume 2978.457586
_symmetry_space_group_name_H-M "P M N A"
_symmetry_group_IT_number 53
_symmetry_cell_setting 'orthorhombic'
loop_
_space_group_symop_operation_xyz
x,y,z
1/2-x,-y,1/2+z
x,-y,-z
1/2-x,y,1/2-z
-x,-y,-z
1/2+x,y,1/2-z
-x,y,z
1/2+x,-y,1/2+z
loop_
_atom_site_type_symbol
_atom_site_label
_atom_site_fract_x
_atom_site_fract_y
_atom_site_fract_z
Si Si1 0.415058 0.429076 0.507890
Si Si2 0.170200 0.632253 0.713348
Si Si3 0.666415 0.985338 0.707922
Si Si4 0.912208 0.770922 0.384294
Si Si5 0.580138 0.125014 0.369867
Si Si6 0.832570 0.232957 0.239274
Si Si7 0.335124 0.653960 0.206227
Si Si8 0.919610 0.903205 0.273376
O O1 0.398399 0.500000 0.500000
O O2 0.500000 0.414731 0.544336
O O3 0.393151 0.405907 0.309627
O O4 0.367740 0.398213 0.666120
O O5 0.250000 0.602150 0.750000
O O6 0.170929 0.696947 0.821430
O O7 0.153346 0.634608 0.501497
O O8 0.750000 0.973648 0.750000
O O9 0.622886 0.923048 0.758043
O O10 0.657455 0.000000 0.500000
O O11 0.635013 0.041647 0.827788
O O12 0.877618 0.765555 0.578192
O O13 0.877335 0.717928 0.259362
O O14 0.886764 0.837472 0.320266
O O15 0.000000 0.763648 0.383997
O O16 0.500000 0.137877 0.283280
O O17 0.623299 0.188683 0.394020
O O18 0.570204 0.094106 0.560537
O O19 0.750000 0.206864 0.250000
O O20 0.250000 0.663917 0.250000
O O21 0.000000 0.913019 0.363211
#
# Coordination Sequence:
#
# PCOD8220317 Si02
#       8
#     8   8   8   8   8   8   8   8
#     4  11  26  45  68 101 136 173 221 270 319 384
#     4  10  22  43  66  96 133 174 217 266 325 383
#     4  10  21  36  53  76 109 145 195 247 303 362
#     4  10  22  39  61  90 125 160 203 255 312 374
#     4  10  20  35  56  80 111 153 198 246 305 370
#     4  10  22  37  59  88 122 156 200 254 307 371
#     4  11  23  42  69  99 135 173 218 270 323 384
#     4   9  20  36  55  80 109 150 195 242 301 364
#
# _framework density 21.487632000000001
#
# number of rings (size 3 to 8) (size 9 to 14) (size 15 to 20)
#    0.000    1.875    1.250    1.500    1.750    9.000 
#    0.000    1.250    0.000    3.000    0.000    0.000 
#    0.000    0.000    0.000    0.000    0.000    0.000 
#
# Total GULP energy -793347.469005 kJ/mol
# GULP energy per Si atom -12396.054203 kJ/mol
# Density = 2.143872 g / cm^3
# Si number density = 21.487632 Si / 1000 Ang^3
#
#
#
# Elastic Constant Matrix: (Units=GPa)
#
#
# Indices 1 2 3 4 5 6 
#
# 1 145.5888 61.0585 10.0635 0.0000 0.0000 0.0000
# 2 61.0585 102.2893 12.9985 0.0000 0.0000 0.0000
# 3 10.0635 12.9985 38.5034 0.0000 0.0000 0.0000
# 4 0.0000 0.0000 0.0000 27.1260 0.0000 0.0000
# 5 0.0000 0.0000 0.0000 0.0000 26.1988 0.0000
# 6 0.0000 0.0000 0.0000 0.0000 0.0000 38.8629
#
#
#
# Elastic Compliance Matrix: (Units=1/GPa)
#
#
# Indices 1 2 3 4 5 6 
#
# 1 0.009175 -0.005404 -0.000574 0.000000 0.000000 0.000000
# 2 -0.005404 0.013397 -0.003110 0.000000 0.000000 0.000000
# 3 -0.000574 -0.003110 0.027172 0.000000 0.000000 0.000000
# 4 0.000000 0.000000 0.000000 0.036865 0.000000 0.000000
# 5 0.000000 0.000000 0.000000 0.000000 0.038170 0.000000
# 6 0.000000 0.000000 0.000000 0.000000 0.000000 0.025731
#
#
# Mechanical properties :
#
#
# Convention : Reuss Voigt Hill
#
# Bulk Modulus (GPa) = 31.67782 50.51362 41.09572
# Shear Modulus (GPa) = 27.90067 31.92162 29.91115
#
# Velocity S-wave (km/s) = 3.60731 3.85851 3.73502
# Velocity P-wave (km/s) = 5.66786 6.58863 6.14551
#
# Compressibility (1/GPa) = 0.03156783
#
# Stress axis : x y z
#
# Youngs Moduli (GPa) = 108.99763 74.64397 36.80299
#
# Poissons Ratio (x) = 0.40334 0.02111
# Poissons Ratio (y) = 0.58897 0.11447
# Poissons Ratio (z) = 0.06253 0.23217
#
# Static dielectric constant tensor:
#      x y z
#    x 3.818610 0.000000 0.000000 
#    y 0.000000 4.258930 0.000000 
#    z 0.000000 0.000000 3.611220 
# 
# 
# High freq. dielectric constant tensor:
#      x y z
#    x 1.854040 0.000000 0.000000 
#    y 0.000000 1.845990 0.000000 
#    z 0.000000 0.000000 1.832060 
# 
# From -- ./inp_files/8930.got.cif
#   From: 2010.03.12/outbox.cif.g09.slc.cpg/sg53_5_cif.got.tgz:8930.got - 2010.04.16 14:36:59.
