data_PCOD8220973
_publ_section_title
;
Structure prediction by ZEFSAII (Michael W. Deem and Ramdas Pophale) SiO2 
 PCOD8220973
Probable space group: P M N A
;
_chemical_formula_sum "Si O2"
_cell_formula_units_Z 20
_cell_length_a 10.289049
_cell_length_b 5.019705
_cell_length_c 16.472291
_cell_angle_alpha 90.000000
_cell_angle_beta 90.000000
_cell_angle_gamma 90.000000
_cell_volume 850.760733
_symmetry_space_group_name_H-M "P M N A"
_symmetry_group_IT_number 53
_symmetry_cell_setting 'orthorhombic'
loop_
_space_group_symop_operation_xyz
x,y,z
1/2-x,-y,1/2+z
x,-y,-z
1/2-x,y,1/2-z
-x,-y,-z
1/2+x,y,1/2-z
-x,y,z
1/2+x,-y,1/2+z
loop_
_atom_site_type_symbol
_atom_site_label
_atom_site_fract_x
_atom_site_fract_y
_atom_site_fract_z
Si Si1 0.354251 0.074282 0.183657
Si Si2 0.000000 0.254306 0.942524
Si Si3 0.726113 0.402181 0.908166
O O1 0.250000 0.975995 0.250000
O O2 0.500000 0.113598 0.219814
O O3 0.302543 0.352497 0.149791
O O4 0.365722 0.847482 0.113732
O O5 0.869896 0.280731 0.889414
O O6 0.000000 0.500000 0.000000
O O7 0.000000 0.000000 0.000000
O O8 0.704200 0.500000 0.000000
#
# Coordination Sequence:
#
# PCOD8220973 Si02
#       3
#     8   4   8
#     4  12  28  46  70 101 144 190 231 290 360 423
#     4  10  20  38  68 106 138 172 221 282 351 406
#     4  11  24  44  74 104 138 181 239 296 348 417
#
# _framework density 23.508374
#
# number of rings (size 3 to 8) (size 9 to 14) (size 15 to 20)
#    0.000    0.800    0.000    8.400    5.600    4.800 
#    0.000    0.000    0.000    0.000    0.000    0.000 
#    0.000    0.000    0.000    0.000    0.000    0.000 
#
# Total GULP energy -247899.556841 kJ/mol
# GULP energy per Si atom -12394.977842 kJ/mol
# Density = 2.345487 g / cm^3
# Si number density = 23.508374 Si / 1000 Ang^3
#
#
#
# Elastic Constant Matrix: (Units=GPa)
#
#
# Indices 1 2 3 4 5 6 
#
# 1 177.9364 53.0184 70.7940 0.0000 0.0000 0.0000
# 2 53.0184 178.7459 29.3576 0.0000 0.0000 0.0000
# 3 70.7940 29.3576 69.2262 0.0000 0.0000 0.0000
# 4 0.0000 0.0000 0.0000 35.5526 0.0000 0.0000
# 5 0.0000 0.0000 0.0000 0.0000 46.2472 0.0000
# 6 0.0000 0.0000 0.0000 0.0000 0.0000 2.7906
#
#
#
# Elastic Compliance Matrix: (Units=1/GPa)
#
#
# Indices 1 2 3 4 5 6 
#
# 1 0.009770 -0.001351 -0.009418 0.000000 0.000000 0.000000
# 2 -0.001351 0.006200 -0.001248 0.000000 0.000000 0.000000
# 3 -0.009418 -0.001248 0.024606 0.000000 0.000000 0.000000
# 4 0.000000 0.000000 0.000000 0.028127 0.000000 0.000000
# 5 0.000000 0.000000 0.000000 0.000000 0.021623 0.000000
# 6 0.000000 0.000000 0.000000 0.000000 0.000000 0.358341
#
#
# Mechanical properties :
#
#
# Convention : Reuss Voigt Hill
#
# Bulk Modulus (GPa) = 60.45170 81.36096 70.90633
# Shear Modulus (GPa) = 10.45557 35.10065 22.77811
#
# Velocity S-wave (km/s) = 2.11122 3.86827 3.11615
# Velocity P-wave (km/s) = 5.63150 7.39161 6.57076
#
# Compressibility (1/GPa) = 0.01654213
#
# Stress axis : x y z
#
# Youngs Moduli (GPa) = 102.35912 161.28526 40.64094
#
# Poissons Ratio (x) = 0.21789 0.38275
# Poissons Ratio (y) = 0.13828 0.05071
# Poissons Ratio (z) = 0.96400 0.20126
#
# Static dielectric constant tensor:
#      x y z
#    x 3.542780 0.000000 0.000000 
#    y 0.000000 4.310920 0.000000 
#    z 0.000000 0.000000 3.984490 
# 
# 
# High freq. dielectric constant tensor:
#      x y z
#    x 1.946200 0.000000 0.000000 
#    y 0.000000 1.956040 0.000000 
#    z 0.000000 0.000000 1.908650 
# 
# From -- ./inp_files/21114.got.cif
#   From: 2010.03.12/outbox.cif.g09.slc.cpg/sg53_11_cif.got.tgz:21114.got - 2010.04.16 14:36:59.
