data_PCOD8220164
_publ_section_title
;
Structure prediction by ZEFSAII (Michael W. Deem and Ramdas Pophale) SiO2 
 PCOD8220164
Probable space group: P M N A
;
_chemical_formula_sum "Si O2"
_cell_formula_units_Z 48
_cell_length_a 8.874753
_cell_length_b 16.403759
_cell_length_c 17.836538
_cell_angle_alpha 90.000000
_cell_angle_beta 90.000000
_cell_angle_gamma 90.000000
_cell_volume 2596.630884
_symmetry_space_group_name_H-M "P M N A"
_symmetry_group_IT_number 53
_symmetry_cell_setting 'orthorhombic'
loop_
_space_group_symop_operation_xyz
x,y,z
1/2-x,-y,1/2+z
x,-y,-z
1/2-x,y,1/2-z
-x,-y,-z
1/2+x,y,1/2-z
-x,y,z
1/2+x,-y,1/2+z
loop_
_atom_site_type_symbol
_atom_site_label
_atom_site_fract_x
_atom_site_fract_y
_atom_site_fract_z
Si Si1 0.171582 0.753729 0.551127
Si Si2 0.178613 0.166737 0.827313
Si Si3 0.677841 0.511238 0.414366
Si Si4 0.675852 0.086099 0.966429
Si Si5 0.675256 0.322787 0.892979
Si Si6 0.676308 0.349116 0.329836
O O1 0.209542 0.846742 0.529993
O O2 0.203322 0.696476 0.479980
O O3 0.279109 0.727239 0.618490
O O4 0.000000 0.744781 0.578099
O O5 0.250000 0.134774 0.750000
O O6 0.229123 0.104534 0.892191
O O7 0.236457 0.258160 0.842367
O O8 0.000000 0.167146 0.821541
O O9 0.729952 0.500000 0.500000
O O10 0.500000 0.525853 0.409611
O O11 0.761526 0.587544 0.376505
O O12 0.731621 0.432610 0.368177
O O13 0.500000 0.087954 0.944220
O O14 0.726647 0.000000 0.000000
O O15 0.500000 0.317521 0.871709
O O16 0.750000 0.338292 0.250000
O O17 0.500000 0.349272 0.319122
#
# Coordination Sequence:
#
# PCOD8220164 Si02
#       6
#     8   8   8   8   8   8
#     4   9  18  34  56  81 108 141 180 220 268 327
#     4  11  22  37  58  84 118 152 188 233 284 338
#     4  10  20  35  54  78 109 147 191 235 281 327
#     4   9  19  38  63  90 118 147 182 226 277 337
#     4  10  20  34  56  83 110 145 187 229 279 336
#     4  11  23  37  54  76 108 146 186 234 280 327
#
# _framework density 18.485491
#
# number of rings (size 3 to 8) (size 9 to 14) (size 15 to 20)
#    0.000    2.000    1.667    3.500    0.000    5.333 
#    0.000    2.500    0.000    0.000    0.000    0.000 
#    0.000    0.000    0.000    0.000    0.000    0.000 
#
# Total GULP energy -595395.710736 kJ/mol
# GULP energy per Si atom -12404.077307 kJ/mol
# Density = 1.844342 g / cm^3
# Si number density = 18.485491 Si / 1000 Ang^3
#
#
#
# Elastic Constant Matrix: (Units=GPa)
#
#
# Indices 1 2 3 4 5 6 
#
# 1 93.1490 46.2477 54.3449 0.0000 0.0000 0.0000
# 2 46.2477 124.5770 54.4340 0.0000 0.0000 0.0000
# 3 54.3449 54.4340 111.2961 0.0000 0.0000 0.0000
# 4 0.0000 0.0000 0.0000 16.3250 0.0000 0.0000
# 5 0.0000 0.0000 0.0000 0.0000 29.8068 0.0000
# 6 0.0000 0.0000 0.0000 0.0000 0.0000 27.5040
#
#
#
# Elastic Compliance Matrix: (Units=1/GPa)
#
#
# Indices 1 2 3 4 5 6 
#
# 1 0.015958 -0.003204 -0.006225 0.000000 0.000000 0.000000
# 2 -0.003204 0.010852 -0.003743 0.000000 0.000000 0.000000
# 3 -0.006225 -0.003743 0.013855 0.000000 0.000000 0.000000
# 4 0.000000 0.000000 0.000000 0.061256 0.000000 0.000000
# 5 0.000000 0.000000 0.000000 0.000000 0.033549 0.000000
# 6 0.000000 0.000000 0.000000 0.000000 0.000000 0.036358
#
#
# Mechanical properties :
#
#
# Convention : Reuss Voigt Hill
#
# Bulk Modulus (GPa) = 69.82769 71.00835 70.41802
# Shear Modulus (GPa) = 24.63685 26.32687 25.48186
#
# Velocity S-wave (km/s) = 3.65467 3.77794 3.71682
# Velocity P-wave (km/s) = 7.46091 7.58465 7.52303
#
# Compressibility (1/GPa) = 0.01432097
#
# Stress axis : x y z
#
# Youngs Moduli (GPa) = 62.66376 92.14665 72.17382
#
# Poissons Ratio (x) = 0.29526 0.44929
# Poissons Ratio (y) = 0.20079 0.27016
# Poissons Ratio (z) = 0.39009 0.34492
#
# Static dielectric constant tensor:
#      x y z
#    x 3.337110 0.000000 0.000000 
#    y 0.000000 3.396000 0.000000 
#    z 0.000000 0.000000 3.311380 
# 
# 
# High freq. dielectric constant tensor:
#      x y z
#    x 1.719860 0.000000 0.000000 
#    y 0.000000 1.711710 0.000000 
#    z 0.000000 0.000000 1.710490 
# 
# From -- ./inp_files/20124.got.cif
#   From: 2010.03.12/outbox.cif.g09.slc.cpg/sg53_11_cif.got.tgz:20124.got - 2010.04.16 14:36:59.
