data_PCOD8220290
_publ_section_title
;
Structure prediction by ZEFSAII (Michael W. Deem and Ramdas Pophale) SiO2 
 PCOD8220290
Probable space group: P M N A
;
_chemical_formula_sum "Si O2"
_cell_formula_units_Z 48
_cell_length_a 9.172361
_cell_length_b 13.156232
_cell_length_c 18.958178
_cell_angle_alpha 90.000000
_cell_angle_beta 90.000000
_cell_angle_gamma 90.000000
_cell_volume 2287.753661
_symmetry_space_group_name_H-M "P M N A"
_symmetry_group_IT_number 53
_symmetry_cell_setting 'orthorhombic'
loop_
_space_group_symop_operation_xyz
x,y,z
1/2-x,-y,1/2+z
x,-y,-z
1/2-x,y,1/2-z
-x,-y,-z
1/2+x,y,1/2-z
-x,y,z
1/2+x,-y,1/2+z
loop_
_atom_site_type_symbol
_atom_site_label
_atom_site_fract_x
_atom_site_fract_y
_atom_site_fract_z
Si Si1 0.671268 0.985574 0.819637
Si Si2 0.334908 0.785678 0.183432
Si Si3 0.170479 0.567503 0.823741
Si Si4 0.834740 0.319398 0.037799
Si Si5 0.667769 0.399400 0.912692
Si Si6 0.832344 0.090267 0.052221
O O1 0.750000 0.945513 0.750000
O O2 0.500000 0.973324 0.810740
O O3 0.720942 0.101505 0.836015
O O4 0.725761 0.914347 0.881806
O O5 0.250000 0.739319 0.250000
O O6 0.500000 0.792012 0.208969
O O7 0.316441 0.715035 0.115839
O O8 0.250000 0.593026 0.750000
O O9 0.192409 0.660601 0.878753
O O10 0.240011 0.469099 0.860370
O O11 0.000000 0.547095 0.808321
O O12 0.805954 0.201483 0.018918
O O13 0.000000 0.348980 0.018085
O O14 0.731149 0.394079 0.992192
O O15 0.500000 0.435904 0.915050
O O16 0.000000 0.077386 0.076003
O O17 0.786526 0.000000 0.000000
#
# Coordination Sequence:
#
# PCOD8220290 Si02
#       6
#     8   8   8   8   8   8
#     4  10  20  35  55  80 113 151 192 238 290 347
#     4   9  19  33  51  80 115 150 189 236 288 342
#     4  11  24  42  62  85 116 152 192 236 285 341
#     4  10  23  41  60  85 118 154 191 236 289 343
#     4  11  22  37  60  89 118 150 192 238 287 344
#     4  10  21  38  60  86 116 152 195 241 290 343
#
# _framework density 20.981279000000001
#
# number of rings (size 3 to 8) (size 9 to 14) (size 15 to 20)
#    0.000    1.833    0.000    3.500    0.000    8.333 
#    0.000    1.667    0.000    0.000    0.000    0.000 
#    0.000    0.000    0.000    0.000    0.000    0.000 
#
# Total GULP energy -595260.097488 kJ/mol
# GULP energy per Si atom -12401.252031 kJ/mol
# Density = 2.093352 g / cm^3
# Si number density = 20.981279 Si / 1000 Ang^3
#
#
#
# Elastic Constant Matrix: (Units=GPa)
#
#
# Indices 1 2 3 4 5 6 
#
# 1 110.7080 33.9614 59.1394 0.0000 0.0000 0.0000
# 2 33.9614 63.7855 25.4161 0.0000 0.0000 0.0000
# 3 59.1394 25.4161 113.4742 0.0000 0.0000 0.0000
# 4 0.0000 0.0000 0.0000 26.2115 0.0000 0.0000
# 5 0.0000 0.0000 0.0000 0.0000 42.7116 0.0000
# 6 0.0000 0.0000 0.0000 0.0000 0.0000 26.1302
#
#
#
# Elastic Compliance Matrix: (Units=1/GPa)
#
#
# Indices 1 2 3 4 5 6 
#
# 1 0.013793 -0.004919 -0.006087 0.000000 0.000000 0.000000
# 2 -0.004919 0.018968 -0.001685 0.000000 0.000000 0.000000
# 3 -0.006087 -0.001685 0.012362 0.000000 0.000000 0.000000
# 4 0.000000 0.000000 0.000000 0.038151 0.000000 0.000000
# 5 0.000000 0.000000 0.000000 0.000000 0.023413 0.000000
# 6 0.000000 0.000000 0.000000 0.000000 0.000000 0.038270
#
#
# Mechanical properties :
#
#
# Convention : Reuss Voigt Hill
#
# Bulk Modulus (GPa) = 50.65274 58.33350 54.49312
# Shear Modulus (GPa) = 28.26152 30.30738 29.28445
#
# Velocity S-wave (km/s) = 3.67411 3.80478 3.74002
# Velocity P-wave (km/s) = 6.49562 6.86766 6.68423
#
# Compressibility (1/GPa) = 0.01974227
#
# Stress axis : x y z
#
# Youngs Moduli (GPa) = 72.49944 52.72112 80.89093
#
# Poissons Ratio (x) = 0.25931 0.49238
# Poissons Ratio (y) = 0.35659 0.13630
# Poissons Ratio (z) = 0.44130 0.08884
#
# Static dielectric constant tensor:
#      x y z
#    x 3.810190 0.000000 0.000000 
#    y 0.000000 3.755410 0.000000 
#    z 0.000000 0.000000 3.753260 
# 
# 
# High freq. dielectric constant tensor:
#      x y z
#    x 1.824710 0.000000 0.000000 
#    y 0.000000 1.819450 0.000000 
#    z 0.000000 0.000000 1.821180 
# 
# From -- ./inp_files/26255.got.cif
#   From: 2010.03.12/outbox.cif.g09.slc.cpg/sg53_14_cif.got.tgz:26255.got - 2010.04.16 14:36:59.
