data_PCOD8220529
_publ_section_title
;
Structure prediction by ZEFSAII (Michael W. Deem and Ramdas Pophale) SiO2 
 PCOD8220529
Probable space group: P M N A
;
_chemical_formula_sum "Si O2"
_cell_formula_units_Z 40
_cell_length_a 8.733734
_cell_length_b 25.736288
_cell_length_c 9.085419
_cell_angle_alpha 90.000000
_cell_angle_beta 90.000000
_cell_angle_gamma 90.000000
_cell_volume 2042.165003
_symmetry_space_group_name_H-M "P M N A"
_symmetry_group_IT_number 53
_symmetry_cell_setting 'orthorhombic'
loop_
_space_group_symop_operation_xyz
x,y,z
1/2-x,-y,1/2+z
x,-y,-z
1/2-x,y,1/2-z
-x,-y,-z
1/2+x,y,1/2-z
-x,y,z
1/2+x,-y,1/2+z
loop_
_atom_site_type_symbol
_atom_site_label
_atom_site_fract_x
_atom_site_fract_y
_atom_site_fract_z
Si Si1 0.676947 0.448087 0.592269
Si Si2 0.318324 0.155976 0.089212
Si Si3 0.180475 0.255693 0.590169
Si Si4 0.319073 0.050046 0.408722
Si Si5 0.180887 0.355514 0.410831
O O1 0.698297 0.500000 0.500000
O O2 0.750000 0.458048 0.750000
O O3 0.500000 0.432694 0.609635
O O4 0.764899 0.402153 0.512331
O O5 0.250000 0.166351 0.250000
O O6 0.500000 0.153025 0.102821
O O7 0.253517 0.102215 0.021225
O O8 0.264041 0.201677 0.981073
O O9 0.250000 0.262975 0.750000
O O10 0.237373 0.301958 0.484619
O O11 0.000000 0.257068 0.606948
O O12 0.250000 0.041182 0.250000
O O13 0.500000 0.056897 0.400141
O O14 0.269166 0.000000 0.500000
O O15 0.250000 0.360801 0.250000
O O16 0.000000 0.357491 0.396211
#
# Coordination Sequence:
#
# PCOD8220529 Si02
#       5
#     8   8   8   8   8
#     4  11  24  41  62  89 121 156 195 240 288 339
#     4  10  20  36  57  81 109 143 184 227 275 330
#     4  10  23  39  57  84 115 148 186 231 281 334
#     4  10  21  36  55  80 109 143 183 226 275 329
#     4  11  23  40  62  88 118 153 194 237 286 341
#
# _framework density 19.587057000000001
#
# number of rings (size 3 to 8) (size 9 to 14) (size 15 to 20)
#    0.000    1.600    0.000    5.400    0.000   10.400 
#    0.000    4.000    0.000    0.000    0.000    0.000 
#    0.000    0.000    0.000    0.000    0.000    0.000 
#
# Total GULP energy -496139.575344 kJ/mol
# GULP energy per Si atom -12403.489384 kJ/mol
# Density = 1.954248 g / cm^3
# Si number density = 19.587057 Si / 1000 Ang^3
#
#
#
# Elastic Constant Matrix: (Units=GPa)
#
#
# Indices 1 2 3 4 5 6 
#
# 1 76.5065 49.3148 39.8719 0.0000 0.0000 0.0000
# 2 49.3148 134.6441 54.7636 0.0000 0.0000 0.0000
# 3 39.8719 54.7636 117.4052 0.0000 0.0000 0.0000
# 4 0.0000 0.0000 0.0000 46.8720 0.0000 0.0000
# 5 0.0000 0.0000 0.0000 0.0000 31.8288 0.0000
# 6 0.0000 0.0000 0.0000 0.0000 0.0000 43.9173
#
#
#
# Elastic Compliance Matrix: (Units=1/GPa)
#
#
# Indices 1 2 3 4 5 6 
#
# 1 0.018410 -0.005183 -0.003835 0.000000 0.000000 0.000000
# 2 -0.005183 0.010625 -0.003196 0.000000 0.000000 0.000000
# 3 -0.003835 -0.003196 0.011310 0.000000 0.000000 0.000000
# 4 0.000000 0.000000 0.000000 0.021335 0.000000 0.000000
# 5 0.000000 0.000000 0.000000 0.000000 0.031418 0.000000
# 6 0.000000 0.000000 0.000000 0.000000 0.000000 0.022770
#
#
# Mechanical properties :
#
#
# Convention : Reuss Voigt Hill
#
# Bulk Modulus (GPa) = 62.81971 68.49515 65.65743
# Shear Modulus (GPa) = 34.34008 36.83067 35.58538
#
# Velocity S-wave (km/s) = 4.19167 4.34101 4.26699
# Velocity P-wave (km/s) = 7.45443 7.75702 7.60723
#
# Compressibility (1/GPa) = 0.01591857
#
# Stress axis : x y z
#
# Youngs Moduli (GPa) = 54.31748 94.11524 88.41370
#
# Poissons Ratio (x) = 0.48783 0.33903
# Poissons Ratio (y) = 0.28155 0.28256
# Poissons Ratio (z) = 0.20828 0.30078
#
# Static dielectric constant tensor:
#      x y z
#    x 3.675220 0.000000 0.000000 
#    y 0.000000 4.026490 0.000000 
#    z 0.000000 0.000000 3.562170 
# 
# 
# High freq. dielectric constant tensor:
#      x y z
#    x 1.773960 0.000000 0.000000 
#    y 0.000000 1.784760 0.000000 
#    z 0.000000 0.000000 1.767070 
# 
# From -- ./inp_files/6283.got.cif
#   From: 2010.03.12/outbox.cif.g09.slc.cpg/sg53_4_cif.got.tgz:6283.got - 2010.04.16 14:36:59.
