data_PCOD8220430
_publ_section_title
;
Structure prediction by ZEFSAII (Michael W. Deem and Ramdas Pophale) SiO2 
 PCOD8220430
Probable space group: P M N A
;
_chemical_formula_sum "Si O2"
_cell_formula_units_Z 64
_cell_length_a 8.955729
_cell_length_b 12.559053
_cell_length_c 29.109192
_cell_angle_alpha 90.000000
_cell_angle_beta 90.000000
_cell_angle_gamma 90.000000
_cell_volume 3274.070202
_symmetry_space_group_name_H-M "P M N A"
_symmetry_group_IT_number 53
_symmetry_cell_setting 'orthorhombic'
loop_
_space_group_symop_operation_xyz
x,y,z
1/2-x,-y,1/2+z
x,-y,-z
1/2-x,y,1/2-z
-x,-y,-z
1/2+x,y,1/2-z
-x,y,z
1/2+x,-y,1/2+z
loop_
_atom_site_type_symbol
_atom_site_label
_atom_site_fract_x
_atom_site_fract_y
_atom_site_fract_z
Si Si1 0.331311 0.652045 0.817767
Si Si2 0.667512 0.399557 0.078638
Si Si3 0.324674 0.041499 0.387989
Si Si4 0.823269 0.624194 0.387833
Si Si5 0.327616 0.818758 0.434855
Si Si6 0.824109 0.109667 0.296248
Si Si7 0.326489 0.210915 0.461351
Si Si8 0.823599 0.439884 0.795953
O O1 0.500000 0.621292 0.802436
O O2 0.323031 0.658717 0.872522
O O3 0.281634 0.765973 0.798874
O O4 0.216988 0.564996 0.798552
O O5 0.500000 0.402518 0.059542
O O6 0.729386 0.520132 0.083284
O O7 0.761216 0.329994 0.042777
O O8 0.500000 0.057646 0.379817
O O9 0.240947 0.047378 0.339687
O O10 0.260314 0.129852 0.423374
O O11 0.289224 0.926980 0.409100
O O12 0.779806 0.728223 0.415524
O O13 0.742220 0.625169 0.338735
O O14 0.000000 0.617966 0.379127
O O15 0.500000 0.785353 0.427774
O O16 0.291120 0.835462 0.488454
O O17 0.750000 0.062783 0.250000
O O18 0.000000 0.091214 0.294780
O O19 0.500000 0.221084 0.452798
O O20 0.750000 0.391037 0.750000
O O21 0.000000 0.425312 0.794577
#
# Coordination Sequence:
#
# PCOD8220430 Si02
#       8
#     8   8   8   8   8   8   8   8
#     4   9  18  33  52  80 118 154 187 230 281 337
#     4   9  18  34  55  82 118 152 184 230 284 338
#     4  10  21  39  61  85 117 153 192 240 292 341
#     4  10  22  40  58  81 116 155 195 239 290 344
#     4  10  22  40  60  84 114 151 197 245 290 343
#     4  11  22  36  56  84 118 153 192 235 285 344
#     4  10  20  35  60  90 117 149 190 237 291 348
#     4  11  21  34  56  84 114 150 192 237 286 343
#
# _framework density 19.547535
#
# number of rings (size 3 to 8) (size 9 to 14) (size 15 to 20)
#    0.000    2.000    1.250    3.375    0.000    7.500 
#    0.000    3.125    0.000    5.250    0.000    0.000 
#    0.000    0.000    0.000    0.000    0.000    0.000 
#
# Total GULP energy -793726.738001 kJ/mol
# GULP energy per Si atom -12401.980281 kJ/mol
# Density = 1.950304 g / cm^3
# Si number density = 19.547535 Si / 1000 Ang^3
#
#
#
# Elastic Constant Matrix: (Units=GPa)
#
#
# Indices 1 2 3 4 5 6 
#
# 1 80.6841 41.0405 48.9214 0.0000 0.0000 0.0000
# 2 41.0405 93.6497 55.0119 0.0000 0.0000 0.0000
# 3 48.9214 55.0119 114.0300 0.0000 0.0000 0.0000
# 4 0.0000 0.0000 0.0000 12.1477 0.0000 0.0000
# 5 0.0000 0.0000 0.0000 0.0000 31.0285 0.0000
# 6 0.0000 0.0000 0.0000 0.0000 0.0000 26.8416
#
#
#
# Elastic Compliance Matrix: (Units=1/GPa)
#
#
# Indices 1 2 3 4 5 6 
#
# 1 0.018128 -0.004711 -0.005505 0.000000 0.000000 0.000000
# 2 -0.004711 0.016125 -0.005758 0.000000 0.000000 0.000000
# 3 -0.005505 -0.005758 0.013909 0.000000 0.000000 0.000000
# 4 0.000000 0.000000 0.000000 0.082320 0.000000 0.000000
# 5 0.000000 0.000000 0.000000 0.000000 0.032228 0.000000
# 6 0.000000 0.000000 0.000000 0.000000 0.000000 0.037256
#
#
# Mechanical properties :
#
#
# Convention : Reuss Voigt Hill
#
# Bulk Modulus (GPa) = 61.67183 64.25682 62.96433
# Shear Modulus (GPa) = 21.06874 23.56289 22.31581
#
# Velocity S-wave (km/s) = 3.28658 3.47567 3.38245
# Velocity P-wave (km/s) = 6.78383 7.00361 6.89459
#
# Compressibility (1/GPa) = 0.01621486
#
# Stress axis : x y z
#
# Youngs Moduli (GPa) = 55.16403 62.01551 71.89483
#
# Poissons Ratio (x) = 0.29213 0.39575
# Poissons Ratio (y) = 0.25986 0.41399
# Poissons Ratio (z) = 0.30366 0.35710
#
# Static dielectric constant tensor:
#      x y z
#    x 3.461320 0.000000 0.000000 
#    y 0.000000 3.389980 0.000000 
#    z 0.000000 0.000000 3.623760 
# 
# 
# High freq. dielectric constant tensor:
#      x y z
#    x 1.755950 0.000000 0.000000 
#    y 0.000000 1.744900 0.000000 
#    z 0.000000 0.000000 1.769300 
# 
# From -- ./inp_files/38203.got.cif
#   From: 2010.03.12/outbox.cif.g09.slc.cpg/sg53_20_cif.got.tgz:38203.got - 2010.04.16 14:36:59.
