data_PCOD8220236
_publ_section_title
;
Structure prediction by ZEFSAII (Michael W. Deem and Ramdas Pophale) SiO2 
 PCOD8220236
Probable space group: P M N A
;
_chemical_formula_sum "Si O2"
_cell_formula_units_Z 48
_cell_length_a 8.907447
_cell_length_b 30.281265
_cell_length_c 9.381413
_cell_angle_alpha 90.000000
_cell_angle_beta 90.000000
_cell_angle_gamma 90.000000
_cell_volume 2530.436924
_symmetry_space_group_name_H-M "P M N A"
_symmetry_group_IT_number 53
_symmetry_cell_setting 'orthorhombic'
loop_
_space_group_symop_operation_xyz
x,y,z
1/2-x,-y,1/2+z
x,-y,-z
1/2-x,y,1/2-z
-x,-y,-z
1/2+x,y,1/2-z
-x,y,z
1/2+x,-y,1/2+z
loop_
_atom_site_type_symbol
_atom_site_label
_atom_site_fract_x
_atom_site_fract_y
_atom_site_fract_z
Si Si1 0.674578 0.804517 0.895245
Si Si2 0.822858 0.116989 0.595117
Si Si3 0.673092 0.537779 0.400309
Si Si4 0.824881 0.957199 0.903618
Si Si5 0.325981 0.364529 0.598662
Si Si6 0.677081 0.295379 0.103638
O O1 0.750000 0.822057 0.750000
O O2 0.500000 0.806273 0.862897
O O3 0.726782 0.754810 0.932431
O O4 0.715758 0.834891 0.030477
O O5 0.750000 0.112208 0.750000
O O6 0.755581 0.082453 0.484459
O O7 0.000000 0.109010 0.610073
O O8 0.745194 0.500000 0.500000
O O9 0.750000 0.534837 0.250000
O O10 0.500000 0.527357 0.374087
O O11 0.693637 0.586580 0.470364
O O12 0.750000 0.965086 0.750000
O O13 0.000000 0.946232 0.882011
O O14 0.801461 0.000000 0.000000
O O15 0.250000 0.366117 0.750000
O O16 0.500000 0.351397 0.610847
O O17 0.238563 0.327314 0.515172
O O18 0.750000 0.311043 0.250000
O O19 0.500000 0.300019 0.114918
#
# Coordination Sequence:
#
# PCOD8220236 Si02
#       6
#     8   8   8   8   8   8
#     4   9  20  37  57  81 109 143 182 225 272 324
#     4  11  23  39  59  85 116 149 188 231 276 326
#     4   9  19  35  53  75 103 135 173 216 263 317
#     4  11  24  41  62  88 118 152 189 230 277 328
#     4  10  20  35  54  77 106 140 178 220 268 321
#     4  10  20  36  56  80 110 143 181 223 270 322
#
# _framework density 18.969055999999998
#
# number of rings (size 3 to 8) (size 9 to 14) (size 15 to 20)
#    0.000    2.000    0.000    3.000    0.000    8.333 
#    0.000    3.333    0.000    0.000    0.000    0.000 
#    0.000    0.000    0.000    0.000    0.000    0.000 
#
# Total GULP energy -595177.040673 kJ/mol
# GULP energy per Si atom -12399.521681 kJ/mol
# Density = 1.892588 g / cm^3
# Si number density = 18.969056 Si / 1000 Ang^3
#
#
#
# Elastic Constant Matrix: (Units=GPa)
#
#
# Indices 1 2 3 4 5 6 
#
# 1 93.9011 49.2895 50.1913 0.0000 0.0000 0.0000
# 2 49.2895 102.1425 56.8115 0.0000 0.0000 0.0000
# 3 50.1913 56.8115 111.0862 0.0000 0.0000 0.0000
# 4 0.0000 0.0000 0.0000 34.0936 0.0000 0.0000
# 5 0.0000 0.0000 0.0000 0.0000 37.3546 0.0000
# 6 0.0000 0.0000 0.0000 0.0000 0.0000 29.1528
#
#
#
# Elastic Compliance Matrix: (Units=1/GPa)
#
#
# Indices 1 2 3 4 5 6 
#
# 1 0.015726 -0.005082 -0.004506 0.000000 0.000000 0.000000
# 2 -0.005082 0.015325 -0.005541 0.000000 0.000000 0.000000
# 3 -0.004506 -0.005541 0.013872 0.000000 0.000000 0.000000
# 4 0.000000 0.000000 0.000000 0.029331 0.000000 0.000000
# 5 0.000000 0.000000 0.000000 0.000000 0.026770 0.000000
# 6 0.000000 0.000000 0.000000 0.000000 0.000000 0.034302
#
#
# Mechanical properties :
#
#
# Convention : Reuss Voigt Hill
#
# Bulk Modulus (GPa) = 68.19706 68.85717 68.52712
# Shear Modulus (GPa) = 29.33028 30.17603 29.75316
#
# Velocity S-wave (km/s) = 3.93646 3.99281 3.96474
# Velocity P-wave (km/s) = 7.52933 7.59179 7.56062
#
# Compressibility (1/GPa) = 0.01466339
#
# Stress axis : x y z
#
# Youngs Moduli (GPa) = 63.58969 65.25444 72.08895
#
# Poissons Ratio (x) = 0.33164 0.32484
# Poissons Ratio (y) = 0.32318 0.39944
# Poissons Ratio (z) = 0.28654 0.36157
#
# Static dielectric constant tensor:
#      x y z
#    x 3.599790 0.000000 0.000000 
#    y 0.000000 3.917110 0.000000 
#    z 0.000000 0.000000 2.789520 
# 
# 
# High freq. dielectric constant tensor:
#      x y z
#    x 1.747900 0.000000 0.000000 
#    y 0.000000 1.751970 0.000000 
#    z 0.000000 0.000000 1.734590 
# 
# From -- ./inp_files/6581.got.cif
#   From: 2010.03.12/outbox.cif.g09.slc.cpg/sg53_4_cif.got.tgz:6581.got - 2010.04.16 14:36:59.
