data_PCOD8220913
_publ_section_title
;
Structure prediction by ZEFSAII (Michael W. Deem and Ramdas Pophale) SiO2 
 PCOD8220913
Probable space group: P M N A
;
_chemical_formula_sum "Si O2"
_cell_formula_units_Z 48
_cell_length_a 9.944706
_cell_length_b 14.001655
_cell_length_c 16.657914
_cell_angle_alpha 90.000000
_cell_angle_beta 90.000000
_cell_angle_gamma 90.000000
_cell_volume 2319.486966
_symmetry_space_group_name_H-M "P M N A"
_symmetry_group_IT_number 53
_symmetry_cell_setting 'orthorhombic'
loop_
_space_group_symop_operation_xyz
x,y,z
1/2-x,-y,1/2+z
x,-y,-z
1/2-x,y,1/2-z
-x,-y,-z
1/2+x,y,1/2-z
-x,y,z
1/2+x,-y,1/2+z
loop_
_atom_site_type_symbol
_atom_site_label
_atom_site_fract_x
_atom_site_fract_y
_atom_site_fract_z
Si Si1 0.258626 0.688568 0.900323
Si Si2 0.000000 0.807284 0.877725
Si Si3 0.650468 0.488821 0.595072
Si Si4 0.000000 0.993135 0.671155
Si Si5 0.653616 0.323681 0.920420
Si Si6 0.000000 0.780519 0.688256
Si Si7 0.000000 0.021604 0.859954
Si Si8 0.237709 0.125830 0.655523
O O1 0.204276 0.587385 0.867088
O O2 0.364039 0.726271 0.835174
O O3 0.133433 0.759578 0.914213
O O4 0.335615 0.675437 0.983845
O O5 0.000000 0.792934 0.782835
O O6 0.000000 0.918790 0.903942
O O7 0.645616 0.500000 0.500000
O O8 0.500000 0.466816 0.627705
O O9 0.749968 0.403071 0.619814
O O10 0.000000 0.999520 0.766345
O O11 0.130373 0.044056 0.635772
O O12 0.000000 0.883134 0.643881
O O13 0.500000 0.346749 0.896394
O O14 0.696107 0.222023 0.887316
O O15 0.126505 0.086169 0.883833
O O16 0.250000 0.145991 0.750000
#
# Coordination Sequence:
#
# PCOD8220913 Si02
#       8
#     8   4   8   4   8   4   4   8
#     4  11  22  39  62  91 122 155 199 248 297 354
#     4  11  22  41  61  85 124 158 206 247 291 349
#     4   9  20  38  62  86 116 157 194 232 290 362
#     4   9  18  37  58  81 120 160 203 235 288 359
#     4  11  23  39  63  90 119 156 199 247 298 355
#     4  11  22  37  63  91 118 164 202 241 293 355
#     4   9  20  35  60  85 108 166 207 235 282 365
#     4  10  20  38  61  86 119 155 199 246 294 351
#
# _framework density 20.694233000000001
#
# number of rings (size 3 to 8) (size 9 to 14) (size 15 to 20)
#    0.000    1.833    2.500    1.500    3.500    3.667 
#    0.000    6.667    0.000    0.000    0.000    0.000 
#    0.000    0.000    0.000    0.000    0.000    0.000 
#
# Total GULP energy -595315.285451 kJ/mol
# GULP energy per Si atom -12402.401780 kJ/mol
# Density = 2.064713 g / cm^3
# Si number density = 20.694233 Si / 1000 Ang^3
#
#
#
# Elastic Constant Matrix: (Units=GPa)
#
#
# Indices 1 2 3 4 5 6 
#
# 1 189.6181 83.3436 8.2855 0.0000 0.0000 0.0000
# 2 83.3436 157.8820 12.9199 0.0000 0.0000 0.0000
# 3 8.2855 12.9199 18.2085 0.0000 0.0000 0.0000
# 4 0.0000 0.0000 0.0000 18.5373 0.0000 0.0000
# 5 0.0000 0.0000 0.0000 0.0000 35.7073 0.0000
# 6 0.0000 0.0000 0.0000 0.0000 0.0000 45.5615
#
#
#
# Elastic Compliance Matrix: (Units=1/GPa)
#
#
# Indices 1 2 3 4 5 6 
#
# 1 0.006873 -0.003580 -0.000587 0.000000 0.000000 0.000000
# 2 -0.003580 0.008589 -0.004465 0.000000 0.000000 0.000000
# 3 -0.000587 -0.004465 0.058355 0.000000 0.000000 0.000000
# 4 0.000000 0.000000 0.000000 0.053945 0.000000 0.000000
# 5 0.000000 0.000000 0.000000 0.000000 0.028005 0.000000
# 6 0.000000 0.000000 0.000000 0.000000 0.000000 0.021948
#
#
# Mechanical properties :
#
#
# Convention : Reuss Voigt Hill
#
# Bulk Modulus (GPa) = 17.68285 63.86738 40.77511
# Shear Modulus (GPa) = 23.38281 37.37187 30.37734
#
# Velocity S-wave (km/s) = 3.36507 4.25421 3.83549
# Velocity P-wave (km/s) = 4.86433 7.42027 6.27384
#
# Compressibility (1/GPa) = 0.05655198
#
# Stress axis : x y z
#
# Youngs Moduli (GPa) = 145.49707 116.42607 17.13644
#
# Poissons Ratio (x) = 0.41682 0.01006
# Poissons Ratio (y) = 0.52089 0.07652
# Poissons Ratio (z) = 0.08543 0.51989
#
# Static dielectric constant tensor:
#      x y z
#    x 3.753180 0.000000 0.000000 
#    y 0.000000 3.988680 0.000000 
#    z 0.000000 0.000000 3.296880 
# 
# 
# High freq. dielectric constant tensor:
#      x y z
#    x 1.831020 0.000000 0.000000 
#    y 0.000000 1.823470 0.000000 
#    z 0.000000 0.000000 1.768340 
# 
# From -- ./inp_files/26357.got.cif
#   From: 2010.03.12/outbox.cif.g09.slc.cpg/sg53_14_cif.got.tgz:26357.got - 2010.04.16 14:36:59.
