data_PCOD8220908
_publ_section_title
;
Structure prediction by ZEFSAII (Michael W. Deem and Ramdas Pophale) SiO2 
 PCOD8220908
Probable space group: P M N A
;
_chemical_formula_sum "Si O2"
_cell_formula_units_Z 48
_cell_length_a 16.807256
_cell_length_b 15.285383
_cell_length_c 9.022229
_cell_angle_alpha 90.000000
_cell_angle_beta 90.000000
_cell_angle_gamma 90.000000
_cell_volume 2317.858855
_symmetry_space_group_name_H-M "P M N A"
_symmetry_group_IT_number 53
_symmetry_cell_setting 'orthorhombic'
loop_
_space_group_symop_operation_xyz
x,y,z
1/2-x,-y,1/2+z
x,-y,-z
1/2-x,y,1/2-z
-x,-y,-z
1/2+x,y,1/2-z
-x,y,z
1/2+x,-y,1/2+z
loop_
_atom_site_type_symbol
_atom_site_label
_atom_site_fract_x
_atom_site_fract_y
_atom_site_fract_z
Si Si1 0.408823 0.815935 0.350471
Si Si2 0.905659 0.659304 0.626145
Si Si3 0.330248 0.992045 0.327974
Si Si4 0.591653 0.505414 0.662602
Si Si5 0.408039 0.829987 0.686902
Si Si6 0.662667 0.343369 0.806638
O O1 0.500000 0.791522 0.322709
O O2 0.395148 0.916145 0.301345
O O3 0.383776 0.800918 0.521235
O O4 0.355173 0.753517 0.250641
O O5 0.873582 0.583465 0.735939
O O6 0.888590 0.752404 0.701057
O O7 0.849187 0.654403 0.483120
O O8 0.000000 0.648578 0.587688
O O9 0.250000 0.962651 0.250000
O O10 0.312256 0.000000 0.500000
O O11 0.360774 0.083810 0.261063
O O12 0.632992 0.500000 0.500000
O O13 0.500000 0.528574 0.639820
O O14 0.600567 0.412534 0.741198
O O15 0.500000 0.855891 0.687162
O O16 0.750000 0.371290 0.750000
#
# Coordination Sequence:
#
# PCOD8220908 Si02
#       6
#     8   8   8   8   8   8
#     4  10  20  38  61  82 110 151 199 243 284 339
#     4  10  21  39  63  88 116 151 194 242 288 340
#     4  10  21  36  56  84 118 152 187 233 290 348
#     4  10  21  40  65  89 114 151 198 242 286 341
#     4   9  19  37  61  86 110 146 196 244 288 337
#     4  12  25  38  55  85 122 156 190 235 293 350
#
# _framework density 20.708769
#
# number of rings (size 3 to 8) (size 9 to 14) (size 15 to 20)
#    0.000    1.833    0.000    4.000    0.000   11.333 
#    0.000    2.500    0.000    4.000    0.000    0.000 
#    0.000    0.000    0.000    0.000    0.000    0.000 
#
# Total GULP energy -595289.012166 kJ/mol
# GULP energy per Si atom -12401.854420 kJ/mol
# Density = 2.066163 g / cm^3
# Si number density = 20.708769 Si / 1000 Ang^3
#
#
#
# Elastic Constant Matrix: (Units=GPa)
#
#
# Indices 1 2 3 4 5 6 
#
# 1 52.7510 19.9561 38.4226 0.0000 0.0000 0.0000
# 2 19.9561 118.6118 67.7294 0.0000 0.0000 0.0000
# 3 38.4226 67.7294 136.1585 0.0000 0.0000 0.0000
# 4 0.0000 0.0000 0.0000 29.8594 0.0000 0.0000
# 5 0.0000 0.0000 0.0000 0.0000 29.4291 0.0000
# 6 0.0000 0.0000 0.0000 0.0000 0.0000 24.1292
#
#
#
# Elastic Compliance Matrix: (Units=1/GPa)
#
#
# Indices 1 2 3 4 5 6 
#
# 1 0.023866 -0.000237 -0.006617 0.000000 0.000000 0.000000
# 2 -0.000237 0.011778 -0.005792 0.000000 0.000000 0.000000
# 3 -0.006617 -0.005792 0.012093 0.000000 0.000000 0.000000
# 4 0.000000 0.000000 0.000000 0.033490 0.000000 0.000000
# 5 0.000000 0.000000 0.000000 0.000000 0.033980 0.000000
# 6 0.000000 0.000000 0.000000 0.000000 0.000000 0.041443
#
#
# Mechanical properties :
#
#
# Convention : Reuss Voigt Hill
#
# Bulk Modulus (GPa) = 44.55277 62.19305 53.37291
# Shear Modulus (GPa) = 26.39581 28.77776 27.58679
#
# Velocity S-wave (km/s) = 3.57406 3.73183 3.65380
# Velocity P-wave (km/s) = 6.21229 6.97612 6.60525
#
# Compressibility (1/GPa) = 0.02244529
#
# Stress axis : x y z
#
# Youngs Moduli (GPa) = 41.90013 84.90418 82.69501
#
# Poissons Ratio (x) = 0.02013 0.54718
# Poissons Ratio (y) = 0.00993 0.47895
# Poissons Ratio (z) = 0.27725 0.49175
#
# Static dielectric constant tensor:
#      x y z
#    x 3.495930 0.000000 0.000000 
#    y 0.000000 3.801310 0.000000 
#    z 0.000000 0.000000 3.824830 
# 
# 
# High freq. dielectric constant tensor:
#      x y z
#    x 1.791130 0.000000 0.000000 
#    y 0.000000 1.825220 0.000000 
#    z 0.000000 0.000000 1.810570 
# 
# From -- ./inp_files/9931.got.cif
#   From: 2010.03.12/outbox.cif.g09.slc.cpg/sg53_5_cif.got.tgz:9931.got - 2010.04.16 14:36:59.
