data_PCOD8220114
_publ_section_title
;
Structure prediction by ZEFSAII (Michael W. Deem and Ramdas Pophale) SiO2 
 PCOD8220114
Probable space group: P M N A
;
_chemical_formula_sum "Si O2"
_cell_formula_units_Z 48
_cell_length_a 8.775835
_cell_length_b 15.633448
_cell_length_c 18.276656
_cell_angle_alpha 90.000000
_cell_angle_beta 90.000000
_cell_angle_gamma 90.000000
_cell_volume 2507.494334
_symmetry_space_group_name_H-M "P M N A"
_symmetry_group_IT_number 53
_symmetry_cell_setting 'orthorhombic'
loop_
_space_group_symop_operation_xyz
x,y,z
1/2-x,-y,1/2+z
x,-y,-z
1/2-x,y,1/2-z
-x,-y,-z
1/2+x,y,1/2-z
-x,y,z
1/2+x,-y,1/2+z
loop_
_atom_site_type_symbol
_atom_site_label
_atom_site_fract_x
_atom_site_fract_y
_atom_site_fract_z
Si Si1 0.319040 0.157023 0.924114
Si Si2 0.678265 0.686895 0.170745
Si Si3 0.821542 0.500727 0.670706
Si Si4 0.680432 0.172018 0.089610
Si Si5 0.819974 0.330533 0.169480
Si Si6 0.180081 0.999289 0.670955
O O1 0.500000 0.156861 0.923209
O O2 0.255100 0.242332 0.884572
O O3 0.256603 0.073529 0.882237
O O4 0.262030 0.154632 0.007377
O O5 0.750000 0.699098 0.250000
O O6 0.500000 0.699950 0.182164
O O7 0.710345 0.592653 0.135078
O O8 0.750000 0.495425 0.750000
O O9 0.738963 0.580866 0.631204
O O10 0.000000 0.520728 0.675129
O O11 0.500000 0.187999 0.093184
O O12 0.768101 0.254174 0.118168
O O13 0.730349 0.091718 0.138654
O O14 0.750000 0.318980 0.250000
O O15 0.000000 0.331736 0.176396
O O16 0.250000 0.012817 0.750000
O O17 0.000000 0.005254 0.677478
#
# Coordination Sequence:
#
# PCOD8220114 Si02
#       6
#     8   8   8   8   8   8
#     4   9  18  34  54  76 103 136 173 208 248 303
#     4   9  17  30  51  77 103 133 170 212 255 301
#     4   9  16  28  48  74 101 130 167 210 255 299
#     4  10  20  35  54  75 103 138 173 210 251 298
#     4  11  21  34  53  76 102 133 171 213 256 302
#     4  10  20  34  55  80 103 132 170 211 254 300
#
# _framework density 19.142616
#
# number of rings (size 3 to 8) (size 9 to 14) (size 15 to 20)
#    0.000    2.333    0.000    4.500    0.000    4.667 
#    0.000    2.500    0.000    7.000    0.000    0.000 
#    0.000    0.000    0.000    0.000    0.000    0.000 
#
# Total GULP energy -594994.253541 kJ/mol
# GULP energy per Si atom -12395.713615 kJ/mol
# Density = 1.909905 g / cm^3
# Si number density = 19.142616 Si / 1000 Ang^3
#
#
#
# Elastic Constant Matrix: (Units=GPa)
#
#
# Indices 1 2 3 4 5 6 
#
# 1 61.3103 35.4039 19.0364 0.0000 0.0000 0.0000
# 2 35.4039 133.3120 31.3955 0.0000 0.0000 0.0000
# 3 19.0364 31.3955 82.1989 0.0000 0.0000 0.0000
# 4 0.0000 0.0000 0.0000 14.4850 0.0000 0.0000
# 5 0.0000 0.0000 0.0000 0.0000 23.2903 0.0000
# 6 0.0000 0.0000 0.0000 0.0000 0.0000 19.7096
#
#
#
# Elastic Compliance Matrix: (Units=1/GPa)
#
#
# Indices 1 2 3 4 5 6 
#
# 1 0.019850 -0.004603 -0.002839 0.000000 0.000000 0.000000
# 2 -0.004603 0.009310 -0.002490 0.000000 0.000000 0.000000
# 3 -0.002839 -0.002490 0.013774 0.000000 0.000000 0.000000
# 4 0.000000 0.000000 0.000000 0.069037 0.000000 0.000000
# 5 0.000000 0.000000 0.000000 0.000000 0.042936 0.000000
# 6 0.000000 0.000000 0.000000 0.000000 0.000000 0.050737
#
#
# Mechanical properties :
#
#
# Convention : Reuss Voigt Hill
#
# Bulk Modulus (GPa) = 43.34568 49.83252 46.58910
# Shear Modulus (GPa) = 21.44105 24.22936 22.83521
#
# Velocity S-wave (km/s) = 3.35037 3.56157 3.45758
# Velocity P-wave (km/s) = 6.13672 6.55757 6.35064
#
# Compressibility (1/GPa) = 0.02307035
#
# Stress axis : x y z
#
# Youngs Moduli (GPa) = 50.37788 107.41131 72.60007
#
# Poissons Ratio (x) = 0.49441 0.20611
# Poissons Ratio (y) = 0.23189 0.18077
# Poissons Ratio (z) = 0.14302 0.26744
#
# Static dielectric constant tensor:
#      x y z
#    x 3.339110 0.000000 0.000000 
#    y 0.000000 4.326600 0.000000 
#    z 0.000000 0.000000 3.404070 
# 
# 
# High freq. dielectric constant tensor:
#      x y z
#    x 1.724110 0.000000 0.000000 
#    y 0.000000 1.772860 0.000000 
#    z 0.000000 0.000000 1.720570 
# 
# From -- ./inp_files/26214.got.cif
#   From: 2010.03.12/outbox.cif.g09.slc.cpg/sg53_14_cif.got.tgz:26214.got - 2010.04.16 14:36:59.
