data_PCOD8220698
_publ_section_title
;
Structure prediction by ZEFSAII (Michael W. Deem and Ramdas Pophale) SiO2 
 PCOD8220698
Probable space group: P M N A
;
_chemical_formula_sum "Si O2"
_cell_formula_units_Z 24
_cell_length_a 27.155041
_cell_length_b 4.997733
_cell_length_c 7.704403
_cell_angle_alpha 90.000000
_cell_angle_beta 90.000000
_cell_angle_gamma 90.000000
_cell_volume 1045.592610
_symmetry_space_group_name_H-M "P M N A"
_symmetry_group_IT_number 53
_symmetry_cell_setting 'orthorhombic'
loop_
_space_group_symop_operation_xyz
x,y,z
1/2-x,-y,1/2+z
x,-y,-z
1/2-x,y,1/2-z
-x,-y,-z
1/2+x,y,1/2-z
-x,y,z
1/2+x,-y,1/2+z
loop_
_atom_site_type_symbol
_atom_site_label
_atom_site_fract_x
_atom_site_fract_y
_atom_site_fract_z
Si Si1 0.385277 0.011924 0.705319
Si Si2 0.289550 0.239338 0.889285
Si Si3 0.945580 0.491750 0.205555
O O1 0.335805 0.095401 0.800649
O O2 0.427359 0.218456 0.764055
O O3 0.375256 0.000000 0.500000
O O4 0.405564 0.725694 0.770062
O O5 0.250000 0.342656 0.750000
O O6 0.305062 0.500000 0.000000
O O7 0.264524 0.000000 0.000000
O O8 0.000000 0.434075 0.283357
O O9 0.948810 0.500000 0.000000
#
# Coordination Sequence:
#
# PCOD8220698 Si02
#       3
#     8   8   8
#     4  10  20  36  61  90 122 159 203 252 301 355
#     4  12  26  44  66  91 123 160 205 256 313 375
#     4   9  17  31  56  90 123 158 203 250 292 346
#
# _framework density 22.953486999999999
#
# number of rings (size 3 to 8) (size 9 to 14) (size 15 to 20)
#    0.000    1.667    0.000    5.000    0.000    8.000 
#    0.000    0.000    0.000   20.000    0.000    0.000 
#    0.000    0.000    0.000    0.000    0.000    0.000 
#
# Total GULP energy -297511.983594 kJ/mol
# GULP energy per Si atom -12396.332650 kJ/mol
# Density = 2.290124 g / cm^3
# Si number density = 22.953487 Si / 1000 Ang^3
#
#
#
# Elastic Constant Matrix: (Units=GPa)
#
#
# Indices 1 2 3 4 5 6 
#
# 1 139.4158 41.2127 44.0940 0.0000 0.0000 0.0000
# 2 41.2127 156.9180 42.9935 0.0000 0.0000 0.0000
# 3 44.0940 42.9935 66.7859 0.0000 0.0000 0.0000
# 4 0.0000 0.0000 0.0000 28.4550 0.0000 0.0000
# 5 0.0000 0.0000 0.0000 0.0000 5.2949 0.0000
# 6 0.0000 0.0000 0.0000 0.0000 0.0000 23.1282
#
#
#
# Elastic Compliance Matrix: (Units=1/GPa)
#
#
# Indices 1 2 3 4 5 6 
#
# 1 0.009172 -0.000910 -0.005469 0.000000 0.000000 0.000000
# 2 -0.000910 0.007828 -0.004438 0.000000 0.000000 0.000000
# 3 -0.005469 -0.004438 0.021441 0.000000 0.000000 0.000000
# 4 0.000000 0.000000 0.000000 0.035143 0.000000 0.000000
# 5 0.000000 0.000000 0.000000 0.000000 0.188861 0.000000
# 6 0.000000 0.000000 0.000000 0.000000 0.000000 0.043237
#
#
# Mechanical properties :
#
#
# Convention : Reuss Voigt Hill
#
# Bulk Modulus (GPa) = 59.50561 68.85779 64.18170
# Shear Modulus (GPa) = 15.01864 27.03025 21.02444
#
# Velocity S-wave (km/s) = 2.56072 3.43535 3.02976
# Velocity P-wave (km/s) = 5.89269 6.76753 6.34521
#
# Compressibility (1/GPa) = 0.01680514
#
# Stress axis : x y z
#
# Youngs Moduli (GPa) = 109.03050 127.74921 46.63872
#
# Poissons Ratio (x) = 0.11629 0.25509
# Poissons Ratio (y) = 0.09925 0.20699
# Poissons Ratio (z) = 0.59634 0.56697
#
# Static dielectric constant tensor:
#      x y z
#    x 4.084770 0.000000 0.000000 
#    y 0.000000 4.465060 0.000000 
#    z 0.000000 0.000000 4.145300 
# 
# 
# High freq. dielectric constant tensor:
#      x y z
#    x 1.908820 0.000000 0.000000 
#    y 0.000000 1.923180 0.000000 
#    z 0.000000 0.000000 1.886680 
# 
# From -- ./inp_files/11284.got.cif
#   From: 2010.03.12/outbox.cif.g09.slc.cpg/sg53_6_cif.got.tgz:11284.got - 2010.04.16 14:36:59.
