data_PCOD8220350
_publ_section_title
;
Structure prediction by ZEFSAII (Michael W. Deem and Ramdas Pophale) SiO2 
 PCOD8220350
Probable space group: P M N A
;
_chemical_formula_sum "Si O2"
_cell_formula_units_Z 32
_cell_length_a 17.492533
_cell_length_b 6.635820
_cell_length_c 13.758346
_cell_angle_alpha 90.000000
_cell_angle_beta 90.000000
_cell_angle_gamma 90.000000
_cell_volume 1597.031661
_symmetry_space_group_name_H-M "P M N A"
_symmetry_group_IT_number 53
_symmetry_cell_setting 'orthorhombic'
loop_
_space_group_symop_operation_xyz
x,y,z
1/2-x,-y,1/2+z
x,-y,-z
1/2-x,y,1/2-z
-x,-y,-z
1/2+x,y,1/2-z
-x,y,z
1/2+x,-y,1/2+z
loop_
_atom_site_type_symbol
_atom_site_label
_atom_site_fract_x
_atom_site_fract_y
_atom_site_fract_z
Si Si1 0.324173 0.896399 0.900592
Si Si2 0.316829 0.122971 0.600410
Si Si3 0.784392 0.558936 0.854626
Si Si4 0.587961 0.854518 0.715008
O O1 0.262182 0.045112 0.849512
O O2 0.396354 0.864944 0.830478
O O3 0.279651 0.682715 0.916190
O O4 0.353700 0.000000 0.000000
O O5 0.310556 0.362485 0.584894
O O6 0.389844 0.070773 0.667692
O O7 0.323619 0.000000 0.500000
O O8 0.750000 0.497165 0.750000
O O9 0.860825 0.688634 0.838658
O O10 0.500000 0.803731 0.697181
#
# Coordination Sequence:
#
# PCOD8220350 Si02
#       4
#     8   8   8   8
#     4   9  19  34  56  83 107 138 182 228 272 320
#     4  10  20  35  57  81 105 140 186 231 273 317
#     4   9  18  36  58  79 110 146 182 227 276 326
#     4  10  21  35  52  80 115 147 179 218 271 331
#
# _framework density 20.037174
#
# number of rings (size 3 to 8) (size 9 to 14) (size 15 to 20)
#    0.000    2.500    0.000    3.750    0.000   11.000 
#    0.000    1.250    0.000    0.000    0.000   21.000 
#    0.000    0.000    0.000    0.000    0.000    0.000 
#
# Total GULP energy -396521.670907 kJ/mol
# GULP energy per Si atom -12391.302216 kJ/mol
# Density = 1.999157 g / cm^3
# Si number density = 20.037174 Si / 1000 Ang^3
#
#
#
# Elastic Constant Matrix: (Units=GPa)
#
#
# Indices 1 2 3 4 5 6 
#
# 1 84.7784 18.3490 3.9998 0.0000 0.0000 0.0000
# 2 18.3490 143.2067 40.4385 0.0000 0.0000 0.0000
# 3 3.9998 40.4385 58.9338 0.0000 0.0000 0.0000
# 4 0.0000 0.0000 0.0000 33.7034 0.0000 0.0000
# 5 0.0000 0.0000 0.0000 0.0000 21.7438 0.0000
# 6 0.0000 0.0000 0.0000 0.0000 0.0000 12.2550
#
#
#
# Elastic Compliance Matrix: (Units=1/GPa)
#
#
# Indices 1 2 3 4 5 6 
#
# 1 0.012136 -0.001640 0.000302 0.000000 0.000000 0.000000
# 2 -0.001640 0.008883 -0.005984 0.000000 0.000000 0.000000
# 3 0.000302 -0.005984 0.021054 0.000000 0.000000 0.000000
# 4 0.000000 0.000000 0.000000 0.029671 0.000000 0.000000
# 5 0.000000 0.000000 0.000000 0.000000 0.045990 0.000000
# 6 0.000000 0.000000 0.000000 0.000000 0.000000 0.081599
#
#
# Mechanical properties :
#
#
# Convention : Reuss Voigt Hill
#
# Bulk Modulus (GPa) = 36.45886 45.83264 41.14575
# Shear Modulus (GPa) = 22.40951 28.48253 25.44602
#
# Velocity S-wave (km/s) = 3.34787 3.77435 3.56749
# Velocity P-wave (km/s) = 5.76016 6.47439 6.12769
#
# Compressibility (1/GPa) = 0.02742818
#
# Stress axis : x y z
#
# Youngs Moduli (GPa) = 82.39792 112.57763 47.49787
#
# Poissons Ratio (x) = 0.18465 -0.01433
# Poissons Ratio (y) = 0.13515 0.28422
# Poissons Ratio (z) = -0.02487 0.67364
#
# Static dielectric constant tensor:
#      x y z
#    x 3.258170 0.000000 0.000000 
#    y 0.000000 3.721800 0.000000 
#    z 0.000000 0.000000 3.606460 
# 
# 
# High freq. dielectric constant tensor:
#      x y z
#    x 1.737780 0.000000 0.000000 
#    y 0.000000 1.782470 0.000000 
#    z 0.000000 0.000000 1.791400 
# 
# From -- ./inp_files/23168.got.cif
#   From: 2010.03.12/outbox.cif.g09.slc.cpg/sg53_12_cif.got.tgz:23168.got - 2010.04.16 14:36:59.
