data_PCOD8220247
_publ_section_title
;
Structure prediction by ZEFSAII (Michael W. Deem and Ramdas Pophale) SiO2 
 PCOD8220247
Probable space group: P M N A
;
_chemical_formula_sum "Si O2"
_cell_formula_units_Z 64
_cell_length_a 8.844434
_cell_length_b 19.630305
_cell_length_c 20.227525
_cell_angle_alpha 90.000000
_cell_angle_beta 90.000000
_cell_angle_gamma 90.000000
_cell_volume 3511.881388
_symmetry_space_group_name_H-M "P M N A"
_symmetry_group_IT_number 53
_symmetry_cell_setting 'orthorhombic'
loop_
_space_group_symop_operation_xyz
x,y,z
1/2-x,-y,1/2+z
x,-y,-z
1/2-x,y,1/2-z
-x,-y,-z
1/2+x,y,1/2-z
-x,y,z
1/2+x,-y,1/2+z
loop_
_atom_site_type_symbol
_atom_site_label
_atom_site_fract_x
_atom_site_fract_y
_atom_site_fract_z
Si Si1 0.679184 0.666021 0.423559
Si Si2 0.178371 0.029098 0.068530
Si Si3 0.679011 0.400367 0.318855
Si Si4 0.673813 0.164102 0.041956
Si Si5 0.678790 0.682408 0.937462
Si Si6 0.323603 0.444176 0.682612
Si Si7 0.179805 0.073519 0.818959
Si Si8 0.822272 0.193990 0.607192
O O1 0.500000 0.674169 0.430385
O O2 0.749997 0.653225 0.495381
O O3 0.726595 0.601542 0.379203
O O4 0.747536 0.732053 0.388028
O O5 0.231382 0.106570 0.079807
O O6 0.000000 0.028310 0.065408
O O7 0.236077 0.982401 0.128345
O O8 0.247067 0.000000 0.000000
O O9 0.750000 0.375170 0.250000
O O10 0.500000 0.390261 0.316859
O O11 0.749337 0.355524 0.376203
O O12 0.726204 0.478437 0.332399
O O13 0.500000 0.148311 0.055129
O O14 0.718616 0.237821 0.070408
O O15 0.711527 0.161530 0.964219
O O16 0.500000 0.670924 0.940657
O O17 0.250000 0.416729 0.750000
O O18 0.500000 0.439427 0.694270
O O19 0.250000 0.049975 0.750000
O O20 0.245804 0.147164 0.837627
O O21 0.000000 0.078079 0.814584
O O22 0.000000 0.201018 0.620503
#
# Coordination Sequence:
#
# PCOD8220247 Si02
#       8
#     8   8   8   8   8   8   8   8
#     4  10  20  35  55  81 113 149 185 229 278 326
#     4  10  20  35  57  83 107 137 180 226 270 324
#     4  10  20  37  59  82 108 144 185 230 281 336
#     4   9  19  34  55  81 108 138 177 222 267 320
#     4  10  21  37  55  83 115 145 185 231 277 330
#     4   9  20  36  55  79 108 143 187 229 275 334
#     4  11  23  38  55  79 111 145 181 225 273 325
#     4  10  20  35  54  79 109 143 181 222 269 326
#
# _framework density 18.223851
#
# number of rings (size 3 to 8) (size 9 to 14) (size 15 to 20)
#    0.000    2.125    1.250    2.625    0.000    6.250 
#    0.000    4.375    0.000    1.500    0.000    0.000 
#    0.000    0.000    0.000    0.000    0.000    0.000 
#
# Total GULP energy -793782.663373 kJ/mol
# GULP energy per Si atom -12402.854115 kJ/mol
# Density = 1.818237 g / cm^3
# Si number density = 18.223851 Si / 1000 Ang^3
#
#
#
# Elastic Constant Matrix: (Units=GPa)
#
#
# Indices 1 2 3 4 5 6 
#
# 1 74.4785 45.6683 56.7730 0.0000 0.0000 0.0000
# 2 45.6683 107.7195 83.6530 0.0000 0.0000 0.0000
# 3 56.7730 83.6530 144.3332 0.0000 0.0000 0.0000
# 4 0.0000 0.0000 0.0000 30.7894 0.0000 0.0000
# 5 0.0000 0.0000 0.0000 0.0000 33.7393 0.0000
# 6 0.0000 0.0000 0.0000 0.0000 0.0000 27.5370
#
#
#
# Elastic Compliance Matrix: (Units=1/GPa)
#
#
# Indices 1 2 3 4 5 6 
#
# 1 0.020244 -0.004362 -0.005435 0.000000 0.000000 0.000000
# 2 -0.004362 0.017822 -0.008613 0.000000 0.000000 0.000000
# 3 -0.005435 -0.008613 0.014058 0.000000 0.000000 0.000000
# 4 0.000000 0.000000 0.000000 0.032479 0.000000 0.000000
# 5 0.000000 0.000000 0.000000 0.000000 0.029639 0.000000
# 6 0.000000 0.000000 0.000000 0.000000 0.000000 0.036315
#
#
# Mechanical properties :
#
#
# Convention : Reuss Voigt Hill
#
# Bulk Modulus (GPa) = 65.34339 77.63554 71.48946
# Shear Modulus (GPa) = 25.97695 27.77560 26.87628
#
# Velocity S-wave (km/s) = 3.77959 3.90825 3.84446
# Velocity P-wave (km/s) = 7.41491 7.94100 7.68246
#
# Compressibility (1/GPa) = 0.01530377
#
# Stress axis : x y z
#
# Youngs Moduli (GPa) = 49.39679 56.11161 71.13238
#
# Poissons Ratio (x) = 0.24476 0.38659
# Poissons Ratio (y) = 0.21547 0.61268
# Poissons Ratio (z) = 0.26846 0.48331
#
# Static dielectric constant tensor:
#      x y z
#    x 3.362580 0.000000 0.000000 
#    y 0.000000 3.455550 0.000000 
#    z 0.000000 0.000000 3.345710 
# 
# 
# High freq. dielectric constant tensor:
#      x y z
#    x 1.714300 0.000000 0.000000 
#    y 0.000000 1.708950 0.000000 
#    z 0.000000 0.000000 1.698900 
# 
# From -- ./inp_files/31263.got.cif
#   From: 2010.03.12/outbox.cif.g09.slc.cpg/sg53_16_cif.got.tgz:31263.got - 2010.04.16 14:36:59.
