data_PCOD8220232
_publ_section_title
;
Structure prediction by ZEFSAII (Michael W. Deem and Ramdas Pophale) SiO2 
 PCOD8220232
Probable space group: P M N A
;
_chemical_formula_sum "Si O2"
_cell_formula_units_Z 48
_cell_length_a 8.765852
_cell_length_b 30.580228
_cell_length_c 9.379141
_cell_angle_alpha 90.000000
_cell_angle_beta 90.000000
_cell_angle_gamma 90.000000
_cell_volume 2514.188976
_symmetry_space_group_name_H-M "P M N A"
_symmetry_group_IT_number 53
_symmetry_cell_setting 'orthorhombic'
loop_
_space_group_symop_operation_xyz
x,y,z
1/2-x,-y,1/2+z
x,-y,-z
1/2-x,y,1/2-z
-x,-y,-z
1/2+x,y,1/2-z
-x,y,z
1/2+x,-y,1/2+z
loop_
_atom_site_type_symbol
_atom_site_label
_atom_site_fract_x
_atom_site_fract_y
_atom_site_fract_z
Si Si1 0.180110 0.959082 0.904379
Si Si2 0.319258 0.305345 0.901398
Si Si3 0.679741 0.459469 0.593461
Si Si4 0.319417 0.623137 0.595221
Si Si5 0.318959 0.870952 0.904444
Si Si6 0.821147 0.206138 0.603502
O O1 0.250000 0.967256 0.750000
O O2 0.251520 0.915211 0.975017
O O3 0.000000 0.953298 0.891425
O O4 0.227014 0.000000 0.000000
O O5 0.250000 0.320670 0.750000
O O6 0.500000 0.311933 0.895245
O O7 0.270659 0.255450 0.934846
O O8 0.249195 0.332630 0.030759
O O9 0.741773 0.500000 0.500000
O O10 0.750000 0.459910 0.750000
O O11 0.500000 0.462771 0.612184
O O12 0.728580 0.415806 0.510534
O O13 0.250000 0.613897 0.750000
O O14 0.500000 0.627444 0.609891
O O15 0.250000 0.866024 0.750000
O O16 0.500000 0.874417 0.898869
O O17 0.262313 0.827856 0.986339
O O18 0.750000 0.190337 0.750000
O O19 0.000000 0.203909 0.620831
#
# Coordination Sequence:
#
# PCOD8220232 Si02
#       6
#     8   8   8   8   8   8
#     4  10  21  36  54  77 104 136 174 214 260 313
#     4  10  20  37  58  81 111 145 183 225 272 324
#     4  10  22  39  59  84 113 146 184 226 274 326
#     4  11  23  38  57  83 113 146 186 229 275 326
#     4  10  20  35  54  77 105 137 174 215 262 313
#     4   9  20  36  55  80 108 140 178 220 265 316
#
# _framework density 19.091645
#
# number of rings (size 3 to 8) (size 9 to 14) (size 15 to 20)
#    0.000    2.000    0.000    4.000    0.000    7.667 
#    0.000    5.000    0.000    0.000    0.000    0.000 
#    0.000    0.000    0.000    0.000    0.000    0.000 
#
# Total GULP energy -595268.624787 kJ/mol
# GULP energy per Si atom -12401.429683 kJ/mol
# Density = 1.904819 g / cm^3
# Si number density = 19.091645 Si / 1000 Ang^3
#
#
#
# Elastic Constant Matrix: (Units=GPa)
#
#
# Indices 1 2 3 4 5 6 
#
# 1 67.5681 49.1232 46.8134 0.0000 0.0000 0.0000
# 2 49.1232 142.6557 83.9430 0.0000 0.0000 0.0000
# 3 46.8134 83.9430 130.3413 0.0000 0.0000 0.0000
# 4 0.0000 0.0000 0.0000 42.8723 0.0000 0.0000
# 5 0.0000 0.0000 0.0000 0.0000 33.4247 0.0000
# 6 0.0000 0.0000 0.0000 0.0000 0.0000 31.0948
#
#
#
# Elastic Compliance Matrix: (Units=1/GPa)
#
#
# Indices 1 2 3 4 5 6 
#
# 1 0.021417 -0.004587 -0.004738 0.000000 0.000000 0.000000
# 2 -0.004587 0.012270 -0.006255 0.000000 0.000000 0.000000
# 3 -0.004738 -0.006255 0.013402 0.000000 0.000000 0.000000
# 4 0.000000 0.000000 0.000000 0.023325 0.000000 0.000000
# 5 0.000000 0.000000 0.000000 0.000000 0.029918 0.000000
# 6 0.000000 0.000000 0.000000 0.000000 0.000000 0.032160
#
#
# Mechanical properties :
#
#
# Convention : Reuss Voigt Hill
#
# Bulk Modulus (GPa) = 62.77539 77.81382 70.29460
# Shear Modulus (GPa) = 29.59255 32.19073 30.89164
#
# Velocity S-wave (km/s) = 3.94131 4.11069 4.02689
# Velocity P-wave (km/s) = 7.32560 7.96096 7.64988
#
# Compressibility (1/GPa) = 0.01592981
#
# Stress axis : x y z
#
# Youngs Moduli (GPa) = 46.69093 81.50095 74.61555
#
# Poissons Ratio (x) = 0.37384 0.35354
# Poissons Ratio (y) = 0.21417 0.46669
# Poissons Ratio (z) = 0.22123 0.50976
#
# Static dielectric constant tensor:
#      x y z
#    x 3.533190 0.000000 0.000000 
#    y 0.000000 3.961110 0.000000 
#    z 0.000000 0.000000 3.450770 
# 
# 
# High freq. dielectric constant tensor:
#      x y z
#    x 1.749160 0.000000 0.000000 
#    y 0.000000 1.759260 0.000000 
#    z 0.000000 0.000000 1.740170 
# 
# From -- ./inp_files/6652.got.cif
#   From: 2010.03.12/outbox.cif.g09.slc.cpg/sg53_4_cif.got.tgz:6652.got - 2010.04.16 14:36:59.
