data_PCOD8220256
_publ_section_title
;
Structure prediction by ZEFSAII (Michael W. Deem and Ramdas Pophale) SiO2 
 PCOD8220256
Probable space group: P M N A
;
_chemical_formula_sum "Si O2"
_cell_formula_units_Z 40
_cell_length_a 8.843843
_cell_length_b 25.317333
_cell_length_c 9.688173
_cell_angle_alpha 90.000000
_cell_angle_beta 90.000000
_cell_angle_gamma 90.000000
_cell_volume 2169.206332
_symmetry_space_group_name_H-M "P M N A"
_symmetry_group_IT_number 53
_symmetry_cell_setting 'orthorhombic'
loop_
_space_group_symop_operation_xyz
x,y,z
1/2-x,-y,1/2+z
x,-y,-z
1/2-x,y,1/2-z
-x,-y,-z
1/2+x,y,1/2-z
-x,y,z
1/2+x,-y,1/2+z
loop_
_atom_site_type_symbol
_atom_site_label
_atom_site_fract_x
_atom_site_fract_y
_atom_site_fract_z
Si Si1 0.820598 0.655747 0.396887
Si Si2 0.678189 0.957536 0.107231
Si Si3 0.677768 0.454020 0.606099
Si Si4 0.822020 0.251044 0.399916
Si Si5 0.678199 0.838487 0.105000
O O1 0.750000 0.672421 0.250000
O O2 0.754386 0.599826 0.447087
O O3 0.773071 0.697854 0.512517
O O4 0.000000 0.652023 0.379549
O O5 0.750000 0.974312 0.250000
O O6 0.500000 0.961697 0.120771
O O7 0.726871 0.898132 0.064974
O O8 0.742819 0.000000 0.000000
O O9 0.715379 0.500000 0.500000
O O10 0.750000 0.471683 0.750000
O O11 0.500000 0.444552 0.624336
O O12 0.750000 0.253115 0.250000
O O13 0.763696 0.199424 0.482666
O O14 0.000000 0.248832 0.380109
O O15 0.750000 0.820983 0.250000
O O16 0.500000 0.832992 0.123835
#
# Coordination Sequence:
#
# PCOD8220256 Si02
#       5
#     8   8   8   8   8
#     4  10  20  35  55  77 101 132 170 208 248 297
#     4   9  18  32  50  73 101 132 167 208 251 297
#     4  10  21  36  55  79 105 135 170 206 248 297
#     4  10  22  36  51  75 104 133 166 207 254 300
#     4   9  18  34  53  73  99 132 170 208 249 299
#
# _framework density 18.439924999999999
#
# number of rings (size 3 to 8) (size 9 to 14) (size 15 to 20)
#    0.000    2.400    0.000    3.000    0.000    6.000 
#    0.000    4.000    0.000    0.000    0.000    0.000 
#    0.000    0.000    0.000    0.000    0.000    0.000 
#
# Total GULP energy -496004.228879 kJ/mol
# GULP energy per Si atom -12400.105722 kJ/mol
# Density = 1.839795 g / cm^3
# Si number density = 18.439925 Si / 1000 Ang^3
#
#
#
# Elastic Constant Matrix: (Units=GPa)
#
#
# Indices 1 2 3 4 5 6 
#
# 1 54.0836 48.7668 50.7889 0.0000 0.0000 0.0000
# 2 48.7668 153.1465 120.5244 0.0000 0.0000 0.0000
# 3 50.7889 120.5244 167.1455 0.0000 0.0000 0.0000
# 4 0.0000 0.0000 0.0000 43.4470 0.0000 0.0000
# 5 0.0000 0.0000 0.0000 0.0000 34.5864 0.0000
# 6 0.0000 0.0000 0.0000 0.0000 0.0000 8.4241
#
#
#
# Elastic Compliance Matrix: (Units=1/GPa)
#
#
# Indices 1 2 3 4 5 6 
#
# 1 0.027454 -0.005033 -0.004713 0.000000 0.000000 0.000000
# 2 -0.005033 0.016020 -0.010022 0.000000 0.000000 0.000000
# 3 -0.004713 -0.010022 0.014641 0.000000 0.000000 0.000000
# 4 0.000000 0.000000 0.000000 0.023017 0.000000 0.000000
# 5 0.000000 0.000000 0.000000 0.000000 0.028913 0.000000
# 6 0.000000 0.000000 0.000000 0.000000 0.000000 0.118707
#
#
# Mechanical properties :
#
#
# Convention : Reuss Voigt Hill
#
# Bulk Modulus (GPa) = 53.82420 90.50396 72.16408
# Shear Modulus (GPa) = 18.21619 27.57787 22.89703
#
# Velocity S-wave (km/s) = 3.14644 3.87143 3.52761
# Velocity P-wave (km/s) = 6.51556 8.31691 7.47072
#
# Compressibility (1/GPa) = 0.01857900
#
# Stress axis : x y z
#
# Youngs Moduli (GPa) = 36.42442 62.42368 68.29978
#
# Poissons Ratio (x) = 0.31420 0.32188
# Poissons Ratio (y) = 0.18334 0.68449
# Poissons Ratio (z) = 0.17166 0.62560
#
# Static dielectric constant tensor:
#      x y z
#    x 3.353330 0.000000 0.000000 
#    y 0.000000 3.686630 0.000000 
#    z 0.000000 0.000000 3.411050 
# 
# 
# High freq. dielectric constant tensor:
#      x y z
#    x 1.714550 0.000000 0.000000 
#    y 0.000000 1.728840 0.000000 
#    z 0.000000 0.000000 1.712080 
# 
# From -- ./inp_files/6312.got.cif
#   From: 2010.03.12/outbox.cif.g09.slc.cpg/sg53_4_cif.got.tgz:6312.got - 2010.04.16 14:36:59.
