data_PCOD8220126
_publ_section_title
;
Structure prediction by ZEFSAII (Michael W. Deem and Ramdas Pophale) SiO2 
 PCOD8220126
Probable space group: P M N A
;
_chemical_formula_sum "Si O2"
_cell_formula_units_Z 56
_cell_length_a 8.776959
_cell_length_b 15.356485
_cell_length_c 23.015622
_cell_angle_alpha 90.000000
_cell_angle_beta 90.000000
_cell_angle_gamma 90.000000
_cell_volume 3102.120086
_symmetry_space_group_name_H-M "P M N A"
_symmetry_group_IT_number 53
_symmetry_cell_setting 'orthorhombic'
loop_
_space_group_symop_operation_xyz
x,y,z
1/2-x,-y,1/2+z
x,-y,-z
1/2-x,y,1/2-z
-x,-y,-z
1/2+x,y,1/2-z
-x,y,z
1/2+x,-y,1/2+z
loop_
_atom_site_type_symbol
_atom_site_label
_atom_site_fract_x
_atom_site_fract_y
_atom_site_fract_z
Si Si1 0.176544 0.692126 0.313032
Si Si2 0.180457 0.671843 0.814242
Si Si3 0.821979 0.901032 0.503019
Si Si4 0.322954 0.500291 0.812451
Si Si5 0.821828 0.838433 0.109868
Si Si6 0.821087 0.837780 0.631322
Si Si7 0.179807 0.998521 0.189821
O O1 0.250000 0.704637 0.250000
O O2 0.201398 0.595139 0.340618
O O3 0.244238 0.757356 0.359472
O O4 0.000000 0.712055 0.304300
O O5 0.250000 0.682653 0.750000
O O6 0.235773 0.580390 0.843850
O O7 0.239425 0.747221 0.856037
O O8 0.000000 0.674846 0.810043
O O9 0.733905 0.842775 0.456262
O O10 0.782472 0.862379 0.565508
O O11 0.000000 0.897212 0.488623
O O12 0.762116 0.000000 0.500000
O O13 0.250000 0.492165 0.750000
O O14 0.500000 0.524698 0.807831
O O15 0.000000 0.822556 0.111848
O O16 0.775488 0.928005 0.141405
O O17 0.755421 0.909927 0.674460
O O18 0.000000 0.829444 0.642478
O O19 0.250000 0.964509 0.250000
O O20 0.000000 0.010506 0.195786
#
# Coordination Sequence:
#
# PCOD8220126 Si02
#       7
#     8   8   8   8   8   8   8
#     4  10  20  34  55  82 114 146 181 223 269 324
#     4  11  21  34  54  81 113 145 178 219 268 323
#     4  10  21  39  60  79 101 139 186 228 272 320
#     4   9  17  31  52  79 109 143 179 218 265 319
#     4  11  23  36  55  80 109 144 181 225 270 319
#     4  11  22  37  57  78 105 140 179 224 269 320
#     4  11  23  36  51  76 108 142 176 216 266 318
#
# _framework density 18.052171000000001
#
# number of rings (size 3 to 8) (size 9 to 14) (size 15 to 20)
#    0.000    1.571    1.429    5.143    0.000    6.000 
#    0.000    0.000    0.000    0.857    0.000    6.000 
#    0.000    0.000    0.000    0.000    0.000    0.000 
#
# Total GULP energy -694444.314215 kJ/mol
# GULP energy per Si atom -12400.791325 kJ/mol
# Density = 1.801108 g / cm^3
# Si number density = 18.052171 Si / 1000 Ang^3
#
#
#
# Elastic Constant Matrix: (Units=GPa)
#
#
# Indices 1 2 3 4 5 6 
#
# 1 112.4119 61.1808 47.7420 0.0000 0.0000 0.0000
# 2 61.1808 132.5741 43.8722 0.0000 0.0000 0.0000
# 3 47.7420 43.8722 77.5919 0.0000 0.0000 0.0000
# 4 0.0000 0.0000 0.0000 17.3972 0.0000 0.0000
# 5 0.0000 0.0000 0.0000 0.0000 28.6876 0.0000
# 6 0.0000 0.0000 0.0000 0.0000 0.0000 32.8281
#
#
#
# Elastic Compliance Matrix: (Units=1/GPa)
#
#
# Indices 1 2 3 4 5 6 
#
# 1 0.013852 -0.004394 -0.006039 0.000000 0.000000 0.000000
# 2 -0.004394 0.010673 -0.003331 0.000000 0.000000 0.000000
# 3 -0.006039 -0.003331 0.018487 0.000000 0.000000 0.000000
# 4 0.000000 0.000000 0.000000 0.057480 0.000000 0.000000
# 5 0.000000 0.000000 0.000000 0.000000 0.034858 0.000000
# 6 0.000000 0.000000 0.000000 0.000000 0.000000 0.030462
#
#
# Mechanical properties :
#
#
# Convention : Reuss Voigt Hill
#
# Bulk Modulus (GPa) = 64.58097 69.79643 67.18870
# Shear Modulus (GPa) = 25.18871 27.10143 26.14507
#
# Velocity S-wave (km/s) = 3.73946 3.87884 3.80979
# Velocity P-wave (km/s) = 7.38221 7.66865 7.52680
#
# Compressibility (1/GPa) = 0.01548444
#
# Stress axis : x y z
#
# Youngs Moduli (GPa) = 72.19170 93.69305 54.09226
#
# Poissons Ratio (x) = 0.41170 0.32664
# Poissons Ratio (y) = 0.31722 0.18019
# Poissons Ratio (z) = 0.43593 0.31210
#
# Static dielectric constant tensor:
#      x y z
#    x 3.465990 0.000000 0.000000 
#    y 0.000000 3.866280 0.000000 
#    z 0.000000 0.000000 3.098330 
# 
# 
# High freq. dielectric constant tensor:
#      x y z
#    x 1.716630 0.000000 0.000000 
#    y 0.000000 1.711720 0.000000 
#    z 0.000000 0.000000 1.670700 
# 
# From -- ./inp_files/30754.got.cif
#   From: 2010.03.12/outbox.cif.g09.slc.cpg/sg53_16_cif.got.tgz:30754.got - 2010.04.16 14:36:59.
