data_PCOD8220873
_publ_section_title
;
Structure prediction by ZEFSAII (Michael W. Deem and Ramdas Pophale) SiO2 
 PCOD8220873
Probable space group: P M N A
;
_chemical_formula_sum "Si O2"
_cell_formula_units_Z 28
_cell_length_a 16.420194
_cell_length_b 5.045125
_cell_length_c 15.327411
_cell_angle_alpha 90.000000
_cell_angle_beta 90.000000
_cell_angle_gamma 90.000000
_cell_volume 1269.752328
_symmetry_space_group_name_H-M "P M N A"
_symmetry_group_IT_number 53
_symmetry_cell_setting 'orthorhombic'
loop_
_space_group_symop_operation_xyz
x,y,z
1/2-x,-y,1/2+z
x,-y,-z
1/2-x,y,1/2-z
-x,-y,-z
1/2+x,y,1/2-z
-x,y,z
1/2+x,-y,1/2+z
loop_
_atom_site_type_symbol
_atom_site_label
_atom_site_fract_x
_atom_site_fract_y
_atom_site_fract_z
Si Si1 0.341545 0.258732 0.553815
Si Si2 0.343961 0.232196 0.749448
Si Si3 0.684608 0.500000 0.000000
Si Si4 0.905439 0.269974 0.344151
O O1 0.383511 0.500000 0.500000
O O2 0.377569 0.221978 0.650316
O O3 0.243432 0.315949 0.560692
O O4 0.361309 0.000000 0.500000
O O5 0.250000 0.150869 0.750000
O O6 0.357755 0.530858 0.780871
O O7 0.392958 0.028982 0.810741
O O8 0.629151 0.693372 0.941722
O O9 0.000000 0.340052 0.345048
#
# Coordination Sequence:
#
# PCOD8220873 Si02
#       4
#     8   8   4   8
#     4  10  20  37  64  99 118 160 226 274 317 365
#     4  12  22  42  67  93 128 175 224 269 310 393
#     4  10  23  40  64  98 131 174 208 268 335 390
#     4  12  26  41  64  98 140 172 207 267 340 399
#
# _framework density 22.051545000000001
#
# number of rings (size 3 to 8) (size 9 to 14) (size 15 to 20)
#    0.857    0.000    2.857    5.571    0.000    0.000 
#    0.000    2.857    0.000   17.143    0.000    0.000 
#    0.000    0.000    0.000    0.000    0.000    0.000 
#
# Total GULP energy -347232.071323 kJ/mol
# GULP energy per Si atom -12401.145404 kJ/mol
# Density = 2.200135 g / cm^3
# Si number density = 22.051545 Si / 1000 Ang^3
#
#
#
# Elastic Constant Matrix: (Units=GPa)
#
#
# Indices 1 2 3 4 5 6 
#
# 1 53.9026 0.5623 10.3739 0.0000 0.0000 0.0000
# 2 0.5623 105.2384 17.5833 0.0000 0.0000 0.0000
# 3 10.3739 17.5833 112.5165 0.0000 0.0000 0.0000
# 4 0.0000 0.0000 0.0000 41.4180 0.0000 0.0000
# 5 0.0000 0.0000 0.0000 0.0000 13.3240 0.0000
# 6 0.0000 0.0000 0.0000 0.0000 0.0000 -25.9863
#
#
#
# Elastic Compliance Matrix: (Units=1/GPa)
#
#
# Indices 1 2 3 4 5 6 
#
# 1 0.018891 0.000195 -0.001772 0.000000 0.000000 0.000000
# 2 0.000195 0.009759 -0.001543 0.000000 0.000000 0.000000
# 3 -0.001772 -0.001543 0.009292 0.000000 0.000000 0.000000
# 4 0.000000 0.000000 0.000000 0.024144 0.000000 0.000000
# 5 0.000000 0.000000 0.000000 0.000000 0.075052 0.000000
# 6 0.000000 0.000000 0.000000 0.000000 0.000000 -0.038482
#
#
# Mechanical properties :
#
#
# Convention : Reuss Voigt Hill
#
# Bulk Modulus (GPa) = 31.54383 36.52183 34.03283
# Shear Modulus (GPa) = 43.30346 21.96037 32.63192
#
# Velocity S-wave (km/s) = 4.43622 3.15916 3.85099
# Velocity P-wave (km/s) = 6.36990 5.46855 5.93636
#
# Compressibility (1/GPa) = 0.03170192
#
# Stress axis : x y z
#
# Youngs Moduli (GPa) = 52.93516 102.46946 107.61809
#
# Poissons Ratio (x) = -0.02000 0.19072
# Poissons Ratio (y) = -0.01033 0.16606
# Poissons Ratio (z) = 0.09381 0.15812
#
# Static dielectric constant tensor:
#      x y z
#    x 3.525190 0.000000 0.000000 
#    y 0.000000 3.801700 0.000000 
#    z 0.000000 0.000000 5.129080 
# 
# 
# High freq. dielectric constant tensor:
#      x y z
#    x 1.833250 0.000000 0.000000 
#    y 0.000000 1.873310 0.000000 
#    z 0.000000 0.000000 1.882690 
# 
# From -- ./inp_files/23123.got.cif
#   From: 2010.03.12/outbox.cif.g09.slc.cpg/sg53_12_cif.got.tgz:23123.got - 2010.04.16 14:36:59.
