data_PCOD8220390
_publ_section_title
;
Structure prediction by ZEFSAII (Michael W. Deem and Ramdas Pophale) SiO2 
 PCOD8220390
Probable space group: P M N A
;
_chemical_formula_sum "Si O2"
_cell_formula_units_Z 64
_cell_length_a 17.961039
_cell_length_b 11.638670
_cell_length_c 16.028069
_cell_angle_alpha 90.000000
_cell_angle_beta 90.000000
_cell_angle_gamma 90.000000
_cell_volume 3350.549309
_symmetry_space_group_name_H-M "P M N A"
_symmetry_group_IT_number 53
_symmetry_cell_setting 'orthorhombic'
loop_
_space_group_symop_operation_xyz
x,y,z
1/2-x,-y,1/2+z
x,-y,-z
1/2-x,y,1/2-z
-x,-y,-z
1/2+x,y,1/2-z
-x,y,z
1/2+x,-y,1/2+z
loop_
_atom_site_type_symbol
_atom_site_label
_atom_site_fract_x
_atom_site_fract_y
_atom_site_fract_z
Si Si1 0.210091 0.422625 0.423200
Si Si2 0.309137 0.008385 0.901458
Si Si3 0.709571 0.804240 0.560152
Si Si4 0.580654 0.773889 0.675851
Si Si5 0.415844 0.563848 0.791143
Si Si6 0.810764 0.421912 0.816796
Si Si7 0.316923 0.171642 0.621808
Si Si8 0.585173 0.024211 0.748779
O O1 0.190098 0.500000 0.500000
O O2 0.229289 0.294967 0.455991
O O3 0.134393 0.425684 0.371917
O O4 0.279660 0.474303 0.372544
O O5 0.250499 0.904551 0.887042
O O6 0.267760 0.124718 0.869573
O O7 0.380538 0.006505 0.841418
O O8 0.332843 0.000000 0.000000
O O9 0.645034 0.743947 0.612063
O O10 0.669542 0.854270 0.476809
O O11 0.500000 0.755999 0.632622
O O12 0.587690 0.690754 0.753953
O O13 0.589162 0.903309 0.704585
O O14 0.500000 0.528892 0.815229
O O15 0.385738 0.467416 0.726990
O O16 0.750000 0.383264 0.750000
O O17 0.826319 0.308359 0.870083
O O18 0.372437 0.112416 0.687384
O O19 0.500000 0.066764 0.759793
#
# Coordination Sequence:
#
# PCOD8220390 Si02
#       8
#     8   8   8   8   8   8   8   8
#     4  11  21  37  61  89 115 153 201 252 298 347
#     4  10  22  38  60  88 113 149 197 249 293 346
#     4  11  21  37  62  90 115 152 200 250 295 346
#     4  10  21  37  59  88 118 147 189 244 296 347
#     4  10  22  38  59  88 121 157 198 244 302 360
#     4  10  20  35  58  83 114 152 194 241 286 352
#     4  11  22  37  59  87 120 154 199 243 295 359
#     4  11  23  38  59  85 117 157 194 237 300 359
#
# _framework density 19.101344999999998
#
# number of rings (size 3 to 8) (size 9 to 14) (size 15 to 20)
#    0.000    1.500    3.750    1.875    0.000    2.500 
#    0.000    1.250    0.000    3.000    0.000    0.000 
#    0.000    0.000    0.000    0.000    0.000    0.000 
#
# Total GULP energy -793170.471610 kJ/mol
# GULP energy per Si atom -12393.288619 kJ/mol
# Density = 1.905787 g / cm^3
# Si number density = 19.101345 Si / 1000 Ang^3
#
#
#
# Elastic Constant Matrix: (Units=GPa)
#
#
# Indices 1 2 3 4 5 6 
#
# 1 126.0797 25.1201 67.0780 0.0000 0.0000 0.0000
# 2 25.1201 59.9474 20.5377 0.0000 0.0000 0.0000
# 3 67.0780 20.5377 97.0259 0.0000 0.0000 0.0000
# 4 0.0000 0.0000 0.0000 26.1388 0.0000 0.0000
# 5 0.0000 0.0000 0.0000 0.0000 9.9990 0.0000
# 6 0.0000 0.0000 0.0000 0.0000 0.0000 15.4359
#
#
#
# Elastic Compliance Matrix: (Units=1/GPa)
#
#
# Indices 1 2 3 4 5 6 
#
# 1 0.012893 -0.002533 -0.008377 0.000000 0.000000 0.000000
# 2 -0.002533 0.018483 -0.002161 0.000000 0.000000 0.000000
# 3 -0.008377 -0.002161 0.016556 0.000000 0.000000 0.000000
# 4 0.000000 0.000000 0.000000 0.038257 0.000000 0.000000
# 5 0.000000 0.000000 0.000000 0.000000 0.100010 0.000000
# 6 0.000000 0.000000 0.000000 0.000000 0.000000 0.064784
#
#
# Mechanical properties :
#
#
# Convention : Reuss Voigt Hill
#
# Bulk Modulus (GPa) = 45.89501 56.50273 51.19887
# Shear Modulus (GPa) = 17.58154 21.66922 19.62538
#
# Velocity S-wave (km/s) = 3.03716 3.37179 3.20884
# Velocity P-wave (km/s) = 6.03145 6.69353 6.37110
#
# Compressibility (1/GPa) = 0.02178886
#
# Stress axis : x y z
#
# Youngs Moduli (GPa) = 77.56058 54.10365 60.40203
#
# Poissons Ratio (x) = 0.13702 0.50602
# Poissons Ratio (y) = 0.19643 0.13056
# Poissons Ratio (z) = 0.64976 0.11694
#
# Static dielectric constant tensor:
#      x y z
#    x 3.561600 0.000000 0.000000 
#    y 0.000000 3.542420 0.000000 
#    z 0.000000 0.000000 3.845400 
# 
# 
# High freq. dielectric constant tensor:
#      x y z
#    x 1.730440 0.000000 0.000000 
#    y 0.000000 1.753350 0.000000 
#    z 0.000000 0.000000 1.742020 
# 
# From -- ./inp_files/23903.got.cif
#   From: 2010.03.12/outbox.cif.g09.slc.cpg/sg53_12_cif.got.tgz:23903.got - 2010.04.16 14:36:59.
