data_PCOD8220261
_publ_section_title
;
Structure prediction by ZEFSAII (Michael W. Deem and Ramdas Pophale) SiO2 
 PCOD8220261
Probable space group: P M N A
;
_chemical_formula_sum "Si O2"
_cell_formula_units_Z 64
_cell_length_a 8.768108
_cell_length_b 15.082695
_cell_length_c 24.805277
_cell_angle_alpha 90.000000
_cell_angle_beta 90.000000
_cell_angle_gamma 90.000000
_cell_volume 3280.415993
_symmetry_space_group_name_H-M "P M N A"
_symmetry_group_IT_number 53
_symmetry_cell_setting 'orthorhombic'
loop_
_space_group_symop_operation_xyz
x,y,z
1/2-x,-y,1/2+z
x,-y,-z
1/2-x,y,1/2-z
-x,-y,-z
1/2+x,y,1/2-z
-x,y,z
1/2+x,-y,1/2+z
loop_
_atom_site_type_symbol
_atom_site_label
_atom_site_fract_x
_atom_site_fract_y
_atom_site_fract_z
Si Si1 0.320332 0.280134 0.118681
Si Si2 0.322722 0.232842 0.488304
Si Si3 0.324930 0.135731 0.306271
Si Si4 0.836415 0.067189 0.453981
Si Si5 0.320121 0.231357 0.610492
Si Si6 0.820158 0.575682 0.806363
Si Si7 0.319987 0.373895 0.693861
Si Si8 0.827165 0.035411 0.865137
O O1 0.500000 0.285958 0.125888
O O2 0.273106 0.289044 0.055565
O O3 0.258745 0.187377 0.144388
O O4 0.244677 0.364120 0.146671
O O5 0.500000 0.258872 0.484814
O O6 0.300603 0.131083 0.471173
O O7 0.256372 0.242493 0.549317
O O8 0.250000 0.163982 0.250000
O O9 0.500000 0.167726 0.306078
O O10 0.316236 0.027924 0.312200
O O11 0.000000 0.117411 0.441649
O O12 0.871994 0.000000 0.500000
O O13 0.791769 0.008856 0.403933
O O14 0.500000 0.239301 0.606039
O O15 0.253426 0.310940 0.646747
O O16 0.276735 0.138401 0.640488
O O17 0.750000 0.607714 0.750000
O O18 0.771509 0.474595 0.819048
O O19 0.000000 0.586347 0.802945
O O20 0.250000 0.341533 0.750000
O O21 0.500000 0.363965 0.698389
O O22 0.000000 0.033074 0.887983
#
# Coordination Sequence:
#
# PCOD8220261 Si02
#       8
#     8   8   8   8   8   8   8   8
#     4  12  24  38  57  82 115 148 184 236 289 343
#     4  11  21  35  57  82 112 152 194 232 278 337
#     4  11  23  37  54  78 112 152 193 235 283 340
#     4  11  21  32  50  78 111 145 188 237 279 322
#     4   9  19  36  59  86 114 149 193 234 275 331
#     4  10  20  37  62  88 113 144 186 234 283 339
#     4   9  19  38  63  89 115 144 184 234 283 333
#     4  10  20  35  55  77 106 149 194 232 273 329
#
# _framework density 19.509722
#
# number of rings (size 3 to 8) (size 9 to 14) (size 15 to 20)
#    0.000    1.625    2.500    3.000    0.000    2.000 
#    0.000    2.500    0.000    3.750    0.000    0.000 
#    0.000    0.000    0.000    0.000    0.000    0.000 
#
# Total GULP energy -793149.377927 kJ/mol
# GULP energy per Si atom -12392.959030 kJ/mol
# Density = 1.946532 g / cm^3
# Si number density = 19.509722 Si / 1000 Ang^3
#
#
#
# Elastic Constant Matrix: (Units=GPa)
#
#
# Indices 1 2 3 4 5 6 
#
# 1 71.9246 21.5593 29.9723 0.0000 0.0000 0.0000
# 2 21.5593 109.2704 59.7565 0.0000 0.0000 0.0000
# 3 29.9723 59.7565 105.0458 0.0000 0.0000 0.0000
# 4 0.0000 0.0000 0.0000 19.6118 0.0000 0.0000
# 5 0.0000 0.0000 0.0000 0.0000 28.5151 0.0000
# 6 0.0000 0.0000 0.0000 0.0000 0.0000 16.2439
#
#
#
# Elastic Compliance Matrix: (Units=1/GPa)
#
#
# Indices 1 2 3 4 5 6 
#
# 1 0.015847 -0.000949 -0.003982 0.000000 0.000000 0.000000
# 2 -0.000949 0.013341 -0.007318 0.000000 0.000000 0.000000
# 3 -0.003982 -0.007318 0.014819 0.000000 0.000000 0.000000
# 4 0.000000 0.000000 0.000000 0.050990 0.000000 0.000000
# 5 0.000000 0.000000 0.000000 0.000000 0.035069 0.000000
# 6 0.000000 0.000000 0.000000 0.000000 0.000000 0.061561
#
#
# Mechanical properties :
#
#
# Convention : Reuss Voigt Hill
#
# Bulk Modulus (GPa) = 51.25939 56.53523 53.89731
# Shear Modulus (GPa) = 22.45892 24.53769 23.49830
#
# Velocity S-wave (km/s) = 3.39656 3.55028 3.47427
# Velocity P-wave (km/s) = 6.45856 6.77103 6.61664
#
# Compressibility (1/GPa) = 0.01950862
#
# Stress axis : x y z
#
# Youngs Moduli (GPa) = 63.10261 74.95637 67.48159
#
# Poissons Ratio (x) = 0.07115 0.26869
# Poissons Ratio (y) = 0.05990 0.49386
# Poissons Ratio (z) = 0.25125 0.54856
#
# Static dielectric constant tensor:
#      x y z
#    x 3.511730 0.000000 0.000000 
#    y 0.000000 3.641110 0.000000 
#    z 0.000000 0.000000 3.726760 
# 
# 
# High freq. dielectric constant tensor:
#      x y z
#    x 1.756790 0.000000 0.000000 
#    y 0.000000 1.750800 0.000000 
#    z 0.000000 0.000000 1.757950 
# 
# From -- ./inp_files/34289.got.cif
#   From: 2010.03.12/outbox.cif.g09.slc.cpg/sg53_18_cif.got.tgz:34289.got - 2010.04.16 14:36:59.
