data_PCOD8220303
_publ_section_title
;
Structure prediction by ZEFSAII (Michael W. Deem and Ramdas Pophale) SiO2 
 PCOD8220303
Probable space group: P M N A
;
_chemical_formula_sum "Si O2"
_cell_formula_units_Z 32
_cell_length_a 13.538861
_cell_length_b 4.703996
_cell_length_c 21.987152
_cell_angle_alpha 90.000000
_cell_angle_beta 90.000000
_cell_angle_gamma 90.000000
_cell_volume 1400.290208
_symmetry_space_group_name_H-M "P M N A"
_symmetry_group_IT_number 53
_symmetry_cell_setting 'orthorhombic'
loop_
_space_group_symop_operation_xyz
x,y,z
1/2-x,-y,1/2+z
x,-y,-z
1/2-x,y,1/2-z
-x,-y,-z
1/2+x,y,1/2-z
-x,y,z
1/2+x,-y,1/2+z
loop_
_atom_site_type_symbol
_atom_site_label
_atom_site_fract_x
_atom_site_fract_y
_atom_site_fract_z
Si Si1 0.891376 0.307043 0.317583
Si Si2 0.799705 0.142521 0.126620
Si Si3 0.886087 0.641870 0.062455
Si Si4 0.107745 0.805000 0.233644
O O1 0.854527 0.503149 0.260469
O O2 0.000000 0.412812 0.341517
O O3 0.810133 0.281530 0.371442
O O4 0.903812 0.991072 0.293585
O O5 0.818986 0.922951 0.071427
O O6 0.817673 0.957829 0.187509
O O7 0.871927 0.414953 0.117833
O O8 0.000000 0.736618 0.058986
O O9 0.849971 0.500000 0.000000
O O10 0.000000 0.771101 0.201351
#
# Coordination Sequence:
#
# PCOD8220303 Si02
#       4
#     8   8   8   8
#     4  10  22  38  57  85 122 157 191 235 285 346
#     4  12  22  37  63  88 118 162 204 240 296 361
#     4  11  24  41  61  88 120 154 199 256 310 355
#     4  10  20  35  55  84 119 153 192 235 284 348
#
# _framework density 22.852406999999999
#
# number of rings (size 3 to 8) (size 9 to 14) (size 15 to 20)
#    0.000    1.250    0.000    6.750    0.000    6.000 
#    0.000    0.000    0.000    6.000    0.000    0.000 
#    0.000    0.000    0.000    0.000    0.000    0.000 
#
# Total GULP energy -396542.703059 kJ/mol
# GULP energy per Si atom -12391.959471 kJ/mol
# Density = 2.280039 g / cm^3
# Si number density = 22.852407 Si / 1000 Ang^3
#
#
#
# Elastic Constant Matrix: (Units=GPa)
#
#
# Indices 1 2 3 4 5 6 
#
# 1 132.6730 39.3673 37.4266 0.0000 0.0000 0.0000
# 2 39.3673 92.7422 5.7868 0.0000 0.0000 0.0000
# 3 37.4266 5.7868 42.2102 0.0000 0.0000 0.0000
# 4 0.0000 0.0000 0.0000 38.2295 0.0000 0.0000
# 5 0.0000 0.0000 0.0000 0.0000 28.9972 0.0000
# 6 0.0000 0.0000 0.0000 0.0000 0.0000 20.2645
#
#
#
# Elastic Compliance Matrix: (Units=1/GPa)
#
#
# Indices 1 2 3 4 5 6 
#
# 1 0.011529 -0.004293 -0.009634 0.000000 0.000000 0.000000
# 2 -0.004293 0.012474 0.002096 0.000000 0.000000 0.000000
# 3 -0.009634 0.002096 0.031945 0.000000 0.000000 0.000000
# 4 0.000000 0.000000 0.000000 0.026158 0.000000 0.000000
# 5 0.000000 0.000000 0.000000 0.000000 0.034486 0.000000
# 6 0.000000 0.000000 0.000000 0.000000 0.000000 0.049347
#
#
# Mechanical properties :
#
#
# Convention : Reuss Voigt Hill
#
# Bulk Modulus (GPa) = 30.97165 48.08740 39.52953
# Shear Modulus (GPa) = 24.95481 29.83457 27.39469
#
# Velocity S-wave (km/s) = 3.30813 3.61714 3.46608
# Velocity P-wave (km/s) = 5.30791 6.20751 5.77525
#
# Compressibility (1/GPa) = 0.03228759
#
# Stress axis : x y z
#
# Youngs Moduli (GPa) = 86.74036 80.16729 31.30337
#
# Poissons Ratio (x) = 0.34413 0.30157
# Poissons Ratio (y) = 0.37234 -0.06561
# Poissons Ratio (z) = 0.83562 -0.16803
#
# Static dielectric constant tensor:
#      x y z
#    x 4.383240 0.000000 0.000000 
#    y 0.000000 4.445700 0.000000 
#    z 0.000000 0.000000 3.762260 
# 
# 
# High freq. dielectric constant tensor:
#      x y z
#    x 1.892420 0.000000 0.000000 
#    y 0.000000 1.932600 0.000000 
#    z 0.000000 0.000000 1.851230 
# 
# From -- ./inp_files/32111.got.cif
#   From: 2010.03.12/outbox.cif.g09.slc.cpg/sg53_17_cif.got.tgz:32111.got - 2010.04.16 14:36:59.
