data_PCOD8220637
_publ_section_title
;
Structure prediction by ZEFSAII (Michael W. Deem and Ramdas Pophale) SiO2 
 PCOD8220637
Probable space group: P M N A
;
_chemical_formula_sum "Si O2"
_cell_formula_units_Z 64
_cell_length_a 9.220637
_cell_length_b 21.697619
_cell_length_c 15.916454
_cell_angle_alpha 90.000000
_cell_angle_beta 90.000000
_cell_angle_gamma 90.000000
_cell_volume 3184.339194
_symmetry_space_group_name_H-M "P M N A"
_symmetry_group_IT_number 53
_symmetry_cell_setting 'orthorhombic'
loop_
_space_group_symop_operation_xyz
x,y,z
1/2-x,-y,1/2+z
x,-y,-z
1/2-x,y,1/2-z
-x,-y,-z
1/2+x,y,1/2-z
-x,y,z
1/2+x,-y,1/2+z
loop_
_atom_site_type_symbol
_atom_site_label
_atom_site_fract_x
_atom_site_fract_y
_atom_site_fract_z
Si Si1 0.340643 0.989574 0.096267
Si Si2 0.828750 0.119720 0.334587
Si Si3 0.171502 0.881821 0.164607
Si Si4 0.666786 0.759916 0.927389
Si Si5 0.168201 0.375546 0.834489
Si Si6 0.666344 0.572711 0.004999
Si Si7 0.332380 0.638965 0.834849
Si Si8 0.834439 0.246678 0.907569
O O1 0.500000 0.973060 0.135827
O O2 0.223170 0.935488 0.102546
O O3 0.277443 0.052142 0.136904
O O4 0.367088 0.000000 0.000000
O O5 0.750000 0.138025 0.250000
O O6 0.781183 0.171639 0.401904
O O7 0.000000 0.122435 0.320678
O O8 0.250000 0.898659 0.250000
O O9 0.228712 0.815846 0.132657
O O10 0.000000 0.882908 0.175737
O O11 0.500000 0.760504 0.953552
O O12 0.693871 0.711637 0.851859
O O13 0.751076 0.735841 0.008245
O O14 0.250000 0.397739 0.750000
O O15 0.236579 0.405610 0.917194
O O16 0.183141 0.301603 0.840937
O O17 0.000000 0.395385 0.828302
O O18 0.500000 0.593912 0.020333
O O19 0.679242 0.500000 0.000000
O O20 0.723337 0.601020 0.916604
O O21 0.250000 0.618808 0.750000
O O22 0.500000 0.623799 0.819162
O O23 0.000000 0.236068 0.933187
#
# Coordination Sequence:
#
# PCOD8220637 Si02
#       8
#     8   8   8   8   8   8   8   8
#     4  10  21  38  57  78 107 145 188 235 292 355
#     4  10  21  35  53  79 109 144 187 235 289 350
#     4  11  23  38  56  81 112 147 191 240 295 353
#     4  10  20  36  59  85 113 150 196 242 296 356
#     4  11  23  40  64  93 126 164 207 254 307 363
#     4  10  22  42  65  92 128 166 206 252 301 358
#     4  10  21  37  60  90 122 160 202 248 301 357
#     4  10  22  38  58  87 118 151 194 247 300 353
#
# _framework density 20.098362000000002
#
# number of rings (size 3 to 8) (size 9 to 14) (size 15 to 20)
#    0.000    1.750    1.250    2.625    0.000    6.500 
#    0.000    1.250    0.000    0.000    0.000    0.000 
#    0.000    0.000    0.000    0.000    0.000    0.000 
#
# Total GULP energy -793653.364204 kJ/mol
# GULP energy per Si atom -12400.833816 kJ/mol
# Density = 2.005262 g / cm^3
# Si number density = 20.098362 Si / 1000 Ang^3
#
#
#
# Elastic Constant Matrix: (Units=GPa)
#
#
# Indices 1 2 3 4 5 6 
#
# 1 78.0546 33.6049 57.8045 0.0000 0.0000 0.0000
# 2 33.6049 91.5616 27.8231 0.0000 0.0000 0.0000
# 3 57.8045 27.8231 122.1313 0.0000 0.0000 0.0000
# 4 0.0000 0.0000 0.0000 23.6372 0.0000 0.0000
# 5 0.0000 0.0000 0.0000 0.0000 38.7280 0.0000
# 6 0.0000 0.0000 0.0000 0.0000 0.0000 26.5614
#
#
#
# Elastic Compliance Matrix: (Units=1/GPa)
#
#
# Indices 1 2 3 4 5 6 
#
# 1 0.021836 -0.005236 -0.009142 0.000000 0.000000 0.000000
# 2 -0.005236 0.012990 -0.000481 0.000000 0.000000 0.000000
# 3 -0.009142 -0.000481 0.012624 0.000000 0.000000 0.000000
# 4 0.000000 0.000000 0.000000 0.042306 0.000000 0.000000
# 5 0.000000 0.000000 0.000000 0.000000 0.025821 0.000000
# 6 0.000000 0.000000 0.000000 0.000000 0.000000 0.037649
#
#
# Mechanical properties :
#
#
# Convention : Reuss Voigt Hill
#
# Bulk Modulus (GPa) = 56.39646 58.91252 57.65449
# Shear Modulus (GPa) = 26.47529 29.28633 27.88081
#
# Velocity S-wave (km/s) = 3.63338 3.82140 3.72858
# Velocity P-wave (km/s) = 6.76189 6.98903 6.87640
#
# Compressibility (1/GPa) = 0.01773161
#
# Stress axis : x y z
#
# Youngs Moduli (GPa) = 45.79534 76.98497 79.21158
#
# Poissons Ratio (x) = 0.40312 0.72417
# Poissons Ratio (y) = 0.23980 0.03809
# Poissons Ratio (z) = 0.41867 0.03702
#
# Static dielectric constant tensor:
#      x y z
#    x 3.655900 0.000000 0.000000 
#    y 0.000000 3.852420 0.000000 
#    z 0.000000 0.000000 3.467830 
# 
# 
# High freq. dielectric constant tensor:
#      x y z
#    x 1.776590 0.000000 0.000000 
#    y 0.000000 1.792600 0.000000 
#    z 0.000000 0.000000 1.785190 
# 
# From -- ./inp_files/21003.got.cif
#   From: 2010.03.12/outbox.cif.g09.slc.cpg/sg53_11_cif.got.tgz:21003.got - 2010.04.16 14:36:59.
