data_PCOD8220109
_publ_section_title
;
Structure prediction by ZEFSAII (Michael W. Deem and Ramdas Pophale) SiO2 
 PCOD8220109
Probable space group: P M N A
;
_chemical_formula_sum "Si O2"
_cell_formula_units_Z 48
_cell_length_a 8.848124
_cell_length_b 13.368902
_cell_length_c 19.177553
_cell_angle_alpha 90.000000
_cell_angle_beta 90.000000
_cell_angle_gamma 90.000000
_cell_volume 2268.507042
_symmetry_space_group_name_H-M "P M N A"
_symmetry_group_IT_number 53
_symmetry_cell_setting 'orthorhombic'
loop_
_space_group_symop_operation_xyz
x,y,z
1/2-x,-y,1/2+z
x,-y,-z
1/2-x,y,1/2-z
-x,-y,-z
1/2+x,y,1/2-z
-x,y,z
1/2+x,-y,1/2+z
loop_
_atom_site_type_symbol
_atom_site_label
_atom_site_fract_x
_atom_site_fract_y
_atom_site_fract_z
Si Si1 0.825567 0.085613 0.551719
Si Si2 0.820925 0.572671 0.172898
Si Si3 0.677208 0.611001 0.908928
Si Si4 0.324620 0.004433 0.680416
Si Si5 0.673165 0.311184 0.944444
Si Si6 0.679017 0.223905 0.322245
O O1 0.799010 0.199004 0.525644
O O2 0.000000 0.063576 0.567950
O O3 0.762699 0.000000 0.500000
O O4 0.729132 0.078312 0.621095
O O5 0.750000 0.581392 0.250000
O O6 0.764246 0.475215 0.131904
O O7 0.775057 0.666128 0.123551
O O8 0.000000 0.568112 0.181542
O O9 0.500000 0.601850 0.892632
O O10 0.741774 0.716522 0.883810
O O11 0.706561 0.610594 0.992619
O O12 0.250000 0.045239 0.750000
O O13 0.500000 0.012614 0.690858
O O14 0.275485 0.890805 0.664407
O O15 0.500000 0.323230 0.920252
O O16 0.750000 0.262521 0.250000
O O17 0.500000 0.241683 0.321427
#
# Coordination Sequence:
#
# PCOD8220109 Si02
#       6
#     8   8   8   8   8   8
#     4  10  21  39  63  90 121 159 202 246 296 356
#     4  12  26  44  66  91 122 159 201 247 297 355
#     4  11  22  39  64  91 122 158 197 244 300 360
#     4  10  21  36  56  83 117 158 202 251 303 357
#     4  10  23  42  64  91 123 159 199 245 297 354
#     4  10  20  34  54  84 121 159 203 252 303 358
#
# _framework density 21.159291
#
# number of rings (size 3 to 8) (size 9 to 14) (size 15 to 20)
#    0.000    1.500    0.000    5.000    0.000    8.333 
#    0.000    0.000    0.000    0.000    0.000    0.000 
#    0.000    0.000    0.000    0.000    0.000    0.000 
#
# Total GULP energy -595214.015253 kJ/mol
# GULP energy per Si atom -12400.291984 kJ/mol
# Density = 2.111113 g / cm^3
# Si number density = 21.159291 Si / 1000 Ang^3
#
#
#
# Elastic Constant Matrix: (Units=GPa)
#
#
# Indices 1 2 3 4 5 6 
#
# 1 102.8765 36.4873 56.1775 0.0000 0.0000 0.0000
# 2 36.4873 80.7540 46.8067 0.0000 0.0000 0.0000
# 3 56.1775 46.8067 132.9108 0.0000 0.0000 0.0000
# 4 0.0000 0.0000 0.0000 40.3349 0.0000 0.0000
# 5 0.0000 0.0000 0.0000 0.0000 37.5405 0.0000
# 6 0.0000 0.0000 0.0000 0.0000 0.0000 35.6660
#
#
#
# Elastic Compliance Matrix: (Units=1/GPa)
#
#
# Indices 1 2 3 4 5 6 
#
# 1 0.013371 -0.003475 -0.004428 0.000000 0.000000 0.000000
# 2 -0.003475 0.016462 -0.004329 0.000000 0.000000 0.000000
# 3 -0.004428 -0.004329 0.010920 0.000000 0.000000 0.000000
# 4 0.000000 0.000000 0.000000 0.024792 0.000000 0.000000
# 5 0.000000 0.000000 0.000000 0.000000 0.026638 0.000000
# 6 0.000000 0.000000 0.000000 0.000000 0.000000 0.028038
#
#
# Mechanical properties :
#
#
# Convention : Reuss Voigt Hill
#
# Bulk Modulus (GPa) = 61.38687 66.16492 63.77589
# Shear Modulus (GPa) = 33.30811 34.51294 33.91052
#
# Velocity S-wave (km/s) = 3.97187 4.04307 4.00763
# Velocity P-wave (km/s) = 7.07878 7.28924 7.18478
#
# Compressibility (1/GPa) = 0.01629013
#
# Stress axis : x y z
#
# Youngs Moduli (GPa) = 74.79082 60.74447 91.57763
#
# Poissons Ratio (x) = 0.21108 0.40547
# Poissons Ratio (y) = 0.25989 0.39642
# Poissons Ratio (z) = 0.33114 0.26295
#
# Static dielectric constant tensor:
#      x y z
#    x 3.767560 0.000000 0.000000 
#    y 0.000000 3.898050 0.000000 
#    z 0.000000 0.000000 3.698160 
# 
# 
# High freq. dielectric constant tensor:
#      x y z
#    x 1.828910 0.000000 0.000000 
#    y 0.000000 1.832240 0.000000 
#    z 0.000000 0.000000 1.836370 
# 
# From -- ./inp_files/26240.got.cif
#   From: 2010.03.12/outbox.cif.g09.slc.cpg/sg53_14_cif.got.tgz:26240.got - 2010.04.16 14:36:59.
