data_PCOD8220716
_publ_section_title
;
Structure prediction by ZEFSAII (Michael W. Deem and Ramdas Pophale) SiO2 
 PCOD8220716
Probable space group: P M N A
;
_chemical_formula_sum "Si O2"
_cell_formula_units_Z 40
_cell_length_a 10.084001
_cell_length_b 13.681421
_cell_length_c 13.487530
_cell_angle_alpha 90.000000
_cell_angle_beta 90.000000
_cell_angle_gamma 90.000000
_cell_volume 1860.786347
_symmetry_space_group_name_H-M "P M N A"
_symmetry_group_IT_number 53
_symmetry_cell_setting 'orthorhombic'
loop_
_space_group_symop_operation_xyz
x,y,z
1/2-x,-y,1/2+z
x,-y,-z
1/2-x,y,1/2-z
-x,-y,-z
1/2+x,y,1/2-z
-x,y,z
1/2+x,-y,1/2+z
loop_
_atom_site_type_symbol
_atom_site_label
_atom_site_fract_x
_atom_site_fract_y
_atom_site_fract_z
Si Si1 0.500000 0.890418 0.473621
Si Si2 0.242328 0.395734 0.132264
Si Si3 0.242276 0.192710 0.868092
Si Si4 0.500000 0.116294 0.976716
Si Si5 0.340218 0.399607 0.653324
Si Si6 0.000000 0.282304 0.370406
Si Si7 0.000000 0.266735 0.135630
O O1 0.373347 0.875603 0.405538
O O2 0.500000 0.835622 0.579387
O O3 0.500000 0.000000 0.500000
O O4 0.250000 0.402630 0.250000
O O5 0.205710 0.504450 0.091461
O O6 0.378257 0.349371 0.093205
O O7 0.126953 0.324590 0.097161
O O8 0.250000 0.189400 0.750000
O O9 0.375758 0.150284 0.912918
O O10 0.203067 0.302359 0.906310
O O11 0.500000 0.175980 0.079424
O O12 0.500000 0.000000 0.000000
O O13 0.250000 0.397732 0.750000
O O14 0.500000 0.401114 0.676035
O O15 0.000000 0.255782 0.254292
#
# Coordination Sequence:
#
# PCOD8220716 Si02
#       7
#     4   8   8   4   8   4   4
#     4  12  25  44  67  98 128 169 229 290 333 391
#     4   9  18  34  61  94 134 174 218 264 326 395
#     4  11  25  45  70  98 134 174 220 273 338 403
#     4  12  27  48  69  96 134 175 227 292 343 393
#     4  10  20  36  65 101 138 179 221 267 329 399
#     4  10  22  40  63  96 133 179 222 274 335 401
#     4  10  20  38  63  92 131 175 220 274 331 397
#
# _framework density 21.496288
#
# number of rings (size 3 to 8) (size 9 to 14) (size 15 to 20)
#    0.000    1.600    2.000    2.400    8.400    1.600 
#    0.000    8.000    0.000    0.000    0.000    0.000 
#    0.000    0.000    0.000    0.000    0.000    0.000 
#
# Total GULP energy -495689.339524 kJ/mol
# GULP energy per Si atom -12392.233488 kJ/mol
# Density = 2.144736 g / cm^3
# Si number density = 21.496288 Si / 1000 Ang^3
#
#
#
# Elastic Constant Matrix: (Units=GPa)
#
#
# Indices 1 2 3 4 5 6 
#
# 1 216.5138 96.8853 50.6828 0.0000 0.0000 0.0000
# 2 96.8853 228.3248 54.6759 0.0000 0.0000 0.0000
# 3 50.6828 54.6759 86.3269 0.0000 0.0000 0.0000
# 4 0.0000 0.0000 0.0000 53.1124 0.0000 0.0000
# 5 0.0000 0.0000 0.0000 0.0000 26.5655 0.0000
# 6 0.0000 0.0000 0.0000 0.0000 0.0000 24.5043
#
#
#
# Elastic Compliance Matrix: (Units=1/GPa)
#
#
# Indices 1 2 3 4 5 6 
#
# 1 0.006057 -0.002026 -0.002273 0.000000 0.000000 0.000000
# 2 -0.002026 0.005840 -0.002510 0.000000 0.000000 0.000000
# 3 -0.002273 -0.002510 0.014508 0.000000 0.000000 0.000000
# 4 0.000000 0.000000 0.000000 0.018828 0.000000 0.000000
# 5 0.000000 0.000000 0.000000 0.000000 0.037643 0.000000
# 6 0.000000 0.000000 0.000000 0.000000 0.000000 0.040809
#
#
# Mechanical properties :
#
#
# Convention : Reuss Voigt Hill
#
# Bulk Modulus (GPa) = 78.19688 103.96153 91.07920
# Shear Modulus (GPa) = 35.31929 42.76453 39.04191
#
# Velocity S-wave (km/s) = 4.05784 4.46510 4.26633
# Velocity P-wave (km/s) = 7.64269 8.66316 8.16887
#
# Compressibility (1/GPa) = 0.01278823
#
# Stress axis : x y z
#
# Youngs Moduli (GPa) = 165.08923 171.22192 68.92803
#
# Poissons Ratio (x) = 0.34689 0.15668
# Poissons Ratio (y) = 0.33447 0.17298
# Poissons Ratio (z) = 0.37527 0.42970
#
# Static dielectric constant tensor:
#      x y z
#    x 4.187750 0.000000 0.000000 
#    y 0.000000 4.346850 0.000000 
#    z 0.000000 0.000000 3.900590 
# 
# 
# High freq. dielectric constant tensor:
#      x y z
#    x 1.863380 0.000000 0.000000 
#    y 0.000000 1.849300 0.000000 
#    z 0.000000 0.000000 1.843860 
# 
# From -- ./inp_files/19970.got.cif
#   From: 2010.03.12/outbox.cif.g09.slc.cpg/sg53_10_cif.got.tgz:19970.got - 2010.04.16 14:36:59.
