data_PCOD8220000
_publ_section_title
;
Structure prediction by ZEFSAII (Michael W. Deem and Ramdas Pophale) SiO2 
 PCOD8220000
Probable space group: P M N A
;
_chemical_formula_sum "Si O2"
_cell_formula_units_Z 64
_cell_length_a 8.753685
_cell_length_b 27.345960
_cell_length_c 14.835877
_cell_angle_alpha 90.000000
_cell_angle_beta 90.000000
_cell_angle_gamma 90.000000
_cell_volume 3551.381376
_symmetry_space_group_name_H-M "P M N A"
_symmetry_group_IT_number 53
_symmetry_cell_setting 'orthorhombic'
loop_
_space_group_symop_operation_xyz
x,y,z
1/2-x,-y,1/2+z
x,-y,-z
1/2-x,y,1/2-z
-x,-y,-z
1/2+x,y,1/2-z
-x,y,z
1/2+x,-y,1/2+z
loop_
_atom_site_type_symbol
_atom_site_label
_atom_site_fract_x
_atom_site_fract_y
_atom_site_fract_z
Si Si1 0.821822 0.967455 0.156123
Si Si2 0.181580 0.615626 0.028555
Si Si3 0.180749 0.188637 0.845436
Si Si4 0.679821 0.699896 0.344096
Si Si5 0.318770 0.109328 0.973033
Si Si6 0.819557 0.420648 0.157727
Si Si7 0.178505 0.918266 0.844371
Si Si8 0.319337 0.468569 0.657511
O O1 0.750000 0.949273 0.250000
O O2 0.742330 0.939654 0.074185
O O3 0.000000 0.954530 0.156873
O O4 0.790955 0.024412 0.141336
O O5 0.243713 0.664809 0.076543
O O6 0.241291 0.567005 0.079060
O O7 0.000000 0.615682 0.030273
O O8 0.238927 0.613023 0.925103
O O9 0.250000 0.171815 0.750000
O O10 0.226760 0.244559 0.866406
O O11 0.253507 0.156984 0.924373
O O12 0.000000 0.180597 0.842586
O O13 0.750000 0.682413 0.250000
O O14 0.500000 0.694712 0.334607
O O15 0.500000 0.109828 0.970495
O O16 0.261316 0.110863 0.075836
O O17 0.750000 0.399596 0.250000
O O18 0.763181 0.476110 0.139144
O O19 0.000000 0.419087 0.166437
O O20 0.250000 0.900648 0.750000
O O21 0.000000 0.905984 0.844838
O O22 0.250000 0.448476 0.750000
O O23 0.500000 0.466557 0.664408
#
# Coordination Sequence:
#
# PCOD8220000 Si02
#       8
#     8   8   8   8   8   8   8   8
#     4  10  20  34  52  76 107 139 170 205 245 291
#     4   9  16  28  47  68  90 121 160 193 231 286
#     4  10  20  35  53  74 100 127 158 198 248 301
#     4   9  18  32  51  73  96 123 153 192 241 291
#     4  12  23  34  52  76 102 134 171 208 247 292
#     4   9  17  29  44  63  91 125 159 194 230 273
#     4  10  21  37  55  76 104 137 171 207 246 288
#     4   9  16  26  42  65  93 124 155 189 230 278
#
# _framework density 18.021156000000001
#
# number of rings (size 3 to 8) (size 9 to 14) (size 15 to 20)
#    0.000    2.250    0.000    3.750    0.000    5.000 
#    0.000    1.250    0.000    3.750    0.000    1.750 
#    0.000    0.000    0.000    0.000    0.000    0.000 
#
# Total GULP energy -793625.283846 kJ/mol
# GULP energy per Si atom -12400.395060 kJ/mol
# Density = 1.798014 g / cm^3
# Si number density = 18.021156 Si / 1000 Ang^3
#
#
#
# Elastic Constant Matrix: (Units=GPa)
#
#
# Indices 1 2 3 4 5 6 
#
# 1 71.3079 31.5052 49.4005 0.0000 0.0000 0.0000
# 2 31.5052 79.6562 71.6167 0.0000 0.0000 0.0000
# 3 49.4005 71.6167 174.7789 0.0000 0.0000 0.0000
# 4 0.0000 0.0000 0.0000 29.8843 0.0000 0.0000
# 5 0.0000 0.0000 0.0000 0.0000 32.5354 0.0000
# 6 0.0000 0.0000 0.0000 0.0000 0.0000 21.2349
#
#
#
# Elastic Compliance Matrix: (Units=1/GPa)
#
#
# Indices 1 2 3 4 5 6 
#
# 1 0.018240 -0.004083 -0.003482 0.000000 0.000000 0.000000
# 2 -0.004083 0.020791 -0.007365 0.000000 0.000000 0.000000
# 3 -0.003482 -0.007365 0.009724 0.000000 0.000000 0.000000
# 4 0.000000 0.000000 0.000000 0.033462 0.000000 0.000000
# 5 0.000000 0.000000 0.000000 0.000000 0.030736 0.000000
# 6 0.000000 0.000000 0.000000 0.000000 0.000000 0.047092
#
#
# Mechanical properties :
#
#
# Convention : Reuss Voigt Hill
#
# Bulk Modulus (GPa) = 52.92927 70.08752 61.50840
# Shear Modulus (GPa) = 25.48369 28.27897 26.88133
#
# Velocity S-wave (km/s) = 3.76453 3.96562 3.86638
# Velocity P-wave (km/s) = 6.95198 7.74238 7.35780
#
# Compressibility (1/GPa) = 0.01889314
#
# Stress axis : x y z
#
# Youngs Moduli (GPa) = 54.82365 48.09873 102.84275
#
# Poissons Ratio (x) = 0.19641 0.35813
# Poissons Ratio (y) = 0.22387 0.75743
# Poissons Ratio (z) = 0.19091 0.35424
#
# Static dielectric constant tensor:
#      x y z
#    x 3.244800 0.000000 0.000000 
#    y 0.000000 3.329390 0.000000 
#    z 0.000000 0.000000 3.509910 
# 
# 
# High freq. dielectric constant tensor:
#      x y z
#    x 1.690420 0.000000 0.000000 
#    y 0.000000 1.677400 0.000000 
#    z 0.000000 0.000000 1.702890 
# 
# From -- ./inp_files/20941.got.cif
#   From: 2010.03.12/outbox.cif.g09.slc.cpg/sg53_11_cif.got.tgz:20941.got - 2010.04.16 14:36:59.
