data_PCOD8220513
_publ_section_title
;
Structure prediction by ZEFSAII (Michael W. Deem and Ramdas Pophale) SiO2 
 PCOD8220513
Probable space group: P M N A
;
_chemical_formula_sum "Si O2"
_cell_formula_units_Z 64
_cell_length_a 8.916243
_cell_length_b 23.165355
_cell_length_c 16.024835
_cell_angle_alpha 90.000000
_cell_angle_beta 90.000000
_cell_angle_gamma 90.000000
_cell_volume 3309.896568
_symmetry_space_group_name_H-M "P M N A"
_symmetry_group_IT_number 53
_symmetry_cell_setting 'orthorhombic'
loop_
_space_group_symop_operation_xyz
x,y,z
1/2-x,-y,1/2+z
x,-y,-z
1/2-x,y,1/2-z
-x,-y,-z
1/2+x,y,1/2-z
-x,y,z
1/2+x,-y,1/2+z
loop_
_atom_site_type_symbol
_atom_site_label
_atom_site_fract_x
_atom_site_fract_y
_atom_site_fract_z
Si Si1 0.176279 0.870949 0.495531
Si Si2 0.330330 0.572605 0.902938
Si Si3 0.824118 0.927725 0.664663
Si Si4 0.666341 0.370024 0.918395
Si Si5 0.676184 0.467601 0.663942
Si Si6 0.823979 0.061438 0.664782
Si Si7 0.177790 0.681808 0.833819
Si Si8 0.324686 0.739688 0.987430
O O1 0.242017 0.894176 0.583725
O O2 0.243180 0.904649 0.415448
O O3 0.215797 0.803877 0.483690
O O4 0.000000 0.882403 0.497809
O O5 0.500000 0.565597 0.869030
O O6 0.245867 0.511161 0.904002
O O7 0.240754 0.617312 0.845241
O O8 0.332311 0.595596 0.995866
O O9 0.750000 0.904012 0.750000
O O10 0.000000 0.917297 0.673665
O O11 0.783986 0.994610 0.651541
O O12 0.500000 0.372484 0.878302
O O13 0.782220 0.401040 0.856414
O O14 0.713988 0.303676 0.935946
O O15 0.750000 0.486789 0.750000
O O16 0.500000 0.474334 0.667509
O O17 0.750000 0.085008 0.750000
O O18 0.000000 0.071912 0.672877
O O19 0.250000 0.707955 0.750000
O O20 0.000000 0.679676 0.827019
O O21 0.224989 0.724293 0.907996
O O22 0.500000 0.732777 0.963134
#
# Coordination Sequence:
#
# PCOD8220513 Si02
#       8
#     8   8   8   8   8   8   8   8
#     4   9  17  32  55  78 103 140 182 219 261 317
#     4  10  20  36  57  80 106 133 163 202 252 309
#     4   9  17  30  50  78 111 144 178 215 259 314
#     4   9  19  36  55  73  98 132 166 204 253 306
#     4  12  24  36  53  77 104 131 164 207 254 305
#     4   9  17  31  52  78 107 140 178 221 267 315
#     4  11  21  34  52  75 105 138 173 212 256 307
#     4   9  19  36  55  74  99 134 175 216 259 308
#
# _framework density 19.335951000000001
#
# number of rings (size 3 to 8) (size 9 to 14) (size 15 to 20)
#    0.000    2.250    0.000    4.500    0.000    6.000 
#    0.000    3.750    0.000    4.500    0.000    0.000 
#    0.000    0.000    0.000    0.000    0.000    0.000 
#
# Total GULP energy -793571.950332 kJ/mol
# GULP energy per Si atom -12399.561724 kJ/mol
# Density = 1.929194 g / cm^3
# Si number density = 19.335951 Si / 1000 Ang^3
#
#
#
# Elastic Constant Matrix: (Units=GPa)
#
#
# Indices 1 2 3 4 5 6 
#
# 1 95.8109 31.9604 27.8138 0.0000 0.0000 0.0000
# 2 31.9604 108.5910 48.5014 0.0000 0.0000 0.0000
# 3 27.8138 48.5014 89.0722 0.0000 0.0000 0.0000
# 4 0.0000 0.0000 0.0000 21.2979 0.0000 0.0000
# 5 0.0000 0.0000 0.0000 0.0000 29.5297 0.0000
# 6 0.0000 0.0000 0.0000 0.0000 0.0000 13.3152
#
#
#
# Elastic Compliance Matrix: (Units=1/GPa)
#
#
# Indices 1 2 3 4 5 6 
#
# 1 0.011950 -0.002445 -0.002400 0.000000 0.000000 0.000000
# 2 -0.002445 0.012669 -0.006135 0.000000 0.000000 0.000000
# 3 -0.002400 -0.006135 0.015317 0.000000 0.000000 0.000000
# 4 0.000000 0.000000 0.000000 0.046953 0.000000 0.000000
# 5 0.000000 0.000000 0.000000 0.000000 0.033864 0.000000
# 6 0.000000 0.000000 0.000000 0.000000 0.000000 0.075102
#
#
# Mechanical properties :
#
#
# Convention : Reuss Voigt Hill
#
# Bulk Modulus (GPa) = 55.63208 56.66949 56.15078
# Shear Modulus (GPa) = 22.34084 25.17514 23.75799
#
# Velocity S-wave (km/s) = 3.40281 3.61222 3.50908
# Velocity P-wave (km/s) = 6.65377 6.83878 6.74691
#
# Compressibility (1/GPa) = 0.01797524
#
# Stress axis : x y z
#
# Youngs Moduli (GPa) = 83.68504 78.93577 65.28794
#
# Poissons Ratio (x) = 0.19300 0.15669
# Poissons Ratio (y) = 0.20461 0.40053
# Poissons Ratio (z) = 0.20085 0.48425
#
# Static dielectric constant tensor:
#      x y z
#    x 3.384620 0.000000 0.000000 
#    y 0.000000 3.590140 0.000000 
#    z 0.000000 0.000000 3.566310 
# 
# 
# High freq. dielectric constant tensor:
#      x y z
#    x 1.734700 0.000000 0.000000 
#    y 0.000000 1.746150 0.000000 
#    z 0.000000 0.000000 1.749070 
# 
# From -- ./inp_files/20885.got.cif
#   From: 2010.03.12/outbox.cif.g09.slc.cpg/sg53_11_cif.got.tgz:20885.got - 2010.04.16 14:36:59.
