data_PCOD8220172
_publ_section_title
;
Structure prediction by ZEFSAII (Michael W. Deem and Ramdas Pophale) SiO2 
 PCOD8220172
Probable space group: P M N A
;
_chemical_formula_sum "Si O2"
_cell_formula_units_Z 48
_cell_length_a 18.689303
_cell_length_b 14.031703
_cell_length_c 7.912575
_cell_angle_alpha 90.000000
_cell_angle_beta 90.000000
_cell_angle_gamma 90.000000
_cell_volume 2075.015419
_symmetry_space_group_name_H-M "P M N A"
_symmetry_group_IT_number 53
_symmetry_cell_setting 'orthorhombic'
loop_
_space_group_symop_operation_xyz
x,y,z
1/2-x,-y,1/2+z
x,-y,-z
1/2-x,y,1/2-z
-x,-y,-z
1/2+x,y,1/2-z
-x,y,z
1/2+x,-y,1/2+z
loop_
_atom_site_type_symbol
_atom_site_label
_atom_site_fract_x
_atom_site_fract_y
_atom_site_fract_z
Si Si1 0.784882 0.600710 0.434711
Si Si2 0.672074 0.043721 0.686170
Si Si3 0.422119 0.882097 0.777902
Si Si4 0.579329 0.208869 0.589662
Si Si5 0.082387 0.682026 0.584877
Si Si6 0.863540 0.390699 0.059042
O O1 0.812368 0.500000 0.500000
O O2 0.750000 0.596696 0.250000
O O3 0.858334 0.661444 0.440131
O O4 0.721450 0.634588 0.561709
O O5 0.750000 0.066123 0.750000
O O6 0.631496 0.144626 0.703650
O O7 0.671873 0.000000 0.500000
O O8 0.635614 0.965039 0.807902
O O9 0.500000 0.929498 0.802212
O O10 0.417684 0.836031 0.594504
O O11 0.410501 0.795752 0.906010
O O12 0.500000 0.203422 0.668289
O O13 0.600878 0.319992 0.578120
O O14 0.103271 0.626098 0.756364
O O15 0.000000 0.654023 0.537080
O O16 0.876091 0.500000 0.000000
#
# Coordination Sequence:
#
# PCOD8220172 Si02
#       6
#     8   8   8   8   8   8
#     4  11  23  41  62  86 123 169 211 259 320 387
#     4  10  20  34  56  85 117 156 202 251 303 366
#     4   8  16  33  58  85 111 146 195 249 303 360
#     4   9  18  33  56  86 117 151 195 251 307 360
#     4  10  21  38  62  92 123 158 207 264 320 383
#     4  10  20  37  62  89 123 166 214 262 314 375
#
# _framework density 23.132358
#
# number of rings (size 3 to 8) (size 9 to 14) (size 15 to 20)
#    0.000    2.333    0.000    4.500    0.000    8.333 
#    0.000    1.667    0.000    4.500    0.000    0.000 
#    0.000    0.000    0.000    0.000    0.000    0.000 
#
# Total GULP energy -594805.861044 kJ/mol
# GULP energy per Si atom -12391.788772 kJ/mol
# Density = 2.307971 g / cm^3
# Si number density = 23.132358 Si / 1000 Ang^3
#
#
#
# Elastic Constant Matrix: (Units=GPa)
#
#
# Indices 1 2 3 4 5 6 
#
# 1 220.4147 92.0526 37.1190 0.0000 0.0000 0.0000
# 2 92.0526 146.2601 29.3386 0.0000 0.0000 0.0000
# 3 37.1190 29.3386 55.5570 0.0000 0.0000 0.0000
# 4 0.0000 0.0000 0.0000 13.4396 0.0000 0.0000
# 5 0.0000 0.0000 0.0000 0.0000 25.0481 0.0000
# 6 0.0000 0.0000 0.0000 0.0000 0.0000 10.9117
#
#
#
# Elastic Compliance Matrix: (Units=1/GPa)
#
#
# Indices 1 2 3 4 5 6 
#
# 1 0.006432 -0.003564 -0.002415 0.000000 0.000000 0.000000
# 2 -0.003564 0.009622 -0.002700 0.000000 0.000000 0.000000
# 3 -0.002415 -0.002700 0.021039 0.000000 0.000000 0.000000
# 4 0.000000 0.000000 0.000000 0.074407 0.000000 0.000000
# 5 0.000000 0.000000 0.000000 0.000000 0.039923 0.000000
# 6 0.000000 0.000000 0.000000 0.000000 0.000000 0.091645
#
#
# Mechanical properties :
#
#
# Convention : Reuss Voigt Hill
#
# Bulk Modulus (GPa) = 50.67268 82.13912 66.40590
# Shear Modulus (GPa) = 18.72631 27.46132 23.09382
#
# Velocity S-wave (km/s) = 2.84831 3.44923 3.16307
# Velocity P-wave (km/s) = 5.72453 7.17275 6.48917
#
# Compressibility (1/GPa) = 0.01973450
#
# Stress axis : x y z
#
# Youngs Moduli (GPa) = 155.47356 103.93298 47.53033
#
# Poissons Ratio (x) = 0.37038 0.11481
# Poissons Ratio (y) = 0.55405 0.12833
# Poissons Ratio (z) = 0.37554 0.28062
#
# Static dielectric constant tensor:
#      x y z
#    x 4.498080 0.000000 0.000000 
#    y 0.000000 4.404570 0.000000 
#    z 0.000000 0.000000 3.872450 
# 
# 
# High freq. dielectric constant tensor:
#      x y z
#    x 1.925220 0.000000 0.000000 
#    y 0.000000 1.916030 0.000000 
#    z 0.000000 0.000000 1.890750 
# 
# From -- ./inp_files/9916.got.cif
#   From: 2010.03.12/outbox.cif.g09.slc.cpg/sg53_5_cif.got.tgz:9916.got - 2010.04.16 14:36:59.
