data_PCOD8220159
_publ_section_title
;
Structure prediction by ZEFSAII (Michael W. Deem and Ramdas Pophale) SiO2 
 PCOD8220159
Probable space group: P M N A
;
_chemical_formula_sum "Si O2"
_cell_formula_units_Z 64
_cell_length_a 16.180871
_cell_length_b 9.973145
_cell_length_c 20.624483
_cell_angle_alpha 90.000000
_cell_angle_beta 90.000000
_cell_angle_gamma 90.000000
_cell_volume 3328.258882
_symmetry_space_group_name_H-M "P M N A"
_symmetry_group_IT_number 53
_symmetry_cell_setting 'orthorhombic'
loop_
_space_group_symop_operation_xyz
x,y,z
1/2-x,-y,1/2+z
x,-y,-z
1/2-x,y,1/2-z
-x,-y,-z
1/2+x,y,1/2-z
-x,y,z
1/2+x,-y,1/2+z
loop_
_atom_site_type_symbol
_atom_site_label
_atom_site_fract_x
_atom_site_fract_y
_atom_site_fract_z
Si Si1 0.182199 0.993963 0.806903
Si Si2 0.689259 0.685156 0.125280
Si Si3 0.902788 0.186564 0.369063
Si Si4 0.678987 0.458966 0.696832
Si Si5 0.597282 0.545247 0.932058
Si Si6 0.906587 0.771468 0.256353
Si Si7 0.597540 0.736207 0.721598
Si Si8 0.208214 0.957326 0.426758
O O1 0.250000 0.978106 0.750000
O O2 0.132392 0.857736 0.820262
O O3 0.215613 0.032431 0.877648
O O4 0.113824 0.103311 0.788759
O O5 0.777588 0.607515 0.132919
O O6 0.619930 0.570543 0.118542
O O7 0.662715 0.772627 0.187632
O O8 0.686920 0.797534 0.068550
O O9 0.868036 0.309869 0.411975
O O10 0.878687 0.227430 0.295923
O O11 0.864057 0.048807 0.395284
O O12 0.000000 0.166903 0.375708
O O13 0.750000 0.456710 0.750000
O O14 0.601612 0.366317 0.716297
O O15 0.644161 0.608268 0.691083
O O16 0.500000 0.555523 0.936246
O O17 0.637552 0.500000 0.000000
O O18 0.000000 0.785163 0.282978
O O19 0.500000 0.716046 0.713834
O O20 0.229772 0.000000 0.500000
#
# Coordination Sequence:
#
# PCOD8220159 Si02
#       8
#     8   8   8   8   8   8   8   8
#     4  12  21  40  60  86 120 152 198 253 297 351
#     4  11  21  37  57  88 120 159 201 246 300 358
#     4  10  21  37  58  88 125 163 202 243 297 364
#     4  10  20  34  55  88 124 152 186 248 300 355
#     4  10  21  36  53  80 123 168 204 239 290 363
#     4  11  20  35  60  87 119 155 194 245 299 350
#     4  11  22  36  60  92 119 152 198 250 312 362
#     4  12  25  40  60  87 123 164 207 249 297 360
#
# _framework density 19.229272000000002
#
# number of rings (size 3 to 8) (size 9 to 14) (size 15 to 20)
#    0.000    1.125    3.750    4.125    1.750    3.250 
#    0.000    0.000    0.000    1.500    0.000    0.875 
#    0.000    0.000    0.000    0.000    0.000    0.000 
#
# Total GULP energy -793171.946310 kJ/mol
# GULP energy per Si atom -12393.311661 kJ/mol
# Density = 1.918551 g / cm^3
# Si number density = 19.229272 Si / 1000 Ang^3
#
#
#
# Elastic Constant Matrix: (Units=GPa)
#
#
# Indices 1 2 3 4 5 6 
#
# 1 65.5870 39.4328 19.3800 0.0000 0.0000 0.0000
# 2 39.4328 139.9561 25.4037 0.0000 0.0000 0.0000
# 3 19.3800 25.4037 51.3635 0.0000 0.0000 0.0000
# 4 0.0000 0.0000 0.0000 25.9024 0.0000 0.0000
# 5 0.0000 0.0000 0.0000 0.0000 13.5946 0.0000
# 6 0.0000 0.0000 0.0000 0.0000 0.0000 23.9810
#
#
#
# Elastic Compliance Matrix: (Units=1/GPa)
#
#
# Indices 1 2 3 4 5 6 
#
# 1 0.019500 -0.004569 -0.005098 0.000000 0.000000 0.000000
# 2 -0.004569 0.008920 -0.002688 0.000000 0.000000 0.000000
# 3 -0.005098 -0.002688 0.022722 0.000000 0.000000 0.000000
# 4 0.000000 0.000000 0.000000 0.038607 0.000000 0.000000
# 5 0.000000 0.000000 0.000000 0.000000 0.073559 0.000000
# 6 0.000000 0.000000 0.000000 0.000000 0.000000 0.041700
#
#
# Mechanical properties :
#
#
# Convention : Reuss Voigt Hill
#
# Bulk Modulus (GPa) = 37.83153 47.25996 42.54575
# Shear Modulus (GPa) = 20.96191 24.20827 22.58509
#
# Velocity S-wave (km/s) = 3.30525 3.55199 3.43084
# Velocity P-wave (km/s) = 5.85516 6.43837 6.15368
#
# Compressibility (1/GPa) = 0.02643298
#
# Stress axis : x y z
#
# Youngs Moduli (GPa) = 51.28142 112.10401 44.01013
#
# Poissons Ratio (x) = 0.51219 0.22436
# Poissons Ratio (y) = 0.23430 0.11830
# Poissons Ratio (z) = 0.26143 0.30133
#
# Static dielectric constant tensor:
#      x y z
#    x 3.385510 0.000000 0.000000 
#    y 0.000000 3.932900 0.000000 
#    z 0.000000 0.000000 3.470690 
# 
# 
# High freq. dielectric constant tensor:
#      x y z
#    x 1.730600 0.000000 0.000000 
#    y 0.000000 1.779780 0.000000 
#    z 0.000000 0.000000 1.710610 
# 
# From -- ./inp_files/32852.got.cif
#   From: 2010.03.12/outbox.cif.g09.slc.cpg/sg53_17_cif.got.tgz:32852.got - 2010.04.16 14:36:59.
