data_PCOD8220083
_publ_section_title
;
Structure prediction by ZEFSAII (Michael W. Deem and Ramdas Pophale) SiO2 
 PCOD8220083
Probable space group: P M N A
;
_chemical_formula_sum "Si O2"
_cell_formula_units_Z 48
_cell_length_a 8.566902
_cell_length_b 14.402056
_cell_length_c 20.845664
_cell_angle_alpha 90.000000
_cell_angle_beta 90.000000
_cell_angle_gamma 90.000000
_cell_volume 2571.958919
_symmetry_space_group_name_H-M "P M N A"
_symmetry_group_IT_number 53
_symmetry_cell_setting 'orthorhombic'
loop_
_space_group_symop_operation_xyz
x,y,z
1/2-x,-y,1/2+z
x,-y,-z
1/2-x,y,1/2-z
-x,-y,-z
1/2+x,y,1/2-z
-x,y,z
1/2+x,-y,1/2+z
loop_
_atom_site_type_symbol
_atom_site_label
_atom_site_fract_x
_atom_site_fract_y
_atom_site_fract_z
Si Si1 0.816444 0.210254 0.182089
Si Si2 0.313984 0.069472 0.557659
Si Si3 0.673536 0.537468 0.427990
Si Si4 0.683858 0.725810 0.476085
Si Si5 0.814381 0.024654 0.321221
Si Si6 0.321311 0.357065 0.100841
O O1 0.750000 0.180108 0.250000
O O2 0.767493 0.115923 0.145316
O O3 0.720731 0.302818 0.165336
O O4 0.000000 0.229184 0.178728
O O5 0.500000 0.066585 0.566642
O O6 0.250995 0.172922 0.540305
O O7 0.262785 0.000000 0.500000
O O8 0.230039 0.052088 0.625751
O O9 0.668324 0.500000 0.500000
O O10 0.500000 0.537467 0.398093
O O11 0.745648 0.642355 0.428916
O O12 0.779273 0.465447 0.388279
O O13 0.500000 0.726048 0.470218
O O14 0.722304 0.698528 0.548551
O O15 0.750000 0.997223 0.250000
O O16 0.000000 0.037643 0.316125
O O17 0.500000 0.349373 0.081958
#
# Coordination Sequence:
#
# PCOD8220083 Si02
#       6
#     8   8   8   8   8   8
#     4  11  21  35  53  73  99 130 166 206 251 303
#     4  10  20  34  54  80 109 141 177 219 267 312
#     4   8  15  29  47  68  96 132 169 202 245 300
#     4   9  18  32  50  73 103 138 173 211 255 302
#     4  11  22  37  56  78 106 140 178 216 258 312
#     4  11  20  30  48  75 104 132 165 206 254 306
#
# _framework density 18.662818000000001
#
# number of rings (size 3 to 8) (size 9 to 14) (size 15 to 20)
#    0.000    2.000    0.000    7.500    0.000    5.333 
#    0.000    0.000    0.000    1.000    0.000    4.667 
#    0.000    0.000    0.000    0.000    0.000    0.000 
#
# Total GULP energy -594697.741333 kJ/mol
# GULP energy per Si atom -12389.536278 kJ/mol
# Density = 1.862034 g / cm^3
# Si number density = 18.662818 Si / 1000 Ang^3
#
#
#
# Elastic Constant Matrix: (Units=GPa)
#
#
# Indices 1 2 3 4 5 6 
#
# 1 37.8858 32.7570 15.1893 0.0000 0.0000 0.0000
# 2 32.7570 161.1189 38.0401 0.0000 0.0000 0.0000
# 3 15.1893 38.0401 56.2341 0.0000 0.0000 0.0000
# 4 0.0000 0.0000 0.0000 39.8637 0.0000 0.0000
# 5 0.0000 0.0000 0.0000 0.0000 23.9388 0.0000
# 6 0.0000 0.0000 0.0000 0.0000 0.0000 17.3143
#
#
#
# Elastic Compliance Matrix: (Units=1/GPa)
#
#
# Indices 1 2 3 4 5 6 
#
# 1 0.033278 -0.005526 -0.005250 0.000000 0.000000 0.000000
# 2 -0.005526 0.008304 -0.004125 0.000000 0.000000 0.000000
# 3 -0.005250 -0.004125 0.021991 0.000000 0.000000 0.000000
# 4 0.000000 0.000000 0.000000 0.025085 0.000000 0.000000
# 5 0.000000 0.000000 0.000000 0.000000 0.041773 0.000000
# 6 0.000000 0.000000 0.000000 0.000000 0.000000 0.057756
#
#
# Mechanical properties :
#
#
# Convention : Reuss Voigt Hill
#
# Bulk Modulus (GPa) = 29.61143 47.46796 38.53969
# Shear Modulus (GPa) = 21.81053 27.50686 24.65870
#
# Velocity S-wave (km/s) = 3.42228 3.84329 3.63888
# Velocity P-wave (km/s) = 5.61400 6.72192 6.19278
#
# Compressibility (1/GPa) = 0.03377075
#
# Stress axis : x y z
#
# Youngs Moduli (GPa) = 30.04974 120.42488 45.47285
#
# Poissons Ratio (x) = 0.66548 0.23875
# Poissons Ratio (y) = 0.16606 0.18756
# Poissons Ratio (z) = 0.15778 0.49671
#
# Static dielectric constant tensor:
#      x y z
#    x 3.282730 0.000000 0.000000 
#    y 0.000000 4.166530 0.000000 
#    z 0.000000 0.000000 3.143040 
# 
# 
# High freq. dielectric constant tensor:
#      x y z
#    x 1.719750 0.000000 0.000000 
#    y 0.000000 1.737390 0.000000 
#    z 0.000000 0.000000 1.686870 
# 
# From -- ./inp_files/30492.got.cif
#   From: 2010.03.12/outbox.cif.g09.slc.cpg/sg53_16_cif.got.tgz:30492.got - 2010.04.16 14:36:59.
