data_PCOD8220887
_publ_section_title
;
Structure prediction by ZEFSAII (Michael W. Deem and Ramdas Pophale) SiO2 
 PCOD8220887
Probable space group: P M N A
;
_chemical_formula_sum "Si O2"
_cell_formula_units_Z 40
_cell_length_a 9.389330
_cell_length_b 24.129120
_cell_length_c 9.315075
_cell_angle_alpha 90.000000
_cell_angle_beta 90.000000
_cell_angle_gamma 90.000000
_cell_volume 2110.388649
_symmetry_space_group_name_H-M "P M N A"
_symmetry_group_IT_number 53
_symmetry_cell_setting 'orthorhombic'
loop_
_space_group_symop_operation_xyz
x,y,z
1/2-x,-y,1/2+z
x,-y,-z
1/2-x,y,1/2-z
-x,-y,-z
1/2+x,y,1/2-z
-x,y,z
1/2+x,-y,1/2+z
loop_
_atom_site_type_symbol
_atom_site_label
_atom_site_fract_x
_atom_site_fract_y
_atom_site_fract_z
Si Si1 0.755406 0.365394 0.417515
Si Si2 0.669336 0.149733 0.606998
Si Si3 0.327570 0.262067 0.895419
Si Si4 0.000000 0.559441 0.925377
Si Si5 0.000000 0.444889 0.411084
Si Si6 0.835305 0.950983 0.897366
O O1 0.750000 0.352717 0.250000
O O2 0.784110 0.306405 0.486883
O O3 0.622561 0.399366 0.474580
O O4 0.871183 0.408876 0.463325
O O5 0.750000 0.127383 0.750000
O O6 0.500000 0.160741 0.637864
O O7 0.753570 0.204622 0.556855
O O8 0.688037 0.106607 0.478986
O O9 0.250000 0.281301 0.750000
O O10 0.500000 0.256307 0.879737
O O11 0.000000 0.543899 0.758177
O O12 0.000000 0.500000 0.000000
O O13 0.000000 0.500000 0.500000
O O14 0.750000 0.950531 0.750000
O O15 0.000000 0.960979 0.859311
O O16 0.778891 0.000000 0.000000
#
# Coordination Sequence:
#
# PCOD8220887 Si02
#       6
#     8   8   8   4   4   8
#     4  10  22  39  58  83 114 151 188 234 289 347
#     4  10  21  38  60  87 119 155 196 245 293 346
#     4  11  23  39  60  87 117 153 196 242 290 345
#     4  10  22  36  58  86 112 146 187 234 289 344
#     4  10  20  38  58  80 114 146 187 234 283 344
#     4  10  22  39  60  90 124 160 204 247 294 350
#
# _framework density 18.953854
#
# number of rings (size 3 to 8) (size 9 to 14) (size 15 to 20)
#    0.000    1.800    1.000    3.600    2.800    4.400 
#    0.000    2.000    0.000    0.000    0.000    0.000 
#    0.000    0.000    0.000    0.000    0.000    0.000 
#
# Total GULP energy -495595.369993 kJ/mol
# GULP energy per Si atom -12389.884250 kJ/mol
# Density = 1.891071 g / cm^3
# Si number density = 18.953854 Si / 1000 Ang^3
#
#
#
# Elastic Constant Matrix: (Units=GPa)
#
#
# Indices 1 2 3 4 5 6 
#
# 1 167.9956 65.8406 61.7356 0.0000 0.0000 0.0000
# 2 65.8406 113.6775 76.6679 0.0000 0.0000 0.0000
# 3 61.7356 76.6679 101.3928 0.0000 0.0000 0.0000
# 4 0.0000 0.0000 0.0000 44.9656 0.0000 0.0000
# 5 0.0000 0.0000 0.0000 0.0000 33.3820 0.0000
# 6 0.0000 0.0000 0.0000 0.0000 0.0000 38.3855
#
#
#
# Elastic Compliance Matrix: (Units=1/GPa)
#
#
# Indices 1 2 3 4 5 6 
#
# 1 0.008076 -0.002778 -0.002817 0.000000 0.000000 0.000000
# 2 -0.002778 0.018907 -0.012605 0.000000 0.000000 0.000000
# 3 -0.002817 -0.012605 0.021109 0.000000 0.000000 0.000000
# 4 0.000000 0.000000 0.000000 0.022239 0.000000 0.000000
# 5 0.000000 0.000000 0.000000 0.000000 0.029956 0.000000
# 6 0.000000 0.000000 0.000000 0.000000 0.000000 0.026052
#
#
# Mechanical properties :
#
#
# Convention : Reuss Voigt Hill
#
# Bulk Modulus (GPa) = 85.52443 87.95045 86.73744
# Shear Modulus (GPa) = 30.00526 35.26808 32.63667
#
# Velocity S-wave (km/s) = 3.98310 4.31830 4.15408
# Velocity P-wave (km/s) = 8.14701 8.44789 8.29881
#
# Compressibility (1/GPa) = 0.01169257
#
# Stress axis : x y z
#
# Youngs Moduli (GPa) = 123.81666 52.89036 47.37257
#
# Poissons Ratio (x) = 0.14692 0.13345
# Poissons Ratio (y) = 0.34394 0.59714
# Poissons Ratio (z) = 0.34880 0.66669
#
# Static dielectric constant tensor:
#      x y z
#    x 3.830600 0.000000 0.000000 
#    y 0.000000 3.524660 0.000000 
#    z 0.000000 0.000000 3.332900 
# 
# 
# High freq. dielectric constant tensor:
#      x y z
#    x 1.757930 0.000000 0.000000 
#    y 0.000000 1.751410 0.000000 
#    z 0.000000 0.000000 1.729080 
# 
# From -- ./inp_files/6349.got.cif
#   From: 2010.03.12/outbox.cif.g09.slc.cpg/sg53_4_cif.got.tgz:6349.got - 2010.04.16 14:36:59.
