data_PCOD8220605
_publ_section_title
;
Structure prediction by ZEFSAII (Michael W. Deem and Ramdas Pophale) SiO2 
 PCOD8220605
Probable space group: P M N A
;
_chemical_formula_sum "Si O2"
_cell_formula_units_Z 48
_cell_length_a 8.672950
_cell_length_b 30.317341
_cell_length_c 9.549453
_cell_angle_alpha 90.000000
_cell_angle_beta 90.000000
_cell_angle_gamma 90.000000
_cell_volume 2510.940645
_symmetry_space_group_name_H-M "P M N A"
_symmetry_group_IT_number 53
_symmetry_cell_setting 'orthorhombic'
loop_
_space_group_symop_operation_xyz
x,y,z
1/2-x,-y,1/2+z
x,-y,-z
1/2-x,y,1/2-z
-x,-y,-z
1/2+x,y,1/2-z
-x,y,z
1/2+x,-y,1/2+z
loop_
_atom_site_type_symbol
_atom_site_label
_atom_site_fract_x
_atom_site_fract_y
_atom_site_fract_z
Si Si1 0.683009 0.286274 0.101108
Si Si2 0.818536 0.864513 0.898178
Si Si3 0.682072 0.618696 0.604085
Si Si4 0.680778 0.539412 0.404002
Si Si5 0.317520 0.037028 0.397500
Si Si6 0.816998 0.786451 0.096387
O O1 0.750000 0.270272 0.250000
O O2 0.500000 0.284062 0.107184
O O3 0.737151 0.335513 0.065753
O O4 0.746016 0.255818 0.978489
O O5 0.750000 0.849702 0.750000
O O6 0.762220 0.913726 0.941233
O O7 0.000000 0.863252 0.880993
O O8 0.762687 0.830596 0.016209
O O9 0.750000 0.599956 0.750000
O O10 0.500000 0.625892 0.621723
O O11 0.722173 0.585283 0.479351
O O12 0.748723 0.500000 0.500000
O O13 0.750000 0.538481 0.250000
O O14 0.500000 0.533007 0.387485
O O15 0.250000 0.023748 0.250000
O O16 0.500000 0.034972 0.391604
O O17 0.249543 0.000000 0.500000
O O18 0.750000 0.789682 0.250000
O O19 0.000000 0.781763 0.100718
#
# Coordination Sequence:
#
# PCOD8220605 Si02
#       6
#     8   8   8   8   8   8
#     4  11  22  38  60  84 111 145 184 224 271 325
#     4   9  19  35  55  77 103 138 178 219 263 317
#     4  10  20  36  58  84 113 144 183 226 269 320
#     4  10  22  38  57  83 113 146 184 225 269 320
#     4   9  18  33  52  76 106 138 174 216 262 314
#     4  11  23  38  55  79 110 142 180 225 275 325
#
# _framework density 19.116342
#
# number of rings (size 3 to 8) (size 9 to 14) (size 15 to 20)
#    0.000    2.000    0.000    4.500    0.000    6.000 
#    0.000    1.667    0.000    0.000    0.000    0.000 
#    0.000    0.000    0.000    0.000    0.000    0.000 
#
# Total GULP energy -595257.876097 kJ/mol
# GULP energy per Si atom -12401.205752 kJ/mol
# Density = 1.907283 g / cm^3
# Si number density = 19.116342 Si / 1000 Ang^3
#
#
#
# Elastic Constant Matrix: (Units=GPa)
#
#
# Indices 1 2 3 4 5 6 
#
# 1 75.8441 49.0629 54.6192 0.0000 0.0000 0.0000
# 2 49.0629 122.8768 106.4452 0.0000 0.0000 0.0000
# 3 54.6192 106.4452 181.9331 0.0000 0.0000 0.0000
# 4 0.0000 0.0000 0.0000 36.8880 0.0000 0.0000
# 5 0.0000 0.0000 0.0000 0.0000 36.4792 0.0000
# 6 0.0000 0.0000 0.0000 0.0000 0.0000 6.7895
#
#
#
# Elastic Compliance Matrix: (Units=1/GPa)
#
#
# Indices 1 2 3 4 5 6 
#
# 1 0.018309 -0.005169 -0.002473 0.000000 0.000000 0.000000
# 2 -0.005169 0.017961 -0.008957 0.000000 0.000000 0.000000
# 3 -0.002473 -0.008957 0.011479 0.000000 0.000000 0.000000
# 4 0.000000 0.000000 0.000000 0.027109 0.000000 0.000000
# 5 0.000000 0.000000 0.000000 0.000000 0.027413 0.000000
# 6 0.000000 0.000000 0.000000 0.000000 0.000000 0.147287
#
#
# Mechanical properties :
#
#
# Convention : Reuss Voigt Hill
#
# Bulk Modulus (GPa) = 68.71318 88.98985 78.85152
# Shear Modulus (GPa) = 17.38488 27.39977 22.39233
#
# Velocity S-wave (km/s) = 3.01894 3.79002 3.42624
# Velocity P-wave (km/s) = 6.94080 8.11204 7.54917
#
# Compressibility (1/GPa) = 0.01455325
#
# Stress axis : x y z
#
# Youngs Moduli (GPa) = 54.61753 55.67538 87.11205
#
# Poissons Ratio (x) = 0.28776 0.21540
# Poissons Ratio (y) = 0.28229 0.78027
# Poissons Ratio (z) = 0.13505 0.49869
#
# Static dielectric constant tensor:
#      x y z
#    x 3.491700 0.000000 0.000000 
#    y 0.000000 3.829580 0.000000 
#    z 0.000000 0.000000 3.544370 
# 
# 
# High freq. dielectric constant tensor:
#      x y z
#    x 1.744980 0.000000 0.000000 
#    y 0.000000 1.758250 0.000000 
#    z 0.000000 0.000000 1.743430 
# 
# From -- ./inp_files/6651.got.cif
#   From: 2010.03.12/outbox.cif.g09.slc.cpg/sg53_4_cif.got.tgz:6651.got - 2010.04.16 14:36:59.
