data_PCOD8220312
_publ_section_title
;
Structure prediction by ZEFSAII (Michael W. Deem and Ramdas Pophale) SiO2 
 PCOD8220312
Probable space group: P M N A
;
_chemical_formula_sum "Si O2"
_cell_formula_units_Z 64
_cell_length_a 8.798604
_cell_length_b 19.623346
_cell_length_c 20.214139
_cell_angle_alpha 90.000000
_cell_angle_beta 90.000000
_cell_angle_gamma 90.000000
_cell_volume 3490.133834
_symmetry_space_group_name_H-M "P M N A"
_symmetry_group_IT_number 53
_symmetry_cell_setting 'orthorhombic'
loop_
_space_group_symop_operation_xyz
x,y,z
1/2-x,-y,1/2+z
x,-y,-z
1/2-x,y,1/2-z
-x,-y,-z
1/2+x,y,1/2-z
-x,y,z
1/2+x,-y,1/2+z
loop_
_atom_site_type_symbol
_atom_site_label
_atom_site_fract_x
_atom_site_fract_y
_atom_site_fract_z
Si Si1 0.178831 0.182280 0.942150
Si Si2 0.680228 0.164261 0.081958
Si Si3 0.679284 0.061062 0.318986
Si Si4 0.174902 0.664759 0.040726
Si Si5 0.819412 0.427573 0.319046
Si Si6 0.177236 0.096584 0.817662
Si Si7 0.320648 0.305540 0.391583
Si Si8 0.679293 0.529376 0.068400
O O1 0.212953 0.261773 0.927970
O O2 0.239586 0.139924 0.879543
O O3 0.000000 0.171243 0.955883
O O4 0.268706 0.156590 0.006150
O O5 0.500000 0.168318 0.085941
O O6 0.740956 0.098867 0.120640
O O7 0.751470 0.230631 0.116468
O O8 0.750000 0.087047 0.250000
O O9 0.500000 0.075031 0.318817
O O10 0.718744 0.981909 0.329608
O O11 0.269743 0.607300 0.078966
O O12 0.000000 0.646278 0.049586
O O13 0.220746 0.665127 0.963637
O O14 0.750000 0.451425 0.250000
O O15 0.754949 0.353384 0.336922
O O16 0.760508 0.483033 0.371838
O O17 0.000000 0.423915 0.315225
O O18 0.250000 0.124149 0.750000
O O19 0.000000 0.108238 0.810725
O O20 0.500000 0.301039 0.380291
O O21 0.500000 0.527013 0.065945
O O22 0.748525 0.500000 0.000000
#
# Coordination Sequence:
#
# PCOD8220312 Si02
#       8
#     8   8   8   8   8   8   8   8
#     4   9  19  37  56  81 113 146 182 226 277 329
#     4  11  22  35  54  82 113 146 182 227 273 321
#     4  10  20  36  56  79 107 144 185 228 274 329
#     4   9  18  32  55  82 107 136 177 222 262 316
#     4  11  23  38  55  79 111 145 181 225 272 322
#     4   9  19  36  59  81 108 144 185 229 278 332
#     4  10  20  36  56  79 107 141 178 219 268 326
#     4  10  20  35  56  80 107 140 178 223 269 318
#
# _framework density 18.337405
#
# number of rings (size 3 to 8) (size 9 to 14) (size 15 to 20)
#    0.000    2.125    1.250    3.000    0.000    5.250 
#    0.000    5.625    0.000    3.000    0.000    0.000 
#    0.000    0.000    0.000    0.000    0.000    0.000 
#
# Total GULP energy -793800.717836 kJ/mol
# GULP energy per Si atom -12403.136216 kJ/mol
# Density = 1.829567 g / cm^3
# Si number density = 18.337405 Si / 1000 Ang^3
#
#
#
# Elastic Constant Matrix: (Units=GPa)
#
#
# Indices 1 2 3 4 5 6 
#
# 1 70.0213 35.4714 43.2628 0.0000 0.0000 0.0000
# 2 35.4714 96.6427 70.1359 0.0000 0.0000 0.0000
# 3 43.2628 70.1359 125.5127 0.0000 0.0000 0.0000
# 4 0.0000 0.0000 0.0000 33.1892 0.0000 0.0000
# 5 0.0000 0.0000 0.0000 0.0000 29.7373 0.0000
# 6 0.0000 0.0000 0.0000 0.0000 0.0000 28.7599
#
#
#
# Elastic Compliance Matrix: (Units=1/GPa)
#
#
# Indices 1 2 3 4 5 6 
#
# 1 0.018908 -0.003718 -0.004440 0.000000 0.000000 0.000000
# 2 -0.003718 0.018137 -0.008853 0.000000 0.000000 0.000000
# 3 -0.004440 -0.008853 0.014445 0.000000 0.000000 0.000000
# 4 0.000000 0.000000 0.000000 0.030130 0.000000 0.000000
# 5 0.000000 0.000000 0.000000 0.000000 0.033628 0.000000
# 6 0.000000 0.000000 0.000000 0.000000 0.000000 0.034771
#
#
# Mechanical properties :
#
#
# Convention : Reuss Voigt Hill
#
# Bulk Modulus (GPa) = 57.24826 65.54631 61.39728
# Shear Modulus (GPa) = 26.33471 27.89105 27.11288
#
# Velocity S-wave (km/s) = 3.79373 3.90422 3.84937
# Velocity P-wave (km/s) = 7.10472 7.49307 7.30148
#
# Compressibility (1/GPa) = 0.01746778
#
# Stress axis : x y z
#
# Youngs Moduli (GPa) = 52.88794 55.13560 69.22835
#
# Poissons Ratio (x) = 0.20498 0.30736
# Poissons Ratio (y) = 0.19663 0.61291
# Poissons Ratio (z) = 0.23481 0.48814
#
# Static dielectric constant tensor:
#      x y z
#    x 3.315570 0.000000 0.000000 
#    y 0.000000 3.435910 0.000000 
#    z 0.000000 0.000000 3.398830 
# 
# 
# High freq. dielectric constant tensor:
#      x y z
#    x 1.712470 0.000000 0.000000 
#    y 0.000000 1.713830 0.000000 
#    z 0.000000 0.000000 1.702370 
# 
# From -- ./inp_files/31262.got.cif
#   From: 2010.03.12/outbox.cif.g09.slc.cpg/sg53_16_cif.got.tgz:31262.got - 2010.04.16 14:36:59.
