data_PCOD8220685
_publ_section_title
;
Structure prediction by ZEFSAII (Michael W. Deem and Ramdas Pophale) SiO2 
 PCOD8220685
Probable space group: P M N A
;
_chemical_formula_sum "Si O2"
_cell_formula_units_Z 40
_cell_length_a 8.817876
_cell_length_b 7.749909
_cell_length_c 28.594768
_cell_angle_alpha 90.000000
_cell_angle_beta 90.000000
_cell_angle_gamma 90.000000
_cell_volume 1954.101723
_symmetry_space_group_name_H-M "P M N A"
_symmetry_group_IT_number 53
_symmetry_cell_setting 'orthorhombic'
loop_
_space_group_symop_operation_xyz
x,y,z
1/2-x,-y,1/2+z
x,-y,-z
1/2-x,y,1/2-z
-x,-y,-z
1/2+x,y,1/2-z
-x,y,z
1/2+x,-y,1/2+z
loop_
_atom_site_type_symbol
_atom_site_label
_atom_site_fract_x
_atom_site_fract_y
_atom_site_fract_z
Si Si1 0.821974 0.745774 0.199431
Si Si2 0.826506 0.087780 0.547568
Si Si3 0.177673 0.444207 0.948796
Si Si4 0.328522 0.948527 0.853390
Si Si5 0.823402 0.561020 0.641935
O O1 0.750000 0.754121 0.250000
O O2 0.764739 0.577203 0.172708
O O3 0.000000 0.730401 0.204679
O O4 0.784298 0.920804 0.171849
O O5 0.717759 0.245779 0.559653
O O6 0.000000 0.151607 0.541589
O O7 0.768085 0.000000 0.500000
O O8 0.810691 0.955279 0.590442
O O9 0.265718 0.559515 0.911279
O O10 0.000000 0.473244 0.941907
O O11 0.233080 0.500000 0.000000
O O12 0.500000 0.999926 0.839232
O O13 0.293211 0.752512 0.837620
O O14 0.000000 0.513707 0.642784
#
# Coordination Sequence:
#
# PCOD8220685 Si02
#       5
#     8   8   8   8   8
#     4  12  26  45  70  97 130 170 215 269 329 387
#     4  10  20  36  60  90 125 169 218 264 316 381
#     4  11  23  37  56  89 131 174 217 265 322 382
#     4  10  22  41  66  96 130 169 214 267 323 382
#     4  11  23  42  68  96 130 170 216 268 323 387
#
# _framework density 20.469764000000001
#
# number of rings (size 3 to 8) (size 9 to 14) (size 15 to 20)
#    0.000    1.200    2.000    4.200    0.000    6.000 
#    0.000    0.000    0.000    0.000    0.000    0.000 
#    0.000    0.000    0.000    0.000    0.000    0.000 
#
# Total GULP energy -496191.149859 kJ/mol
# GULP energy per Si atom -12404.778746 kJ/mol
# Density = 2.042317 g / cm^3
# Si number density = 20.469764 Si / 1000 Ang^3
#
#
#
# Elastic Constant Matrix: (Units=GPa)
#
#
# Indices 1 2 3 4 5 6 
#
# 1 124.7074 54.4381 54.9925 0.0000 0.0000 0.0000
# 2 54.4381 119.5110 44.1398 0.0000 0.0000 0.0000
# 3 54.9925 44.1398 122.8910 0.0000 0.0000 0.0000
# 4 0.0000 0.0000 0.0000 12.7680 0.0000 0.0000
# 5 0.0000 0.0000 0.0000 0.0000-2048.5164 0.0000
# 6 0.0000 0.0000 0.0000 0.0000 0.0000 4.0026
#
#
#
# Elastic Compliance Matrix: (Units=1/GPa)
#
#
# Indices 1 2 3 4 5 6 
#
# 1 0.011300 -0.003781 -0.003699 0.000000 0.000000 0.000000
# 2 -0.003781 0.010913 -0.002227 0.000000 0.000000 0.000000
# 3 -0.003699 -0.002227 0.010592 0.000000 0.000000 0.000000
# 4 0.000000 0.000000 0.000000 0.078321 0.000000 0.000000
# 5 0.000000 0.000000 0.000000 0.000000 -0.000488 0.000000
# 6 0.000000 0.000000 0.000000 0.000000 0.000000 0.249837
#
#
# Mechanical properties :
#
#
# Convention : Reuss Voigt Hill
#
# Bulk Modulus (GPa) = 74.67963 74.91669 74.79816
# Shear Modulus (GPa) = 13.00886 -392.11323 -189.55218
#
# Velocity S-wave (km/s) = 2.52368 -13.85544 -9.63338
# Velocity P-wave (km/s) = 6.71223 14.80831 9.33359
#
# Compressibility (1/GPa) = 0.01339053
#
# Stress axis : x y z
#
# Youngs Moduli (GPa) = 88.49216 91.63770 94.40696
#
# Poissons Ratio (x) = 0.34652 0.34918
# Poissons Ratio (y) = 0.33462 0.21028
# Poissons Ratio (z) = 0.32730 0.20412
#
# Static dielectric constant tensor:
#      x y z
#    x 3.688840 0.000000 0.000000 
#    y 0.000000 7.127910 0.000000 
#    z 0.000000 0.000000 3.933600 
# 
# 
# High freq. dielectric constant tensor:
#      x y z
#    x 1.801090 0.000000 0.000000 
#    y 0.000000 1.806520 0.000000 
#    z 0.000000 0.000000 1.804130 
# 
# From -- ./inp_files/33609.got.cif
#   From: 2010.03.12/outbox.cif.g09.slc.cpg/sg53_17_cif.got.tgz:33609.got - 2010.04.16 14:36:59.
