data_PCOD8220311
_publ_section_title
;
Structure prediction by ZEFSAII (Michael W. Deem and Ramdas Pophale) SiO2 
 PCOD8220311
Probable space group: P M N A
;
_chemical_formula_sum "Si O2"
_cell_formula_units_Z 48
_cell_length_a 17.234637
_cell_length_b 12.220223
_cell_length_c 12.466124
_cell_angle_alpha 90.000000
_cell_angle_beta 90.000000
_cell_angle_gamma 90.000000
_cell_volume 2625.504181
_symmetry_space_group_name_H-M "P M N A"
_symmetry_group_IT_number 53
_symmetry_cell_setting 'orthorhombic'
loop_
_space_group_symop_operation_xyz
x,y,z
1/2-x,-y,1/2+z
x,-y,-z
1/2-x,y,1/2-z
-x,-y,-z
1/2+x,y,1/2-z
-x,y,z
1/2+x,-y,1/2+z
loop_
_atom_site_type_symbol
_atom_site_label
_atom_site_fract_x
_atom_site_fract_y
_atom_site_fract_z
Si Si1 0.086595 0.040505 0.620536
Si Si2 0.588776 0.598094 0.265034
Si Si3 0.190188 0.376714 0.970732
Si Si4 0.910760 0.353446 0.175936
Si Si5 0.408693 0.807688 0.849710
Si Si6 0.847307 0.739054 0.424858
O O1 0.145046 0.143224 0.636108
O O2 0.000000 0.072818 0.663715
O O3 0.076876 0.000000 0.500000
O O4 0.122714 0.930979 0.674756
O O5 0.500000 0.633748 0.285449
O O6 0.641896 0.638386 0.362139
O O7 0.597373 0.467916 0.262266
O O8 0.617435 0.645090 0.151151
O O9 0.260400 0.292684 0.956518
O O10 0.218676 0.500000 0.000000
O O11 0.135443 0.340097 0.066674
O O12 0.872678 0.267124 0.257181
O O13 0.000000 0.330679 0.147022
O O14 0.500000 0.811287 0.837205
O O15 0.393523 0.753286 0.965039
#
# Coordination Sequence:
#
# PCOD8220311 Si02
#       6
#     8   8   8   8   8   8
#     4   8  15  31  54  77 105 140 174 211 264 321
#     4  10  20  35  56  79 105 142 185 222 260 315
#     4  10  22  36  52  75 112 152 177 212 267 328
#     4   9  19  36  57  79 105 142 186 220 257 318
#     4   9  18  33  57  84 107 138 180 223 265 313
#     4  11  20  31  54  83 110 138 170 220 276 320
#
# _framework density 18.282202999999999
#
# number of rings (size 3 to 8) (size 9 to 14) (size 15 to 20)
#    0.000    2.500    0.000    3.500    2.333    2.667 
#    0.000    2.500   22.000    0.000    0.000    4.667 
#    0.000    0.000    0.000    0.000    0.000    0.000 
#
# Total GULP energy -594700.710358 kJ/mol
# GULP energy per Si atom -12389.598132 kJ/mol
# Density = 1.824059 g / cm^3
# Si number density = 18.282203 Si / 1000 Ang^3
#
#
#
# Elastic Constant Matrix: (Units=GPa)
#
#
# Indices 1 2 3 4 5 6 
#
# 1 68.3853 59.0720 30.3757 0.0000 0.0000 0.0000
# 2 59.0720 118.9503 58.8330 0.0000 0.0000 0.0000
# 3 30.3757 58.8330 74.2500 0.0000 0.0000 0.0000
# 4 0.0000 0.0000 0.0000 20.1480 0.0000 0.0000
# 5 0.0000 0.0000 0.0000 0.0000 10.0554 0.0000
# 6 0.0000 0.0000 0.0000 0.0000 0.0000 10.9904
#
#
#
# Elastic Compliance Matrix: (Units=1/GPa)
#
#
# Indices 1 2 3 4 5 6 
#
# 1 0.025628 -0.012402 -0.000658 0.000000 0.000000 0.000000
# 2 -0.012402 0.019826 -0.010636 0.000000 0.000000 0.000000
# 3 -0.000658 -0.010636 0.022165 0.000000 0.000000 0.000000
# 4 0.000000 0.000000 0.000000 0.049633 0.000000 0.000000
# 5 0.000000 0.000000 0.000000 0.000000 0.099449 0.000000
# 6 0.000000 0.000000 0.000000 0.000000 0.000000 0.090989
#
#
# Mechanical properties :
#
#
# Convention : Reuss Voigt Hill
#
# Bulk Modulus (GPa) = 49.43668 62.01634 55.72651
# Shear Modulus (GPa) = 13.81888 15.79241 14.80565
#
# Velocity S-wave (km/s) = 2.75228 2.94226 2.84885
# Velocity P-wave (km/s) = 6.09915 6.74817 6.43185
#
# Compressibility (1/GPa) = 0.02022790
#
# Stress axis : x y z
#
# Youngs Moduli (GPa) = 39.01978 50.43773 45.11680
#
# Poissons Ratio (x) = 0.62552 0.02967
# Poissons Ratio (y) = 0.48392 0.47987
# Poissons Ratio (z) = 0.02566 0.53646
#
# Static dielectric constant tensor:
#      x y z
#    x 3.277120 0.000000 0.000000 
#    y 0.000000 4.203950 0.000000 
#    z 0.000000 0.000000 3.364300 
# 
# 
# High freq. dielectric constant tensor:
#      x y z
#    x 1.695570 0.000000 0.000000 
#    y 0.000000 1.712350 0.000000 
#    z 0.000000 0.000000 1.698370 
# 
# From -- ./inp_files/16951.got.cif
#   From: 2010.03.12/outbox.cif.g09.slc.cpg/sg53_9_cif.got.tgz:16951.got - 2010.04.16 14:36:59.
