data_PCOD8220204
_publ_section_title
;
Structure prediction by ZEFSAII (Michael W. Deem and Ramdas Pophale) SiO2 
 PCOD8220204
Probable space group: P M N A
;
_chemical_formula_sum "Si O2"
_cell_formula_units_Z 28
_cell_length_a 27.810805
_cell_length_b 9.885136
_cell_length_c 4.930842
_cell_angle_alpha 90.000000
_cell_angle_beta 90.000000
_cell_angle_gamma 90.000000
_cell_volume 1355.555474
_symmetry_space_group_name_H-M "P M N A"
_symmetry_group_IT_number 53
_symmetry_cell_setting 'orthorhombic'
loop_
_space_group_symop_operation_xyz
x,y,z
1/2-x,-y,1/2+z
x,-y,-z
1/2-x,y,1/2-z
-x,-y,-z
1/2+x,y,1/2-z
-x,y,z
1/2+x,-y,1/2+z
loop_
_atom_site_type_symbol
_atom_site_label
_atom_site_fract_x
_atom_site_fract_y
_atom_site_fract_z
Si Si1 0.154407 0.759501 0.432486
Si Si2 0.099217 0.158772 0.056959
Si Si3 0.279978 0.000000 0.000000
Si Si4 0.216847 0.500000 0.500000
Si Si5 0.000000 0.900310 0.757224
O O1 0.138841 0.783646 0.740472
O O2 0.189298 0.882694 0.354899
O O3 0.182584 0.620265 0.401370
O O4 0.108422 0.762832 0.226909
O O5 0.047816 0.190964 0.203075
O O6 0.104890 0.000000 0.000000
O O7 0.250000 0.063332 0.250000
O O8 0.250000 0.453030 0.250000
O O9 0.000000 0.000000 0.500000
O O10 0.000000 0.000000 0.000000
#
# Coordination Sequence:
#
# PCOD8220204 Si02
#       5
#     8   8   4   4   4
#     4  12  23  39  63  87 123 160 207 255 304 369
#     4  11  20  38  61  95 125 156 201 251 311 367
#     4  12  22  36  56  85 114 149 198 258 312 344
#     4  12  26  46  62  85 122 169 218 250 306 376
#     4  10  20  34  60  95 132 161 192 249 312 377
#
# _framework density 20.655740000000002
#
# number of rings (size 3 to 8) (size 9 to 14) (size 15 to 20)
#    0.000    0.571    2.857    8.571    0.000    0.000 
#    0.000    0.000    0.000    5.143    0.000    0.000 
#    0.000    0.000    0.000    0.000    0.000    0.000 
#
# Total GULP energy -347096.120556 kJ/mol
# GULP energy per Si atom -12396.290020 kJ/mol
# Density = 2.060873 g / cm^3
# Si number density = 20.655740 Si / 1000 Ang^3
#
#
#
# Elastic Constant Matrix: (Units=GPa)
#
#
# Indices 1 2 3 4 5 6 
#
# 1 109.9800 44.7479 37.7319 0.0000 0.0000 0.0000
# 2 44.7479 96.8549 16.3332 0.0000 0.0000 0.0000
# 3 37.7319 16.3332 128.3445 0.0000 0.0000 0.0000
# 4 0.0000 0.0000 0.0000 26.5139 0.0000 0.0000
# 5 0.0000 0.0000 0.0000 0.0000 31.9156 0.0000
# 6 0.0000 0.0000 0.0000 0.0000 0.0000 24.5217
#
#
#
# Elastic Compliance Matrix: (Units=1/GPa)
#
#
# Indices 1 2 3 4 5 6 
#
# 1 0.012188 -0.005137 -0.002929 0.000000 0.000000 0.000000
# 2 -0.005137 0.012716 -0.000108 0.000000 0.000000 0.000000
# 3 -0.002929 -0.000108 0.008666 0.000000 0.000000 0.000000
# 4 0.000000 0.000000 0.000000 0.037716 0.000000 0.000000
# 5 0.000000 0.000000 0.000000 0.000000 0.031333 0.000000
# 6 0.000000 0.000000 0.000000 0.000000 0.000000 0.040780
#
#
# Mechanical properties :
#
#
# Convention : Reuss Voigt Hill
#
# Bulk Modulus (GPa) = 58.06582 59.20059 58.63321
# Shear Modulus (GPa) = 30.21364 32.34800 31.28082
#
# Velocity S-wave (km/s) = 3.82871 3.96163 3.89574
# Velocity P-wave (km/s) = 6.90779 7.04620 6.97734
#
# Compressibility (1/GPa) = 0.01722184
#
# Stress axis : x y z
#
# Youngs Moduli (GPa) = 82.05092 78.63990 115.38721
#
# Poissons Ratio (x) = 0.40396 0.33800
# Poissons Ratio (y) = 0.42148 0.01247
# Poissons Ratio (z) = 0.24035 0.00850
#
# Static dielectric constant tensor:
#      x y z
#    x -0.609660 0.000000 0.000000 
#    y 0.000000 3.644010 0.000000 
#    z 0.000000 0.000000 3.579310 
# 
# 
# High freq. dielectric constant tensor:
#      x y z
#    x 1.817990 0.000000 0.000000 
#    y 0.000000 1.758340 0.000000 
#    z 0.000000 0.000000 1.832670 
# 
# From -- ./inp_files/4155.got.cif
#   From: 2010.03.12/outbox.cif.g09.slc.cpg/sg53_3_cif.got.tgz:4155.got - 2010.04.16 14:36:59.
