data_PCOD8220043
_publ_section_title
;
Structure prediction by ZEFSAII (Michael W. Deem and Ramdas Pophale) SiO2 
 PCOD8220043
Probable space group: P M N A
;
_chemical_formula_sum "Si O2"
_cell_formula_units_Z 64
_cell_length_a 9.084334
_cell_length_b 14.690376
_cell_length_c 22.719188
_cell_angle_alpha 90.000000
_cell_angle_beta 90.000000
_cell_angle_gamma 90.000000
_cell_volume 3031.927488
_symmetry_space_group_name_H-M "P M N A"
_symmetry_group_IT_number 53
_symmetry_cell_setting 'orthorhombic'
loop_
_space_group_symop_operation_xyz
x,y,z
1/2-x,-y,1/2+z
x,-y,-z
1/2-x,y,1/2-z
-x,-y,-z
1/2+x,y,1/2-z
-x,y,z
1/2+x,-y,1/2+z
loop_
_atom_site_type_symbol
_atom_site_label
_atom_site_fract_x
_atom_site_fract_y
_atom_site_fract_z
Si Si1 0.831560 0.001955 0.808321
Si Si2 0.329974 0.443692 0.056685
Si Si3 0.329536 0.212066 0.308808
Si Si4 0.167737 0.703978 0.304860
Si Si5 0.830013 0.136225 0.610686
Si Si6 0.829285 0.756833 0.579207
Si Si7 0.174718 0.502518 0.688176
Si Si8 0.328103 0.893265 0.502149
O O1 0.750000 0.035767 0.750000
O O2 0.813484 0.895504 0.818466
O O3 0.000000 0.031097 0.802408
O O4 0.762341 0.052518 0.863718
O O5 0.500000 0.472198 0.060381
O O6 0.310243 0.336126 0.041581
O O7 0.266978 0.460039 0.123869
O O8 0.260617 0.500000 0.000000
O O9 0.250000 0.243399 0.250000
O O10 0.500000 0.242013 0.309016
O O11 0.234370 0.266155 0.356617
O O12 0.250000 0.748705 0.250000
O O13 0.200473 0.767497 0.359807
O O14 0.222000 0.602629 0.317901
O O15 0.000000 0.703187 0.286807
O O16 0.772040 0.155346 0.546002
O O17 0.000000 0.108044 0.611614
O O18 0.728614 0.842660 0.560228
O O19 0.000000 0.786442 0.582068
O O20 0.250000 0.540549 0.750000
O O21 0.000000 0.518787 0.694622
O O22 0.500000 0.874113 0.493269
O O23 0.294342 0.000000 0.500000
#
# Coordination Sequence:
#
# PCOD8220043 Si02
#       8
#     8   8   8   8   8   8   8   8
#     4  10  20  34  53  79 113 155 197 243 299 356
#     4   9  20  38  64  92 121 160 204 251 305 369
#     4  10  21  38  60  85 117 155 195 240 294 355
#     4   9  19  33  53  82 115 150 190 237 291 352
#     4  11  22  34  54  83 111 148 199 251 301 357
#     4  11  23  39  63  93 120 152 198 249 302 358
#     4   9  18  36  61  87 119 158 199 244 298 360
#     4  11  25  43  60  81 115 160 203 246 302 364
#
# _framework density 21.108684
#
# number of rings (size 3 to 8) (size 9 to 14) (size 15 to 20)
#    0.000    2.000    0.000    3.000    1.750    8.000 
#    0.000    2.500    0.000    1.875    0.000    0.000 
#    0.000    0.000    0.000    0.000    0.000    0.000 
#
# Total GULP energy -793131.672893 kJ/mol
# GULP energy per Si atom -12392.682389 kJ/mol
# Density = 2.106064 g / cm^3
# Si number density = 21.108684 Si / 1000 Ang^3
#
#
#
# Elastic Constant Matrix: (Units=GPa)
#
#
# Indices 1 2 3 4 5 6 
#
# 1 65.4546 41.4430 26.4400 0.0000 0.0000 0.0000
# 2 41.4430 69.6771 31.3879 0.0000 0.0000 0.0000
# 3 26.4400 31.3879 120.6503 0.0000 0.0000 0.0000
# 4 0.0000 0.0000 0.0000 18.1623 0.0000 0.0000
# 5 0.0000 0.0000 0.0000 0.0000 39.7366 0.0000
# 6 0.0000 0.0000 0.0000 0.0000 0.0000 18.0131
#
#
#
# Elastic Compliance Matrix: (Units=1/GPa)
#
#
# Indices 1 2 3 4 5 6 
#
# 1 0.024852 -0.013965 -0.001813 0.000000 0.000000 0.000000
# 2 -0.013965 0.024104 -0.003211 0.000000 0.000000 0.000000
# 3 -0.001813 -0.003211 0.009521 0.000000 0.000000 0.000000
# 4 0.000000 0.000000 0.000000 0.055059 0.000000 0.000000
# 5 0.000000 0.000000 0.000000 0.000000 0.025166 0.000000
# 6 0.000000 0.000000 0.000000 0.000000 0.000000 0.055515
#
#
# Mechanical properties :
#
#
# Convention : Reuss Voigt Hill
#
# Bulk Modulus (GPa) = 48.77998 50.48042 49.63020
# Shear Modulus (GPa) = 20.91804 25.61647 23.26725
#
# Velocity S-wave (km/s) = 3.15138 3.48739 3.32363
# Velocity P-wave (km/s) = 6.03330 6.33895 6.18801
#
# Compressibility (1/GPa) = 0.02050022
#
# Stress axis : x y z
#
# Youngs Moduli (GPa) = 40.23792 41.48630 105.03086
#
# Poissons Ratio (x) = 0.57935 0.19044
# Poissons Ratio (y) = 0.56192 0.33720
# Poissons Ratio (z) = 0.07296 0.13319
#
# Static dielectric constant tensor:
#      x y z
#    x 3.698240 0.000000 0.000000 
#    y 0.000000 3.828500 0.000000 
#    z 0.000000 0.000000 5.596940 
# 
# 
# High freq. dielectric constant tensor:
#      x y z
#    x 1.812120 0.000000 0.000000 
#    y 0.000000 1.827760 0.000000 
#    z 0.000000 0.000000 1.838880 
# 
# From -- ./inp_files/34276.got.cif
#   From: 2010.03.12/outbox.cif.g09.slc.cpg/sg53_18_cif.got.tgz:34276.got - 2010.04.16 14:36:59.
