data_PCOD8220563
_publ_section_title
;
Structure prediction by ZEFSAII (Michael W. Deem and Ramdas Pophale) SiO2 
 PCOD8220563
Probable space group: P M N A
;
_chemical_formula_sum "Si O2"
_cell_formula_units_Z 48
_cell_length_a 9.923550
_cell_length_b 28.906835
_cell_length_c 9.081002
_cell_angle_alpha 90.000000
_cell_angle_beta 90.000000
_cell_angle_gamma 90.000000
_cell_volume 2604.961908
_symmetry_space_group_name_H-M "P M N A"
_symmetry_group_IT_number 53
_symmetry_cell_setting 'orthorhombic'
loop_
_space_group_symop_operation_xyz
x,y,z
1/2-x,-y,1/2+z
x,-y,-z
1/2-x,y,1/2-z
-x,-y,-z
1/2+x,y,1/2-z
-x,y,z
1/2+x,-y,1/2+z
loop_
_atom_site_type_symbol
_atom_site_label
_atom_site_fract_x
_atom_site_fract_y
_atom_site_fract_z
Si Si1 0.345335 0.119123 0.617747
Si Si2 0.152491 0.774901 0.120970
Si Si3 0.158205 0.696228 0.892835
Si Si4 0.000000 0.547314 0.083940
Si Si5 0.254363 0.390481 0.577260
Si Si6 0.344791 0.041546 0.390166
Si Si7 0.000000 0.550223 0.428294
O O1 0.250000 0.102032 0.750000
O O2 0.500000 0.111820 0.668057
O O3 0.314467 0.172318 0.577885
O O4 0.313857 0.089691 0.472396
O O5 0.250000 0.757127 0.250000
O O6 0.000000 0.769743 0.180120
O O7 0.173753 0.744842 0.975455
O O8 0.250000 0.699490 0.750000
O O9 0.000000 0.686077 0.857509
O O10 0.224560 0.657246 0.994177
O O11 0.872437 0.575620 0.032128
O O12 0.000000 0.538919 0.256872
O O13 0.000000 0.500000 0.000000
O O14 0.250000 0.379027 0.750000
O O15 0.123972 0.418013 0.522551
O O16 0.250000 0.037576 0.250000
O O17 0.500000 0.039050 0.338158
O O18 0.310672 0.000000 0.500000
O O19 0.000000 0.500000 0.500000
#
# Coordination Sequence:
#
# PCOD8220563 Si02
#       7
#     8   8   8   4   8   8   4
#     4   9  18  34  56  81 110 144 184 230 277 331
#     4   9  19  37  59  83 111 145 184 226 275 330
#     4  11  24  39  56  82 113 144 180 227 275 321
#     4  10  20  36  58  80 112 146 174 216 265 312
#     4  10  21  39  59  81 109 145 181 218 265 319
#     4  10  21  35  52  78 111 148 190 236 285 334
#     4  10  22  36  58  88 110 138 182 220 261 320
#
# _framework density 18.426372000000001
#
# number of rings (size 3 to 8) (size 9 to 14) (size 15 to 20)
#    0.000    2.167    0.833    1.500    1.167    3.667 
#    0.000    0.000    0.000    0.000    0.000    0.000 
#    0.000    0.000    0.000    0.000    0.000    0.000 
#
# Total GULP energy -595215.509894 kJ/mol
# GULP energy per Si atom -12400.323123 kJ/mol
# Density = 1.838443 g / cm^3
# Si number density = 18.426372 Si / 1000 Ang^3
#
#
#
# Elastic Constant Matrix: (Units=GPa)
#
#
# Indices 1 2 3 4 5 6 
#
# 1 141.5737 61.7597 75.2448 0.0000 0.0000 0.0000
# 2 61.7597 108.4766 61.9143 0.0000 0.0000 0.0000
# 3 75.2448 61.9143 104.5543 0.0000 0.0000 0.0000
# 4 0.0000 0.0000 0.0000 32.1867 0.0000 0.0000
# 5 0.0000 0.0000 0.0000 0.0000 42.1460 0.0000
# 6 0.0000 0.0000 0.0000 0.0000 0.0000 48.5291
#
#
#
# Elastic Compliance Matrix: (Units=1/GPa)
#
#
# Indices 1 2 3 4 5 6 
#
# 1 0.012005 -0.002876 -0.006937 0.000000 0.000000 0.000000
# 2 -0.002876 0.014614 -0.006585 0.000000 0.000000 0.000000
# 3 -0.006937 -0.006585 0.018456 0.000000 0.000000 0.000000
# 4 0.000000 0.000000 0.000000 0.031069 0.000000 0.000000
# 5 0.000000 0.000000 0.000000 0.000000 0.023727 0.000000
# 6 0.000000 0.000000 0.000000 0.000000 0.000000 0.020606
#
#
# Mechanical properties :
#
#
# Convention : Reuss Voigt Hill
#
# Bulk Modulus (GPa) = 81.42722 83.60468 82.51595
# Shear Modulus (GPa) = 31.77368 34.95142 33.36255
#
# Velocity S-wave (km/s) = 4.15705 4.35997 4.25972
# Velocity P-wave (km/s) = 8.20536 8.41526 8.31097
#
# Compressibility (1/GPa) = 0.01228091
#
# Stress axis : x y z
#
# Youngs Moduli (GPa) = 83.30171 68.42779 54.18399
#
# Poissons Ratio (x) = 0.19677 0.37585
# Poissons Ratio (y) = 0.23954 0.35678
# Poissons Ratio (z) = 0.57782 0.45057
#
# Static dielectric constant tensor:
#      x y z
#    x 3.626760 0.000000 0.000000 
#    y 0.000000 3.545430 0.000000 
#    z 0.000000 0.000000 3.247020 
# 
# 
# High freq. dielectric constant tensor:
#      x y z
#    x 1.727920 0.000000 0.000000 
#    y 0.000000 1.730470 0.000000 
#    z 0.000000 0.000000 1.699620 
# 
# From -- ./inp_files/6765.got.cif
#   From: 2010.03.12/outbox.cif.g09.slc.cpg/sg53_4_cif.got.tgz:6765.got - 2010.04.16 14:36:59.
