data_PCOD8220441
_publ_section_title
;
Structure prediction by ZEFSAII (Michael W. Deem and Ramdas Pophale) SiO2 
 PCOD8220441
Probable space group: P M N A
;
_chemical_formula_sum "Si O2"
_cell_formula_units_Z 40
_cell_length_a 25.917374
_cell_length_b 5.087888
_cell_length_c 16.468681
_cell_angle_alpha 90.000000
_cell_angle_beta 90.000000
_cell_angle_gamma 90.000000
_cell_volume 2171.637616
_symmetry_space_group_name_H-M "P M N A"
_symmetry_group_IT_number 53
_symmetry_cell_setting 'orthorhombic'
loop_
_space_group_symop_operation_xyz
x,y,z
1/2-x,-y,1/2+z
x,-y,-z
1/2-x,y,1/2-z
-x,-y,-z
1/2+x,y,1/2-z
-x,y,z
1/2+x,-y,1/2+z
loop_
_atom_site_type_symbol
_atom_site_label
_atom_site_fract_x
_atom_site_fract_y
_atom_site_fract_z
Si Si1 0.940159 0.738542 0.215310
Si Si2 0.130982 0.059339 0.909584
Si Si3 0.886353 0.235771 0.244075
Si Si4 0.747912 0.117189 0.585967
Si Si5 0.217679 0.612284 0.674432
O O1 0.911335 0.741452 0.127616
O O2 0.931404 0.451726 0.251889
O O3 0.000000 0.801512 0.204738
O O4 0.912713 0.960747 0.272399
O O5 0.187452 0.192317 0.914328
O O6 0.133545 0.802641 0.849661
O O7 0.111645 0.000000 0.000000
O O8 0.841296 0.330985 0.303081
O O9 0.779432 0.384735 0.605654
O O10 0.766452 0.000000 0.500000
O O11 0.757480 0.889456 0.650928
O O12 0.250000 0.497284 0.750000
#
# Coordination Sequence:
#
# PCOD8220441 Si02
#       5
#     8   8   8   8   8
#     4  10  20  36  53  76 108 143 191 233 271 310
#     4   9  21  36  51  77 112 149 186 221 265 316
#     4  10  21  35  53  79 101 147 183 229 267 321
#     4  11  23  36  55  82 116 148 184 224 270 332
#     4  12  20  36  57  80 110 147 188 221 278 331
#
# _framework density 18.419281999999999
#
# number of rings (size 3 to 8) (size 9 to 14) (size 15 to 20)
#    1.200    0.400    2.000    4.200    0.000    1.200 
#    0.000    1.000    0.000    0.000    0.000    0.000 
#    0.000   56.000    0.000    0.000    0.000    0.000 
#
# Total GULP energy -495641.808524 kJ/mol
# GULP energy per Si atom -12391.045213 kJ/mol
# Density = 1.837736 g / cm^3
# Si number density = 18.419282 Si / 1000 Ang^3
#
#
#
# Elastic Constant Matrix: (Units=GPa)
#
#
# Indices 1 2 3 4 5 6 
#
# 1 89.6578 21.6702 26.9965 0.0000 0.0000 0.0000
# 2 21.6702 95.1157 7.3742 0.0000 0.0000 0.0000
# 3 26.9965 7.3742 38.7167 0.0000 0.0000 0.0000
# 4 0.0000 0.0000 0.0000 24.8209 0.0000 0.0000
# 5 0.0000 0.0000 0.0000 0.0000 19.1255 0.0000
# 6 0.0000 0.0000 0.0000 0.0000 0.0000 25.7260
#
#
#
# Elastic Compliance Matrix: (Units=1/GPa)
#
#
# Indices 1 2 3 4 5 6 
#
# 1 0.014724 -0.002597 -0.009772 0.000000 0.000000 0.000000
# 2 -0.002597 0.011129 -0.000309 0.000000 0.000000 0.000000
# 3 -0.009772 -0.000309 0.032701 0.000000 0.000000 0.000000
# 4 0.000000 0.000000 0.000000 0.040289 0.000000 0.000000
# 5 0.000000 0.000000 0.000000 0.000000 0.052286 0.000000
# 6 0.000000 0.000000 0.000000 0.000000 0.000000 0.038871
#
#
# Mechanical properties :
#
#
# Convention : Reuss Voigt Hill
#
# Bulk Modulus (GPa) = 30.12181 37.28578 33.70379
# Shear Modulus (GPa) = 22.08269 25.09776 23.59023
#
# Velocity S-wave (km/s) = 3.46626 3.69532 3.58262
# Velocity P-wave (km/s) = 5.69287 6.20435 5.95411
#
# Compressibility (1/GPa) = 0.03319854
#
# Stress axis : x y z
#
# Youngs Moduli (GPa) = 67.91836 89.85449 30.57983
#
# Poissons Ratio (x) = 0.23334 0.29882
# Poissons Ratio (y) = 0.17638 0.00945
# Poissons Ratio (z) = 0.66369 0.02776
#
# Static dielectric constant tensor:
#      x y z
#    x 3.156490 0.000000 0.000000 
#    y 0.000000 3.376780 0.000000 
#    z 0.000000 0.000000 3.187060 
# 
# 
# High freq. dielectric constant tensor:
#      x y z
#    x 1.700530 0.000000 0.000000 
#    y 0.000000 1.725100 0.000000 
#    z 0.000000 0.000000 1.676520 
# 
# From -- ./inp_files/24810.got.cif
#   From: 2010.03.12/outbox.cif.g09.slc.cpg/sg53_13_cif.got.tgz:24810.got - 2010.04.16 14:36:59.
