data_PCOD8220460
_publ_section_title
;
Structure prediction by ZEFSAII (Michael W. Deem and Ramdas Pophale) SiO2 
 PCOD8220460
Probable space group: P M N A
;
_chemical_formula_sum "Si O2"
_cell_formula_units_Z 56
_cell_length_a 8.980771
_cell_length_b 19.158937
_cell_length_c 16.034957
_cell_angle_alpha 90.000000
_cell_angle_beta 90.000000
_cell_angle_gamma 90.000000
_cell_volume 2759.007185
_symmetry_space_group_name_H-M "P M N A"
_symmetry_group_IT_number 53
_symmetry_cell_setting 'orthorhombic'
loop_
_space_group_symop_operation_xyz
x,y,z
1/2-x,-y,1/2+z
x,-y,-z
1/2-x,y,1/2-z
-x,-y,-z
1/2+x,y,1/2-z
-x,y,z
1/2+x,-y,1/2+z
loop_
_atom_site_type_symbol
_atom_site_label
_atom_site_fract_x
_atom_site_fract_y
_atom_site_fract_z
Si Si1 0.175494 0.078385 0.838060
Si Si2 0.171167 0.655829 0.334895
Si Si3 0.328776 0.076745 0.334908
Si Si4 0.176785 0.420764 0.500224
Si Si5 0.828207 0.795776 0.419376
Si Si6 0.824898 0.218738 0.084900
Si Si7 0.822185 0.341221 0.333917
O O1 0.250000 0.093733 0.750000
O O2 0.241252 0.132815 0.903146
O O3 0.000000 0.090228 0.830635
O O4 0.216942 0.000059 0.869032
O O5 0.250000 0.631499 0.250000
O O6 0.239800 0.616908 0.416259
O O7 0.188892 0.739553 0.345234
O O8 0.000000 0.634585 0.325540
O O9 0.250000 0.096414 0.250000
O O10 0.500000 0.075347 0.311303
O O11 0.293095 0.136255 0.402112
O O12 0.234504 0.500000 0.500000
O O13 0.232354 0.385119 0.414501
O O14 0.000000 0.416148 0.502356
O O15 0.755237 0.759475 0.499630
O O16 0.000000 0.812786 0.437031
O O17 0.746800 0.263550 0.157482
O O18 0.000000 0.235040 0.081799
O O19 0.750000 0.374374 0.250000
O O20 0.000000 0.338585 0.325690
#
# Coordination Sequence:
#
# PCOD8220460 Si02
#       7
#     8   8   8   8   8   8   8
#     4  10  20  36  55  78 109 148 193 243 297 355
#     4  10  21  38  60  88 118 155 197 240 290 346
#     4   9  20  36  54  77 108 146 192 243 296 354
#     4   9  19  39  64  88 121 162 197 236 293 356
#     4  11  22  37  56  82 115 152 197 247 299 357
#     4  11  22  37  58  84 114 153 198 249 303 353
#     4  11  22  39  62  91 124 160 202 247 295 356
#
# _framework density 20.297156000000001
#
# number of rings (size 3 to 8) (size 9 to 14) (size 15 to 20)
#    0.000    1.857    1.429    2.571    0.000    6.286 
#    0.000    2.857    0.000    3.000    0.000    0.000 
#    0.000    0.000    0.000    0.000    0.000    0.000 
#
# Total GULP energy -694350.032753 kJ/mol
# GULP energy per Si atom -12399.107728 kJ/mol
# Density = 2.025096 g / cm^3
# Si number density = 20.297156 Si / 1000 Ang^3
#
#
#
# Elastic Constant Matrix: (Units=GPa)
#
#
# Indices 1 2 3 4 5 6 
#
# 1 85.5573 37.8237 48.8623 0.0000 0.0000 0.0000
# 2 37.8237 101.9558 50.5459 0.0000 0.0000 0.0000
# 3 48.8623 50.5459 143.2140 0.0000 0.0000 0.0000
# 4 0.0000 0.0000 0.0000 24.5986 0.0000 0.0000
# 5 0.0000 0.0000 0.0000 0.0000 36.9281 0.0000
# 6 0.0000 0.0000 0.0000 0.0000 0.0000 18.9044
#
#
#
# Elastic Compliance Matrix: (Units=1/GPa)
#
#
# Indices 1 2 3 4 5 6 
#
# 1 0.015661 -0.003831 -0.003991 0.000000 0.000000 0.000000
# 2 -0.003831 0.012826 -0.003219 0.000000 0.000000 0.000000
# 3 -0.003991 -0.003219 0.009481 0.000000 0.000000 0.000000
# 4 0.000000 0.000000 0.000000 0.040653 0.000000 0.000000
# 5 0.000000 0.000000 0.000000 0.000000 0.027080 0.000000
# 6 0.000000 0.000000 0.000000 0.000000 0.000000 0.052898
#
#
# Mechanical properties :
#
#
# Convention : Reuss Voigt Hill
#
# Bulk Modulus (GPa) = 62.95851 67.24344 65.10097
# Shear Modulus (GPa) = 26.88519 28.98590 27.93555
#
# Velocity S-wave (km/s) = 3.64343 3.78309 3.71391
# Velocity P-wave (km/s) = 6.98463 7.23075 7.10876
#
# Compressibility (1/GPa) = 0.01588348
#
# Stress axis : x y z
#
# Youngs Moduli (GPa) = 63.85202 77.96888 105.47923
#
# Poissons Ratio (x) = 0.29873 0.42098
# Poissons Ratio (y) = 0.24464 0.33959
# Poissons Ratio (z) = 0.25484 0.25102
#
# Static dielectric constant tensor:
#      x y z
#    x 3.536560 0.000000 0.000000 
#    y 0.000000 3.795150 0.000000 
#    z 0.000000 0.000000 3.865080 
# 
# 
# High freq. dielectric constant tensor:
#      x y z
#    x 1.780540 0.000000 0.000000 
#    y 0.000000 1.794890 0.000000 
#    z 0.000000 0.000000 1.793010 
# 
# From -- ./inp_files/20502.got.cif
#   From: 2010.03.12/outbox.cif.g09.slc.cpg/sg53_11_cif.got.tgz:20502.got - 2010.04.16 14:36:59.
