data_PCOD8220415
_publ_section_title
;
Structure prediction by ZEFSAII (Michael W. Deem and Ramdas Pophale) SiO2 
 PCOD8220415
Probable space group: P M N A
;
_chemical_formula_sum "Si O2"
_cell_formula_units_Z 64
_cell_length_a 9.055140
_cell_length_b 14.881229
_cell_length_c 23.757399
_cell_angle_alpha 90.000000
_cell_angle_beta 90.000000
_cell_angle_gamma 90.000000
_cell_volume 3201.347811
_symmetry_space_group_name_H-M "P M N A"
_symmetry_group_IT_number 53
_symmetry_cell_setting 'orthorhombic'
loop_
_space_group_symop_operation_xyz
x,y,z
1/2-x,-y,1/2+z
x,-y,-z
1/2-x,y,1/2-z
-x,-y,-z
1/2+x,y,1/2-z
-x,y,z
1/2+x,-y,1/2+z
loop_
_atom_site_type_symbol
_atom_site_label
_atom_site_fract_x
_atom_site_fract_y
_atom_site_fract_z
Si Si1 0.327970 0.196254 0.305750
Si Si2 0.326827 0.397861 0.000368
Si Si3 0.330080 0.332289 0.877933
Si Si4 0.171007 0.642156 0.888327
Si Si5 0.836056 0.897332 0.983232
Si Si6 0.830682 0.139323 0.590666
Si Si7 0.673531 0.057320 0.125194
Si Si8 0.175387 0.479466 0.809600
O O1 0.250000 0.233478 0.250000
O O2 0.500000 0.182866 0.294234
O O3 0.296017 0.267818 0.354240
O O4 0.256229 0.100152 0.321492
O O5 0.500000 0.391565 0.010346
O O6 0.251300 0.346438 0.052083
O O7 0.270669 0.500000 0.000000
O O8 0.279788 0.353619 0.941547
O O9 0.500000 0.361567 0.868479
O O10 0.309661 0.225046 0.868403
O O11 0.228095 0.383279 0.833258
O O12 0.229063 0.556269 0.852999
O O13 0.000000 0.628887 0.900648
O O14 0.730796 0.889167 0.929500
O O15 0.000000 0.858750 0.969287
O O16 0.766185 0.843143 0.035061
O O17 0.848936 0.000000 0.000000
O O18 0.000000 0.130744 0.570484
O O19 0.784116 0.048386 0.623107
O O20 0.500000 0.072266 0.130980
O O21 0.250000 0.499181 0.750000
O O22 0.000000 0.479244 0.801603
#
# Coordination Sequence:
#
# PCOD8220415 Si02
#       8
#     8   8   8   8   8   8   8   8
#     4  11  24  42  61  86 116 151 196 246 300 357
#     4  10  20  35  58  89 122 157 194 235 290 348
#     4  10  21  38  58  86 123 158 196 240 285 345
#     4  10  23  40  60  87 119 152 191 238 292 352
#     4   9  17  30  50  78 111 146 185 231 280 334
#     4   9  19  35  56  82 115 154 194 235 285 341
#     4  10  20  36  57  81 111 149 193 240 288 339
#     4  11  23  40  62  86 113 151 193 239 289 342
#
# _framework density 19.991581
#
# number of rings (size 3 to 8) (size 9 to 14) (size 15 to 20)
#    0.000    2.000    1.250    1.875    1.750    4.750 
#    0.000    0.625    0.000    0.000    0.000    0.000 
#    0.000    0.000    0.000    0.000    0.000    0.000 
#
# Total GULP energy -793742.138438 kJ/mol
# GULP energy per Si atom -12402.220913 kJ/mol
# Density = 1.994608 g / cm^3
# Si number density = 19.991581 Si / 1000 Ang^3
#
#
#
# Elastic Constant Matrix: (Units=GPa)
#
#
# Indices 1 2 3 4 5 6 
#
# 1 79.8898 29.0001 35.0391 0.0000 0.0000 0.0000
# 2 29.0001 81.1333 16.4666 0.0000 0.0000 0.0000
# 3 35.0391 16.4666 77.7384 0.0000 0.0000 0.0000
# 4 0.0000 0.0000 0.0000 17.2719 0.0000 0.0000
# 5 0.0000 0.0000 0.0000 0.0000 38.6574 0.0000
# 6 0.0000 0.0000 0.0000 0.0000 0.0000 22.1654
#
#
#
# Elastic Compliance Matrix: (Units=1/GPa)
#
#
# Indices 1 2 3 4 5 6 
#
# 1 0.017212 -0.004783 -0.006745 0.000000 0.000000 0.000000
# 2 -0.004783 0.014208 -0.000854 0.000000 0.000000 0.000000
# 3 -0.006745 -0.000854 0.016085 0.000000 0.000000 0.000000
# 4 0.000000 0.000000 0.000000 0.057898 0.000000 0.000000
# 5 0.000000 0.000000 0.000000 0.000000 0.025868 0.000000
# 6 0.000000 0.000000 0.000000 0.000000 0.000000 0.045115
#
#
# Mechanical properties :
#
#
# Convention : Reuss Voigt Hill
#
# Bulk Modulus (GPa) = 43.97258 44.41924 44.19591
# Shear Modulus (GPa) = 23.95444 26.16931 25.06188
#
# Velocity S-wave (km/s) = 3.46530 3.62196 3.54449
# Velocity P-wave (km/s) = 6.16882 6.30545 6.23751
#
# Compressibility (1/GPa) = 0.02274144
#
# Stress axis : x y z
#
# Youngs Moduli (GPa) = 58.09989 70.38109 62.17157
#
# Poissons Ratio (x) = 0.33665 0.41933
# Poissons Ratio (y) = 0.27791 0.05307
# Poissons Ratio (z) = 0.39187 0.06008
#
# Static dielectric constant tensor:
#      x y z
#    x 3.633820 0.000000 0.000000 
#    y 0.000000 3.706540 0.000000 
#    z 0.000000 0.000000 3.502320 
# 
# 
# High freq. dielectric constant tensor:
#      x y z
#    x 1.779710 0.000000 0.000000 
#    y 0.000000 1.784740 0.000000 
#    z 0.000000 0.000000 1.765700 
# 
# From -- ./inp_files/34287.got.cif
#   From: 2010.03.12/outbox.cif.g09.slc.cpg/sg53_18_cif.got.tgz:34287.got - 2010.04.16 14:36:59.
