data_PCOD8220634
_publ_section_title
;
Structure prediction by ZEFSAII (Michael W. Deem and Ramdas Pophale) SiO2 
 PCOD8220634
Probable space group: P M N A
;
_chemical_formula_sum "Si O2"
_cell_formula_units_Z 48
_cell_length_a 10.012870
_cell_length_b 27.703434
_cell_length_c 8.818127
_cell_angle_alpha 90.000000
_cell_angle_beta 90.000000
_cell_angle_gamma 90.000000
_cell_volume 2446.068037
_symmetry_space_group_name_H-M "P M N A"
_symmetry_group_IT_number 53
_symmetry_cell_setting 'orthorhombic'
loop_
_space_group_symop_operation_xyz
x,y,z
1/2-x,-y,1/2+z
x,-y,-z
1/2-x,y,1/2-z
-x,-y,-z
1/2+x,y,1/2-z
-x,y,z
1/2+x,-y,1/2+z
loop_
_atom_site_type_symbol
_atom_site_label
_atom_site_fract_x
_atom_site_fract_y
_atom_site_fract_z
Si Si1 0.755055 0.102037 0.075469
Si Si2 0.500000 0.948559 0.424898
Si Si3 0.500000 0.946047 0.064911
Si Si4 0.745683 0.386332 0.428789
Si Si5 0.154258 0.791408 0.880677
Si Si6 0.500000 0.449228 0.422491
Si Si7 0.654306 0.705215 0.391801
Si Si8 0.500000 0.553575 0.934198
O O1 0.750000 0.084230 0.250000
O O2 0.775391 0.159310 0.066943
O O3 0.622957 0.085515 0.991240
O O4 0.872088 0.078846 0.981918
O O5 0.500000 0.951327 0.244660
O O6 0.500000 0.000000 0.500000
O O7 0.500000 0.000000 0.000000
O O8 0.750000 0.376916 0.250000
O O9 0.627386 0.420746 0.480153
O O10 0.724986 0.335203 0.506660
O O11 0.875722 0.414272 0.488391
O O12 0.250000 0.769314 0.750000
O O13 0.000000 0.799777 0.824559
O O14 0.153883 0.755402 0.020488
O O15 0.500000 0.500000 0.500000
O O16 0.500000 0.454846 0.243640
O O17 0.750000 0.712421 0.250000
O O18 0.500000 0.691647 0.349386
O O19 0.500000 0.500000 0.000000
#
# Coordination Sequence:
#
# PCOD8220634 Si02
#       8
#     8   4   4   8   8   4   8   4
#     4  11  23  43  67  97 129 171 218 271 324 386
#     4  12  24  42  65  92 133 172 219 274 326 390
#     4  12  26  42  65  98 131 178 223 268 330 384
#     4  10  21  40  62  88 120 167 209 256 311 373
#     4  10  23  44  70  98 129 168 211 258 317 383
#     4  10  20  36  59  84 121 162 203 256 314 368
#     4  11  25  43  63  95 131 166 208 263 319 373
#     4  10  22  36  59  92 121 156 211 258 308 378
#
# _framework density 19.623331
#
# number of rings (size 3 to 8) (size 9 to 14) (size 15 to 20)
#    0.000    1.333    1.667    3.500    4.667    3.333 
#    0.000    0.000    0.000    0.000    0.000    0.000 
#    0.000    0.000    0.000    0.000    0.000    0.000 
#
# Total GULP energy -595143.298836 kJ/mol
# GULP energy per Si atom -12398.818726 kJ/mol
# Density = 1.957867 g / cm^3
# Si number density = 19.623331 Si / 1000 Ang^3
#
#
#
# Elastic Constant Matrix: (Units=GPa)
#
#
# Indices 1 2 3 4 5 6 
#
# 1 186.5229 62.9661 63.6799 0.0000 0.0000 0.0000
# 2 62.9661 107.0227 52.1509 0.0000 0.0000 0.0000
# 3 63.6799 52.1509 116.2513 0.0000 0.0000 0.0000
# 4 0.0000 0.0000 0.0000 37.8334 0.0000 0.0000
# 5 0.0000 0.0000 0.0000 0.0000 66.5496 0.0000
# 6 0.0000 0.0000 0.0000 0.0000 0.0000 39.0125
#
#
#
# Elastic Compliance Matrix: (Units=1/GPa)
#
#
# Indices 1 2 3 4 5 6 
#
# 1 0.007273 -0.002992 -0.002642 0.000000 0.000000 0.000000
# 2 -0.002992 0.013188 -0.004278 0.000000 0.000000 0.000000
# 3 -0.002642 -0.004278 0.011968 0.000000 0.000000 0.000000
# 4 0.000000 0.000000 0.000000 0.026432 0.000000 0.000000
# 5 0.000000 0.000000 0.000000 0.000000 0.015026 0.000000
# 6 0.000000 0.000000 0.000000 0.000000 0.000000 0.025633
#
#
# Mechanical properties :
#
#
# Convention : Reuss Voigt Hill
#
# Bulk Modulus (GPa) = 79.31963 85.26564 82.29264
# Shear Modulus (GPa) = 40.47087 44.07910 42.27498
#
# Velocity S-wave (km/s) = 4.54628 4.74461 4.64650
# Velocity P-wave (km/s) = 8.25027 8.57675 8.41509
#
# Compressibility (1/GPa) = 0.01260722
#
# Stress axis : x y z
#
# Youngs Moduli (GPa) = 137.49086 75.82430 83.55460
#
# Poissons Ratio (x) = 0.22685 0.22075
# Poissons Ratio (y) = 0.41134 0.35741
# Poissons Ratio (z) = 0.36325 0.32434
#
# Static dielectric constant tensor:
#      x y z
#    x 3.889480 0.000000 0.000000 
#    y 0.000000 0.617180 0.000000 
#    z 0.000000 0.000000 3.680120 
# 
# 
# High freq. dielectric constant tensor:
#      x y z
#    x 1.788400 0.000000 0.000000 
#    y 0.000000 1.778960 0.000000 
#    z 0.000000 0.000000 1.760640 
# 
# From -- ./inp_files/6862.got.cif
#   From: 2010.03.12/outbox.cif.g09.slc.cpg/sg53_4_cif.got.tgz:6862.got - 2010.04.16 14:36:59.
