data_PCOD8220245
_publ_section_title
;
Structure prediction by ZEFSAII (Michael W. Deem and Ramdas Pophale) SiO2 
 PCOD8220245
Probable space group: P M N A
;
_chemical_formula_sum "Si O2"
_cell_formula_units_Z 64
_cell_length_a 8.716321
_cell_length_b 19.531984
_cell_length_c 20.875705
_cell_angle_alpha 90.000000
_cell_angle_beta 90.000000
_cell_angle_gamma 90.000000
_cell_volume 3554.027032
_symmetry_space_group_name_H-M "P M N A"
_symmetry_group_IT_number 53
_symmetry_cell_setting 'orthorhombic'
loop_
_space_group_symop_operation_xyz
x,y,z
1/2-x,-y,1/2+z
x,-y,-z
1/2-x,y,1/2-z
-x,-y,-z
1/2+x,y,1/2-z
-x,y,z
1/2+x,-y,1/2+z
loop_
_atom_site_type_symbol
_atom_site_label
_atom_site_fract_x
_atom_site_fract_y
_atom_site_fract_z
Si Si1 0.681977 0.542844 0.815980
Si Si2 0.819397 0.322958 0.131523
Si Si3 0.820412 0.963043 0.062488
Si Si4 0.319266 0.539240 0.061801
Si Si5 0.178309 0.822616 0.007282
Si Si6 0.823389 0.329060 0.983346
Si Si7 0.182480 0.044647 0.183792
Si Si8 0.318970 0.178404 0.128915
O O1 0.750000 0.513129 0.750000
O O2 0.500000 0.542678 0.812897
O O3 0.741203 0.619782 0.825131
O O4 0.745161 0.495033 0.873460
O O5 0.749244 0.250535 0.152082
O O6 0.000000 0.322005 0.143647
O O7 0.779179 0.338069 0.057593
O O8 0.786136 0.881585 0.059279
O O9 0.000000 0.978175 0.062509
O O10 0.752457 0.994899 0.127589
O O11 0.747525 0.000000 0.000000
O O12 0.500000 0.532363 0.060862
O O13 0.274152 0.618998 0.059757
O O14 0.248583 0.500000 0.000000
O O15 0.216781 0.748704 0.038146
O O16 0.000000 0.823812 0.985267
O O17 0.278922 0.836743 0.944831
O O18 0.000000 0.346076 0.971480
O O19 0.250000 0.015640 0.250000
O O20 0.243832 0.120995 0.173278
O O21 0.000000 0.045042 0.186614
O O22 0.500000 0.178368 0.138399
#
# Coordination Sequence:
#
# PCOD8220245 Si02
#       8
#     8   8   8   8   8   8   8   8
#     4  11  23  38  55  78 108 143 179 220 268 318
#     4  10  20  35  54  78 108 144 181 218 259 315
#     4   9  16  31  58  81 102 139 180 219 263 316
#     4  10  20  35  55  78 107 141 176 218 266 317
#     4   9  17  33  54  81 109 139 179 219 267 317
#     4   9  18  30  52  82 109 135 173 223 262 308
#     4  11  22  37  55  77 107 143 181 222 268 320
#     4  11  21  33  51  78 110 145 180 219 263 312
#
# _framework density 18.007740999999999
#
# number of rings (size 3 to 8) (size 9 to 14) (size 15 to 20)
#    0.000    2.000    2.500    3.000    0.000    3.750 
#    0.000    4.375    0.000    0.750    0.000    3.500 
#    0.000    0.000    0.000    0.000    0.000    0.000 
#
# Total GULP energy -793646.051218 kJ/mol
# GULP energy per Si atom -12400.719550 kJ/mol
# Density = 1.796675 g / cm^3
# Si number density = 18.007741 Si / 1000 Ang^3
#
#
#
# Elastic Constant Matrix: (Units=GPa)
#
#
# Indices 1 2 3 4 5 6 
#
# 1 59.7117 23.8988 32.5648 0.0000 0.0000 0.0000
# 2 23.8988 115.2309 67.0279 0.0000 0.0000 0.0000
# 3 32.5648 67.0279 125.1759 0.0000 0.0000 0.0000
# 4 0.0000 0.0000 0.0000 27.0191 0.0000 0.0000
# 5 0.0000 0.0000 0.0000 0.0000 23.8006 0.0000
# 6 0.0000 0.0000 0.0000 0.0000 0.0000 21.2978
#
#
#
# Elastic Compliance Matrix: (Units=1/GPa)
#
#
# Indices 1 2 3 4 5 6 
#
# 1 0.019719 -0.001606 -0.004270 0.000000 0.000000 0.000000
# 2 -0.001606 0.012735 -0.006401 0.000000 0.000000 0.000000
# 3 -0.004270 -0.006401 0.012527 0.000000 0.000000 0.000000
# 4 0.000000 0.000000 0.000000 0.037011 0.000000 0.000000
# 5 0.000000 0.000000 0.000000 0.000000 0.042016 0.000000
# 6 0.000000 0.000000 0.000000 0.000000 0.000000 0.046953
#
#
# Mechanical properties :
#
#
# Convention : Reuss Voigt Hill
#
# Bulk Modulus (GPa) = 48.95624 60.78906 54.87265
# Shear Modulus (GPa) = 24.71289 26.19864 25.45576
#
# Velocity S-wave (km/s) = 3.70854 3.81839 3.76387
# Velocity P-wave (km/s) = 6.75151 7.29867 7.03042
#
# Compressibility (1/GPa) = 0.02042640
#
# Stress axis : x y z
#
# Youngs Moduli (GPa) = 50.71370 78.52467 79.82549
#
# Poissons Ratio (x) = 0.12610 0.34085
# Poissons Ratio (y) = 0.08144 0.51099
# Poissons Ratio (z) = 0.21654 0.50266
#
# Static dielectric constant tensor:
#      x y z
#    x 3.159390 0.000000 0.000000 
#    y 0.000000 3.459430 0.000000 
#    z 0.000000 0.000000 3.315240 
# 
# 
# High freq. dielectric constant tensor:
#      x y z
#    x 1.687300 0.000000 0.000000 
#    y 0.000000 1.700460 0.000000 
#    z 0.000000 0.000000 1.674770 
# 
# From -- ./inp_files/31380.got.cif
#   From: 2010.03.12/outbox.cif.g09.slc.cpg/sg53_16_cif.got.tgz:31380.got - 2010.04.16 14:36:59.
