data_PCOD8220226
_publ_section_title
;
Structure prediction by ZEFSAII (Michael W. Deem and Ramdas Pophale) SiO2 
 PCOD8220226
Probable space group: P M N A
;
_chemical_formula_sum "Si O2"
_cell_formula_units_Z 64
_cell_length_a 9.384810
_cell_length_b 17.310654
_cell_length_c 22.376471
_cell_angle_alpha 90.000000
_cell_angle_beta 90.000000
_cell_angle_gamma 90.000000
_cell_volume 3635.218797
_symmetry_space_group_name_H-M "P M N A"
_symmetry_group_IT_number 53
_symmetry_cell_setting 'orthorhombic'
loop_
_space_group_symop_operation_xyz
x,y,z
1/2-x,-y,1/2+z
x,-y,-z
1/2-x,y,1/2-z
-x,-y,-z
1/2+x,y,1/2-z
-x,y,z
1/2+x,-y,1/2+z
loop_
_atom_site_type_symbol
_atom_site_label
_atom_site_fract_x
_atom_site_fract_y
_atom_site_fract_z
Si Si1 0.835163 0.408686 0.138047
Si Si2 0.837719 0.326633 0.921041
Si Si3 0.666216 0.865593 0.586618
Si Si4 0.839120 0.987750 0.429615
Si Si5 0.338012 0.845334 0.450175
Si Si6 0.165012 0.571097 0.191708
Si Si7 0.332559 0.586309 0.981273
Si Si8 0.663611 0.753401 0.692398
O O1 0.783047 0.487033 0.169652
O O2 0.739867 0.392955 0.080754
O O3 0.811031 0.337668 0.182810
O O4 0.000000 0.415229 0.118046
O O5 0.818120 0.234960 0.915573
O O6 0.800959 0.364792 0.857830
O O7 0.000000 0.347432 0.940342
O O8 0.727219 0.356366 0.969405
O O9 0.500000 0.885584 0.592473
O O10 0.702698 0.834807 0.520139
O O11 0.713227 0.799739 0.633409
O O12 0.755014 0.942621 0.602105
O O13 0.761859 0.906626 0.416218
O O14 0.000000 0.984928 0.404706
O O15 0.836236 0.000000 0.500000
O O16 0.500000 0.875329 0.445631
O O17 0.250000 0.596159 0.250000
O O18 0.000000 0.568272 0.208451
O O19 0.500000 0.598967 0.975152
O O20 0.292310 0.500000 0.000000
O O21 0.750000 0.781795 0.750000
O O22 0.500000 0.771187 0.705877
#
# Coordination Sequence:
#
# PCOD8220226 Si02
#       8
#     8   8   8   8   8   8   8   8
#     4  10  20  36  55  74 100 137 177 214 256 311
#     4  10  20  35  54  76 102 138 175 208 254 311
#     4   9  17  31  50  73 102 135 168 204 250 306
#     4   9  17  29  48  76 106 131 158 196 247 303
#     4   9  17  31  53  78 103 131 168 210 253 308
#     4  10  21  35  53  73  96 132 175 216 255 297
#     4  11  22  33  49  77 107 134 167 214 266 308
#     4  10  21  35  52  75 103 138 180 221 260 305
#
# _framework density 17.605542
#
# number of rings (size 3 to 8) (size 9 to 14) (size 15 to 20)
#    0.000    2.250    1.250    1.875    0.000    6.500 
#    0.000    2.500    0.000    0.750    0.000    1.750 
#    0.000    0.000    0.000    0.000    0.000    0.000 
#
# Total GULP energy -793766.743973 kJ/mol
# GULP energy per Si atom -12402.605375 kJ/mol
# Density = 1.756547 g / cm^3
# Si number density = 17.605542 Si / 1000 Ang^3
#
#
#
# Elastic Constant Matrix: (Units=GPa)
#
#
# Indices 1 2 3 4 5 6 
#
# 1 68.2717 43.6540 38.8088 0.0000 0.0000 0.0000
# 2 43.6540 115.6674 42.5292 0.0000 0.0000 0.0000
# 3 38.8088 42.5292 81.3702 0.0000 0.0000 0.0000
# 4 0.0000 0.0000 0.0000 15.6034 0.0000 0.0000
# 5 0.0000 0.0000 0.0000 0.0000 30.0041 0.0000
# 6 0.0000 0.0000 0.0000 0.0000 0.0000 21.9815
#
#
#
# Elastic Compliance Matrix: (Units=1/GPa)
#
#
# Indices 1 2 3 4 5 6 
#
# 1 0.022770 -0.005695 -0.007883 0.000000 0.000000 0.000000
# 2 -0.005695 0.012127 -0.003622 0.000000 0.000000 0.000000
# 3 -0.007883 -0.003622 0.017942 0.000000 0.000000 0.000000
# 4 0.000000 0.000000 0.000000 0.064089 0.000000 0.000000
# 5 0.000000 0.000000 0.000000 0.000000 0.033329 0.000000
# 6 0.000000 0.000000 0.000000 0.000000 0.000000 0.045493
#
#
# Mechanical properties :
#
#
# Convention : Reuss Voigt Hill
#
# Bulk Modulus (GPa) = 54.23452 57.25477 55.74464
# Shear Modulus (GPa) = 21.15987 22.87228 22.01608
#
# Velocity S-wave (km/s) = 3.47058 3.60829 3.54011
# Velocity P-wave (km/s) = 6.85071 7.06761 6.96000
#
# Compressibility (1/GPa) = 0.01843844
#
# Stress axis : x y z
#
# Youngs Moduli (GPa) = 43.91707 82.46355 55.73364
#
# Poissons Ratio (x) = 0.46963 0.43937
# Poissons Ratio (y) = 0.25011 0.20186
# Poissons Ratio (z) = 0.34622 0.29867
#
# Static dielectric constant tensor:
#      x y z
#    x 3.296460 0.000000 0.000000 
#    y 0.000000 3.316340 0.000000 
#    z 0.000000 0.000000 2.890990 
# 
# 
# High freq. dielectric constant tensor:
#      x y z
#    x 1.680970 0.000000 0.000000 
#    y 0.000000 1.683830 0.000000 
#    z 0.000000 0.000000 1.653460 
# 
# From -- ./inp_files/31125.got.cif
#   From: 2010.03.12/outbox.cif.g09.slc.cpg/sg53_16_cif.got.tgz:31125.got - 2010.04.16 14:36:59.
