data_PCOD8220566
_publ_section_title
;
Structure prediction by ZEFSAII (Michael W. Deem and Ramdas Pophale) SiO2 
 PCOD8220566
Probable space group: P M N A
;
_chemical_formula_sum "Si O2"
_cell_formula_units_Z 40
_cell_length_a 9.924029
_cell_length_b 24.378581
_cell_length_c 8.661117
_cell_angle_alpha 90.000000
_cell_angle_beta 90.000000
_cell_angle_gamma 90.000000
_cell_volume 2095.416470
_symmetry_space_group_name_H-M "P M N A"
_symmetry_group_IT_number 53
_symmetry_cell_setting 'orthorhombic'
loop_
_space_group_symop_operation_xyz
x,y,z
1/2-x,-y,1/2+z
x,-y,-z
1/2-x,y,1/2-z
-x,-y,-z
1/2+x,y,1/2-z
-x,y,z
1/2+x,-y,1/2+z
loop_
_atom_site_type_symbol
_atom_site_label
_atom_site_fract_x
_atom_site_fract_y
_atom_site_fract_z
Si Si1 0.500000 0.558373 0.575022
Si Si2 0.253960 0.369133 0.432461
Si Si3 0.844933 0.947077 0.103534
Si Si4 0.342198 0.261416 0.603749
Si Si5 0.846500 0.844628 0.895669
Si Si6 0.000000 0.561302 0.563201
O O1 0.500000 0.500000 0.500000
O O2 0.372424 0.591226 0.516934
O O3 0.500000 0.552265 0.756350
O O4 0.250000 0.356468 0.250000
O O5 0.272157 0.312931 0.522659
O O6 0.124504 0.401982 0.491923
O O7 0.750000 0.951452 0.250000
O O8 0.000000 0.943075 0.158495
O O9 0.802457 0.893743 0.007353
O O10 0.820371 0.000000 0.000000
O O11 0.250000 0.246599 0.750000
O O12 0.500000 0.271947 0.647668
O O13 0.331541 0.211943 0.485220
O O14 0.750000 0.844005 0.750000
O O15 0.000000 0.853153 0.838573
O O16 0.000000 0.500000 0.500000
#
# Coordination Sequence:
#
# PCOD8220566 Si02
#       6
#     4   8   8   8   8   4
#     4  10  20  36  58  80 114 150 181 232 283 332
#     4  10  21  39  59  82 113 150 188 233 284 345
#     4  10  21  37  59  89 125 163 206 254 299 351
#     4  11  24  40  59  86 117 151 192 242 292 346
#     4  10  22  40  61  88 121 157 200 246 296 352
#     4  10  22  36  58  88 112 144 191 230 283 348
#
# _framework density 19.089283999999999
#
# number of rings (size 3 to 8) (size 9 to 14) (size 15 to 20)
#    0.000    1.800    1.000    2.400    1.400    3.600 
#    0.000    0.000    0.000    0.000    0.000    0.000 
#    0.000    0.000    0.000    0.000    0.000    0.000 
#
# Total GULP energy -496012.261639 kJ/mol
# GULP energy per Si atom -12400.306541 kJ/mol
# Density = 1.904584 g / cm^3
# Si number density = 19.089284 Si / 1000 Ang^3
#
#
#
# Elastic Constant Matrix: (Units=GPa)
#
#
# Indices 1 2 3 4 5 6 
#
# 1 148.4100 55.8118 66.5711 0.0000 0.0000 0.0000
# 2 55.8118 130.5174 40.2874 0.0000 0.0000 0.0000
# 3 66.5711 40.2874 86.0312 0.0000 0.0000 0.0000
# 4 0.0000 0.0000 0.0000 30.8108 0.0000 0.0000
# 5 0.0000 0.0000 0.0000 0.0000 55.5329 0.0000
# 6 0.0000 0.0000 0.0000 0.0000 0.0000 10.5962
#
#
#
# Elastic Compliance Matrix: (Units=1/GPa)
#
#
# Indices 1 2 3 4 5 6 
#
# 1 0.010934 -0.002413 -0.007331 0.000000 0.000000 0.000000
# 2 -0.002413 0.009489 -0.002577 0.000000 0.000000 0.000000
# 3 -0.007331 -0.002577 0.018503 0.000000 0.000000 0.000000
# 4 0.000000 0.000000 0.000000 0.032456 0.000000 0.000000
# 5 0.000000 0.000000 0.000000 0.000000 0.018007 0.000000
# 6 0.000000 0.000000 0.000000 0.000000 0.000000 0.094373
#
#
# Mechanical properties :
#
#
# Convention : Reuss Voigt Hill
#
# Bulk Modulus (GPa) = 70.00141 76.69992 73.35066
# Shear Modulus (GPa) = 23.45613 32.87387 28.16500
#
# Velocity S-wave (km/s) = 3.50917 4.15434 3.84531
# Velocity P-wave (km/s) = 7.29172 7.95475 7.63044
#
# Compressibility (1/GPa) = 0.01428543
#
# Stress axis : x y z
#
# Youngs Moduli (GPa) = 91.46065 105.38698 54.04597
#
# Poissons Ratio (x) = 0.25426 0.39619
# Poissons Ratio (y) = 0.22066 0.13925
# Poissons Ratio (z) = 0.67047 0.27154
#
# Static dielectric constant tensor:
#      x y z
#    x 3.660650 0.000000 0.000000 
#    y 0.000000 3.763820 0.000000 
#    z 0.000000 0.000000 3.334100 
# 
# 
# High freq. dielectric constant tensor:
#      x y z
#    x 1.756110 0.000000 0.000000 
#    y 0.000000 1.764760 0.000000 
#    z 0.000000 0.000000 1.734860 
# 
# From -- ./inp_files/6354.got.cif
#   From: 2010.03.12/outbox.cif.g09.slc.cpg/sg53_4_cif.got.tgz:6354.got - 2010.04.16 14:36:59.
