data_PCOD8220807
_publ_section_title
;
Structure prediction by ZEFSAII (Michael W. Deem and Ramdas Pophale) SiO2 
 PCOD8220807
Probable space group: P M N A
;
_chemical_formula_sum "Si O2"
_cell_formula_units_Z 56
_cell_length_a 9.219908
_cell_length_b 17.377947
_cell_length_c 18.120829
_cell_angle_alpha 90.000000
_cell_angle_beta 90.000000
_cell_angle_gamma 90.000000
_cell_volume 2903.374900
_symmetry_space_group_name_H-M "P M N A"
_symmetry_group_IT_number 53
_symmetry_cell_setting 'orthorhombic'
loop_
_space_group_symop_operation_xyz
x,y,z
1/2-x,-y,1/2+z
x,-y,-z
1/2-x,y,1/2-z
-x,-y,-z
1/2+x,y,1/2-z
-x,y,z
1/2+x,-y,1/2+z
loop_
_atom_site_type_symbol
_atom_site_label
_atom_site_fract_x
_atom_site_fract_y
_atom_site_fract_z
Si Si1 0.669470 0.461901 0.922122
Si Si2 0.835299 0.999276 0.413001
Si Si3 0.828920 0.421378 0.174334
Si Si4 0.169346 0.876382 0.825696
Si Si5 0.669890 0.285264 0.936616
Si Si6 0.332649 0.728406 0.583827
Si Si7 0.331054 0.845368 0.173173
O O1 0.500000 0.473480 0.904393
O O2 0.764517 0.499884 0.857914
O O3 0.715043 0.372927 0.921447
O O4 0.710384 0.500000 0.000000
O O5 0.793413 0.916252 0.380309
O O6 0.000000 0.021018 0.390523
O O7 0.817241 0.000000 0.500000
O O8 0.723034 0.061423 0.383842
O O9 0.750000 0.400702 0.250000
O O10 0.791630 0.354327 0.116632
O O11 0.000000 0.429831 0.188105
O O12 0.250000 0.891027 0.750000
O O13 0.206748 0.791618 0.855040
O O14 0.000000 0.887767 0.812359
O O15 0.500000 0.277314 0.950015
O O16 0.719967 0.232727 0.867955
O O17 0.742915 0.254452 0.010696
O O18 0.500000 0.732723 0.561827
O O19 0.250000 0.854482 0.250000
O O20 0.500000 0.841704 0.191385
#
# Coordination Sequence:
#
# PCOD8220807 Si02
#       7
#     8   8   8   8   8   8   8
#     4  10  20  37  60  87 116 149 192 242 294 350
#     4  10  21  39  62  87 115 149 193 240 290 349
#     4  11  23  38  58  84 117 154 193 238 291 348
#     4  11  23  38  57  84 117 152 191 236 287 342
#     4  10  21  38  62  87 114 151 194 237 287 347
#     4  10  22  38  57  85 117 150 191 237 287 345
#     4  10  22  39  59  85 117 154 194 238 289 345
#
# _framework density 19.287898999999999
#
# number of rings (size 3 to 8) (size 9 to 14) (size 15 to 20)
#    0.000    1.714    1.429    2.571    0.000    6.857 
#    0.000    1.429    0.000    0.000    0.000    0.000 
#    0.000    0.000    0.000    0.000    0.000    0.000 
#
# Total GULP energy -694695.528451 kJ/mol
# GULP energy per Si atom -12405.277294 kJ/mol
# Density = 1.924400 g / cm^3
# Si number density = 19.287899 Si / 1000 Ang^3
#
#
#
# Elastic Constant Matrix: (Units=GPa)
#
#
# Indices 1 2 3 4 5 6 
#
# 1 70.2905 46.3457 52.3687 0.0000 0.0000 0.0000
# 2 46.3457 100.4182 43.6438 0.0000 0.0000 0.0000
# 3 52.3687 43.6438 120.0703 0.0000 0.0000 0.0000
# 4 0.0000 0.0000 0.0000 29.7352 0.0000 0.0000
# 5 0.0000 0.0000 0.0000 0.0000 39.4636 0.0000
# 6 0.0000 0.0000 0.0000 0.0000 0.0000 25.1699
#
#
#
# Elastic Compliance Matrix: (Units=1/GPa)
#
#
# Indices 1 2 3 4 5 6 
#
# 1 0.025887 -0.008361 -0.008252 0.000000 0.000000 0.000000
# 2 -0.008361 0.014527 -0.001634 0.000000 0.000000 0.000000
# 3 -0.008252 -0.001634 0.012521 0.000000 0.000000 0.000000
# 4 0.000000 0.000000 0.000000 0.033630 0.000000 0.000000
# 5 0.000000 0.000000 0.000000 0.000000 0.025340 0.000000
# 6 0.000000 0.000000 0.000000 0.000000 0.000000 0.039730
#
#
# Mechanical properties :
#
#
# Convention : Reuss Voigt Hill
#
# Bulk Modulus (GPa) = 60.81722 63.94393 62.38057
# Shear Modulus (GPa) = 25.82508 28.76845 27.29677
#
# Velocity S-wave (km/s) = 3.66310 3.86622 3.76603
# Velocity P-wave (km/s) = 7.03497 7.29072 7.16399
#
# Compressibility (1/GPa) = 0.01644271
#
# Stress axis : x y z
#
# Youngs Moduli (GPa) = 38.62883 68.83542 79.86474
#
# Poissons Ratio (x) = 0.57556 0.65901
# Poissons Ratio (y) = 0.32299 0.13047
# Poissons Ratio (z) = 0.31875 0.11245
#
# Static dielectric constant tensor:
#      x y z
#    x 3.485460 0.000000 0.000000 
#    y 0.000000 3.735550 0.000000 
#    z 0.000000 0.000000 3.444480 
# 
# 
# High freq. dielectric constant tensor:
#      x y z
#    x 1.748150 0.000000 0.000000 
#    y 0.000000 1.763070 0.000000 
#    z 0.000000 0.000000 1.756050 
# 
# From -- ./inp_files/30882.got.cif
#   From: 2010.03.12/outbox.cif.g09.slc.cpg/sg53_16_cif.got.tgz:30882.got - 2010.04.16 14:36:59.
