data_PCOD8220447
_publ_section_title
;
Structure prediction by ZEFSAII (Michael W. Deem and Ramdas Pophale) SiO2 
 PCOD8220447
Probable space group: P M N A
;
_chemical_formula_sum "Si O2"
_cell_formula_units_Z 56
_cell_length_a 8.999355
_cell_length_b 17.787516
_cell_length_c 19.859079
_cell_angle_alpha 90.000000
_cell_angle_beta 90.000000
_cell_angle_gamma 90.000000
_cell_volume 3178.965327
_symmetry_space_group_name_H-M "P M N A"
_symmetry_group_IT_number 53
_symmetry_cell_setting 'orthorhombic'
loop_
_space_group_symop_operation_xyz
x,y,z
1/2-x,-y,1/2+z
x,-y,-z
1/2-x,y,1/2-z
-x,-y,-z
1/2+x,y,1/2-z
-x,y,z
1/2+x,-y,1/2+z
loop_
_atom_site_type_symbol
_atom_site_label
_atom_site_fract_x
_atom_site_fract_y
_atom_site_fract_z
Si Si1 0.322938 0.799283 0.925806
Si Si2 0.827915 0.919793 0.182261
Si Si3 0.166209 0.501634 0.580403
Si Si4 0.833514 0.647296 0.920798
Si Si5 0.824309 0.193674 0.931598
Si Si6 0.836195 0.358262 0.919131
Si Si7 0.824856 0.093713 0.180451
O O1 0.500000 0.800719 0.922344
O O2 0.265472 0.718545 0.899422
O O3 0.253707 0.863170 0.879585
O O4 0.269692 0.816994 0.001033
O O5 0.750000 0.891709 0.250000
O O6 0.771442 0.870912 0.119290
O O7 0.000000 0.905660 0.193732
O O8 0.791956 0.006260 0.166893
O O9 0.171003 0.500000 0.500000
O O10 0.262396 0.570981 0.608990
O O11 0.227229 0.422415 0.609225
O O12 0.000000 0.511725 0.607304
O O13 0.000000 0.656623 0.891636
O O14 0.838140 0.641221 0.000569
O O15 0.786761 0.274431 0.897008
O O16 0.000000 0.189414 0.949245
O O17 0.000000 0.377003 0.891343
O O18 0.750000 0.119733 0.250000
O O19 0.000000 0.111126 0.182684
#
# Coordination Sequence:
#
# PCOD8220447 Si02
#       7
#     8   8   8   8   8   8   8
#     4  11  21  32  48  73 102 130 162 203 248 291
#     4   9  19  35  55  75  97 127 164 204 245 291
#     4   9  15  22  35  58  89 122 156 194 237 282
#     4   9  16  27  42  61  89 125 161 196 238 287
#     4   9  18  33  50  71 100 133 165 200 245 294
#     4   8  14  24  39  59  87 123 160 194 233 283
#     4  10  20  36  55  74  97 127 163 202 244 292
#
# _framework density 17.615794999999999
#
# number of rings (size 3 to 8) (size 9 to 14) (size 15 to 20)
#    0.000    2.714    0.000    3.429    0.000    6.857 
#    0.000    2.857    0.000    0.000    0.000    1.000 
#    0.000    2.286    0.000    0.000    0.000    0.000 
#
# Total GULP energy -694257.430672 kJ/mol
# GULP energy per Si atom -12397.454119 kJ/mol
# Density = 1.757570 g / cm^3
# Si number density = 17.615795 Si / 1000 Ang^3
#
#
#
# Elastic Constant Matrix: (Units=GPa)
#
#
# Indices 1 2 3 4 5 6 
#
# 1 126.0162 66.6661 43.2729 0.0000 0.0000 0.0000
# 2 66.6661 118.8821 51.6738 0.0000 0.0000 0.0000
# 3 43.2729 51.6738 51.3572 0.0000 0.0000 0.0000
# 4 0.0000 0.0000 0.0000 0.7450 0.0000 0.0000
# 5 0.0000 0.0000 0.0000 0.0000 20.9769 0.0000
# 6 0.0000 0.0000 0.0000 0.0000 0.0000 28.1506
#
#
#
# Elastic Compliance Matrix: (Units=1/GPa)
#
#
# Indices 1 2 3 4 5 6 
#
# 1 0.012261 -0.004239 -0.006066 0.000000 0.000000 0.000000
# 2 -0.004239 0.016416 -0.012945 0.000000 0.000000 0.000000
# 3 -0.006066 -0.012945 0.037607 0.000000 0.000000 0.000000
# 4 0.000000 0.000000 0.000000 1.342258 0.000000 0.000000
# 5 0.000000 0.000000 0.000000 0.000000 0.047672 0.000000
# 6 0.000000 0.000000 0.000000 0.000000 0.000000 0.035523
#
#
# Mechanical properties :
#
#
# Convention : Reuss Voigt Hill
#
# Bulk Modulus (GPa) = 50.54558 68.83124 59.68841
# Shear Modulus (GPa) = 3.23660 18.95067 11.09363
#
# Velocity S-wave (km/s) = 1.35695 3.28346 2.51221
# Velocity P-wave (km/s) = 5.58665 7.31664 6.50938
#
# Compressibility (1/GPa) = 0.01978413
#
# Stress axis : x y z
#
# Youngs Moduli (GPa) = 81.55928 60.91766 26.59068
#
# Poissons Ratio (x) = 0.25824 0.16129
# Poissons Ratio (y) = 0.34574 0.34422
# Poissons Ratio (z) = 0.49472 0.78858
#
# Static dielectric constant tensor:
#      x y z
#    x 3.401480 0.000000 0.000000 
#    y 0.000000 3.591820 0.000000 
#    z 0.000000 0.000000 2.840950 
# 
# 
# High freq. dielectric constant tensor:
#      x y z
#    x 1.689350 0.000000 0.000000 
#    y 0.000000 1.696140 0.000000 
#    z 0.000000 0.000000 1.622180 
# 
# From -- ./inp_files/31052.got.cif
#   From: 2010.03.12/outbox.cif.g09.slc.cpg/sg53_16_cif.got.tgz:31052.got - 2010.04.16 14:36:59.
