data_PCOD8220813
_publ_section_title
;
Structure prediction by ZEFSAII (Michael W. Deem and Ramdas Pophale) SiO2 
 PCOD8220813
Probable space group: P M N A
;
_chemical_formula_sum "Si O2"
_cell_formula_units_Z 48
_cell_length_a 19.625877
_cell_length_b 13.472981
_cell_length_c 9.107815
_cell_angle_alpha 90.000000
_cell_angle_beta 90.000000
_cell_angle_gamma 90.000000
_cell_volume 2408.279953
_symmetry_space_group_name_H-M "P M N A"
_symmetry_group_IT_number 53
_symmetry_cell_setting 'orthorhombic'
loop_
_space_group_symop_operation_xyz
x,y,z
1/2-x,-y,1/2+z
x,-y,-z
1/2-x,y,1/2-z
-x,-y,-z
1/2+x,y,1/2-z
-x,y,z
1/2+x,-y,1/2+z
loop_
_atom_site_type_symbol
_atom_site_label
_atom_site_fract_x
_atom_site_fract_y
_atom_site_fract_z
Si Si1 0.924112 0.432285 0.867385
Si Si2 0.421894 0.788728 0.474760
Si Si3 0.315927 0.508576 0.826964
Si Si4 0.579635 0.863135 0.909408
Si Si5 0.827204 0.734663 0.756474
Si Si6 0.421102 0.934632 0.224117
O O1 0.924128 0.315758 0.893644
O O2 0.881670 0.446315 0.718979
O O3 0.000000 0.471873 0.836898
O O4 0.893238 0.500000 0.000000
O O5 0.500000 0.813237 0.530512
O O6 0.366750 0.776669 0.602317
O O7 0.392142 0.875578 0.366153
O O8 0.250000 0.459787 0.750000
O O9 0.325097 0.617189 0.757719
O O10 0.306626 0.500000 0.000000
O O11 0.500000 0.834006 0.911263
O O12 0.627676 0.770025 0.880146
O O13 0.592405 0.946660 0.780791
O O14 0.606183 0.896494 0.068307
O O15 0.750000 0.777488 0.750000
O O16 0.500000 0.910884 0.229014
#
# Coordination Sequence:
#
# PCOD8220813 Si02
#       6
#     8   8   8   8   8   8
#     4  10  20  37  60  88 122 153 191 249 301 346
#     4  10  20  37  62  89 118 153 195 240 294 354
#     4  11  25  41  60  81 114 161 204 243 298 371
#     4   9  18  37  61  85 117 151 192 241 289 343
#     4  11  24  38  54  84 119 150 193 251 291 349
#     4   8  17  35  61  88 113 152 196 235 287 357
#
# _framework density 19.931236999999999
#
# number of rings (size 3 to 8) (size 9 to 14) (size 15 to 20)
#    0.000    2.167    1.667    2.000    4.667    1.667 
#    0.000    6.667    0.000    0.000    0.000    0.000 
#    0.000    0.000    0.000    0.000    0.000    0.000 
#
# Total GULP energy -594707.726402 kJ/mol
# GULP energy per Si atom -12389.744300 kJ/mol
# Density = 1.988587 g / cm^3
# Si number density = 19.931237 Si / 1000 Ang^3
#
#
#
# Elastic Constant Matrix: (Units=GPa)
#
#
# Indices 1 2 3 4 5 6 
#
# 1 115.6896 23.7674 53.4040 0.0000 0.0000 0.0000
# 2 23.7674 35.2807 9.5084 0.0000 0.0000 0.0000
# 3 53.4040 9.5084 108.9588 0.0000 0.0000 0.0000
# 4 0.0000 0.0000 0.0000 32.6681 0.0000 0.0000
# 5 0.0000 0.0000 0.0000 0.0000 23.3021 0.0000
# 6 0.0000 0.0000 0.0000 0.0000 0.0000 19.3770
#
#
#
# Elastic Compliance Matrix: (Units=1/GPa)
#
#
# Indices 1 2 3 4 5 6 
#
# 1 0.012671 -0.007028 -0.005597 0.000000 0.000000 0.000000
# 2 -0.007028 0.032925 0.000571 0.000000 0.000000 0.000000
# 3 -0.005597 0.000571 0.011871 0.000000 0.000000 0.000000
# 4 0.000000 0.000000 0.000000 0.030611 0.000000 0.000000
# 5 0.000000 0.000000 0.000000 0.000000 0.042915 0.000000
# 6 0.000000 0.000000 0.000000 0.000000 0.000000 0.051608
#
#
# Mechanical properties :
#
#
# Convention : Reuss Voigt Hill
#
# Bulk Modulus (GPa) = 29.97631 48.14319 39.05975
# Shear Modulus (GPa) = 22.95390 26.61939 24.78665
#
# Velocity S-wave (km/s) = 3.39729 3.65850 3.53031
# Velocity P-wave (km/s) = 5.51917 6.48485 6.02140
#
# Compressibility (1/GPa) = 0.03335968
#
# Stress axis : x y z
#
# Youngs Moduli (GPa) = 78.91767 30.37251 84.23639
#
# Poissons Ratio (x) = 0.21345 0.47150
# Poissons Ratio (y) = 0.55462 -0.04813
# Poissons Ratio (z) = 0.44173 -0.01735
#
# Static dielectric constant tensor:
#      x y z
#    x 3.696790 0.000000 0.000000 
#    y 0.000000 3.671050 0.000000 
#    z 0.000000 0.000000 3.728630 
# 
# 
# High freq. dielectric constant tensor:
#      x y z
#    x 1.759190 0.000000 0.000000 
#    y 0.000000 1.774880 0.000000 
#    z 0.000000 0.000000 1.776690 
# 
# From -- ./inp_files/10006.got.cif
#   From: 2010.03.12/outbox.cif.g09.slc.cpg/sg53_6_cif.got.tgz:10006.got - 2010.04.16 14:36:59.
