data_PCOD8220075
_publ_section_title
;
Structure prediction by ZEFSAII (Michael W. Deem and Ramdas Pophale) SiO2 
 PCOD8220075
Probable space group: P M N A
;
_chemical_formula_sum "Si O2"
_cell_formula_units_Z 48
_cell_length_a 8.715099
_cell_length_b 15.519605
_cell_length_c 19.264534
_cell_angle_alpha 90.000000
_cell_angle_beta 90.000000
_cell_angle_gamma 90.000000
_cell_volume 2605.622504
_symmetry_space_group_name_H-M "P M N A"
_symmetry_group_IT_number 53
_symmetry_cell_setting 'orthorhombic'
loop_
_space_group_symop_operation_xyz
x,y,z
1/2-x,-y,1/2+z
x,-y,-z
1/2-x,y,1/2-z
-x,-y,-z
1/2+x,y,1/2-z
-x,y,z
1/2+x,-y,1/2+z
loop_
_atom_site_type_symbol
_atom_site_label
_atom_site_fract_x
_atom_site_fract_y
_atom_site_fract_z
Si Si1 0.331260 0.005806 0.582193
Si Si2 0.680349 0.678274 0.326449
Si Si3 0.819058 0.181860 0.071860
Si Si4 0.178536 0.821377 0.421722
Si Si5 0.822889 0.491118 0.675266
Si Si6 0.678940 0.318487 0.173832
O O1 0.500000 0.028064 0.612698
O O2 0.213653 0.080857 0.603785
O O3 0.342614 0.000000 0.500000
O O4 0.276876 0.910776 0.607180
O O5 0.750000 0.688273 0.250000
O O6 0.500000 0.675823 0.320108
O O7 0.728483 0.757825 0.373060
O O8 0.738644 0.588804 0.363026
O O9 0.770990 0.255307 0.124515
O O10 0.000000 0.186282 0.055853
O O11 0.727925 0.194531 0.000608
O O12 0.000000 0.803021 0.413603
O O13 0.750000 0.499379 0.750000
O O14 0.801117 0.585325 0.640612
O O15 0.000000 0.466606 0.681758
O O16 0.750000 0.311963 0.250000
O O17 0.500000 0.293414 0.177537
#
# Coordination Sequence:
#
# PCOD8220075 Si02
#       6
#     8   8   8   8   8   8
#     4   8  16  32  52  74 101 135 173 210 251 303
#     4  11  21  35  55  78 105 136 172 213 257 306
#     4  10  20  35  55  78 106 138 173 214 257 304
#     4  11  21  34  54  79 106 136 172 213 257 307
#     4   9  17  31  51  75 102 134 172 210 251 303
#     4  10  20  34  54  79 107 138 173 214 257 305
#
# _framework density 18.421702
#
# number of rings (size 3 to 8) (size 9 to 14) (size 15 to 20)
#    0.000    2.167    0.000    6.500    0.000    5.667 
#    0.000    1.667    0.000    9.000    0.000    0.000 
#    0.000    0.000    0.000    0.000    0.000    0.000 
#
# Total GULP energy -594895.004850 kJ/mol
# GULP energy per Si atom -12393.645934 kJ/mol
# Density = 1.837977 g / cm^3
# Si number density = 18.421702 Si / 1000 Ang^3
#
#
#
# Elastic Constant Matrix: (Units=GPa)
#
#
# Indices 1 2 3 4 5 6 
#
# 1 118.8256 52.4468 21.7797 0.0000 0.0000 0.0000
# 2 52.4468 146.5382 41.7564 0.0000 0.0000 0.0000
# 3 21.7797 41.7564 42.4941 0.0000 0.0000 0.0000
# 4 0.0000 0.0000 0.0000 28.3606 0.0000 0.0000
# 5 0.0000 0.0000 0.0000 0.0000 26.9869 0.0000
# 6 0.0000 0.0000 0.0000 0.0000 0.0000 36.4584
#
#
#
# Elastic Compliance Matrix: (Units=1/GPa)
#
#
# Indices 1 2 3 4 5 6 
#
# 1 0.010149 -0.002986 -0.002267 0.000000 0.000000 0.000000
# 2 -0.002986 0.010357 -0.008646 0.000000 0.000000 0.000000
# 3 -0.002267 -0.008646 0.033191 0.000000 0.000000 0.000000
# 4 0.000000 0.000000 0.000000 0.035260 0.000000 0.000000
# 5 0.000000 0.000000 0.000000 0.000000 0.037055 0.000000
# 6 0.000000 0.000000 0.000000 0.000000 0.000000 0.027429
#
#
# Mechanical properties :
#
#
# Convention : Reuss Voigt Hill
#
# Bulk Modulus (GPa) = 38.61457 59.98040 49.29749
# Shear Modulus (GPa) = 26.33332 31.15285 28.74308
#
# Velocity S-wave (km/s) = 3.78494 4.11675 3.95433
# Velocity P-wave (km/s) = 6.33309 7.43150 6.90417
#
# Compressibility (1/GPa) = 0.02589696
#
# Stress axis : x y z
#
# Youngs Moduli (GPa) = 98.52774 96.55475 30.12868
#
# Poissons Ratio (x) = 0.28836 0.06831
# Poissons Ratio (y) = 0.29425 0.26050
# Poissons Ratio (z) = 0.22339 0.83485
#
# Static dielectric constant tensor:
#      x y z
#    x 3.516850 0.000000 0.000000 
#    y 0.000000 4.260540 0.000000 
#    z 0.000000 0.000000 2.952440 
# 
# 
# High freq. dielectric constant tensor:
#      x y z
#    x 1.730430 0.000000 0.000000 
#    y 0.000000 1.739520 0.000000 
#    z 0.000000 0.000000 1.663850 
# 
# From -- ./inp_files/30515.got.cif
#   From: 2010.03.12/outbox.cif.g09.slc.cpg/sg53_16_cif.got.tgz:30515.got - 2010.04.16 14:36:59.
