data_PCOD8220770
_publ_section_title
;
Structure prediction by ZEFSAII (Michael W. Deem and Ramdas Pophale) SiO2 
 PCOD8220770
Probable space group: P M N A
;
_chemical_formula_sum "Si O2"
_cell_formula_units_Z 40
_cell_length_a 8.694537
_cell_length_b 25.200753
_cell_length_c 9.211198
_cell_angle_alpha 90.000000
_cell_angle_beta 90.000000
_cell_angle_gamma 90.000000
_cell_volume 2018.255272
_symmetry_space_group_name_H-M "P M N A"
_symmetry_group_IT_number 53
_symmetry_cell_setting 'orthorhombic'
loop_
_space_group_symop_operation_xyz
x,y,z
1/2-x,-y,1/2+z
x,-y,-z
1/2-x,y,1/2-z
-x,-y,-z
1/2+x,y,1/2-z
-x,y,z
1/2+x,-y,1/2+z
loop_
_atom_site_type_symbol
_atom_site_label
_atom_site_fract_x
_atom_site_fract_y
_atom_site_fract_z
Si Si1 0.821788 0.947645 0.906094
Si Si2 0.682294 0.765405 0.595327
Si Si3 0.319160 0.354998 0.401003
Si Si4 0.318110 0.549506 0.406887
Si Si5 0.317957 0.145019 0.907549
O O1 0.750000 0.959061 0.750000
O O2 0.000000 0.931635 0.890984
O O3 0.730653 0.900253 0.980853
O O4 0.800185 0.000000 0.000000
O O5 0.750000 0.784237 0.750000
O O6 0.500000 0.772957 0.599005
O O7 0.732562 0.704931 0.562185
O O8 0.754053 0.799181 0.465254
O O9 0.250000 0.374473 0.250000
O O10 0.500000 0.358171 0.384841
O O11 0.259179 0.395083 0.524252
O O12 0.256769 0.500000 0.500000
O O13 0.250000 0.543848 0.250000
O O14 0.500000 0.548677 0.397226
O O15 0.250000 0.132362 0.750000
O O16 0.500000 0.147492 0.895588
#
# Coordination Sequence:
#
# PCOD8220770 Si02
#       5
#     8   8   8   8   8
#     4  11  24  42  65  92 122 156 194 236 284 338
#     4  10  20  37  59  84 115 150 191 235 283 338
#     4   9  19  35  56  82 111 145 185 230 278 333
#     4  10  21  36  54  79 110 143 183 229 278 334
#     4  12  25  41  61  86 118 154 194 239 288 339
#
# _framework density 19.819098
#
# number of rings (size 3 to 8) (size 9 to 14) (size 15 to 20)
#    0.000    1.600    0.000    4.800    0.000    6.000 
#    0.000    2.000    0.000    0.000    0.000    0.000 
#    0.000    0.000    0.000    0.000    0.000    0.000 
#
# Total GULP energy -496181.618348 kJ/mol
# GULP energy per Si atom -12404.540459 kJ/mol
# Density = 1.977399 g / cm^3
# Si number density = 19.819098 Si / 1000 Ang^3
#
#
#
# Elastic Constant Matrix: (Units=GPa)
#
#
# Indices 1 2 3 4 5 6 
#
# 1 91.8520 38.7961 46.4738 0.0000 0.0000 0.0000
# 2 38.7961 106.3333 60.0865 0.0000 0.0000 0.0000
# 3 46.4738 60.0865 147.4530 0.0000 0.0000 0.0000
# 4 0.0000 0.0000 0.0000 13.3027 0.0000 0.0000
# 5 0.0000 0.0000 0.0000 0.0000 38.1023 0.0000
# 6 0.0000 0.0000 0.0000 0.0000 0.0000 16.9278
#
#
#
# Elastic Compliance Matrix: (Units=1/GPa)
#
#
# Indices 1 2 3 4 5 6 
#
# 1 0.013815 -0.003352 -0.002988 0.000000 0.000000 0.000000
# 2 -0.003352 0.013031 -0.004254 0.000000 0.000000 0.000000
# 3 -0.002988 -0.004254 0.009457 0.000000 0.000000 0.000000
# 4 0.000000 0.000000 0.000000 0.075173 0.000000 0.000000
# 5 0.000000 0.000000 0.000000 0.000000 0.026245 0.000000
# 6 0.000000 0.000000 0.000000 0.000000 0.000000 0.059074
#
#
# Mechanical properties :
#
#
# Convention : Reuss Voigt Hill
#
# Bulk Modulus (GPa) = 66.15804 70.70566 68.43185
# Shear Modulus (GPa) = 22.41945 27.01869 24.71907
#
# Velocity S-wave (km/s) = 3.36699 3.69625 3.53545
# Velocity P-wave (km/s) = 6.96914 7.34638 7.16024
#
# Compressibility (1/GPa) = 0.01511532
#
# Stress axis : x y z
#
# Youngs Moduli (GPa) = 72.38650 76.74046 105.74181
#
# Poissons Ratio (x) = 0.25722 0.31598
# Poissons Ratio (y) = 0.24262 0.44979
# Poissons Ratio (z) = 0.21631 0.32643
#
# Static dielectric constant tensor:
#      x y z
#    x 3.642660 0.000000 0.000000 
#    y 0.000000 3.958010 0.000000 
#    z 0.000000 0.000000 3.619470 
# 
# 
# High freq. dielectric constant tensor:
#      x y z
#    x 1.776990 0.000000 0.000000 
#    y 0.000000 1.789160 0.000000 
#    z 0.000000 0.000000 1.778350 
# 
# From -- ./inp_files/6250.got.cif
#   From: 2010.03.12/outbox.cif.g09.slc.cpg/sg53_4_cif.got.tgz:6250.got - 2010.04.16 14:36:59.
