data_PCOD8220600
_publ_section_title
;
Structure prediction by ZEFSAII (Michael W. Deem and Ramdas Pophale) SiO2 
 PCOD8220600
Probable space group: P M N A
;
_chemical_formula_sum "Si O2"
_cell_formula_units_Z 64
_cell_length_a 8.985969
_cell_length_b 24.278401
_cell_length_c 14.452117
_cell_angle_alpha 90.000000
_cell_angle_beta 90.000000
_cell_angle_gamma 90.000000
_cell_volume 3152.945509
_symmetry_space_group_name_H-M "P M N A"
_symmetry_group_IT_number 53
_symmetry_cell_setting 'orthorhombic'
loop_
_space_group_symop_operation_xyz
x,y,z
1/2-x,-y,1/2+z
x,-y,-z
1/2-x,y,1/2-z
-x,-y,-z
1/2+x,y,1/2-z
-x,y,z
1/2+x,-y,1/2+z
loop_
_atom_site_type_symbol
_atom_site_label
_atom_site_fract_x
_atom_site_fract_y
_atom_site_fract_z
Si Si1 0.172563 0.370682 0.541682
Si Si2 0.670721 0.982315 0.604989
Si Si3 0.675179 0.597089 0.842729
Si Si4 0.175846 0.725020 0.150151
Si Si5 0.669325 0.815389 0.030933
Si Si6 0.171570 0.473154 0.660091
Si Si7 0.174786 0.131228 0.344069
Si Si8 0.329106 0.911551 0.165288
O O1 0.218448 0.366957 0.433301
O O2 0.274124 0.332025 0.604307
O O3 0.199497 0.433792 0.572568
O O4 0.000000 0.353929 0.555365
O O5 0.500000 0.974668 0.634925
O O6 0.756585 0.926433 0.625270
O O7 0.686715 0.000000 0.500000
O O8 0.745362 0.030524 0.662907
O O9 0.750000 0.622074 0.750000
O O10 0.500000 0.598600 0.828348
O O11 0.732661 0.534595 0.860085
O O12 0.250000 0.733825 0.250000
O O13 0.219641 0.773179 0.079138
O O14 0.000000 0.724932 0.164242
O O15 0.500000 0.794648 0.046505
O O16 0.690820 0.876259 0.072822
O O17 0.705463 0.822151 0.922167
O O18 0.250000 0.447263 0.750000
O O19 0.000000 0.476633 0.684735
O O20 0.250000 0.152899 0.250000
O O21 0.000000 0.122731 0.329240
O O22 0.250000 0.878536 0.250000
O O23 0.500000 0.922169 0.188109
#
# Coordination Sequence:
#
# PCOD8220600 Si02
#       8
#     8   8   8   8   8   8   8   8
#     4  10  20  36  58  83 116 156 198 243 292 347
#     4  11  22  36  57  86 120 158 196 235 281 338
#     4   9  18  33  54  82 117 157 198 242 290 342
#     4  12  26  43  65  90 118 149 188 238 292 350
#     4  10  23  43  65  87 114 150 192 240 292 343
#     4   9  17  30  51  81 116 155 196 238 289 347
#     4  11  23  41  64  90 121 156 195 240 290 345
#     4  11  22  37  58  85 116 150 189 232 284 341
#
# _framework density 20.298480000000001
#
# number of rings (size 3 to 8) (size 9 to 14) (size 15 to 20)
#    0.000    1.625    1.250    3.750    0.000    7.000 
#    0.000    0.625    0.000    3.750    0.000    0.000 
#    0.000    0.000    0.000    0.000    0.000    0.000 
#
# Total GULP energy -793573.575778 kJ/mol
# GULP energy per Si atom -12399.587122 kJ/mol
# Density = 2.025228 g / cm^3
# Si number density = 20.298480 Si / 1000 Ang^3
#
#
#
# Elastic Constant Matrix: (Units=GPa)
#
#
# Indices 1 2 3 4 5 6 
#
# 1 117.9271 37.0279 68.9846 0.0000 0.0000 0.0000
# 2 37.0279 60.4907 32.7024 0.0000 0.0000 0.0000
# 3 68.9846 32.7024 138.3844 0.0000 0.0000 0.0000
# 4 0.0000 0.0000 0.0000 27.2928 0.0000 0.0000
# 5 0.0000 0.0000 0.0000 0.0000 36.1715 0.0000
# 6 0.0000 0.0000 0.0000 0.0000 0.0000 31.6643
#
#
#
# Elastic Compliance Matrix: (Units=1/GPa)
#
#
# Indices 1 2 3 4 5 6 
#
# 1 0.013263 -0.005210 -0.005380 0.000000 0.000000 0.000000
# 2 -0.005210 0.020999 -0.002365 0.000000 0.000000 0.000000
# 3 -0.005380 -0.002365 0.010467 0.000000 0.000000 0.000000
# 4 0.000000 0.000000 0.000000 0.036640 0.000000 0.000000
# 5 0.000000 0.000000 0.000000 0.000000 0.027646 0.000000
# 6 0.000000 0.000000 0.000000 0.000000 0.000000 0.031581
#
#
# Mechanical properties :
#
#
# Convention : Reuss Voigt Hill
#
# Bulk Modulus (GPa) = 53.13951 66.02579 59.58265
# Shear Modulus (GPa) = 28.93835 30.89822 29.91829
#
# Velocity S-wave (km/s) = 3.77986 3.90576 3.84333
# Velocity P-wave (km/s) = 6.72947 7.27585 7.00799
#
# Compressibility (1/GPa) = 0.01881839
#
# Stress axis : x y z
#
# Youngs Moduli (GPa) = 75.39703 47.62055 95.53491
#
# Poissons Ratio (x) = 0.24810 0.51402
# Poissons Ratio (y) = 0.39281 0.22597
# Poissons Ratio (z) = 0.40567 0.11264
#
# Static dielectric constant tensor:
#      x y z
#    x 3.677730 0.000000 0.000000 
#    y 0.000000 3.467080 0.000000 
#    z 0.000000 0.000000 3.990370 
# 
# 
# High freq. dielectric constant tensor:
#      x y z
#    x 1.790170 0.000000 0.000000 
#    y 0.000000 1.770950 0.000000 
#    z 0.000000 0.000000 1.811160 
# 
# From -- ./inp_files/21011.got.cif
#   From: 2010.03.12/outbox.cif.g09.slc.cpg/sg53_11_cif.got.tgz:21011.got - 2010.04.16 14:36:59.
