data_PCOD8220266
_publ_section_title
;
Structure prediction by ZEFSAII (Michael W. Deem and Ramdas Pophale) SiO2 
 PCOD8220266
Probable space group: P M N A
;
_chemical_formula_sum "Si O2"
_cell_formula_units_Z 48
_cell_length_a 8.896422
_cell_length_b 30.673437
_cell_length_c 9.451093
_cell_angle_alpha 90.000000
_cell_angle_beta 90.000000
_cell_angle_gamma 90.000000
_cell_volume 2579.050548
_symmetry_space_group_name_H-M "P M N A"
_symmetry_group_IT_number 53
_symmetry_cell_setting 'orthorhombic'
loop_
_space_group_symop_operation_xyz
x,y,z
1/2-x,-y,1/2+z
x,-y,-z
1/2-x,y,1/2-z
-x,-y,-z
1/2+x,y,1/2-z
-x,y,z
1/2+x,-y,1/2+z
loop_
_atom_site_type_symbol
_atom_site_label
_atom_site_fract_x
_atom_site_fract_y
_atom_site_fract_z
Si Si1 0.821655 0.371044 0.400979
Si Si2 0.176541 0.134462 0.601454
Si Si3 0.823064 0.963270 0.396474
Si Si4 0.176468 0.539653 0.897585
Si Si5 0.176677 0.708838 0.403130
Si Si6 0.177619 0.211554 0.403030
O O1 0.750000 0.358433 0.250000
O O2 0.754221 0.416619 0.457178
O O3 0.776368 0.335264 0.516680
O O4 0.000000 0.374674 0.382043
O O5 0.250000 0.147817 0.750000
O O6 0.223525 0.085509 0.554694
O O7 0.230796 0.166748 0.477674
O O8 0.000000 0.138593 0.625057
O O9 0.750000 0.975120 0.250000
O O10 0.000000 0.966998 0.381137
O O11 0.758288 0.000000 0.500000
O O12 0.250000 0.526605 0.750000
O O13 0.000000 0.548207 0.878793
O O14 0.211671 0.500000 0.000000
O O15 0.250000 0.710378 0.250000
O O16 0.234293 0.748991 0.498338
O O17 0.000000 0.711818 0.381018
O O18 0.250000 0.215376 0.250000
O O19 0.000000 0.213276 0.382994
#
# Coordination Sequence:
#
# PCOD8220266 Si02
#       6
#     8   8   8   8   8   8
#     4  10  20  35  55  78 104 135 171 210 253 300
#     4   9  18  33  52  73  99 132 169 209 253 301
#     4   9  18  32  49  71 100 132 167 209 254 300
#     4  10  21  36  55  79 106 138 174 211 254 301
#     4  10  22  37  54  78 105 134 169 209 252 300
#     4  10  21  36  53  76 104 133 168 208 252 302
#
# _framework density 18.611499999999999
#
# number of rings (size 3 to 8) (size 9 to 14) (size 15 to 20)
#    0.000    2.333    0.000    3.000    0.000    5.667 
#    0.000    3.333    0.000    0.000    0.000    0.000 
#    0.000    0.000    0.000    0.000    0.000    0.000 
#
# Total GULP energy -595192.818485 kJ/mol
# GULP energy per Si atom -12399.850385 kJ/mol
# Density = 1.856914 g / cm^3
# Si number density = 18.611500 Si / 1000 Ang^3
#
#
#
# Elastic Constant Matrix: (Units=GPa)
#
#
# Indices 1 2 3 4 5 6 
#
# 1 53.1641 51.4822 50.9804 0.0000 0.0000 0.0000
# 2 51.4822 165.6757 118.6366 0.0000 0.0000 0.0000
# 3 50.9804 118.6366 160.4221 0.0000 0.0000 0.0000
# 4 0.0000 0.0000 0.0000 43.1479 0.0000 0.0000
# 5 0.0000 0.0000 0.0000 0.0000 35.0663 0.0000
# 6 0.0000 0.0000 0.0000 0.0000 0.0000 15.2873
#
#
#
# Elastic Compliance Matrix: (Units=1/GPa)
#
#
# Indices 1 2 3 4 5 6 
#
# 1 0.028963 -0.005121 -0.005417 0.000000 0.000000 0.000000
# 2 -0.005121 0.013736 -0.008531 0.000000 0.000000 0.000000
# 3 -0.005417 -0.008531 0.014264 0.000000 0.000000 0.000000
# 4 0.000000 0.000000 0.000000 0.023176 0.000000 0.000000
# 5 0.000000 0.000000 0.000000 0.000000 0.028517 0.000000
# 6 0.000000 0.000000 0.000000 0.000000 0.000000 0.065414
#
#
# Mechanical properties :
#
#
# Convention : Reuss Voigt Hill
#
# Bulk Modulus (GPa) = 53.11993 91.27337 72.19665
# Shear Modulus (GPa) = 22.88517 29.24449 26.06483
#
# Velocity S-wave (km/s) = 3.51041 3.96828 3.74634
# Velocity P-wave (km/s) = 6.71074 8.37521 7.58875
#
# Compressibility (1/GPa) = 0.01882533
#
# Stress axis : x y z
#
# Youngs Moduli (GPa) = 34.52650 72.80276 70.10841
#
# Poissons Ratio (x) = 0.37283 0.37978
# Poissons Ratio (y) = 0.17681 0.59806
# Poissons Ratio (z) = 0.18703 0.62105
#
# Static dielectric constant tensor:
#      x y z
#    x 3.367270 0.000000 0.000000 
#    y 0.000000 3.782100 0.000000 
#    z 0.000000 0.000000 3.410490 
# 
# 
# High freq. dielectric constant tensor:
#      x y z
#    x 1.719570 0.000000 0.000000 
#    y 0.000000 1.740020 0.000000 
#    z 0.000000 0.000000 1.719880 
# 
# From -- ./inp_files/6757.got.cif
#   From: 2010.03.12/outbox.cif.g09.slc.cpg/sg53_4_cif.got.tgz:6757.got - 2010.04.16 14:36:59.
