data_PCOD8220564
_publ_section_title
;
Structure prediction by ZEFSAII (Michael W. Deem and Ramdas Pophale) SiO2 
 PCOD8220564
Probable space group: P M N A
;
_chemical_formula_sum "Si O2"
_cell_formula_units_Z 40
_cell_length_a 9.967292
_cell_length_b 23.771500
_cell_length_c 9.309119
_cell_angle_alpha 90.000000
_cell_angle_beta 90.000000
_cell_angle_gamma 90.000000
_cell_volume 2205.679213
_symmetry_space_group_name_H-M "P M N A"
_symmetry_group_IT_number 53
_symmetry_cell_setting 'orthorhombic'
loop_
_space_group_symop_operation_xyz
x,y,z
1/2-x,-y,1/2+z
x,-y,-z
1/2-x,y,1/2-z
-x,-y,-z
1/2+x,y,1/2-z
-x,y,z
1/2+x,-y,1/2+z
loop_
_atom_site_type_symbol
_atom_site_label
_atom_site_fract_x
_atom_site_fract_y
_atom_site_fract_z
Si Si1 0.347205 0.829155 0.621363
Si Si2 0.348275 0.957452 0.626355
Si Si3 0.658910 0.736011 0.391174
Si Si4 0.745413 0.632682 0.582495
Si Si5 0.500000 0.444375 0.409593
Si Si6 0.500000 0.559648 0.923012
O O1 0.250000 0.809329 0.750000
O O2 0.500000 0.820772 0.675705
O O3 0.317734 0.893601 0.577821
O O4 0.321749 0.793678 0.477972
O O5 0.250000 0.977113 0.750000
O O6 0.500000 0.962809 0.682736
O O7 0.318920 0.000000 0.500000
O O8 0.750000 0.740256 0.250000
O O9 0.500000 0.725510 0.356984
O O10 0.722910 0.687669 0.488848
O O11 0.750000 0.650321 0.750000
O O12 0.627851 0.590566 0.545903
O O13 0.876243 0.598901 0.533812
O O14 0.500000 0.500000 0.500000
O O15 0.500000 0.458030 0.242193
O O16 0.500000 0.500000 0.000000
#
# Coordination Sequence:
#
# PCOD8220564 Si02
#       6
#     8   8   8   8   4   4
#     4   9  19  37  58  81 111 148 190 231 276 331
#     4   9  18  33  54  81 113 150 189 231 278 327
#     4  11  24  39  56  82 113 145 182 231 282 328
#     4  10  21  39  59  81 109 146 183 221 268 329
#     4  10  20  36  58  80 112 146 175 218 269 318
#     4  10  22  36  58  88 110 138 183 222 267 326
#
# _framework density 18.135003000000001
#
# number of rings (size 3 to 8) (size 9 to 14) (size 15 to 20)
#    0.000    2.200    1.000    1.200    1.400    3.600 
#    0.000    0.000    0.000    0.000    0.000    0.000 
#    0.000    0.000    0.000    0.000    0.000    0.000 
#
# Total GULP energy -495935.638812 kJ/mol
# GULP energy per Si atom -12398.390970 kJ/mol
# Density = 1.809373 g / cm^3
# Si number density = 18.135003 Si / 1000 Ang^3
#
#
#
# Elastic Constant Matrix: (Units=GPa)
#
#
# Indices 1 2 3 4 5 6 
#
# 1 147.6597 68.8910 75.3899 0.0000 0.0000 0.0000
# 2 68.8910 103.4370 68.3257 0.0000 0.0000 0.0000
# 3 75.3899 68.3257 103.6982 0.0000 0.0000 0.0000
# 4 0.0000 0.0000 0.0000 16.6357 0.0000 0.0000
# 5 0.0000 0.0000 0.0000 0.0000 37.9854 0.0000
# 6 0.0000 0.0000 0.0000 0.0000 0.0000 41.7398
#
#
#
# Elastic Compliance Matrix: (Units=1/GPa)
#
#
# Indices 1 2 3 4 5 6 
#
# 1 0.011557 -0.003802 -0.005897 0.000000 0.000000 0.000000
# 2 -0.003802 0.018369 -0.009339 0.000000 0.000000 0.000000
# 3 -0.005897 -0.009339 0.020084 0.000000 0.000000 0.000000
# 4 0.000000 0.000000 0.000000 0.060112 0.000000 0.000000
# 5 0.000000 0.000000 0.000000 0.000000 0.026326 0.000000
# 6 0.000000 0.000000 0.000000 0.000000 0.000000 0.023958
#
#
# Mechanical properties :
#
#
# Convention : Reuss Voigt Hill
#
# Bulk Modulus (GPa) = 83.79499 86.66756 85.23128
# Shear Modulus (GPa) = 24.69641 28.75141 26.72391
#
# Velocity S-wave (km/s) = 3.69427 3.98604 3.84293
# Velocity P-wave (km/s) = 8.03140 8.31136 8.17258
#
# Compressibility (1/GPa) = 0.01193389
#
# Stress axis : x y z
#
# Youngs Moduli (GPa) = 86.52850 54.44044 49.79090
#
# Poissons Ratio (x) = 0.20697 0.29362
# Poissons Ratio (y) = 0.32896 0.46500
# Poissons Ratio (z) = 0.51026 0.50842
#
# Static dielectric constant tensor:
#      x y z
#    x 3.631650 0.000000 0.000000 
#    y 0.000000 3.422420 0.000000 
#    z 0.000000 0.000000 3.200230 
# 
# 
# High freq. dielectric constant tensor:
#      x y z
#    x 1.719830 0.000000 0.000000 
#    y 0.000000 1.714710 0.000000 
#    z 0.000000 0.000000 1.689540 
# 
# From -- ./inp_files/6377.got.cif
#   From: 2010.03.12/outbox.cif.g09.slc.cpg/sg53_4_cif.got.tgz:6377.got - 2010.04.16 14:36:59.
