data_PCOD8220796
_publ_section_title
;
Structure prediction by ZEFSAII (Michael W. Deem and Ramdas Pophale) SiO2 
 PCOD8220796
Probable space group: P M N A
;
_chemical_formula_sum "Si O2"
_cell_formula_units_Z 48
_cell_length_a 8.169365
_cell_length_b 9.875819
_cell_length_c 31.081713
_cell_angle_alpha 90.000000
_cell_angle_beta 90.000000
_cell_angle_gamma 90.000000
_cell_volume 2507.646810
_symmetry_space_group_name_H-M "P M N A"
_symmetry_group_IT_number 53
_symmetry_cell_setting 'orthorhombic'
loop_
_space_group_symop_operation_xyz
x,y,z
1/2-x,-y,1/2+z
x,-y,-z
1/2-x,y,1/2-z
-x,-y,-z
1/2+x,y,1/2-z
-x,y,z
1/2+x,-y,1/2+z
loop_
_atom_site_type_symbol
_atom_site_label
_atom_site_fract_x
_atom_site_fract_y
_atom_site_fract_z
Si Si1 0.000000 0.580883 0.935650
Si Si2 0.185987 0.474777 0.705702
Si Si3 0.000000 0.290118 0.972194
Si Si4 0.309495 0.026174 0.131766
Si Si5 0.805893 0.824314 0.296429
Si Si6 0.821923 0.323645 0.140754
Si Si7 0.689278 0.099303 0.959942
O O1 0.000000 0.420586 0.941916
O O2 0.162627 0.622535 0.908497
O O3 0.000000 0.666352 0.978655
O O4 0.250000 0.540700 0.750000
O O5 0.268581 0.327567 0.696627
O O6 0.202273 0.578497 0.666584
O O7 0.000000 0.441236 0.712950
O O8 0.170604 0.212878 0.963355
O O9 0.500000 0.040215 0.139368
O O10 0.233369 0.918646 0.165568
O O11 0.269987 0.982390 0.083266
O O12 0.234323 0.170720 0.141346
O O13 0.750000 0.881038 0.250000
O O14 0.000000 0.826161 0.299713
O O15 0.000000 0.331491 0.163508
O O16 0.500000 0.157075 0.958586
O O17 0.708664 0.000000 0.000000
#
# Coordination Sequence:
#
# PCOD8220796 Si02
#       7
#     4   8   4   8   8   8   8
#     4   9  24  40  58  90 124 157 210 259 302 380
#     4  10  20  37  60  85 115 158 197 249 306 364
#     4  11  21  42  66  88 127 170 203 270 319 358
#     4  10  21  37  57  86 120 155 201 254 309 368
#     4   9  20  37  57  84 116 148 195 250 301 360
#     4  10  22  37  55  82 117 157 199 247 296 370
#     4  10  22  38  63  95 124 162 212 258 315 388
#
# _framework density 19.141452000000001
#
# number of rings (size 3 to 8) (size 9 to 14) (size 15 to 20)
#    0.500    1.667    0.000    2.250    3.500    2.000 
#    0.000    5.000    0.000    0.000    0.000    0.000 
#    0.000    0.000    0.000    0.000    0.000    0.000 
#
# Total GULP energy -594862.168130 kJ/mol
# GULP energy per Si atom -12392.961836 kJ/mol
# Density = 1.909788 g / cm^3
# Si number density = 19.141452 Si / 1000 Ang^3
#
#
#
# Elastic Constant Matrix: (Units=GPa)
#
#
# Indices 1 2 3 4 5 6 
#
# 1 61.4615 44.8157 24.6474 0.0000 0.0000 0.0000
# 2 44.8157 128.8079 66.1803 0.0000 0.0000 0.0000
# 3 24.6474 66.1803 126.1213 0.0000 0.0000 0.0000
# 4 0.0000 0.0000 0.0000 27.3241 0.0000 0.0000
# 5 0.0000 0.0000 0.0000 0.0000 30.2378 0.0000
# 6 0.0000 0.0000 0.0000 0.0000 0.0000 35.5024
#
#
#
# Elastic Compliance Matrix: (Units=1/GPa)
#
#
# Indices 1 2 3 4 5 6 
#
# 1 0.021815 -0.007393 -0.000384 0.000000 0.000000 0.000000
# 2 -0.007393 0.013134 -0.005447 0.000000 0.000000 0.000000
# 3 -0.000384 -0.005447 0.010862 0.000000 0.000000 0.000000
# 4 0.000000 0.000000 0.000000 0.036598 0.000000 0.000000
# 5 0.000000 0.000000 0.000000 0.000000 0.033071 0.000000
# 6 0.000000 0.000000 0.000000 0.000000 0.000000 0.028167
#
#
# Mechanical properties :
#
#
# Convention : Reuss Voigt Hill
#
# Bulk Modulus (GPa) = 51.64352 65.29750 58.47051
# Shear Modulus (GPa) = 28.32058 30.66269 29.49164
#
# Velocity S-wave (km/s) = 3.85065 4.00672 3.92946
# Velocity P-wave (km/s) = 6.84168 7.45602 7.15545
#
# Compressibility (1/GPa) = 0.01936351
#
# Stress axis : x y z
#
# Youngs Moduli (GPa) = 45.84042 76.13589 92.06121
#
# Poissons Ratio (x) = 0.56285 0.03535
# Poissons Ratio (y) = 0.33888 0.50149
# Poissons Ratio (z) = 0.01760 0.41474
#
# Static dielectric constant tensor:
#      x y z
#    x 3.486760 0.000000 0.000000 
#    y 0.000000 3.488590 0.000000 
#    z 0.000000 0.000000 3.642510 
# 
# 
# High freq. dielectric constant tensor:
#      x y z
#    x 1.738560 0.000000 0.000000 
#    y 0.000000 1.744100 0.000000 
#    z 0.000000 0.000000 1.753270 
# 
# From -- ./inp_files/37837.got.cif
#   From: 2010.03.12/outbox.cif.g09.slc.cpg/sg53_19_cif.got.tgz:37837.got - 2010.04.16 14:36:59.
