data_PCOD8220612
_publ_section_title
;
Structure prediction by ZEFSAII (Michael W. Deem and Ramdas Pophale) SiO2 
 PCOD8220612
Probable space group: P M N A
;
_chemical_formula_sum "Si O2"
_cell_formula_units_Z 48
_cell_length_a 15.130683
_cell_length_b 11.923895
_cell_length_c 13.881817
_cell_angle_alpha 90.000000
_cell_angle_beta 90.000000
_cell_angle_gamma 90.000000
_cell_volume 2504.511271
_symmetry_space_group_name_H-M "P M N A"
_symmetry_group_IT_number 53
_symmetry_cell_setting 'orthorhombic'
loop_
_space_group_symop_operation_xyz
x,y,z
1/2-x,-y,1/2+z
x,-y,-z
1/2-x,y,1/2-z
-x,-y,-z
1/2+x,y,1/2-z
-x,y,z
1/2+x,-y,1/2+z
loop_
_atom_site_type_symbol
_atom_site_label
_atom_site_fract_x
_atom_site_fract_y
_atom_site_fract_z
Si Si1 0.901485 0.353764 0.673865
Si Si2 0.161240 0.839772 0.200149
Si Si3 0.768035 0.663711 0.052691
Si Si4 0.307433 0.724465 0.653411
Si Si5 0.899448 0.499743 0.855913
Si Si6 0.100282 0.951525 0.900501
O O1 0.895409 0.233797 0.725923
O O2 0.828943 0.366477 0.591279
O O3 0.879914 0.449358 0.751074
O O4 0.000000 0.366959 0.630105
O O5 0.250000 0.883382 0.250000
O O6 0.186272 0.768657 0.105416
O O7 0.102663 0.947210 0.175481
O O8 0.833571 0.557413 0.066551
O O9 0.750631 0.694429 0.941508
O O10 0.250000 0.717241 0.750000
O O11 0.385535 0.632796 0.655294
O O12 0.345647 0.848522 0.642544
O O13 0.000000 0.475467 0.888940
O O14 0.000000 0.911980 0.917659
O O15 0.141304 0.000000 0.000000
#
# Coordination Sequence:
#
# PCOD8220612 Si02
#       6
#     8   8   8   8   8   8
#     4   9  18  35  61  87 111 144 189 237 280 331
#     4   9  17  34  58  82 109 141 186 238 287 338
#     4  10  20  36  58  85 114 150 191 231 283 334
#     4  12  24  38  55  80 117 159 190 231 284 345
#     4  10  21  37  60  89 118 146 185 235 289 343
#     4  11  22  36  55  80 112 146 188 239 292 347
#
# _framework density 19.165414999999999
#
# number of rings (size 3 to 8) (size 9 to 14) (size 15 to 20)
#    0.000    1.833    1.667    4.500    0.000    2.667 
#    0.000    1.667    0.000    4.000    0.000    5.833 
#    0.000    0.000    0.000    0.000    0.000    0.000 
#
# Total GULP energy -595120.650666 kJ/mol
# GULP energy per Si atom -12398.346889 kJ/mol
# Density = 1.912179 g / cm^3
# Si number density = 19.165415 Si / 1000 Ang^3
#
#
#
# Elastic Constant Matrix: (Units=GPa)
#
#
# Indices 1 2 3 4 5 6 
#
# 1 104.8496 34.6273 51.8793 0.0000 0.0000 0.0000
# 2 34.6273 115.1046 32.2258 0.0000 0.0000 0.0000
# 3 51.8793 32.2258 111.4188 0.0000 0.0000 0.0000
# 4 0.0000 0.0000 0.0000 21.6621 0.0000 0.0000
# 5 0.0000 0.0000 0.0000 0.0000 6.7893 0.0000
# 6 0.0000 0.0000 0.0000 0.0000 0.0000 30.9128
#
#
#
# Elastic Compliance Matrix: (Units=1/GPa)
#
#
# Indices 1 2 3 4 5 6 
#
# 1 0.012978 -0.002407 -0.005347 0.000000 0.000000 0.000000
# 2 -0.002407 0.009900 -0.001742 0.000000 0.000000 0.000000
# 3 -0.005347 -0.001742 0.011969 0.000000 0.000000 0.000000
# 4 0.000000 0.000000 0.000000 0.046163 0.000000 0.000000
# 5 0.000000 0.000000 0.000000 0.000000 0.147290 0.000000
# 6 0.000000 0.000000 0.000000 0.000000 0.000000 0.032349
#
#
# Mechanical properties :
#
#
# Convention : Reuss Voigt Hill
#
# Bulk Modulus (GPa) = 63.07673 63.20420 63.14046
# Shear Modulus (GPa) = 17.54841 26.04888 21.79865
#
# Velocity S-wave (km/s) = 3.02922 3.69068 3.37619
# Velocity P-wave (km/s) = 6.72444 7.15621 6.94368
#
# Compressibility (1/GPa) = 0.01585371
#
# Stress axis : x y z
#
# Youngs Moduli (GPa) = 77.05355 101.01235 83.55182
#
# Poissons Ratio (x) = 0.24317 0.44672
# Poissons Ratio (y) = 0.18549 0.14558
# Poissons Ratio (z) = 0.41197 0.17601
#
# Static dielectric constant tensor:
#      x y z
#    x 3.402900 0.000000 0.000000 
#    y 0.000000 3.526260 0.000000 
#    z 0.000000 0.000000 3.414760 
# 
# 
# High freq. dielectric constant tensor:
#      x y z
#    x 1.734610 0.000000 0.000000 
#    y 0.000000 1.753470 0.000000 
#    z 0.000000 0.000000 1.737720 
# 
# From -- ./inp_files/22700.got.cif
#   From: 2010.03.12/outbox.cif.g09.slc.cpg/sg53_12_cif.got.tgz:22700.got - 2010.04.16 14:36:59.
