data_PCOD8220021
_publ_section_title
;
Structure prediction by ZEFSAII (Michael W. Deem and Ramdas Pophale) SiO2 
 PCOD8220021
Probable space group: P M N A
;
_chemical_formula_sum "Si O2"
_cell_formula_units_Z 64
_cell_length_a 9.123823
_cell_length_b 20.077903
_cell_length_c 18.711483
_cell_angle_alpha 90.000000
_cell_angle_beta 90.000000
_cell_angle_gamma 90.000000
_cell_volume 3427.704800
_symmetry_space_group_name_H-M "P M N A"
_symmetry_group_IT_number 53
_symmetry_cell_setting 'orthorhombic'
loop_
_space_group_symop_operation_xyz
x,y,z
1/2-x,-y,1/2+z
x,-y,-z
1/2-x,y,1/2-z
-x,-y,-z
1/2+x,y,1/2-z
-x,y,z
1/2+x,-y,1/2+z
loop_
_atom_site_type_symbol
_atom_site_label
_atom_site_fract_x
_atom_site_fract_y
_atom_site_fract_z
Si Si1 0.672208 0.999963 0.825910
Si Si2 0.827804 0.608829 0.677185
Si Si3 0.173128 0.121423 0.420804
Si Si4 0.669132 0.614595 0.320127
Si Si5 0.171076 0.239249 0.321908
Si Si6 0.330202 0.505681 0.582082
Si Si7 0.672396 0.870433 0.082244
Si Si8 0.326651 0.233895 0.676651
O O1 0.750000 0.002608 0.750000
O O2 0.500000 0.992433 0.812406
O O3 0.709523 0.066227 0.869575
O O4 0.735845 0.938453 0.872242
O O5 0.750000 0.586129 0.750000
O O6 0.787317 0.685071 0.658348
O O7 0.769070 0.564091 0.613245
O O8 0.000000 0.598449 0.686717
O O9 0.222176 0.191976 0.386822
O O10 0.230951 0.116357 0.501892
O O11 0.000000 0.114091 0.422665
O O12 0.750000 0.588507 0.250000
O O13 0.500000 0.611811 0.301069
O O14 0.710690 0.565697 0.384456
O O15 0.714955 0.689623 0.340489
O O16 0.250000 0.215541 0.250000
O O17 0.000000 0.231539 0.307219
O O18 0.290011 0.500000 0.500000
O O19 0.500000 0.523786 0.594799
O O20 0.500000 0.853702 0.082892
O O21 0.762085 0.807808 0.111455
O O22 0.250000 0.210581 0.750000
O O23 0.500000 0.222379 0.683743
#
# Coordination Sequence:
#
# PCOD8220021 Si02
#       8
#     8   8   8   8   8   8   8   8
#     4  10  20  34  54  77 101 133 173 214 253 297
#     4  10  20  34  53  77 103 133 171 213 256 304
#     4   9  18  34  54  75 102 137 173 207 249 303
#     4   9  19  35  54  75  99 131 171 211 250 297
#     4   9  18  33  53  76 102 133 171 213 254 301
#     4  10  21  36  53  75 105 138 170 209 259 310
#     4  10  20  34  53  77 105 136 169 207 253 303
#     4  10  20  35  54  76 102 132 169 210 251 298
#
# _framework density 18.671385999999998
#
# number of rings (size 3 to 8) (size 9 to 14) (size 15 to 20)
#    0.000    2.375    0.000    2.250    0.000    6.750 
#    0.000    1.250    0.000    1.500    0.000    0.000 
#    0.000    0.000    0.000    0.000    0.000    0.000 
#
# Total GULP energy -793746.554029 kJ/mol
# GULP energy per Si atom -12402.289907 kJ/mol
# Density = 1.862889 g / cm^3
# Si number density = 18.671386 Si / 1000 Ang^3
#
#
#
# Elastic Constant Matrix: (Units=GPa)
#
#
# Indices 1 2 3 4 5 6 
#
# 1 51.2974 44.3920 52.5749 0.0000 0.0000 0.0000
# 2 44.3920 113.2313 86.3351 0.0000 0.0000 0.0000
# 3 52.5749 86.3351 173.7882 0.0000 0.0000 0.0000
# 4 0.0000 0.0000 0.0000 29.1586 0.0000 0.0000
# 5 0.0000 0.0000 0.0000 0.0000 30.2623 0.0000
# 6 0.0000 0.0000 0.0000 0.0000 0.0000 42.5570
#
#
#
# Elastic Compliance Matrix: (Units=1/GPa)
#
#
# Indices 1 2 3 4 5 6 
#
# 1 0.032632 -0.008477 -0.005660 0.000000 0.000000 0.000000
# 2 -0.008477 0.016419 -0.005592 0.000000 0.000000 0.000000
# 3 -0.005660 -0.005592 0.010245 0.000000 0.000000 0.000000
# 4 0.000000 0.000000 0.000000 0.034295 0.000000 0.000000
# 5 0.000000 0.000000 0.000000 0.000000 0.033044 0.000000
# 6 0.000000 0.000000 0.000000 0.000000 0.000000 0.023498
#
#
# Mechanical properties :
#
#
# Convention : Reuss Voigt Hill
#
# Bulk Modulus (GPa) = 50.41454 78.32453 64.36954
# Shear Modulus (GPa) = 25.48372 30.72989 28.10680
#
# Velocity S-wave (km/s) = 3.69840 4.06128 3.88408
# Velocity P-wave (km/s) = 6.73032 8.00200 7.39355
#
# Compressibility (1/GPa) = 0.01983555
#
# Stress axis : x y z
#
# Youngs Moduli (GPa) = 30.64503 60.90642 97.61295
#
# Poissons Ratio (x) = 0.51632 0.55254
# Poissons Ratio (y) = 0.25979 0.54585
# Poissons Ratio (z) = 0.17347 0.34059
#
# Static dielectric constant tensor:
#      x y z
#    x 3.273690 0.000000 0.000000 
#    y 0.000000 3.632890 0.000000 
#    z 0.000000 0.000000 3.525070 
# 
# 
# High freq. dielectric constant tensor:
#      x y z
#    x 1.708230 0.000000 0.000000 
#    y 0.000000 1.737910 0.000000 
#    z 0.000000 0.000000 1.726210 
# 
# From -- ./inp_files/26845.got.cif
#   From: 2010.03.12/outbox.cif.g09.slc.cpg/sg53_14_cif.got.tgz:26845.got - 2010.04.16 14:36:59.
