data_PCOD8220773
_publ_section_title
;
Structure prediction by ZEFSAII (Michael W. Deem and Ramdas Pophale) SiO2 
 PCOD8220773
Probable space group: P M N A
;
_chemical_formula_sum "Si O2"
_cell_formula_units_Z 48
_cell_length_a 8.870432
_cell_length_b 14.754657
_cell_length_c 19.357066
_cell_angle_alpha 90.000000
_cell_angle_beta 90.000000
_cell_angle_gamma 90.000000
_cell_volume 2533.456313
_symmetry_space_group_name_H-M "P M N A"
_symmetry_group_IT_number 53
_symmetry_cell_setting 'orthorhombic'
loop_
_space_group_symop_operation_xyz
x,y,z
1/2-x,-y,1/2+z
x,-y,-z
1/2-x,y,1/2-z
-x,-y,-z
1/2+x,y,1/2-z
-x,y,z
1/2+x,-y,1/2+z
loop_
_atom_site_type_symbol
_atom_site_label
_atom_site_fract_x
_atom_site_fract_y
_atom_site_fract_z
Si Si1 0.323848 0.865156 0.320244
Si Si2 0.324732 0.548339 0.071713
Si Si3 0.823433 0.608349 0.675932
Si Si4 0.177651 0.736015 0.056482
Si Si5 0.177918 0.072687 0.178570
Si Si6 0.821085 0.220517 0.411645
O O1 0.250000 0.828546 0.250000
O O2 0.500000 0.856590 0.309490
O O3 0.269104 0.804640 0.383926
O O4 0.276176 0.968731 0.334849
O O5 0.500000 0.576755 0.073753
O O6 0.280876 0.481266 0.133509
O O7 0.220315 0.635531 0.080707
O O8 0.286598 0.500000 0.000000
O O9 0.750000 0.602186 0.750000
O O10 0.763176 0.696052 0.635059
O O11 0.000000 0.616777 0.685776
O O12 0.000000 0.742756 0.042091
O O13 0.269614 0.763105 0.989206
O O14 0.250000 0.108025 0.250000
O O15 0.245472 0.128766 0.115255
O O16 0.000000 0.086901 0.182459
O O17 0.000000 0.211341 0.409752
#
# Coordination Sequence:
#
# PCOD8220773 Si02
#       6
#     8   8   8   8   8   8
#     4   9  21  40  60  83 116 152 192 239 291 343
#     4  10  20  40  61  79 111 153 190 230 284 344
#     4  10  22  38  58  83 114 149 187 232 284 339
#     4  11  23  38  59  88 116 149 192 242 291 342
#     4  10  20  37  59  84 115 154 193 238 289 342
#     4  11  22  38  58  84 117 156 194 235 288 350
#
# _framework density 18.946449000000001
#
# number of rings (size 3 to 8) (size 9 to 14) (size 15 to 20)
#    0.000    1.833    1.667    2.000    0.000    7.000 
#    0.000    6.667    0.000    0.000    0.000    0.000 
#    0.000    0.000    0.000    0.000    0.000    0.000 
#
# Total GULP energy -595435.410841 kJ/mol
# GULP energy per Si atom -12404.904393 kJ/mol
# Density = 1.890333 g / cm^3
# Si number density = 18.946449 Si / 1000 Ang^3
#
#
#
# Elastic Constant Matrix: (Units=GPa)
#
#
# Indices 1 2 3 4 5 6 
#
# 1 54.8790 39.8687 42.4745 0.0000 0.0000 0.0000
# 2 39.8687 110.8782 73.8283 0.0000 0.0000 0.0000
# 3 42.4745 73.8283 157.5423 0.0000 0.0000 0.0000
# 4 0.0000 0.0000 0.0000 48.7429 0.0000 0.0000
# 5 0.0000 0.0000 0.0000 0.0000 35.8745 0.0000
# 6 0.0000 0.0000 0.0000 0.0000 0.0000 44.3610
#
#
#
# Elastic Compliance Matrix: (Units=1/GPa)
#
#
# Indices 1 2 3 4 5 6 
#
# 1 0.026176 -0.006851 -0.003847 0.000000 0.000000 0.000000
# 2 -0.006851 0.014903 -0.005137 0.000000 0.000000 0.000000
# 3 -0.003847 -0.005137 0.009792 0.000000 0.000000 0.000000
# 4 0.000000 0.000000 0.000000 0.020516 0.000000 0.000000
# 5 0.000000 0.000000 0.000000 0.000000 0.027875 0.000000
# 6 0.000000 0.000000 0.000000 0.000000 0.000000 0.022542
#
#
# Mechanical properties :
#
#
# Convention : Reuss Voigt Hill
#
# Bulk Modulus (GPa) = 52.07811 70.62695 61.35253
# Shear Modulus (GPa) = 31.27481 36.93754 34.10618
#
# Velocity S-wave (km/s) = 4.06728 4.42019 4.24740
# Velocity P-wave (km/s) = 7.04299 7.96297 7.51707
#
# Compressibility (1/GPa) = 0.01920193
#
# Stress axis : x y z
#
# Youngs Moduli (GPa) = 38.20252 67.10265 102.12631
#
# Poissons Ratio (x) = 0.45971 0.39286
# Poissons Ratio (y) = 0.26172 0.52459
# Poissons Ratio (z) = 0.14696 0.34468
#
# Static dielectric constant tensor:
#      x y z
#    x 3.422740 0.000000 0.000000 
#    y 0.000000 3.718150 0.000000 
#    z 0.000000 0.000000 3.463240 
# 
# 
# High freq. dielectric constant tensor:
#      x y z
#    x 1.736950 0.000000 0.000000 
#    y 0.000000 1.744290 0.000000 
#    z 0.000000 0.000000 1.743310 
# 
# From -- ./inp_files/26150.got.cif
#   From: 2010.03.12/outbox.cif.g09.slc.cpg/sg53_14_cif.got.tgz:26150.got - 2010.04.16 14:36:59.
