data_PCOD8220293
_publ_section_title
;
Structure prediction by ZEFSAII (Michael W. Deem and Ramdas Pophale) SiO2 
 PCOD8220293
Probable space group: P M N A
;
_chemical_formula_sum "Si O2"
_cell_formula_units_Z 64
_cell_length_a 8.799714
_cell_length_b 15.145660
_cell_length_c 23.743457
_cell_angle_alpha 90.000000
_cell_angle_beta 90.000000
_cell_angle_gamma 90.000000
_cell_volume 3164.468029
_symmetry_space_group_name_H-M "P M N A"
_symmetry_group_IT_number 53
_symmetry_cell_setting 'orthorhombic'
loop_
_space_group_symop_operation_xyz
x,y,z
1/2-x,-y,1/2+z
x,-y,-z
1/2-x,y,1/2-z
-x,-y,-z
1/2+x,y,1/2-z
-x,y,z
1/2+x,-y,1/2+z
loop_
_atom_site_type_symbol
_atom_site_label
_atom_site_fract_x
_atom_site_fract_y
_atom_site_fract_z
Si Si1 0.176982 0.630623 0.619533
Si Si2 0.322737 0.276232 0.007518
Si Si3 0.679557 0.526985 0.312487
Si Si4 0.322857 0.779769 0.688834
Si Si5 0.322253 0.684362 0.118521
Si Si6 0.673854 0.025672 0.309122
Si Si7 0.668865 0.857929 0.369942
Si Si8 0.168186 0.901337 0.001605
O O1 0.215017 0.647510 0.553460
O O2 0.274762 0.552966 0.646580
O O3 0.220073 0.720507 0.649721
O O4 0.000000 0.608478 0.627980
O O5 0.500000 0.258267 0.003029
O O6 0.266284 0.314214 0.946931
O O7 0.255701 0.180732 0.027553
O O8 0.750000 0.517710 0.250000
O O9 0.500000 0.527616 0.304723
O O10 0.731598 0.614314 0.344536
O O11 0.250000 0.774542 0.750000
O O12 0.500000 0.750252 0.690965
O O13 0.306008 0.878157 0.662974
O O14 0.500000 0.663703 0.123474
O O15 0.283140 0.779039 0.145961
O O16 0.750000 0.023548 0.250000
O O17 0.500000 0.003984 0.299384
O O18 0.743766 0.948598 0.347424
O O19 0.500000 0.838293 0.345186
O O20 0.654314 0.868682 0.435610
O O21 0.000000 0.909818 0.973635
O O22 0.245668 0.000000 0.000000
#
# Coordination Sequence:
#
# PCOD8220293 Si02
#       8
#     8   8   8   8   8   8   8   8
#     4  11  23  40  61  88 121 157 197 245 296 355
#     4   9  21  39  59  86 122 162 201 241 296 355
#     4  12  26  45  68  94 119 151 194 244 301 362
#     4  10  20  35  55  80 113 155 197 246 299 356
#     4  10  21  41  64  88 120 157 197 244 296 355
#     4   9  19  33  51  75 109 148 192 238 288 346
#     4   9  18  34  53  79 113 151 192 241 293 344
#     4   9  18  31  53  81 113 153 199 248 293 337
#
# _framework density 20.224568000000001
#
# number of rings (size 3 to 8) (size 9 to 14) (size 15 to 20)
#    0.000    2.125    0.000    2.625    1.750    3.750 
#    0.000    3.750    0.000    0.000    0.000    0.000 
#    0.000    0.000    0.000    0.000    0.000    0.000 
#
# Total GULP energy -793085.459025 kJ/mol
# GULP energy per Si atom -12391.960297 kJ/mol
# Density = 2.017854 g / cm^3
# Si number density = 20.224568 Si / 1000 Ang^3
#
#
#
# Elastic Constant Matrix: (Units=GPa)
#
#
# Indices 1 2 3 4 5 6 
#
# 1 75.0000 40.2966 22.9232 0.0000 0.0000 0.0000
# 2 40.2966 114.0146 36.3260 0.0000 0.0000 0.0000
# 3 22.9232 36.3260 45.0505 0.0000 0.0000 0.0000
# 4 0.0000 0.0000 0.0000 42.1450 0.0000 0.0000
# 5 0.0000 0.0000 0.0000 0.0000 25.6707 0.0000
# 6 0.0000 0.0000 0.0000 0.0000 0.0000 30.3115
#
#
#
# Elastic Compliance Matrix: (Units=1/GPa)
#
#
# Indices 1 2 3 4 5 6 
#
# 1 0.017325 -0.004460 -0.005219 0.000000 0.000000 0.000000
# 2 -0.004460 0.012951 -0.008174 0.000000 0.000000 0.000000
# 3 -0.005219 -0.008174 0.031444 0.000000 0.000000 0.000000
# 4 0.000000 0.000000 0.000000 0.023728 0.000000 0.000000
# 5 0.000000 0.000000 0.000000 0.000000 0.038955 0.000000
# 6 0.000000 0.000000 0.000000 0.000000 0.000000 0.032991
#
#
# Mechanical properties :
#
#
# Convention : Reuss Voigt Hill
#
# Bulk Modulus (GPa) = 38.44076 48.12854 43.28465
# Shear Modulus (GPa) = 24.78062 28.59342 26.68702
#
# Velocity S-wave (km/s) = 3.50419 3.76413 3.63648
# Velocity P-wave (km/s) = 5.95153 6.53760 6.25144
#
# Compressibility (1/GPa) = 0.02601405
#
# Stress axis : x y z
#
# Youngs Moduli (GPa) = 57.72008 77.21127 31.80299
#
# Poissons Ratio (x) = 0.34440 0.16598
# Poissons Ratio (y) = 0.25746 0.25995
# Poissons Ratio (z) = 0.30123 0.63110
#
# Static dielectric constant tensor:
#      x y z
#    x 3.807640 0.000000 0.000000 
#    y 0.000000 4.124840 0.000000 
#    z 0.000000 0.000000 3.127730 
# 
# 
# High freq. dielectric constant tensor:
#      x y z
#    x 1.783290 0.000000 0.000000 
#    y 0.000000 1.800210 0.000000 
#    z 0.000000 0.000000 1.785110 
# 
# From -- ./inp_files/34291.got.cif
#   From: 2010.03.12/outbox.cif.g09.slc.cpg/sg53_18_cif.got.tgz:34291.got - 2010.04.16 14:36:59.
