data_PCOD8220886
_publ_section_title
;
Structure prediction by ZEFSAII (Michael W. Deem and Ramdas Pophale) SiO2 
 PCOD8220886
Probable space group: P M N A
;
_chemical_formula_sum "Si O2"
_cell_formula_units_Z 48
_cell_length_a 9.395607
_cell_length_b 29.492049
_cell_length_c 9.111311
_cell_angle_alpha 90.000000
_cell_angle_beta 90.000000
_cell_angle_gamma 90.000000
_cell_volume 2524.705118
_symmetry_space_group_name_H-M "P M N A"
_symmetry_group_IT_number 53
_symmetry_cell_setting 'orthorhombic'
loop_
_space_group_symop_operation_xyz
x,y,z
1/2-x,-y,1/2+z
x,-y,-z
1/2-x,y,1/2-z
-x,-y,-z
1/2+x,y,1/2-z
-x,y,z
1/2+x,-y,1/2+z
loop_
_atom_site_type_symbol
_atom_site_label
_atom_site_fract_x
_atom_site_fract_y
_atom_site_fract_z
Si Si1 0.500000 0.549520 0.570393
Si Si2 0.327552 0.302104 0.900978
Si Si3 0.669515 0.788279 0.398594
Si Si4 0.755297 0.610272 0.577943
Si Si5 0.500000 0.453764 0.084191
Si Si6 0.664291 0.126387 0.399837
Si Si7 0.833493 0.043080 0.901294
O O1 0.500000 0.500000 0.500000
O O2 0.622706 0.582794 0.517071
O O3 0.500000 0.538830 0.742298
O O4 0.250000 0.314841 0.750000
O O5 0.500000 0.297259 0.886375
O O6 0.253296 0.255914 0.958052
O O7 0.283221 0.340637 0.013156
O O8 0.750000 0.804129 0.250000
O O9 0.500000 0.779111 0.368841
O O10 0.689767 0.825680 0.522735
O O11 0.750000 0.618483 0.750000
O O12 0.871598 0.575328 0.527028
O O13 0.500000 0.500000 0.000000
O O14 0.750000 0.124145 0.250000
O O15 0.500000 0.118711 0.360182
O O16 0.717197 0.087415 0.510303
O O17 0.750000 0.039889 0.750000
O O18 0.000000 0.045344 0.863904
O O19 0.795187 0.000000 0.000000
#
# Coordination Sequence:
#
# PCOD8220886 Si02
#       7
#     4   8   8   8   4   8   8
#     4  10  22  36  58  86 112 146 186 228 277 330
#     4  11  23  39  60  87 115 148 190 235 283 339
#     4  10  21  38  59  84 114 148 189 238 287 343
#     4  10  22  39  58  83 114 149 184 227 279 335
#     4  10  20  38  58  80 114 146 184 228 273 330
#     4  10  22  38  57  86 119 154 199 244 292 350
#     4  10  21  37  58  86 120 158 202 250 299 354
#
# _framework density 19.012119999999999
#
# number of rings (size 3 to 8) (size 9 to 14) (size 15 to 20)
#    0.000    1.833    0.833    3.500    2.333    4.333 
#    0.000    1.667    0.000    0.000    0.000    0.000 
#    0.000    0.000    0.000    0.000    0.000    0.000 
#
# Total GULP energy -594814.336002 kJ/mol
# GULP energy per Si atom -12391.965333 kJ/mol
# Density = 1.896885 g / cm^3
# Si number density = 19.012120 Si / 1000 Ang^3
#
#
#
# Elastic Constant Matrix: (Units=GPa)
#
#
# Indices 1 2 3 4 5 6 
#
# 1 151.3812 66.1566 64.7887 0.0000 0.0000 0.0000
# 2 66.1566 133.8595 77.9556 0.0000 0.0000 0.0000
# 3 64.7887 77.9556 106.5732 0.0000 0.0000 0.0000
# 4 0.0000 0.0000 0.0000 40.0986 0.0000 0.0000
# 5 0.0000 0.0000 0.0000 0.0000 35.5487 0.0000
# 6 0.0000 0.0000 0.0000 0.0000 0.0000 33.6200
#
#
#
# Elastic Compliance Matrix: (Units=1/GPa)
#
#
# Indices 1 2 3 4 5 6 
#
# 1 0.009310 -0.002274 -0.003997 0.000000 0.000000 0.000000
# 2 -0.002274 0.013570 -0.008544 0.000000 0.000000 0.000000
# 3 -0.003997 -0.008544 0.018062 0.000000 0.000000 0.000000
# 4 0.000000 0.000000 0.000000 0.024939 0.000000 0.000000
# 5 0.000000 0.000000 0.000000 0.000000 0.028130 0.000000
# 6 0.000000 0.000000 0.000000 0.000000 0.000000 0.029744
#
#
# Mechanical properties :
#
#
# Convention : Reuss Voigt Hill
#
# Bulk Modulus (GPa) = 88.38548 89.95728 89.17138
# Shear Modulus (GPa) = 31.81572 34.04765 32.93169
#
# Velocity S-wave (km/s) = 4.09521 4.23642 4.16642
# Velocity P-wave (km/s) = 8.30367 8.44678 8.37553
#
# Compressibility (1/GPa) = 0.01131408
#
# Stress axis : x y z
#
# Youngs Moduli (GPa) = 107.41148 73.69273 55.36360
#
# Poissons Ratio (x) = 0.16756 0.22127
# Poissons Ratio (y) = 0.24422 0.47301
# Poissons Ratio (z) = 0.42928 0.62961
#
# Static dielectric constant tensor:
#      x y z
#    x 3.773990 0.000000 0.000000 
#    y 0.000000 3.639400 0.000000 
#    z 0.000000 0.000000 3.261150 
# 
# 
# High freq. dielectric constant tensor:
#      x y z
#    x 1.755050 0.000000 0.000000 
#    y 0.000000 1.758450 0.000000 
#    z 0.000000 0.000000 1.731660 
# 
# From -- ./inp_files/6803.got.cif
#   From: 2010.03.12/outbox.cif.g09.slc.cpg/sg53_4_cif.got.tgz:6803.got - 2010.04.16 14:36:59.
