data_PCOD8220267
_publ_section_title
;
Structure prediction by ZEFSAII (Michael W. Deem and Ramdas Pophale) SiO2 
 PCOD8220267
Probable space group: P M N A
;
_chemical_formula_sum "Si O2"
_cell_formula_units_Z 48
_cell_length_a 8.868667
_cell_length_b 31.072206
_cell_length_c 9.076012
_cell_angle_alpha 90.000000
_cell_angle_beta 90.000000
_cell_angle_gamma 90.000000
_cell_volume 2501.067986
_symmetry_space_group_name_H-M "P M N A"
_symmetry_group_IT_number 53
_symmetry_cell_setting 'orthorhombic'
loop_
_space_group_symop_operation_xyz
x,y,z
1/2-x,-y,1/2+z
x,-y,-z
1/2-x,y,1/2-z
-x,-y,-z
1/2+x,y,1/2-z
-x,y,z
1/2+x,-y,1/2+z
loop_
_atom_site_type_symbol
_atom_site_label
_atom_site_fract_x
_atom_site_fract_y
_atom_site_fract_z
Si Si1 0.678963 0.371778 0.909266
Si Si2 0.321861 0.958561 0.090475
Si Si3 0.177468 0.711062 0.591624
Si Si4 0.821946 0.124195 0.409394
Si Si5 0.678178 0.793023 0.090864
Si Si6 0.177710 0.541596 0.093157
O O1 0.750000 0.362725 0.750000
O O2 0.500000 0.375546 0.892687
O O3 0.746716 0.415819 0.977795
O O4 0.727330 0.333674 0.017975
O O5 0.250000 0.959208 0.250000
O O6 0.500000 0.958569 0.109974
O O7 0.265664 0.916516 0.003462
O O8 0.266072 0.000000 0.000000
O O9 0.250000 0.715587 0.750000
O O10 0.235403 0.749641 0.488097
O O11 0.000000 0.713722 0.611845
O O12 0.750000 0.122451 0.250000
O O13 0.766819 0.166955 0.492806
O O14 0.000000 0.123657 0.389688
O O15 0.750000 0.796554 0.250000
O O16 0.500000 0.793097 0.110490
O O17 0.250000 0.533320 0.250000
O O18 0.000000 0.548956 0.106798
O O19 0.219465 0.500000 0.000000
#
# Coordination Sequence:
#
# PCOD8220267 Si02
#       6
#     8   8   8   8   8   8
#     4  10  20  35  55  78 104 136 174 214 258 309
#     4  10  21  36  54  79 109 141 181 225 269 321
#     4  10  22  37  54  79 108 138 174 216 261 311
#     4  10  21  36  55  80 109 141 179 222 267 318
#     4  10  21  37  56  80 108 139 178 219 262 315
#     4  10  21  36  55  79 106 138 175 214 259 309
#
# _framework density 19.191800000000001
#
# number of rings (size 3 to 8) (size 9 to 14) (size 15 to 20)
#    0.000    2.000    0.000    4.000    0.000    5.667 
#    0.000    3.333    0.000    0.000    0.000    0.000 
#    0.000    0.000    0.000    0.000    0.000    0.000 
#
# Total GULP energy -595332.155561 kJ/mol
# GULP energy per Si atom -12402.753241 kJ/mol
# Density = 1.914812 g / cm^3
# Si number density = 19.191800 Si / 1000 Ang^3
#
#
#
# Elastic Constant Matrix: (Units=GPa)
#
#
# Indices 1 2 3 4 5 6 
#
# 1 49.5651 51.2447 46.1452 0.0000 0.0000 0.0000
# 2 51.2447 192.5675 101.3358 0.0000 0.0000 0.0000
# 3 46.1452 101.3358 164.4197 0.0000 0.0000 0.0000
# 4 0.0000 0.0000 0.0000 42.0629 0.0000 0.0000
# 5 0.0000 0.0000 0.0000 0.0000 38.5260 0.0000
# 6 0.0000 0.0000 0.0000 0.0000 0.0000 7.7952
#
#
#
# Elastic Compliance Matrix: (Units=1/GPa)
#
#
# Indices 1 2 3 4 5 6 
#
# 1 0.030659 -0.005373 -0.005293 0.000000 0.000000 0.000000
# 2 -0.005373 0.008627 -0.003809 0.000000 0.000000 0.000000
# 3 -0.005293 -0.003809 0.009915 0.000000 0.000000 0.000000
# 4 0.000000 0.000000 0.000000 0.023774 0.000000 0.000000
# 5 0.000000 0.000000 0.000000 0.000000 0.025957 0.000000
# 6 0.000000 0.000000 0.000000 0.000000 0.000000 0.128285
#
#
# Mechanical properties :
#
#
# Convention : Reuss Voigt Hill
#
# Bulk Modulus (GPa) = 49.38169 89.33375 69.35772
# Shear Modulus (GPa) = 19.01740 31.53190 25.27465
#
# Velocity S-wave (km/s) = 3.15129 4.05778 3.63292
# Velocity P-wave (km/s) = 6.24719 8.28269 7.33588
#
# Compressibility (1/GPa) = 0.02025042
#
# Stress axis : x y z
#
# Youngs Moduli (GPa) = 32.61733 115.90864 100.85575
#
# Poissons Ratio (x) = 0.62283 0.53380
# Poissons Ratio (y) = 0.17527 0.38418
# Poissons Ratio (z) = 0.17263 0.44152
#
# Static dielectric constant tensor:
#      x y z
#    x 3.425680 0.000000 0.000000 
#    y 0.000000 4.135090 0.000000 
#    z 0.000000 0.000000 3.429140 
# 
# 
# High freq. dielectric constant tensor:
#      x y z
#    x 1.741690 0.000000 0.000000 
#    y 0.000000 1.770210 0.000000 
#    z 0.000000 0.000000 1.750910 
# 
# From -- ./inp_files/6764.got.cif
#   From: 2010.03.12/outbox.cif.g09.slc.cpg/sg53_4_cif.got.tgz:6764.got - 2010.04.16 14:36:59.
