data_PCOD8220278
_publ_section_title
;
Structure prediction by ZEFSAII (Michael W. Deem and Ramdas Pophale) SiO2 
 PCOD8220278
Probable space group: P M N A
;
_chemical_formula_sum "Si O2"
_cell_formula_units_Z 40
_cell_length_a 8.819934
_cell_length_b 25.724503
_cell_length_c 9.182853
_cell_angle_alpha 90.000000
_cell_angle_beta 90.000000
_cell_angle_gamma 90.000000
_cell_volume 2083.482996
_symmetry_space_group_name_H-M "P M N A"
_symmetry_group_IT_number 53
_symmetry_cell_setting 'orthorhombic'
loop_
_space_group_symop_operation_xyz
x,y,z
1/2-x,-y,1/2+z
x,-y,-z
1/2-x,y,1/2-z
-x,-y,-z
1/2+x,y,1/2-z
-x,y,z
1/2+x,-y,1/2+z
loop_
_atom_site_type_symbol
_atom_site_label
_atom_site_fract_x
_atom_site_fract_y
_atom_site_fract_z
Si Si1 0.179244 0.450376 0.091777
Si Si2 0.179655 0.146662 0.405004
Si Si3 0.321652 0.647428 0.407232
Si Si4 0.321557 0.951656 0.093156
Si Si5 0.820238 0.254311 0.094573
O O1 0.250000 0.452849 0.250000
O O2 0.000000 0.449606 0.109590
O O3 0.234216 0.500000 0.000000
O O4 0.238502 0.399045 0.009165
O O5 0.250000 0.131804 0.250000
O O6 0.226386 0.101955 0.517047
O O7 0.250492 0.200376 0.463677
O O8 0.000000 0.152540 0.388532
O O9 0.250000 0.642472 0.250000
O O10 0.500000 0.643278 0.388618
O O11 0.273461 0.701789 0.479549
O O12 0.250000 0.953776 0.250000
O O13 0.500000 0.956044 0.110048
O O14 0.258279 0.000000 0.000000
O O15 0.750000 0.269251 0.250000
O O16 0.000000 0.249041 0.111767
#
# Coordination Sequence:
#
# PCOD8220278 Si02
#       5
#     8   8   8   8   8
#     4  10  21  37  57  82 110 140 178 221 266 318
#     4  10  20  35  56  81 108 139 177 218 263 315
#     4  10  22  37  54  79 109 142 180 221 265 315
#     4  10  22  38  56  80 108 139 176 217 263 315
#     4  10  20  35  55  79 107 140 179 219 263 315
#
# _framework density 19.198622
#
# number of rings (size 3 to 8) (size 9 to 14) (size 15 to 20)
#    0.000    2.000    0.000    4.200    0.000    5.600 
#    0.000    4.000    0.000    0.000    0.000    0.000 
#    0.000    0.000    0.000    0.000    0.000    0.000 
#
# Total GULP energy -496127.360900 kJ/mol
# GULP energy per Si atom -12403.184023 kJ/mol
# Density = 1.915492 g / cm^3
# Si number density = 19.198622 Si / 1000 Ang^3
#
#
#
# Elastic Constant Matrix: (Units=GPa)
#
#
# Indices 1 2 3 4 5 6 
#
# 1 54.3685 55.4255 48.4228 0.0000 0.0000 0.0000
# 2 55.4255 177.2278 117.7351 0.0000 0.0000 0.0000
# 3 48.4228 117.7351 178.9300 0.0000 0.0000 0.0000
# 4 0.0000 0.0000 0.0000 41.6609 0.0000 0.0000
# 5 0.0000 0.0000 0.0000 0.0000 37.4066 0.0000
# 6 0.0000 0.0000 0.0000 0.0000 0.0000 25.5346
#
#
#
# Elastic Compliance Matrix: (Units=1/GPa)
#
#
# Indices 1 2 3 4 5 6 
#
# 1 0.028013 -0.006617 -0.003227 0.000000 0.000000 0.000000
# 2 -0.006617 0.011587 -0.005834 0.000000 0.000000 0.000000
# 3 -0.003227 -0.005834 0.010301 0.000000 0.000000 0.000000
# 4 0.000000 0.000000 0.000000 0.024003 0.000000 0.000000
# 5 0.000000 0.000000 0.000000 0.000000 0.026733 0.000000
# 6 0.000000 0.000000 0.000000 0.000000 0.000000 0.039163
#
#
# Mechanical properties :
#
#
# Convention : Reuss Voigt Hill
#
# Bulk Modulus (GPa) = 53.92180 94.85481 74.38830
# Shear Modulus (GPa) = 28.19505 33.51660 30.85582
#
# Velocity S-wave (km/s) = 3.83639 4.18279 4.01333
# Velocity P-wave (km/s) = 6.91166 8.53475 7.76573
#
# Compressibility (1/GPa) = 0.01854538
#
# Stress axis : x y z
#
# Youngs Moduli (GPa) = 35.69828 86.30290 97.08175
#
# Poissons Ratio (x) = 0.57104 0.31329
# Poissons Ratio (y) = 0.23621 0.56634
# Poissons Ratio (z) = 0.11520 0.50346
#
# Static dielectric constant tensor:
#      x y z
#    x 3.448490 0.000000 0.000000 
#    y 0.000000 3.908330 0.000000 
#    z 0.000000 0.000000 3.454600 
# 
# 
# High freq. dielectric constant tensor:
#      x y z
#    x 1.744310 0.000000 0.000000 
#    y 0.000000 1.767530 0.000000 
#    z 0.000000 0.000000 1.750140 
# 
# From -- ./inp_files/6448.got.cif
#   From: 2010.03.12/outbox.cif.g09.slc.cpg/sg53_4_cif.got.tgz:6448.got - 2010.04.16 14:36:59.
