data_PCOD8220712
_publ_section_title
;
Structure prediction by ZEFSAII (Michael W. Deem and Ramdas Pophale) SiO2 
 PCOD8220712
Probable space group: P M N A
;
_chemical_formula_sum "Si O2"
_cell_formula_units_Z 64
_cell_length_a 18.670872
_cell_length_b 11.444586
_cell_length_c 14.147617
_cell_angle_alpha 90.000000
_cell_angle_beta 90.000000
_cell_angle_gamma 90.000000
_cell_volume 3023.068464
_symmetry_space_group_name_H-M "P M N A"
_symmetry_group_IT_number 53
_symmetry_cell_setting 'orthorhombic'
loop_
_space_group_symop_operation_xyz
x,y,z
1/2-x,-y,1/2+z
x,-y,-z
1/2-x,y,1/2-z
-x,-y,-z
1/2+x,y,1/2-z
-x,y,z
1/2+x,-y,1/2+z
loop_
_atom_site_type_symbol
_atom_site_label
_atom_site_fract_x
_atom_site_fract_y
_atom_site_fract_z
Si Si1 0.916745 0.238870 0.132598
Si Si2 0.580394 0.918549 0.802613
Si Si3 0.823983 0.705870 0.195457
Si Si4 0.813563 0.139875 0.986100
Si Si5 0.342857 0.807321 0.962890
Si Si6 0.080433 0.823862 0.339850
Si Si7 0.581769 0.422415 0.090442
Si Si8 0.582701 0.498463 0.299118
O O1 0.886827 0.154852 0.215889
O O2 0.879828 0.202766 0.035520
O O3 0.900704 0.372544 0.156488
O O4 0.000000 0.214541 0.118324
O O5 0.500000 0.872718 0.824027
O O6 0.628628 0.909168 0.895667
O O7 0.580301 0.055710 0.780907
O O8 0.750000 0.681813 0.250000
O O9 0.885465 0.730723 0.271204
O O10 0.858799 0.586386 0.152560
O O11 0.814048 0.812950 0.122054
O O12 0.742258 0.186306 0.035557
O O13 0.819413 0.000000 0.000000
O O14 0.365577 0.686755 0.914420
O O15 0.374064 0.829193 0.065615
O O16 0.000000 0.784109 0.365982
O O17 0.500000 0.377159 0.088668
O O18 0.596182 0.493727 0.186120
O O19 0.599444 0.500000 0.000000
O O20 0.500000 0.534593 0.321063
#
# Coordination Sequence:
#
# PCOD8220712 Si02
#       8
#     8   8   8   8   8   8   8   8
#     4  10  23  46  72  97 126 173 229 285 337 397
#     4  10  20  38  65  98 134 169 220 276 325 391
#     4  12  26  45  65  93 137 178 220 278 332 404
#     4  12  28  47  66  97 137 180 227 279 341 402
#     4  12  22  38  63  98 139 177 216 269 339 402
#     4  11  22  38  65  98 129 175 224 270 330 395
#     4  10  20  36  64 100 139 178 219 271 331 400
#     4  10  22  44  70  97 131 172 226 282 339 399
#
# _framework density 21.170542999999999
#
# number of rings (size 3 to 8) (size 9 to 14) (size 15 to 20)
#    0.000    1.125    2.500    4.125    0.000    5.250 
#    0.000    1.250    0.000    0.000    0.000    0.000 
#    0.000    0.000    0.000    0.000    0.000    0.000 
#
# Total GULP energy -793589.041995 kJ/mol
# GULP energy per Si atom -12399.828781 kJ/mol
# Density = 2.112236 g / cm^3
# Si number density = 21.170543 Si / 1000 Ang^3
#
#
#
# Elastic Constant Matrix: (Units=GPa)
#
#
# Indices 1 2 3 4 5 6 
#
# 1 73.9528 40.2776 32.5204 0.0000 0.0000 0.0000
# 2 40.2776 97.0886 19.9199 0.0000 0.0000 0.0000
# 3 32.5204 19.9199 65.7580 0.0000 0.0000 0.0000
# 4 0.0000 0.0000 0.0000 34.1209 0.0000 0.0000
# 5 0.0000 0.0000 0.0000 0.0000 33.4021 0.0000
# 6 0.0000 0.0000 0.0000 0.0000 0.0000 -28.8242
#
#
#
# Elastic Compliance Matrix: (Units=1/GPa)
#
#
# Indices 1 2 3 4 5 6 
#
# 1 0.020963 -0.007005 -0.008245 0.000000 0.000000 0.000000
# 2 -0.007005 0.013323 -0.000572 0.000000 0.000000 0.000000
# 3 -0.008245 -0.000572 0.019458 0.000000 0.000000 0.000000
# 4 0.000000 0.000000 0.000000 0.029308 0.000000 0.000000
# 5 0.000000 0.000000 0.000000 0.000000 0.029938 0.000000
# 6 0.000000 0.000000 0.000000 0.000000 0.000000 -0.034693
#
#
# Mechanical properties :
#
#
# Convention : Reuss Voigt Hill
#
# Bulk Modulus (GPa) = 45.24750 46.91502 46.08126
# Shear Modulus (GPa) = 42.62299 17.34521 29.98410
#
# Velocity S-wave (km/s) = 4.49187 2.86546 3.76748
# Velocity P-wave (km/s) = 6.95138 5.75816 6.38272
#
# Compressibility (1/GPa) = 0.02210067
#
# Stress axis : x y z
#
# Youngs Moduli (GPa) = 47.70293 75.05718 51.39248
#
# Poissons Ratio (x) = 0.52577 0.42374
# Poissons Ratio (y) = 0.33415 0.02938
# Poissons Ratio (z) = 0.39332 0.04291
#
# Static dielectric constant tensor:
#      x y z
#    x 3.832210 0.000000 0.000000 
#    y 0.000000 3.941110 0.000000 
#    z 0.000000 0.000000 3.725300 
# 
# 
# High freq. dielectric constant tensor:
#      x y z
#    x 1.825750 0.000000 0.000000 
#    y 0.000000 1.843220 0.000000 
#    z 0.000000 0.000000 1.821100 
# 
# From -- ./inp_files/23914.got.cif
#   From: 2010.03.12/outbox.cif.g09.slc.cpg/sg53_12_cif.got.tgz:23914.got - 2010.04.16 14:36:59.
