data_PCOD8220437
_publ_section_title
;
Structure prediction by ZEFSAII (Michael W. Deem and Ramdas Pophale) SiO2 
 PCOD8220437
Probable space group: P M N A
;
_chemical_formula_sum "Si O2"
_cell_formula_units_Z 48
_cell_length_a 14.536574
_cell_length_b 5.773142
_cell_length_c 27.200659
_cell_angle_alpha 90.000000
_cell_angle_beta 90.000000
_cell_angle_gamma 90.000000
_cell_volume 2282.725705
_symmetry_space_group_name_H-M "P M N A"
_symmetry_group_IT_number 53
_symmetry_cell_setting 'orthorhombic'
loop_
_space_group_symop_operation_xyz
x,y,z
1/2-x,-y,1/2+z
x,-y,-z
1/2-x,y,1/2-z
-x,-y,-z
1/2+x,y,1/2-z
-x,y,z
1/2+x,-y,1/2+z
loop_
_atom_site_type_symbol
_atom_site_label
_atom_site_fract_x
_atom_site_fract_y
_atom_site_fract_z
Si Si1 0.603847 0.584806 0.374726
Si Si2 0.827646 0.132005 0.544522
Si Si3 0.755483 0.165335 0.807917
Si Si4 0.748613 0.784429 0.878941
Si Si5 0.603962 0.596762 0.130729
Si Si6 0.637228 0.746019 0.477318
O O1 0.500000 0.520766 0.358283
O O2 0.658108 0.687314 0.327767
O O3 0.661581 0.362357 0.393078
O O4 0.602065 0.759966 0.420715
O O5 0.898466 0.276266 0.577430
O O6 0.748056 0.287216 0.519550
O O7 0.881284 0.000000 0.500000
O O8 0.764726 0.968436 0.578475
O O9 0.750000 0.179097 0.750000
O O10 0.658463 0.254552 0.829232
O O11 0.767308 0.901729 0.825870
O O12 0.653080 0.647218 0.875541
O O13 0.500000 0.559050 0.148717
O O14 0.596823 0.500000 0.500000
O O15 0.606424 0.000000 0.500000
#
# Coordination Sequence:
#
# PCOD8220437 Si02
#       6
#     8   8   8   8   8   8
#     4  11  23  40  63  95 129 166 215 268 323 393
#     4  10  20  35  62  87 126 171 212 251 313 379
#     4  10  23  44  65  86 120 164 209 266 335 394
#     4  10  20  41  59  91 122 169 205 263 322 388
#     4  10  22  39  63  90 120 156 206 265 323 383
#     4  11  22  38  66  97 135 183 223 269 327 392
#
# _framework density 21.027493
#
# number of rings (size 3 to 8) (size 9 to 14) (size 15 to 20)
#    0.000    1.667    5.000    2.000    0.000    7.667 
#    0.000    0.833    0.000    0.500    0.000    0.000 
#    0.000    0.000    0.000    0.000    0.000    0.000 
#
# Total GULP energy -594731.878812 kJ/mol
# GULP energy per Si atom -12390.247475 kJ/mol
# Density = 2.097963 g / cm^3
# Si number density = 21.027493 Si / 1000 Ang^3
#
#
#
# Elastic Constant Matrix: (Units=GPa)
#
#
# Indices 1 2 3 4 5 6 
#
# 1 138.5492 23.8996 -1.3656 0.0000 0.0000 0.0000
# 2 23.8996 107.8395 21.8185 0.0000 0.0000 0.0000
# 3 -1.3656 21.8185 101.5793 0.0000 0.0000 0.0000
# 4 0.0000 0.0000 0.0000 17.2015 0.0000 0.0000
# 5 0.0000 0.0000 0.0000 0.0000 10.2112 0.0000
# 6 0.0000 0.0000 0.0000 0.0000 0.0000 -16.4630
#
#
#
# Elastic Compliance Matrix: (Units=1/GPa)
#
#
# Indices 1 2 3 4 5 6 
#
# 1 0.007527 -0.001765 0.000480 0.000000 0.000000 0.000000
# 2 -0.001765 0.010108 -0.002195 0.000000 0.000000 0.000000
# 3 0.000480 -0.002195 0.010322 0.000000 0.000000 0.000000
# 4 0.000000 0.000000 0.000000 0.058134 0.000000 0.000000
# 5 0.000000 0.000000 0.000000 0.000000 0.097932 0.000000
# 6 0.000000 0.000000 0.000000 0.000000 0.000000 -0.060742
#
#
# Mechanical properties :
#
#
# Convention : Reuss Voigt Hill
#
# Bulk Modulus (GPa) = 47.62374 48.51923 48.07148
# Shear Modulus (GPa) = 36.43228 22.43097 29.43162
#
# Velocity S-wave (km/s) = 4.16697 3.26965 3.74528
# Velocity P-wave (km/s) = 6.77119 6.11379 6.45087
#
# Compressibility (1/GPa) = 0.02099793
#
# Stress axis : x y z
#
# Youngs Moduli (GPa) = 132.85672 98.92802 96.87627
#
# Poissons Ratio (x) = 0.17464 -0.04654
# Poissons Ratio (y) = 0.23453 0.21264
# Poissons Ratio (z) = -0.06382 0.21714
#
# Static dielectric constant tensor:
#      x y z
#    x 3.524030 0.000000 0.000000 
#    y 0.000000 4.036390 0.000000 
#    z 0.000000 0.000000 3.690310 
# 
# 
# High freq. dielectric constant tensor:
#      x y z
#    x 1.803460 0.000000 0.000000 
#    y 0.000000 1.829720 0.000000 
#    z 0.000000 0.000000 1.811330 
# 
# From -- ./inp_files/38825.got.cif
#   From: 2010.03.12/outbox.cif.g09.slc.cpg/sg53_20_cif.got.tgz:38825.got - 2010.04.16 14:36:59.
