data_PCOD8220240
_publ_section_title
;
Structure prediction by ZEFSAII (Michael W. Deem and Ramdas Pophale) SiO2 
 PCOD8220240
Probable space group: P M N A
;
_chemical_formula_sum "Si O2"
_cell_formula_units_Z 56
_cell_length_a 16.942121
_cell_length_b 18.059223
_cell_length_c 9.472797
_cell_angle_alpha 90.000000
_cell_angle_beta 90.000000
_cell_angle_gamma 90.000000
_cell_volume 2898.311570
_symmetry_space_group_name_H-M "P M N A"
_symmetry_group_IT_number 53
_symmetry_cell_setting 'orthorhombic'
loop_
_space_group_symop_operation_xyz
x,y,z
1/2-x,-y,1/2+z
x,-y,-z
1/2-x,y,1/2-z
-x,-y,-z
1/2+x,y,1/2-z
-x,y,z
1/2+x,-y,1/2+z
loop_
_atom_site_type_symbol
_atom_site_label
_atom_site_fract_x
_atom_site_fract_y
_atom_site_fract_z
Si Si1 0.912581 0.008077 0.332576
Si Si2 0.091821 0.162175 0.413271
Si Si3 0.157581 0.279736 0.214754
Si Si4 0.408577 0.740263 0.415461
Si Si5 0.825531 0.595485 0.151746
Si Si6 0.839818 0.141032 0.715243
Si Si7 0.672997 0.562912 0.664779
O O1 0.883413 0.092995 0.310266
O O2 0.000000 0.996248 0.268810
O O3 0.914616 0.000000 0.500000
O O4 0.856395 0.946777 0.260705
O O5 0.106025 0.236904 0.328739
O O6 0.143381 0.163587 0.554551
O O7 0.000000 0.154335 0.455798
O O8 0.250000 0.272581 0.250000
O O9 0.127546 0.365538 0.227306
O O10 0.141553 0.248629 0.058292
O O11 0.500000 0.734375 0.455458
O O12 0.383844 0.665280 0.332003
O O13 0.395120 0.811144 0.317123
O O14 0.750000 0.610063 0.250000
O O15 0.872568 0.516525 0.178077
O O16 0.797404 0.587510 0.990281
O O17 0.750000 0.159126 0.750000
O O18 0.750000 0.544174 0.750000
#
# Coordination Sequence:
#
# PCOD8220240 Si02
#       7
#     8   8   8   8   8   8   8
#     4   8  16  33  55  76 100 132 170 210 254 308
#     4  10  20  37  59  79 104 143 181 212 258 318
#     4  10  20  35  54  78 107 139 178 220 262 310
#     4  11  22  35  51  78 113 141 170 217 271 312
#     4   9  17  32  53  75 101 137 178 213 256 315
#     4  11  21  35  56  81 105 136 178 220 260 308
#     4   8  16  31  51  77 102 132 173 220 262 303
#
# _framework density 19.321594999999999
#
# number of rings (size 3 to 8) (size 9 to 14) (size 15 to 20)
#    0.000    2.429    0.000    3.857    0.000    2.857 
#    0.000    8.571    0.000    2.571    0.000   10.000 
#    0.000    0.000    0.000    0.000    0.000    0.000 
#
# Total GULP energy -693795.862565 kJ/mol
# GULP energy per Si atom -12389.211832 kJ/mol
# Density = 1.927762 g / cm^3
# Si number density = 19.321595 Si / 1000 Ang^3
#
#
#
# Elastic Constant Matrix: (Units=GPa)
#
#
# Indices 1 2 3 4 5 6 
#
# 1 74.9547 50.4378 32.8105 0.0000 0.0000 0.0000
# 2 50.4378 140.2361 63.3746 0.0000 0.0000 0.0000
# 3 32.8105 63.3746 67.1865 0.0000 0.0000 0.0000
# 4 0.0000 0.0000 0.0000 32.5245 0.0000 0.0000
# 5 0.0000 0.0000 0.0000 0.0000 20.6554 0.0000
# 6 0.0000 0.0000 0.0000 0.0000 0.0000 7.3869
#
#
#
# Elastic Compliance Matrix: (Units=1/GPa)
#
#
# Indices 1 2 3 4 5 6 
#
# 1 0.018446 -0.004468 -0.004794 0.000000 0.000000 0.000000
# 2 -0.004468 0.013511 -0.010563 0.000000 0.000000 0.000000
# 3 -0.004794 -0.010563 0.027188 0.000000 0.000000 0.000000
# 4 0.000000 0.000000 0.000000 0.030746 0.000000 0.000000
# 5 0.000000 0.000000 0.000000 0.000000 0.048413 0.000000
# 6 0.000000 0.000000 0.000000 0.000000 0.000000 0.135374
#
#
# Mechanical properties :
#
#
# Convention : Reuss Voigt Hill
#
# Bulk Modulus (GPa) = 51.28985 63.95813 57.62399
# Shear Modulus (GPa) = 15.63342 21.16366 18.39854
#
# Velocity S-wave (km/s) = 2.84758 3.31318 3.08917
# Velocity P-wave (km/s) = 6.11675 6.91447 6.52781
#
# Compressibility (1/GPa) = 0.01949703
#
# Stress axis : x y z
#
# Youngs Moduli (GPa) = 54.21105 74.01209 36.78055
#
# Poissons Ratio (x) = 0.33070 0.17631
# Poissons Ratio (y) = 0.24223 0.38850
# Poissons Ratio (z) = 0.25987 0.78177
#
# Static dielectric constant tensor:
#      x y z
#    x 3.205200 0.000000 0.000000 
#    y 0.000000 4.277640 0.000000 
#    z 0.000000 0.000000 3.214550 
# 
# 
# High freq. dielectric constant tensor:
#      x y z
#    x 1.718760 0.000000 0.000000 
#    y 0.000000 1.781560 0.000000 
#    z 0.000000 0.000000 1.736360 
# 
# From -- ./inp_files/8860.got.cif
#   From: 2010.03.12/outbox.cif.g09.slc.cpg/sg53_5_cif.got.tgz:8860.got - 2010.04.16 14:36:59.
