data_PCOD8220987
_publ_section_title
;
Structure prediction by ZEFSAII (Michael W. Deem and Ramdas Pophale) SiO2 
 PCOD8220987
Probable space group: P M N A
;
_chemical_formula_sum "Si O2"
_cell_formula_units_Z 40
_cell_length_a 10.109312
_cell_length_b 22.423189
_cell_length_c 8.528704
_cell_angle_alpha 90.000000
_cell_angle_beta 90.000000
_cell_angle_gamma 90.000000
_cell_volume 1933.312325
_symmetry_space_group_name_H-M "P M N A"
_symmetry_group_IT_number 53
_symmetry_cell_setting 'orthorhombic'
loop_
_space_group_symop_operation_xyz
x,y,z
1/2-x,-y,1/2+z
x,-y,-z
1/2-x,y,1/2-z
-x,-y,-z
1/2+x,y,1/2-z
-x,y,z
1/2+x,-y,1/2+z
loop_
_atom_site_type_symbol
_atom_site_label
_atom_site_fract_x
_atom_site_fract_y
_atom_site_fract_z
Si Si1 0.266937 0.937245 0.064721
Si Si2 0.649953 0.556359 0.610205
Si Si3 0.000000 0.759907 0.099152
Si Si4 0.765134 0.673790 0.068770
Si Si5 0.500000 0.263297 0.962750
Si Si6 0.500000 0.887762 0.562015
Si Si7 0.000000 0.864164 0.573553
O O1 0.250000 0.938571 0.250000
O O2 0.370243 0.886222 0.017736
O O3 0.127222 0.925181 0.985166
O O4 0.321927 0.000000 0.000000
O O5 0.665681 0.500000 0.500000
O O6 0.750000 0.546635 0.750000
O O7 0.500000 0.561190 0.674005
O O8 0.686105 0.615640 0.518002
O O9 0.869536 0.726396 0.040425
O O10 0.000000 0.763001 0.287131
O O11 0.000000 0.825048 0.026514
O O12 0.750000 0.657066 0.250000
O O13 0.625942 0.695621 0.999757
O O14 0.500000 0.207384 0.078528
O O15 0.500000 0.884225 0.748160
#
# Coordination Sequence:
#
# PCOD8220987 Si02
#       7
#     8   8   4   8   4   4   4
#     4  12  25  44  67  93 128 170 217 269 330 397
#     4  11  25  44  66  95 131 171 217 270 324 382
#     4  10  20  39  62  91 128 172 211 260 319 386
#     4  10  21  40  65  94 127 169 211 261 317 384
#     4  10  22  37  64  95 128 168 217 254 319 390
#     4  12  25  41  66  95 132 168 215 274 328 388
#     4  12  25  43  64  99 130 170 217 272 326 390
#
# _framework density 20.689881
#
# number of rings (size 3 to 8) (size 9 to 14) (size 15 to 20)
#    0.000    1.000    1.000    6.000    1.400    3.600 
#    0.000    0.000    0.000    0.000    0.000    0.000 
#    0.000    0.000    0.000    0.000    0.000    0.000 
#
# Total GULP energy -496272.135762 kJ/mol
# GULP energy per Si atom -12406.803394 kJ/mol
# Density = 2.064279 g / cm^3
# Si number density = 20.689881 Si / 1000 Ang^3
#
#
#
# Elastic Constant Matrix: (Units=GPa)
#
#
# Indices 1 2 3 4 5 6 
#
# 1 126.6132 28.1697 30.3036 0.0000 0.0000 0.0000
# 2 28.1697 96.5742 24.9035 0.0000 0.0000 0.0000
# 3 30.3036 24.9035 105.1739 0.0000 0.0000 0.0000
# 4 0.0000 0.0000 0.0000 18.8338 0.0000 0.0000
# 5 0.0000 0.0000 0.0000 0.0000 22.5816 0.0000
# 6 0.0000 0.0000 0.0000 0.0000 0.0000 30.9549
#
#
#
# Elastic Compliance Matrix: (Units=1/GPa)
#
#
# Indices 1 2 3 4 5 6 
#
# 1 0.008848 -0.002049 -0.002064 0.000000 0.000000 0.000000
# 2 -0.002049 0.011502 -0.002133 0.000000 0.000000 0.000000
# 3 -0.002064 -0.002133 0.010608 0.000000 0.000000 0.000000
# 4 0.000000 0.000000 0.000000 0.053096 0.000000 0.000000
# 5 0.000000 0.000000 0.000000 0.000000 0.044284 0.000000
# 6 0.000000 0.000000 0.000000 0.000000 0.000000 0.032305
#
#
# Mechanical properties :
#
#
# Convention : Reuss Voigt Hill
#
# Bulk Modulus (GPa) = 54.15365 55.01278 54.58321
# Shear Modulus (GPa) = 27.88768 30.80638 29.34703
#
# Velocity S-wave (km/s) = 3.67534 3.86289 3.77028
# Velocity P-wave (km/s) = 6.65144 6.82223 6.73738
#
# Compressibility (1/GPa) = 0.01846598
#
# Stress axis : x y z
#
# Youngs Moduli (GPa) = 113.02111 86.93848 94.26868
#
# Poissons Ratio (x) = 0.17810 0.19460
# Poissons Ratio (y) = 0.23153 0.20111
# Poissons Ratio (z) = 0.23331 0.18547
#
# Static dielectric constant tensor:
#      x y z
#    x 4.088890 0.000000 0.000000 
#    y 0.000000 3.820530 0.000000 
#    z 0.000000 0.000000 3.767710 
# 
# 
# High freq. dielectric constant tensor:
#      x y z
#    x 1.831430 0.000000 0.000000 
#    y 0.000000 1.823730 0.000000 
#    z 0.000000 0.000000 1.808550 
# 
# From -- ./inp_files/6398.got.cif
#   From: 2010.03.12/outbox.cif.g09.slc.cpg/sg53_4_cif.got.tgz:6398.got - 2010.04.16 14:36:59.
