data_PCOD8220130
_publ_section_title
;
Structure prediction by ZEFSAII (Michael W. Deem and Ramdas Pophale) SiO2 
 PCOD8220130
Probable space group: P M N A
;
_chemical_formula_sum "Si O2"
_cell_formula_units_Z 64
_cell_length_a 8.732947
_cell_length_b 19.698174
_cell_length_c 19.089260
_cell_angle_alpha 90.000000
_cell_angle_beta 90.000000
_cell_angle_gamma 90.000000
_cell_volume 3283.793864
_symmetry_space_group_name_H-M "P M N A"
_symmetry_group_IT_number 53
_symmetry_cell_setting 'orthorhombic'
loop_
_space_group_symop_operation_xyz
x,y,z
1/2-x,-y,1/2+z
x,-y,-z
1/2-x,y,1/2-z
-x,-y,-z
1/2+x,y,1/2-z
-x,y,z
1/2+x,-y,1/2+z
loop_
_atom_site_type_symbol
_atom_site_label
_atom_site_fract_x
_atom_site_fract_y
_atom_site_fract_z
Si Si1 0.182307 0.791861 0.449975
Si Si2 0.181269 0.844765 0.906556
Si Si3 0.179647 0.116467 0.677635
Si Si4 0.318205 0.638476 0.060512
Si Si5 0.320327 0.404693 0.087573
Si Si6 0.181822 0.532149 0.326785
Si Si7 0.819805 0.725402 0.676935
Si Si8 0.318859 0.038757 0.176203
O O1 0.255030 0.823048 0.518883
O O2 0.240608 0.836503 0.384897
O O3 0.243700 0.715433 0.437725
O O4 0.000000 0.793686 0.458617
O O5 0.238385 0.793998 0.846623
O O6 0.245665 0.918886 0.887230
O O7 0.000000 0.846387 0.908540
O O8 0.250000 0.143217 0.750000
O O9 0.000000 0.123095 0.684880
O O10 0.228574 0.039118 0.662382
O O11 0.500000 0.640409 0.055582
O O12 0.265403 0.598763 0.130043
O O13 0.254928 0.598654 0.991731
O O14 0.500000 0.417413 0.085177
O O15 0.249345 0.466594 0.132366
O O16 0.279820 0.333072 0.122042
O O17 0.250000 0.536551 0.250000
O O18 0.000000 0.527761 0.320436
O O19 0.750000 0.701380 0.750000
O O20 0.000000 0.738090 0.683302
O O21 0.250000 0.063833 0.250000
O O22 0.500000 0.049153 0.177532
#
# Coordination Sequence:
#
# PCOD8220130 Si02
#       8
#     8   8   8   8   8   8   8   8
#     4  10  20  38  60  83 111 147 190 231 276 331
#     4  12  24  37  54  81 113 147 185 230 281 333
#     4   9  20  37  60  85 111 145 186 231 279 331
#     4   9  17  33  58  82 106 144 190 230 268 323
#     4   9  17  32  56  82 106 143 187 228 270 321
#     4  10  20  34  55  83 113 143 184 230 276 328
#     4  11  21  35  55  80 111 148 186 227 273 327
#     4  10  20  37  58  82 112 148 187 229 276 330
#
# _framework density 19.489653000000001
#
# number of rings (size 3 to 8) (size 9 to 14) (size 15 to 20)
#    0.000    2.000    1.250    3.000    0.000    3.500 
#    0.000    3.750    0.000    0.750    0.000    0.000 
#    0.000    0.000    0.000    0.000    0.000    0.000 
#
# Total GULP energy -793675.462951 kJ/mol
# GULP energy per Si atom -12401.179109 kJ/mol
# Density = 1.944529 g / cm^3
# Si number density = 19.489653 Si / 1000 Ang^3
#
#
#
# Elastic Constant Matrix: (Units=GPa)
#
#
# Indices 1 2 3 4 5 6 
#
# 1 45.8188 32.0172 36.1430 0.0000 0.0000 0.0000
# 2 32.0172 122.7226 88.0221 0.0000 0.0000 0.0000
# 3 36.1430 88.0221 154.4461 0.0000 0.0000 0.0000
# 4 0.0000 0.0000 0.0000 27.8157 0.0000 0.0000
# 5 0.0000 0.0000 0.0000 0.0000 33.4356 0.0000
# 6 0.0000 0.0000 0.0000 0.0000 0.0000 14.0197
#
#
#
# Elastic Compliance Matrix: (Units=1/GPa)
#
#
# Indices 1 2 3 4 5 6 
#
# 1 0.028119 -0.004425 -0.004058 0.000000 0.000000 0.000000
# 2 -0.004425 0.014479 -0.007216 0.000000 0.000000 0.000000
# 3 -0.004058 -0.007216 0.011537 0.000000 0.000000 0.000000
# 4 0.000000 0.000000 0.000000 0.035951 0.000000 0.000000
# 5 0.000000 0.000000 0.000000 0.000000 0.029908 0.000000
# 6 0.000000 0.000000 0.000000 0.000000 0.000000 0.071328
#
#
# Mechanical properties :
#
#
# Convention : Reuss Voigt Hill
#
# Bulk Modulus (GPa) = 43.98450 70.59468 57.28959
# Shear Modulus (GPa) = 21.71086 26.17452 23.94269
#
# Velocity S-wave (km/s) = 3.34124 3.66867 3.50877
# Velocity P-wave (km/s) = 6.12391 7.36517 6.77304
#
# Compressibility (1/GPa) = 0.02273528
#
# Stress axis : x y z
#
# Youngs Moduli (GPa) = 35.56370 69.06703 86.67688
#
# Poissons Ratio (x) = 0.30563 0.35176
# Poissons Ratio (y) = 0.15737 0.62547
# Poissons Ratio (z) = 0.14433 0.49840
#
# Static dielectric constant tensor:
#      x y z
#    x 3.266740 0.000000 0.000000 
#    y 0.000000 3.791380 0.000000 
#    z 0.000000 0.000000 3.721960 
# 
# 
# High freq. dielectric constant tensor:
#      x y z
#    x 1.728830 0.000000 0.000000 
#    y 0.000000 1.769260 0.000000 
#    z 0.000000 0.000000 1.769060 
# 
# From -- ./inp_files/26835.got.cif
#   From: 2010.03.12/outbox.cif.g09.slc.cpg/sg53_14_cif.got.tgz:26835.got - 2010.04.16 14:36:59.
