data_PCOD8220746
_publ_section_title
;
Structure prediction by ZEFSAII (Michael W. Deem and Ramdas Pophale) SiO2 
 PCOD8220746
Probable space group: P M N A
;
_chemical_formula_sum "Si O2"
_cell_formula_units_Z 48
_cell_length_a 18.779211
_cell_length_b 13.957342
_cell_length_c 9.778825
_cell_angle_alpha 90.000000
_cell_angle_beta 90.000000
_cell_angle_gamma 90.000000
_cell_volume 2563.106996
_symmetry_space_group_name_H-M "P M N A"
_symmetry_group_IT_number 53
_symmetry_cell_setting 'orthorhombic'
loop_
_space_group_symop_operation_xyz
x,y,z
1/2-x,-y,1/2+z
x,-y,-z
1/2-x,y,1/2-z
-x,-y,-z
1/2+x,y,1/2-z
-x,y,z
1/2+x,-y,1/2+z
loop_
_atom_site_type_symbol
_atom_site_label
_atom_site_fract_x
_atom_site_fract_y
_atom_site_fract_z
Si Si1 0.820669 0.896340 0.661763
Si Si2 0.417810 0.724951 0.779347
Si Si3 0.335082 0.698348 0.263691
Si Si4 0.082550 0.612097 0.994111
Si Si5 0.818803 0.892623 0.344428
Si Si6 0.079428 0.608881 0.459989
O O1 0.750000 0.890405 0.750000
O O2 0.875530 0.823923 0.731756
O O3 0.801467 0.871720 0.504054
O O4 0.855985 0.003156 0.669503
O O5 0.500000 0.752929 0.786336
O O6 0.403200 0.651723 0.656654
O O7 0.391657 0.671628 0.915033
O O8 0.250000 0.694329 0.250000
O O9 0.363842 0.674538 0.413726
O O10 0.364562 0.803308 0.214987
O O11 0.367680 0.617940 0.166222
O O12 0.000000 0.626467 0.038823
O O13 0.102711 0.500000 0.000000
O O14 0.750000 0.896721 0.250000
O O15 0.078034 0.500000 0.500000
O O16 0.000000 0.642054 0.417557
#
# Coordination Sequence:
#
# PCOD8220746 Si02
#       6
#     8   8   8   8   8   8
#     4  10  20  37  62  83 112 154 189 229 282 342
#     4  10  21  36  56  85 113 143 191 239 282 328
#     4  11  22  36  57  87 117 143 184 241 285 327
#     4  10  22  41  61  80 111 158 196 227 278 343
#     4   9  20  37  56  88 114 148 191 226 282 345
#     4  10  20  37  59  80 109 150 192 229 276 343
#
# _framework density 18.727270999999998
#
# number of rings (size 3 to 8) (size 9 to 14) (size 15 to 20)
#    0.000    2.000    1.667    1.500    4.667    3.333 
#    0.000    5.000    0.000    2.000    0.000    0.000 
#    0.000    0.000    0.000    0.000    0.000    0.000 
#
# Total GULP energy -594937.168342 kJ/mol
# GULP energy per Si atom -12394.524340 kJ/mol
# Density = 1.868465 g / cm^3
# Si number density = 18.727271 Si / 1000 Ang^3
#
#
#
# Elastic Constant Matrix: (Units=GPa)
#
#
# Indices 1 2 3 4 5 6 
#
# 1 60.0915 36.9487 30.5473 0.0000 0.0000 0.0000
# 2 36.9487 112.8742 34.0841 0.0000 0.0000 0.0000
# 3 30.5473 34.0841 79.2257 0.0000 0.0000 0.0000
# 4 0.0000 0.0000 0.0000 33.6138 0.0000 0.0000
# 5 0.0000 0.0000 0.0000 0.0000 31.7339 0.0000
# 6 0.0000 0.0000 0.0000 0.0000 0.0000 19.9461
#
#
#
# Elastic Compliance Matrix: (Units=1/GPa)
#
#
# Indices 1 2 3 4 5 6 
#
# 1 0.023506 -0.005698 -0.006612 0.000000 0.000000 0.000000
# 2 -0.005698 0.011563 -0.002778 0.000000 0.000000 0.000000
# 3 -0.006612 -0.002778 0.016367 0.000000 0.000000 0.000000
# 4 0.000000 0.000000 0.000000 0.029750 0.000000 0.000000
# 5 0.000000 0.000000 0.000000 0.000000 0.031512 0.000000
# 6 0.000000 0.000000 0.000000 0.000000 0.000000 0.050135
#
#
# Mechanical properties :
#
#
# Convention : Reuss Voigt Hill
#
# Bulk Modulus (GPa) = 47.03525 50.59461 48.81493
# Shear Modulus (GPa) = 24.98811 27.09950 26.04380
#
# Velocity S-wave (km/s) = 3.65679 3.80815 3.73324
# Velocity P-wave (km/s) = 6.55743 6.81258 6.68622
#
# Compressibility (1/GPa) = 0.02126065
#
# Stress axis : x y z
#
# Youngs Moduli (GPa) = 42.54234 86.47978 61.10009
#
# Poissons Ratio (x) = 0.49276 0.40399
# Poissons Ratio (y) = 0.24240 0.16972
# Poissons Ratio (z) = 0.28129 0.24022
#
# Static dielectric constant tensor:
#      x y z
#    x 3.233750 0.000000 0.000000 
#    y 0.000000 3.987630 0.000000 
#    z 0.000000 0.000000 3.566690 
# 
# 
# High freq. dielectric constant tensor:
#      x y z
#    x 1.696450 0.000000 0.000000 
#    y 0.000000 1.744350 0.000000 
#    z 0.000000 0.000000 1.741140 
# 
# From -- ./inp_files/10929.got.cif
#   From: 2010.03.12/outbox.cif.g09.slc.cpg/sg53_6_cif.got.tgz:10929.got - 2010.04.16 14:36:59.
