data_PCOD8220943
_publ_section_title
;
Structure prediction by ZEFSAII (Michael W. Deem and Ramdas Pophale) SiO2 
 PCOD8220943
Probable space group: P M N A
;
_chemical_formula_sum "Si O2"
_cell_formula_units_Z 36
_cell_length_a 22.312649
_cell_length_b 11.565921
_cell_length_c 6.104305
_cell_angle_alpha 90.000000
_cell_angle_beta 90.000000
_cell_angle_gamma 90.000000
_cell_volume 1575.315623
_symmetry_space_group_name_H-M "P M N A"
_symmetry_group_IT_number 53
_symmetry_cell_setting 'orthorhombic'
loop_
_space_group_symop_operation_xyz
x,y,z
1/2-x,-y,1/2+z
x,-y,-z
1/2-x,y,1/2-z
-x,-y,-z
1/2+x,y,1/2-z
-x,y,z
1/2+x,-y,1/2+z
loop_
_atom_site_type_symbol
_atom_site_label
_atom_site_fract_x
_atom_site_fract_y
_atom_site_fract_z
Si Si1 0.154163 0.712819 0.078735
Si Si2 0.433715 0.541046 0.251174
Si Si3 0.154905 0.865792 0.460922
Si Si4 0.432295 0.282620 0.191068
Si Si5 0.750000 0.258777 0.250000
O O1 0.101051 0.745112 0.915565
O O2 0.212229 0.668027 0.934325
O O3 0.126831 0.619989 0.252587
O O4 0.173776 0.828267 0.213751
O O5 0.439044 0.500000 0.500000
O O6 0.500000 0.597760 0.193768
O O7 0.423833 0.581002 0.889811
O O8 0.091644 0.801149 0.502165
O O9 0.203466 0.824296 0.633412
O O10 0.145685 0.000000 0.500000
O O11 0.500000 0.253200 0.241785
#
# Coordination Sequence:
#
# PCOD8220943 Si02
#       5
#     8   8   8   8   4
#     4  10  20  38  63  92 120 161 208 262 316 372
#     4   8  15  33  65  94 124 164 199 242 309 387
#     4  11  25  40  63  89 120 167 220 266 314 367
#     4   9  20  39  64  97 132 163 204 253 310 387
#     4  10  24  40  62  84 114 158 218 274 314 372
#
# _framework density 22.852563
#
# number of rings (size 3 to 8) (size 9 to 14) (size 15 to 20)
#    0.000    2.444    0.000    2.667    3.111    5.778 
#    0.000    3.333   97.778    0.000    0.000    0.000 
#    0.000    0.000    0.000    0.000    0.000    0.000 
#
# Total GULP energy -446023.699698 kJ/mol
# GULP energy per Si atom -12389.547214 kJ/mol
# Density = 2.280055 g / cm^3
# Si number density = 22.852563 Si / 1000 Ang^3
#
#
#
# Elastic Constant Matrix: (Units=GPa)
#
#
# Indices 1 2 3 4 5 6 
#
# 1 153.4462 63.4568 46.7024 0.0000 0.0000 0.0000
# 2 63.4568 102.7275 39.0053 0.0000 0.0000 0.0000
# 3 46.7024 39.0053 90.9481 0.0000 0.0000 0.0000
# 4 0.0000 0.0000 0.0000 26.2759 0.0000 0.0000
# 5 0.0000 0.0000 0.0000 0.0000 28.9794 0.0000
# 6 0.0000 0.0000 0.0000 0.0000 0.0000 23.7901
#
#
#
# Elastic Compliance Matrix: (Units=1/GPa)
#
#
# Indices 1 2 3 4 5 6 
#
# 1 0.009299 -0.004696 -0.002761 0.000000 0.000000 0.000000
# 2 -0.004696 0.013999 -0.003593 0.000000 0.000000 0.000000
# 3 -0.002761 -0.003593 0.013954 0.000000 0.000000 0.000000
# 4 0.000000 0.000000 0.000000 0.038058 0.000000 0.000000
# 5 0.000000 0.000000 0.000000 0.000000 0.034507 0.000000
# 6 0.000000 0.000000 0.000000 0.000000 0.000000 0.042034
#
#
# Mechanical properties :
#
#
# Convention : Reuss Voigt Hill
#
# Bulk Modulus (GPa) = 65.99325 71.71676 68.85501
# Shear Modulus (GPa) = 27.93254 29.00622 28.46938
#
# Velocity S-wave (km/s) = 3.49992 3.56656 3.53340
# Velocity P-wave (km/s) = 6.72853 6.95780 6.84412
#
# Compressibility (1/GPa) = 0.01515306
#
# Stress axis : x y z
#
# Youngs Moduli (GPa) = 107.53460 71.43192 71.66406
#
# Poissons Ratio (x) = 0.33544 0.19789
# Poissons Ratio (y) = 0.50497 0.25746
# Poissons Ratio (z) = 0.29694 0.25663
#
# Static dielectric constant tensor:
#      x y z
#    x 4.502160 0.000000 0.000000 
#    y 0.000000 4.047320 0.000000 
#    z 0.000000 0.000000 5.076230 
# 
# 
# High freq. dielectric constant tensor:
#      x y z
#    x 1.909760 0.000000 0.000000 
#    y 0.000000 1.852160 0.000000 
#    z 0.000000 0.000000 1.951640 
# 
# From -- ./inp_files/3507.got.cif
#   From: 2010.03.12/outbox.cif.g09.slc.cpg/sg53_2_cif.got.tgz:3507.got - 2010.04.16 14:36:59.
