data_PCOD8220408
_publ_section_title
;
Structure prediction by ZEFSAII (Michael W. Deem and Ramdas Pophale) SiO2 
 PCOD8220408
Probable space group: P M N A
;
_chemical_formula_sum "Si O2"
_cell_formula_units_Z 48
_cell_length_a 16.462336
_cell_length_b 9.070767
_cell_length_c 15.579931
_cell_angle_alpha 90.000000
_cell_angle_beta 90.000000
_cell_angle_gamma 90.000000
_cell_volume 2326.488997
_symmetry_space_group_name_H-M "P M N A"
_symmetry_group_IT_number 53
_symmetry_cell_setting 'orthorhombic'
loop_
_space_group_symop_operation_xyz
x,y,z
1/2-x,-y,1/2+z
x,-y,-z
1/2-x,y,1/2-z
-x,-y,-z
1/2+x,y,1/2-z
-x,y,z
1/2+x,-y,1/2+z
loop_
_atom_site_type_symbol
_atom_site_label
_atom_site_fract_x
_atom_site_fract_y
_atom_site_fract_z
Si Si1 0.093582 0.069773 0.584455
Si Si2 0.364292 0.592499 0.083680
Si Si3 0.797116 0.335236 0.836720
Si Si4 0.905192 0.073319 0.909112
Si Si5 0.404980 0.891123 0.756156
Si Si6 0.908620 0.564820 0.751033
O O1 0.101599 0.243570 0.580366
O O2 0.000000 0.025290 0.584969
O O3 0.136059 0.000000 0.500000
O O4 0.134034 0.997877 0.670306
O O5 0.267803 0.599640 0.097004
O O6 0.411378 0.512768 0.159585
O O7 0.385766 0.500000 0.000000
O O8 0.750000 0.279239 0.750000
O O9 0.847817 0.210274 0.885846
O O10 0.856417 0.470135 0.817009
O O11 0.000000 0.123010 0.907866
O O12 0.886645 0.951846 0.837763
O O13 0.881888 0.000000 0.000000
O O14 0.500000 0.881345 0.773624
O O15 0.368211 0.726470 0.760084
O O16 0.000000 0.576318 0.787878
#
# Coordination Sequence:
#
# PCOD8220408 Si02
#       6
#     8   8   8   8   8   8
#     4  10  20  35  58  87 117 152 195 239 285 345
#     4  11  23  37  54  83 122 156 186 227 286 353
#     4  10  22  39  56  81 116 156 194 233 290 350
#     4  10  21  39  63  87 112 149 201 252 291 337
#     4   9  18  34  57  86 114 141 186 245 293 334
#     4  10  20  37  62  85 109 148 193 238 288 339
#
# _framework density 20.631948999999999
#
# number of rings (size 3 to 8) (size 9 to 14) (size 15 to 20)
#    0.000    2.000    0.000    4.000    0.000    6.000 
#    0.000    9.167    0.000    5.000    0.000    0.000 
#    0.000    0.000    0.000    0.000    0.000    0.000 
#
# Total GULP energy -595054.179422 kJ/mol
# GULP energy per Si atom -12396.962071 kJ/mol
# Density = 2.058499 g / cm^3
# Si number density = 20.631949 Si / 1000 Ang^3
#
#
#
# Elastic Constant Matrix: (Units=GPa)
#
#
# Indices 1 2 3 4 5 6 
#
# 1 53.7260 18.3693 15.1961 0.0000 0.0000 0.0000
# 2 18.3693 162.3674 70.5407 0.0000 0.0000 0.0000
# 3 15.1961 70.5407 133.0360 0.0000 0.0000 0.0000
# 4 0.0000 0.0000 0.0000 37.0005 0.0000 0.0000
# 5 0.0000 0.0000 0.0000 0.0000 5.4985 0.0000
# 6 0.0000 0.0000 0.0000 0.0000 0.0000 11.5142
#
#
#
# Elastic Compliance Matrix: (Units=1/GPa)
#
#
# Indices 1 2 3 4 5 6 
#
# 1 0.019554 -0.001614 -0.001378 0.000000 0.000000 0.000000
# 2 -0.001614 0.008135 -0.004129 0.000000 0.000000 0.000000
# 3 -0.001378 -0.004129 0.009864 0.000000 0.000000 0.000000
# 4 0.000000 0.000000 0.000000 0.027027 0.000000 0.000000
# 5 0.000000 0.000000 0.000000 0.000000 0.181866 0.000000
# 6 0.000000 0.000000 0.000000 0.000000 0.000000 0.086849
#
#
# Mechanical properties :
#
#
# Convention : Reuss Voigt Hill
#
# Bulk Modulus (GPa) = 42.89718 61.92686 52.41202
# Shear Modulus (GPa) = 14.07227 27.13753 20.60490
#
# Velocity S-wave (km/s) = 2.61447 3.63066 3.16363
# Velocity P-wave (km/s) = 5.47272 6.90332 6.22922
#
# Compressibility (1/GPa) = 0.02331156
#
# Stress axis : x y z
#
# Youngs Moduli (GPa) = 51.13931 122.91882 101.38146
#
# Poissons Ratio (x) = 0.19834 0.13971
# Poissons Ratio (y) = 0.08252 0.41865
# Poissons Ratio (z) = 0.07047 0.50758
#
# Static dielectric constant tensor:
#      x y z
#    x 3.630090 0.000000 0.000000 
#    y 0.000000 3.862480 0.000000 
#    z 0.000000 0.000000 3.856160 
# 
# 
# High freq. dielectric constant tensor:
#      x y z
#    x 1.792220 0.000000 0.000000 
#    y 0.000000 1.816930 0.000000 
#    z 0.000000 0.000000 1.807830 
# 
# From -- ./inp_files/23595.got.cif
#   From: 2010.03.12/outbox.cif.g09.slc.cpg/sg53_12_cif.got.tgz:23595.got - 2010.04.16 14:36:59.
