data_PCOD8220388
_publ_section_title
;
Structure prediction by ZEFSAII (Michael W. Deem and Ramdas Pophale) SiO2 
 PCOD8220388
Probable space group: P M N A
;
_chemical_formula_sum "Si O2"
_cell_formula_units_Z 56
_cell_length_a 8.832354
_cell_length_b 20.921217
_cell_length_c 15.424130
_cell_angle_alpha 90.000000
_cell_angle_beta 90.000000
_cell_angle_gamma 90.000000
_cell_volume 2850.126186
_symmetry_space_group_name_H-M "P M N A"
_symmetry_group_IT_number 53
_symmetry_cell_setting 'orthorhombic'
loop_
_space_group_symop_operation_xyz
x,y,z
1/2-x,-y,1/2+z
x,-y,-z
1/2-x,y,1/2-z
-x,-y,-z
1/2+x,y,1/2-z
-x,y,z
1/2+x,-y,1/2+z
loop_
_atom_site_type_symbol
_atom_site_label
_atom_site_fract_x
_atom_site_fract_y
_atom_site_fract_z
Si Si1 0.323982 0.584613 0.840133
Si Si2 0.322130 0.872123 0.162886
Si Si3 0.321559 0.858183 0.838824
Si Si4 0.321921 0.780205 0.007464
Si Si5 0.178917 0.645020 0.006857
Si Si6 0.319700 0.006391 0.096808
Si Si7 0.676122 0.564761 0.159612
O O1 0.250000 0.606033 0.750000
O O2 0.500000 0.602266 0.838143
O O3 0.244669 0.624301 0.914954
O O4 0.297739 0.509933 0.856993
O O5 0.250000 0.843297 0.250000
O O6 0.500000 0.870423 0.173400
O O7 0.263750 0.944795 0.150372
O O8 0.272741 0.830386 0.080787
O O9 0.250000 0.832388 0.750000
O O10 0.500000 0.861199 0.828261
O O11 0.276220 0.809527 0.914835
O O12 0.256150 0.928933 0.859688
O O13 0.500000 0.764534 0.011785
O O14 0.225767 0.717322 0.025333
O O15 0.000000 0.637858 0.005657
O O16 0.244333 0.600799 0.081812
O O17 0.500000 0.009334 0.092147
O O18 0.254159 0.000000 0.000000
O O19 0.750000 0.586519 0.250000
O O20 0.500000 0.582594 0.161954
#
# Coordination Sequence:
#
# PCOD8220388 Si02
#       7
#     8   8   8   8   8   8   8
#     4  10  21  39  64  93 123 154 191 238 290 345
#     4  10  20  35  58  83 109 144 185 233 286 344
#     4  10  20  35  58  83 109 144 185 233 286 344
#     4  10  22  40  57  76 108 154 198 235 282 343
#     4  12  25  39  59  86 119 159 200 243 290 342
#     4   9  15  30  57  84 109 140 183 227 278 346
#     4  10  21  39  64  93 123 154 191 238 290 345
#
# _framework density 19.648254000000001
#
# number of rings (size 3 to 8) (size 9 to 14) (size 15 to 20)
#    0.000    1.857    1.429    3.000    0.000    5.714 
#    0.000    2.857    0.000    0.857    0.000    0.000 
#    0.000    0.000    0.000    0.000    0.000    0.000 
#
# Total GULP energy -694577.978700 kJ/mol
# GULP energy per Si atom -12403.178191 kJ/mol
# Density = 1.960353 g / cm^3
# Si number density = 19.648254 Si / 1000 Ang^3
#
#
#
# Elastic Constant Matrix: (Units=GPa)
#
#
# Indices 1 2 3 4 5 6 
#
# 1 74.6541 28.6032 30.9807 0.0000 0.0000 0.0000
# 2 28.6032 48.2181 11.1895 0.0000 0.0000 0.0000
# 3 30.9807 11.1895 112.7106 0.0000 0.0000 0.0000
# 4 0.0000 0.0000 0.0000 -126.6260 0.0000 0.0000
# 5 0.0000 0.0000 0.0000 0.0000 36.9233 0.0000
# 6 0.0000 0.0000 0.0000 0.0000 0.0000 25.6806
#
#
#
# Elastic Compliance Matrix: (Units=1/GPa)
#
#
# Indices 1 2 3 4 5 6 
#
# 1 0.019119 -0.010360 -0.004227 0.000000 0.000000 0.000000
# 2 -0.010360 0.026842 0.000183 0.000000 0.000000 0.000000
# 3 -0.004227 0.000183 0.010016 0.000000 0.000000 0.000000
# 4 0.000000 0.000000 0.000000 -0.007897 0.000000 0.000000
# 5 0.000000 0.000000 0.000000 0.000000 0.027083 0.000000
# 6 0.000000 0.000000 0.000000 0.000000 0.000000 0.038940
#
#
# Mechanical properties :
#
#
# Convention : Reuss Voigt Hill
#
# Bulk Modulus (GPa) = 36.80687 41.90329 39.35508
# Shear Modulus (GPa) = 32.90185 -1.81711 15.54237
#
# Velocity S-wave (km/s) = 4.09656 -0.96272 2.81558
# Velocity P-wave (km/s) = 6.41477 4.48746 5.53564
#
# Compressibility (1/GPa) = 0.02716884
#
# Stress axis : x y z
#
# Youngs Moduli (GPa) = 52.30501 37.25438 99.84151
#
# Poissons Ratio (x) = 0.38597 0.42199
# Poissons Ratio (y) = 0.54190 -0.01826
# Poissons Ratio (z) = 0.22107 -0.00681
#
# Static dielectric constant tensor:
#      x y z
#    x 3.446220 0.000000 0.000000 
#    y 0.000000 3.620990 0.000000 
#    z 0.000000 0.000000 3.793620 
# 
# 
# High freq. dielectric constant tensor:
#      x y z
#    x 1.748750 0.000000 0.000000 
#    y 0.000000 1.765160 0.000000 
#    z 0.000000 0.000000 1.782780 
# 
# From -- ./inp_files/20594.got.cif
#   From: 2010.03.12/outbox.cif.g09.slc.cpg/sg53_11_cif.got.tgz:20594.got - 2010.04.16 14:36:59.
