data_PCOD8220744
_publ_section_title
;
Structure prediction by ZEFSAII (Michael W. Deem and Ramdas Pophale) SiO2 
 PCOD8220744
Probable space group: P M N A
;
_chemical_formula_sum "Si O2"
_cell_formula_units_Z 64
_cell_length_a 9.063610
_cell_length_b 20.482787
_cell_length_c 19.105102
_cell_angle_alpha 90.000000
_cell_angle_beta 90.000000
_cell_angle_gamma 90.000000
_cell_volume 3546.823844
_symmetry_space_group_name_H-M "P M N A"
_symmetry_group_IT_number 53
_symmetry_cell_setting 'orthorhombic'
loop_
_space_group_symop_operation_xyz
x,y,z
1/2-x,-y,1/2+z
x,-y,-z
1/2-x,y,1/2-z
-x,-y,-z
1/2+x,y,1/2-z
-x,y,z
1/2+x,-y,1/2+z
loop_
_atom_site_type_symbol
_atom_site_label
_atom_site_fract_x
_atom_site_fract_y
_atom_site_fract_z
Si Si1 0.327918 0.039223 0.175300
Si Si2 0.828503 0.774487 0.176321
Si Si3 0.828084 0.081331 0.824604
Si Si4 0.328526 0.474883 0.576022
Si Si5 0.173662 0.302622 0.414801
Si Si6 0.328062 0.675258 0.439934
Si Si7 0.325518 0.572558 0.824663
Si Si8 0.828573 0.817161 0.676290
O O1 0.250000 0.042294 0.250000
O O2 0.500000 0.023713 0.183137
O O3 0.302059 0.110928 0.141555
O O4 0.250061 0.978905 0.132622
O O5 0.750000 0.764400 0.250000
O O6 0.801959 0.846833 0.142558
O O7 0.766916 0.721905 0.121374
O O8 0.000000 0.763191 0.190968
O O9 0.750000 0.083384 0.750000
O O10 0.000000 0.065592 0.816909
O O11 0.278015 0.500000 0.500000
O O12 0.500000 0.491412 0.588695
O O13 0.295127 0.398521 0.582383
O O14 0.231078 0.508763 0.635179
O O15 0.246677 0.306367 0.489681
O O16 0.222733 0.363979 0.368232
O O17 0.231236 0.236692 0.377642
O O18 0.000000 0.301588 0.425772
O O19 0.500000 0.686918 0.452920
O O20 0.250000 0.577085 0.750000
O O21 0.500000 0.567781 0.814789
O O22 0.750000 0.808351 0.750000
O O23 0.000000 0.805809 0.691576
#
# Coordination Sequence:
#
# PCOD8220744 Si02
#       8
#     8   8   8   8   8   8   8   8
#     4   9  15  24  41  66  96 129 165 206 252 301
#     4   9  19  34  52  76 104 132 166 211 259 306
#     4   9  15  25  43  67  96 127 161 204 252 302
#     4  10  20  37  59  80 105 138 174 214 262 314
#     4  10  21  36  53  76 105 139 176 214 255 304
#     4  10  21  37  57  79 104 136 173 211 255 311
#     4  11  23  37  57  83 111 140 176 218 261 309
#     4   9  18  31  47  71 103 135 171 215 258 301
#
# _framework density 18.044312999999999
#
# number of rings (size 3 to 8) (size 9 to 14) (size 15 to 20)
#    0.000    2.375    1.250    2.250    0.000    3.750 
#    0.000    1.250    0.000    0.750    0.000    5.250 
#    0.000    0.000    0.000    0.000    0.000    0.000 
#
# Total GULP energy -793268.927071 kJ/mol
# GULP energy per Si atom -12394.826985 kJ/mol
# Density = 1.800324 g / cm^3
# Si number density = 18.044313 Si / 1000 Ang^3
#
#
#
# Elastic Constant Matrix: (Units=GPa)
#
#
# Indices 1 2 3 4 5 6 
#
# 1 69.8435 55.1362 44.3823 0.0000 0.0000 0.0000
# 2 55.1362 162.1835 72.4412 0.0000 0.0000 0.0000
# 3 44.3823 72.4412 107.4287 0.0000 0.0000 0.0000
# 4 0.0000 0.0000 0.0000 19.4943 0.0000 0.0000
# 5 0.0000 0.0000 0.0000 0.0000 26.5332 0.0000
# 6 0.0000 0.0000 0.0000 0.0000 0.0000 32.6175
#
#
#
# Elastic Compliance Matrix: (Units=1/GPa)
#
#
# Indices 1 2 3 4 5 6 
#
# 1 0.021786 -0.004846 -0.005733 0.000000 0.000000 0.000000
# 2 -0.004846 0.009901 -0.004675 0.000000 0.000000 0.000000
# 3 -0.005733 -0.004675 0.014829 0.000000 0.000000 0.000000
# 4 0.000000 0.000000 0.000000 0.051297 0.000000 0.000000
# 5 0.000000 0.000000 0.000000 0.000000 0.037689 0.000000
# 6 0.000000 0.000000 0.000000 0.000000 0.000000 0.030658
#
#
# Mechanical properties :
#
#
# Convention : Reuss Voigt Hill
#
# Bulk Modulus (GPa) = 62.46181 75.93057 69.19619
# Shear Modulus (GPa) = 24.75201 26.89541 25.82371
#
# Velocity S-wave (km/s) = 3.70771 3.86491 3.78713
# Velocity P-wave (km/s) = 7.28151 7.87960 7.58645
#
# Compressibility (1/GPa) = 0.01600978
#
# Stress axis : x y z
#
# Youngs Moduli (GPa) = 45.90076 100.99782 67.43459
#
# Poissons Ratio (x) = 0.48941 0.38660
# Poissons Ratio (y) = 0.22242 0.31523
# Poissons Ratio (z) = 0.26315 0.47213
#
# Static dielectric constant tensor:
#      x y z
#    x 3.347780 0.000000 0.000000 
#    y 0.000000 4.369180 0.000000 
#    z 0.000000 0.000000 3.032570 
# 
# 
# High freq. dielectric constant tensor:
#      x y z
#    x 1.701480 0.000000 0.000000 
#    y 0.000000 1.726140 0.000000 
#    z 0.000000 0.000000 1.658440 
# 
# From -- ./inp_files/31404.got.cif
#   From: 2010.03.12/outbox.cif.g09.slc.cpg/sg53_16_cif.got.tgz:31404.got - 2010.04.16 14:36:59.
