data_PCOD8220059
_publ_section_title
;
Structure prediction by ZEFSAII (Michael W. Deem and Ramdas Pophale) SiO2 
 PCOD8220059
Probable space group: P M N A
;
_chemical_formula_sum "Si O2"
_cell_formula_units_Z 48
_cell_length_a 12.371739
_cell_length_b 8.912707
_cell_length_c 23.626631
_cell_angle_alpha 90.000000
_cell_angle_beta 90.000000
_cell_angle_gamma 90.000000
_cell_volume 2605.206646
_symmetry_space_group_name_H-M "P M N A"
_symmetry_group_IT_number 53
_symmetry_cell_setting 'orthorhombic'
loop_
_space_group_symop_operation_xyz
x,y,z
1/2-x,-y,1/2+z
x,-y,-z
1/2-x,y,1/2-z
-x,-y,-z
1/2+x,y,1/2-z
-x,y,z
1/2+x,-y,1/2+z
loop_
_atom_site_type_symbol
_atom_site_label
_atom_site_fract_x
_atom_site_fract_y
_atom_site_fract_z
Si Si1 0.721003 0.374468 0.686805
Si Si2 0.621549 0.668867 0.719444
Si Si3 0.627881 0.384668 0.156183
Si Si4 0.370362 0.857511 0.399311
Si Si5 0.701515 0.184300 0.386969
Si Si6 0.123577 0.336385 0.003417
O O1 0.750000 0.317555 0.750000
O O2 0.633430 0.507876 0.689213
O O3 0.825063 0.444560 0.652275
O O4 0.665844 0.236939 0.654987
O O5 0.500000 0.692443 0.738772
O O6 0.677846 0.670824 0.782202
O O7 0.649604 0.799099 0.675166
O O8 0.500000 0.387523 0.147995
O O9 0.679419 0.264412 0.112240
O O10 0.500000 0.889528 0.398349
O O11 0.328935 0.774101 0.455825
O O12 0.299152 0.008560 0.399750
O O13 0.631570 0.267307 0.434488
O O14 0.000000 0.358786 0.986559
O O15 0.181275 0.500000 0.000000
#
# Coordination Sequence:
#
# PCOD8220059 Si02
#       6
#     8   8   8   8   8   8
#     4   9  18  32  52  75 102 136 174 212 251 297
#     4   9  16  30  52  76 101 133 174 216 257 302
#     4   9  19  35  54  74  99 137 183 220 246 285
#     4  11  22  34  51  80 112 135 160 204 264 320
#     4  11  20  32  51  76 108 138 167 207 260 312
#     4  10  20  34  54  77 101 133 171 210 257 312
#
# _framework density 18.424641000000001
#
# number of rings (size 3 to 8) (size 9 to 14) (size 15 to 20)
#    0.000    2.167    0.000    6.000    0.000    4.667 
#    0.000    0.833    0.000    6.500    0.000    0.000 
#    0.000    0.000    0.000    0.000    0.000    0.000 
#
# Total GULP energy -594757.526366 kJ/mol
# GULP energy per Si atom -12390.781799 kJ/mol
# Density = 1.838271 g / cm^3
# Si number density = 18.424641 Si / 1000 Ang^3
#
#
#
# Elastic Constant Matrix: (Units=GPa)
#
#
# Indices 1 2 3 4 5 6 
#
# 1 57.2061 22.3235 9.8917 0.0000 0.0000 0.0000
# 2 22.3235 120.8908 36.3633 0.0000 0.0000 0.0000
# 3 9.8917 36.3633 66.5547 0.0000 0.0000 0.0000
# 4 0.0000 0.0000 0.0000 25.8855 0.0000 0.0000
# 5 0.0000 0.0000 0.0000 0.0000 24.2841 0.0000
# 6 0.0000 0.0000 0.0000 0.0000 0.0000 19.0185
#
#
#
# Elastic Compliance Matrix: (Units=1/GPa)
#
#
# Indices 1 2 3 4 5 6 
#
# 1 0.018903 -0.003166 -0.001080 0.000000 0.000000 0.000000
# 2 -0.003166 0.010429 -0.005227 0.000000 0.000000 0.000000
# 3 -0.001080 -0.005227 0.018042 0.000000 0.000000 0.000000
# 4 0.000000 0.000000 0.000000 0.038632 0.000000 0.000000
# 5 0.000000 0.000000 0.000000 0.000000 0.041179 0.000000
# 6 0.000000 0.000000 0.000000 0.000000 0.000000 0.052580
#
#
# Mechanical properties :
#
#
# Convention : Reuss Voigt Hill
#
# Bulk Modulus (GPa) = 35.17728 42.42317 38.80022
# Shear Modulus (GPa) = 24.01694 25.57585 24.79640
#
# Velocity S-wave (km/s) = 3.61435 3.72981 3.67253
# Velocity P-wave (km/s) = 6.04583 6.45165 6.25203
#
# Compressibility (1/GPa) = 0.02842744
#
# Stress axis : x y z
#
# Youngs Moduli (GPa) = 52.90247 95.88729 55.42675
#
# Poissons Ratio (x) = 0.30356 0.05985
# Poissons Ratio (y) = 0.16748 0.28974
# Poissons Ratio (z) = 0.05712 0.50125
#
# Static dielectric constant tensor:
#      x y z
#    x 3.302560 0.000000 0.000000 
#    y 0.000000 3.305300 0.000000 
#    z 0.000000 0.000000 3.394040 
# 
# 
# High freq. dielectric constant tensor:
#      x y z
#    x 1.697710 0.000000 0.000000 
#    y 0.000000 1.702140 0.000000 
#    z 0.000000 0.000000 1.716220 
# 
# From -- ./inp_files/32279.got.cif
#   From: 2010.03.12/outbox.cif.g09.slc.cpg/sg53_17_cif.got.tgz:32279.got - 2010.04.16 14:36:59.
