data_PCOD8220463
_publ_section_title
;
Structure prediction by ZEFSAII (Michael W. Deem and Ramdas Pophale) SiO2 
 PCOD8220463
Probable space group: P M N A
;
_chemical_formula_sum "Si O2"
_cell_formula_units_Z 64
_cell_length_a 8.771192
_cell_length_b 11.885427
_cell_length_c 31.254181
_cell_angle_alpha 90.000000
_cell_angle_beta 90.000000
_cell_angle_gamma 90.000000
_cell_volume 3258.228436
_symmetry_space_group_name_H-M "P M N A"
_symmetry_group_IT_number 53
_symmetry_cell_setting 'orthorhombic'
loop_
_space_group_symop_operation_xyz
x,y,z
1/2-x,-y,1/2+z
x,-y,-z
1/2-x,y,1/2-z
-x,-y,-z
1/2+x,y,1/2-z
-x,y,z
1/2+x,-y,1/2+z
loop_
_atom_site_type_symbol
_atom_site_label
_atom_site_fract_x
_atom_site_fract_y
_atom_site_fract_z
Si Si1 0.327540 0.614591 0.477564
Si Si2 0.679641 0.986144 0.950777
Si Si3 0.675553 0.651997 0.109263
Si Si4 0.679236 0.878900 0.374643
Si Si5 0.178811 0.263197 0.293225
Si Si6 0.819731 0.994166 0.705485
Si Si7 0.327386 0.754151 0.559081
Si Si8 0.821605 0.598910 0.626127
O O1 0.275242 0.500000 0.500000
O O2 0.500000 0.601614 0.459369
O O3 0.207740 0.641312 0.440909
O O4 0.319799 0.719192 0.509735
O O5 0.500000 0.003286 0.947038
O O6 0.723015 0.862950 0.933258
O O7 0.758944 0.077790 0.920373
O O8 0.735245 0.000000 0.000000
O O9 0.500000 0.685890 0.115735
O O10 0.781361 0.747223 0.130097
O O11 0.713456 0.533124 0.131664
O O12 0.500000 0.897513 0.372951
O O13 0.755258 0.940648 0.334911
O O14 0.250000 0.312114 0.250000
O O15 0.240286 0.338644 0.331882
O O16 0.000000 0.272895 0.289004
O O17 0.230309 0.135016 0.300891
O O18 0.750000 0.040880 0.750000
O O19 0.000000 0.009316 0.707215
O O20 0.500000 0.783675 0.572571
O O21 0.268767 0.648223 0.586026
O O22 0.000000 0.620816 0.618510
#
# Coordination Sequence:
#
# PCOD8220463 Si02
#       8
#     8   8   8   8   8   8   8   8
#     4  10  20  36  55  80 116 154 194 243 292 342
#     4  11  24  41  60  84 117 156 199 248 302 362
#     4  11  23  38  58  83 115 158 203 247 293 348
#     4  12  25  41  62  87 119 159 204 252 308 368
#     4   9  19  36  59  87 116 145 177 224 282 339
#     4  10  20  38  65  94 124 155 194 245 300 362
#     4  11  22  35  57  85 114 149 190 238 290 344
#     4  10  21  37  57  83 115 150 190 234 282 339
#
# _framework density 19.642575999999998
#
# number of rings (size 3 to 8) (size 9 to 14) (size 15 to 20)
#    0.000    1.500    1.250    4.125    0.000    6.750 
#    0.000    0.625    0.000    1.500    0.000    0.000 
#    0.000    0.000    0.000    0.000    0.000    0.000 
#
# Total GULP energy -793890.181618 kJ/mol
# GULP energy per Si atom -12404.534088 kJ/mol
# Density = 1.959787 g / cm^3
# Si number density = 19.642576 Si / 1000 Ang^3
#
#
#
# Elastic Constant Matrix: (Units=GPa)
#
#
# Indices 1 2 3 4 5 6 
#
# 1 72.6733 34.0318 42.1395 0.0000 0.0000 0.0000
# 2 34.0318 98.2989 44.5501 0.0000 0.0000 0.0000
# 3 42.1395 44.5501 123.1856 0.0000 0.0000 0.0000
# 4 0.0000 0.0000 0.0000 30.6066 0.0000 0.0000
# 5 0.0000 0.0000 0.0000 0.0000 33.8060 0.0000
# 6 0.0000 0.0000 0.0000 0.0000 0.0000 27.4814
#
#
#
# Elastic Compliance Matrix: (Units=1/GPa)
#
#
# Indices 1 2 3 4 5 6 
#
# 1 0.018532 -0.004237 -0.004807 0.000000 0.000000 0.000000
# 2 -0.004237 0.013136 -0.003301 0.000000 0.000000 0.000000
# 3 -0.004807 -0.003301 0.010956 0.000000 0.000000 0.000000
# 4 0.000000 0.000000 0.000000 0.032673 0.000000 0.000000
# 5 0.000000 0.000000 0.000000 0.000000 0.029581 0.000000
# 6 0.000000 0.000000 0.000000 0.000000 0.000000 0.036388
#
#
# Mechanical properties :
#
#
# Convention : Reuss Voigt Hill
#
# Bulk Modulus (GPa) = 55.76267 59.51118 57.63692
# Shear Modulus (GPa) = 29.08091 29.94123 29.51107
#
# Velocity S-wave (km/s) = 3.85191 3.90847 3.88029
# Velocity P-wave (km/s) = 6.94501 7.12257 7.03435
#
# Compressibility (1/GPa) = 0.01793314
#
# Stress axis : x y z
#
# Youngs Moduli (GPa) = 53.96136 76.12565 91.27339
#
# Poissons Ratio (x) = 0.32257 0.43875
# Poissons Ratio (y) = 0.22865 0.30131
# Poissons Ratio (z) = 0.25939 0.25131
#
# Static dielectric constant tensor:
#      x y z
#    x 3.562800 0.000000 0.000000 
#    y 0.000000 3.762400 0.000000 
#    z 0.000000 0.000000 3.610490 
# 
# 
# High freq. dielectric constant tensor:
#      x y z
#    x 1.769170 0.000000 0.000000 
#    y 0.000000 1.769180 0.000000 
#    z 0.000000 0.000000 1.759140 
# 
# From -- ./inp_files/38137.got.cif
#   From: 2010.03.12/outbox.cif.g09.slc.cpg/sg53_20_cif.got.tgz:38137.got - 2010.04.16 14:36:59.
