data_PCOD8220015
_publ_section_title
;
Structure prediction by ZEFSAII (Michael W. Deem and Ramdas Pophale) SiO2 
 PCOD8220015
Probable space group: P M N A
;
_chemical_formula_sum "Si O2"
_cell_formula_units_Z 56
_cell_length_a 8.899781
_cell_length_b 21.666321
_cell_length_c 15.260107
_cell_angle_alpha 90.000000
_cell_angle_beta 90.000000
_cell_angle_gamma 90.000000
_cell_volume 2942.537945
_symmetry_space_group_name_H-M "P M N A"
_symmetry_group_IT_number 53
_symmetry_cell_setting 'orthorhombic'
loop_
_space_group_symop_operation_xyz
x,y,z
1/2-x,-y,1/2+z
x,-y,-z
1/2-x,y,1/2-z
-x,-y,-z
1/2+x,y,1/2-z
-x,y,z
1/2+x,-y,1/2+z
loop_
_atom_site_type_symbol
_atom_site_label
_atom_site_fract_x
_atom_site_fract_y
_atom_site_fract_z
Si Si1 0.824603 0.136534 0.155030
Si Si2 0.678527 0.649668 0.003812
Si Si3 0.822613 0.120391 0.654591
Si Si4 0.676878 0.789667 0.999460
Si Si5 0.677164 0.425810 0.160416
Si Si6 0.322632 0.433672 0.839697
Si Si7 0.824827 0.000166 0.843603
O O1 0.750000 0.145223 0.250000
O O2 0.756698 0.183621 0.085966
O O3 0.000000 0.149611 0.167331
O O4 0.798483 0.067429 0.114692
O O5 0.500000 0.646100 0.004543
O O6 0.742648 0.610635 0.085092
O O7 0.734328 0.719818 0.010735
O O8 0.740495 0.618525 0.915307
O O9 0.750000 0.133062 0.750000
O O10 0.778470 0.175285 0.588722
O O11 0.758005 0.057465 0.608696
O O12 0.000000 0.114441 0.666488
O O13 0.500000 0.793548 0.982562
O O14 0.750000 0.402451 0.250000
O O15 0.500000 0.420327 0.169792
O O16 0.724825 0.496065 0.138769
O O17 0.250000 0.410627 0.750000
O O18 0.500000 0.427770 0.831245
O O19 0.750000 0.997577 0.750000
O O20 0.000000 0.015907 0.836847
#
# Coordination Sequence:
#
# PCOD8220015 Si02
#       7
#     8   8   8   8   8   8   8
#     4  10  21  37  57  79 104 134 169 213 261 309
#     4   9  18  34  53  72 100 138 175 207 244 298
#     4  10  20  34  53  76 103 135 171 214 261 308
#     4  10  22  37  52  74 104 140 179 213 251 304
#     4   9  17  31  53  78 102 130 166 209 254 299
#     4   9  17  31  53  79 103 130 167 209 254 300
#     4   9  17  31  53  78 101 128 165 210 261 310
#
# _framework density 19.031191
#
# number of rings (size 3 to 8) (size 9 to 14) (size 15 to 20)
#    0.000    2.571    0.000    2.571    0.000    6.286 
#    0.000    6.429    0.000    3.429    0.000    0.000 
#    0.000    0.000    0.000    0.000    0.000    0.000 
#
# Total GULP energy -694167.517451 kJ/mol
# GULP energy per Si atom -12395.848526 kJ/mol
# Density = 1.898787 g / cm^3
# Si number density = 19.031191 Si / 1000 Ang^3
#
#
#
# Elastic Constant Matrix: (Units=GPa)
#
#
# Indices 1 2 3 4 5 6 
#
# 1 51.3737 30.3723 33.6983 0.0000 0.0000 0.0000
# 2 30.3723 131.4400 76.2916 0.0000 0.0000 0.0000
# 3 33.6983 76.2916 127.9520 0.0000 0.0000 0.0000
# 4 0.0000 0.0000 0.0000 24.8325 0.0000 0.0000
# 5 0.0000 0.0000 0.0000 0.0000 29.6680 0.0000
# 6 0.0000 0.0000 0.0000 0.0000 0.0000 22.0159
#
#
#
# Elastic Compliance Matrix: (Units=1/GPa)
#
#
# Indices 1 2 3 4 5 6 
#
# 1 0.024231 -0.002898 -0.004654 0.000000 0.000000 0.000000
# 2 -0.002898 0.011981 -0.006381 0.000000 0.000000 0.000000
# 3 -0.004654 -0.006381 0.012845 0.000000 0.000000 0.000000
# 4 0.000000 0.000000 0.000000 0.040270 0.000000 0.000000
# 5 0.000000 0.000000 0.000000 0.000000 0.033706 0.000000
# 6 0.000000 0.000000 0.000000 0.000000 0.000000 0.045422
#
#
# Mechanical properties :
#
#
# Convention : Reuss Voigt Hill
#
# Bulk Modulus (GPa) = 47.18499 65.72112 56.45305
# Shear Modulus (GPa) = 24.58397 26.66351 25.62374
#
# Velocity S-wave (km/s) = 3.59802 3.74711 3.67332
# Velocity P-wave (km/s) = 6.48910 7.30270 6.90789
#
# Compressibility (1/GPa) = 0.02119318
#
# Stress axis : x y z
#
# Youngs Moduli (GPa) = 41.26927 83.46454 77.84844
#
# Poissons Ratio (x) = 0.24188 0.36229
# Poissons Ratio (y) = 0.11960 0.49671
# Poissons Ratio (z) = 0.19206 0.53255
#
# Static dielectric constant tensor:
#      x y z
#    x 3.327260 0.000000 0.000000 
#    y 0.000000 3.933840 0.000000 
#    z 0.000000 0.000000 3.463070 
# 
# 
# High freq. dielectric constant tensor:
#      x y z
#    x 1.725270 0.000000 0.000000 
#    y 0.000000 1.744900 0.000000 
#    z 0.000000 0.000000 1.736830 
# 
# From -- ./inp_files/20473.got.cif
#   From: 2010.03.12/outbox.cif.g09.slc.cpg/sg53_11_cif.got.tgz:20473.got - 2010.04.16 14:36:59.
