data_PCOD8220934
_publ_section_title
;
Structure prediction by ZEFSAII (Michael W. Deem and Ramdas Pophale) SiO2 
 PCOD8220934
Probable space group: P M N A
;
_chemical_formula_sum "Si O2"
_cell_formula_units_Z 48
_cell_length_a 27.995741
_cell_length_b 9.629724
_cell_length_c 8.641162
_cell_angle_alpha 90.000000
_cell_angle_beta 90.000000
_cell_angle_gamma 90.000000
_cell_volume 2329.581743
_symmetry_space_group_name_H-M "P M N A"
_symmetry_group_IT_number 53
_symmetry_cell_setting 'orthorhombic'
loop_
_space_group_symop_operation_xyz
x,y,z
1/2-x,-y,1/2+z
x,-y,-z
1/2-x,y,1/2-z
-x,-y,-z
1/2+x,y,1/2-z
-x,y,z
1/2+x,-y,1/2+z
loop_
_atom_site_type_symbol
_atom_site_label
_atom_site_fract_x
_atom_site_fract_y
_atom_site_fract_z
Si Si1 0.657166 0.981194 0.830388
Si Si2 0.624048 0.500000 0.000000
Si Si3 0.360192 0.714274 0.250658
Si Si4 0.250000 0.844058 0.750000
Si Si5 0.202055 0.652497 0.964561
Si Si6 0.111453 0.293362 0.244199
Si Si7 0.947601 0.341580 0.959242
O O1 0.703761 0.940595 0.732830
O O2 0.618773 0.857371 0.820369
O O3 0.632536 0.123870 0.783352
O O4 0.677597 0.000000 0.000000
O O5 0.653227 0.384933 0.896726
O O6 0.594637 0.595643 0.876527
O O7 0.317954 0.711134 0.375095
O O8 0.411513 0.668313 0.316147
O O9 0.253366 0.744136 0.597975
O O10 0.221972 0.500000 0.000000
O O11 0.160075 0.647036 0.834485
O O12 0.071780 0.266664 0.113681
O O13 0.000000 0.279977 0.916274
O O14 0.952674 0.500000 0.000000
#
# Coordination Sequence:
#
# PCOD8220934 Si02
#       7
#     8   4   8   4   8   8   8
#     4  11  24  40  60  88 125 160 204 259 319 378
#     4  12  18  36  65  92 120 160 214 238 302 376
#     4  11  22  39  69  90 123 172 206 248 319 378
#     4  10  26  40  58  88 122 158 214 262 314 366
#     4  10  20  42  61  86 119 159 210 261 305 363
#     4  10  20  38  62  90 123 162 206 249 307 373
#     4  10  20  39  66  98 127 161 212 261 303 367
#
# _framework density 20.604558000000001
#
# number of rings (size 3 to 8) (size 9 to 14) (size 15 to 20)
#    0.000    1.500    5.000    1.000    2.333    5.333 
#    9.000    3.333    0.000    1.000    0.000    0.000 
#    0.000    0.000    0.000    0.000    0.000    0.000 
#
# Total GULP energy -594708.669511 kJ/mol
# GULP energy per Si atom -12389.763948 kJ/mol
# Density = 2.055766 g / cm^3
# Si number density = 20.604558 Si / 1000 Ang^3
#
#
#
# Elastic Constant Matrix: (Units=GPa)
#
#
# Indices 1 2 3 4 5 6 
#
# 1 70.2122 25.3943 16.8451 0.0000 0.0000 0.0000
# 2 25.3943 145.0420 44.4722 0.0000 0.0000 0.0000
# 3 16.8451 44.4722 104.2212 0.0000 0.0000 0.0000
# 4 0.0000 0.0000 0.0000 36.5341 0.0000 0.0000
# 5 0.0000 0.0000 0.0000 0.0000 66.3414 0.0000
# 6 0.0000 0.0000 0.0000 0.0000 0.0000 13.9563
#
#
#
# Elastic Compliance Matrix: (Units=1/GPa)
#
#
# Indices 1 2 3 4 5 6 
#
# 1 0.015418 -0.002227 -0.001542 0.000000 0.000000 0.000000
# 2 -0.002227 0.008254 -0.003162 0.000000 0.000000 0.000000
# 3 -0.001542 -0.003162 0.011193 0.000000 0.000000 0.000000
# 4 0.000000 0.000000 0.000000 0.027372 0.000000 0.000000
# 5 0.000000 0.000000 0.000000 0.000000 0.015074 0.000000
# 6 0.000000 0.000000 0.000000 0.000000 0.000000 0.071652
#
#
# Mechanical properties :
#
#
# Convention : Reuss Voigt Hill
#
# Bulk Modulus (GPa) = 47.60994 54.76651 51.18822
# Shear Modulus (GPa) = 29.44200 38.88395 34.16297
#
# Velocity S-wave (km/s) = 3.78419 4.34885 4.07631
# Velocity P-wave (km/s) = 6.50001 7.20098 6.85946
#
# Compressibility (1/GPa) = 0.02100402
#
# Stress axis : x y z
#
# Youngs Moduli (GPa) = 64.86017 121.15387 89.33757
#
# Poissons Ratio (x) = 0.26977 0.13774
# Poissons Ratio (y) = 0.14442 0.28250
# Poissons Ratio (z) = 0.10000 0.38311
#
# Static dielectric constant tensor:
#      x y z
#    x 3.531100 0.000000 0.000000 
#    y 0.000000 4.026530 0.000000 
#    z 0.000000 0.000000 3.099920 
# 
# 
# High freq. dielectric constant tensor:
#      x y z
#    x 1.753640 0.000000 0.000000 
#    y 0.000000 1.818200 0.000000 
#    z 0.000000 0.000000 1.816540 
# 
# From -- ./inp_files/13060.got.cif
#   From: 2010.03.12/outbox.cif.g09.slc.cpg/sg53_7_cif.got.tgz:13060.got - 2010.04.16 14:36:59.
