data_PCOD8220038
_publ_section_title
;
Structure prediction by ZEFSAII (Michael W. Deem and Ramdas Pophale) SiO2 
 PCOD8220038
Probable space group: P M N A
;
_chemical_formula_sum "Si O2"
_cell_formula_units_Z 64
_cell_length_a 8.776223
_cell_length_b 14.961684
_cell_length_c 24.738031
_cell_angle_alpha 90.000000
_cell_angle_beta 90.000000
_cell_angle_gamma 90.000000
_cell_volume 3248.278498
_symmetry_space_group_name_H-M "P M N A"
_symmetry_group_IT_number 53
_symmetry_cell_setting 'orthorhombic'
loop_
_space_group_symop_operation_xyz
x,y,z
1/2-x,-y,1/2+z
x,-y,-z
1/2-x,y,1/2-z
-x,-y,-z
1/2+x,y,1/2-z
-x,y,z
1/2+x,-y,1/2+z
loop_
_atom_site_type_symbol
_atom_site_label
_atom_site_fract_x
_atom_site_fract_y
_atom_site_fract_z
Si Si1 0.819838 0.733955 0.613311
Si Si2 0.818430 0.420576 0.305648
Si Si3 0.167061 0.441165 0.952880
Si Si4 0.323848 0.867658 0.693910
Si Si5 0.823938 0.077415 0.806124
Si Si6 0.325537 0.600582 0.148437
Si Si7 0.181487 0.209626 0.612117
Si Si8 0.167519 0.752812 0.003037
O O1 0.764615 0.643396 0.644569
O O2 0.763173 0.820024 0.645620
O O3 0.755404 0.744727 0.553250
O O4 0.000000 0.735790 0.609369
O O5 0.750000 0.381902 0.250000
O O6 0.757738 0.524425 0.311281
O O7 0.000000 0.419195 0.302715
O O8 0.299454 0.446373 0.908979
O O9 0.000000 0.476719 0.932512
O O10 0.236137 0.500000 0.000000
O O11 0.140217 0.343952 0.974639
O O12 0.250000 0.836514 0.750000
O O13 0.500000 0.839958 0.694256
O O14 0.301911 0.972718 0.685097
O O15 0.750000 0.109187 0.750000
O O16 0.737141 0.124504 0.855027
O O17 0.000000 0.105715 0.805927
O O18 0.500000 0.613108 0.162315
O O19 0.252385 0.700565 0.143680
O O20 0.239295 0.196244 0.550452
O O21 0.000000 0.215144 0.610191
O O22 0.000000 0.798083 0.994346
#
# Coordination Sequence:
#
# PCOD8220038 Si02
#       8
#     8   8   8   8   8   8   8   8
#     4  11  22  36  56  81 110 146 187 230 277 328
#     4  10  22  37  52  75 108 145 185 228 275 327
#     4   9  17  29  47  72  99 131 174 220 263 308
#     4  10  21  38  60  85 112 142 179 226 278 332
#     4  10  21  38  61  87 113 142 178 222 274 331
#     4   9  19  34  50  72 103 139 177 215 260 313
#     4  10  20  36  58  83 114 149 185 228 275 324
#     4  10  20  34  53  78 110 146 185 228 274 328
#
# _framework density 19.702743000000002
#
# number of rings (size 3 to 8) (size 9 to 14) (size 15 to 20)
#    0.000    2.125    0.000    3.000    0.000    5.750 
#    0.000    1.875    0.000    3.750    0.000    0.000 
#    0.000    0.000    0.000    0.000    0.000    0.000 
#
# Total GULP energy -792927.049255 kJ/mol
# GULP energy per Si atom -12389.485145 kJ/mol
# Density = 1.965790 g / cm^3
# Si number density = 19.702743 Si / 1000 Ang^3
#
#
#
# Elastic Constant Matrix: (Units=GPa)
#
#
# Indices 1 2 3 4 5 6 
#
# 1 74.1633 28.0064 44.1971 0.0000 0.0000 0.0000
# 2 28.0064 45.7172 36.5562 0.0000 0.0000 0.0000
# 3 44.1971 36.5562 128.5643 0.0000 0.0000 0.0000
# 4 0.0000 0.0000 0.0000 -2.6649 0.0000 0.0000
# 5 0.0000 0.0000 0.0000 0.0000 40.3224 0.0000
# 6 0.0000 0.0000 0.0000 0.0000 0.0000 24.6495
#
#
#
# Elastic Compliance Matrix: (Units=1/GPa)
#
#
# Indices 1 2 3 4 5 6 
#
# 1 0.019149 -0.008370 -0.004203 0.000000 0.000000 0.000000
# 2 -0.008370 0.031969 -0.006213 0.000000 0.000000 0.000000
# 3 -0.004203 -0.006213 0.010990 0.000000 0.000000 0.000000
# 4 0.000000 0.000000 0.000000 -0.375251 0.000000 0.000000
# 5 0.000000 0.000000 0.000000 0.000000 0.024800 0.000000
# 6 0.000000 0.000000 0.000000 0.000000 0.000000 0.040569
#
#
# Mechanical properties :
#
#
# Convention : Reuss Voigt Hill
#
# Bulk Modulus (GPa) = 40.75607 51.77378 46.26493
# Shear Modulus (GPa) = -24.74952 21.77373 -1.48790
#
# Velocity S-wave (km/s) = -3.54806 3.32793 -0.86995
# Velocity P-wave (km/s) = 1.98631 6.41103 4.74588
#
# Compressibility (1/GPa) = 0.02453622
#
# Stress axis : x y z
#
# Youngs Moduli (GPa) = 52.22096 31.28039 90.99474
#
# Poissons Ratio (x) = 0.26182 0.38246
# Poissons Ratio (y) = 0.43709 0.56532
# Poissons Ratio (z) = 0.21949 0.19433
#
# Static dielectric constant tensor:
#      x y z
#    x 3.734230 0.000000 0.000000 
#    y 0.000000 3.617580 0.000000 
#    z 0.000000 0.000000 3.459580 
# 
# 
# High freq. dielectric constant tensor:
#      x y z
#    x 1.769100 0.000000 0.000000 
#    y 0.000000 1.760240 0.000000 
#    z 0.000000 0.000000 1.767050 
# 
# From -- ./inp_files/34133.got.cif
#   From: 2010.03.12/outbox.cif.g09.slc.cpg/sg53_18_cif.got.tgz:34133.got - 2010.04.16 14:36:59.
