data_PCOD8220077
_publ_section_title
;
Structure prediction by ZEFSAII (Michael W. Deem and Ramdas Pophale) SiO2 
 PCOD8220077
Probable space group: P M N A
;
_chemical_formula_sum "Si O2"
_cell_formula_units_Z 48
_cell_length_a 8.733529
_cell_length_b 20.379918
_cell_length_c 13.966471
_cell_angle_alpha 90.000000
_cell_angle_beta 90.000000
_cell_angle_gamma 90.000000
_cell_volume 2485.872688
_symmetry_space_group_name_H-M "P M N A"
_symmetry_group_IT_number 53
_symmetry_cell_setting 'orthorhombic'
loop_
_space_group_symop_operation_xyz
x,y,z
1/2-x,-y,1/2+z
x,-y,-z
1/2-x,y,1/2-z
-x,-y,-z
1/2+x,y,1/2-z
-x,y,z
1/2+x,-y,1/2+z
loop_
_atom_site_type_symbol
_atom_site_label
_atom_site_fract_x
_atom_site_fract_y
_atom_site_fract_z
Si Si1 0.318861 0.030988 0.148170
Si Si2 0.676521 0.470563 0.653001
Si Si3 0.181404 0.097134 0.542003
Si Si4 0.318348 0.773885 0.146318
Si Si5 0.818796 0.391172 0.351455
Si Si6 0.675964 0.342732 0.533326
O O1 0.250000 0.051106 0.250000
O O2 0.500000 0.031586 0.158127
O O3 0.258854 0.959292 0.114598
O O4 0.263792 0.083183 0.067007
O O5 0.750000 0.441890 0.750000
O O6 0.500000 0.489546 0.671598
O O7 0.765798 0.535600 0.620975
O O8 0.692159 0.416639 0.571357
O O9 0.241044 0.167782 0.577020
O O10 0.000000 0.094508 0.543963
O O11 0.250000 0.786581 0.250000
O O12 0.500000 0.772215 0.154014
O O13 0.260475 0.705278 0.105762
O O14 0.750000 0.369520 0.250000
O O15 0.756270 0.340046 0.430002
O O16 0.000000 0.387421 0.347945
O O17 0.500000 0.321597 0.524292
#
# Coordination Sequence:
#
# PCOD8220077 Si02
#       6
#     8   8   8   8   8   8
#     4   9  16  31  54  80 108 140 177 219 265 313
#     4  10  20  34  54  79 108 139 174 219 269 321
#     4   8  17  33  53  76 108 146 179 213 263 322
#     4  11  22  37  56  79 107 142 180 219 267 321
#     4  11  22  37  58  81 106 137 175 221 272 324
#     4  11  23  38  55  78 108 142 181 223 266 317
#
# _framework density 19.309116
#
# number of rings (size 3 to 8) (size 9 to 14) (size 15 to 20)
#    0.000    2.000    0.000    6.500    0.000    6.000 
#    0.000    5.000    0.000    2.000    0.000    0.000 
#    0.000    0.000    0.000    0.000    0.000    0.000 
#
# Total GULP energy -595206.801843 kJ/mol
# GULP energy per Si atom -12400.141705 kJ/mol
# Density = 1.926517 g / cm^3
# Si number density = 19.309116 Si / 1000 Ang^3
#
#
#
# Elastic Constant Matrix: (Units=GPa)
#
#
# Indices 1 2 3 4 5 6 
#
# 1 104.8356 30.1417 51.1119 0.0000 0.0000 0.0000
# 2 30.1417 51.9742 41.9665 0.0000 0.0000 0.0000
# 3 51.1119 41.9665 146.8971 0.0000 0.0000 0.0000
# 4 0.0000 0.0000 0.0000 29.7920 0.0000 0.0000
# 5 0.0000 0.0000 0.0000 0.0000 35.2398 0.0000
# 6 0.0000 0.0000 0.0000 0.0000 0.0000 -10.2797
#
#
#
# Elastic Compliance Matrix: (Units=1/GPa)
#
#
# Indices 1 2 3 4 5 6 
#
# 1 0.012344 -0.004797 -0.002924 0.000000 0.000000 0.000000
# 2 -0.004797 0.026874 -0.006008 0.000000 0.000000 0.000000
# 3 -0.002924 -0.006008 0.009542 0.000000 0.000000 0.000000
# 4 0.000000 0.000000 0.000000 0.033566 0.000000 0.000000
# 5 0.000000 0.000000 0.000000 0.000000 0.028377 0.000000
# 6 0.000000 0.000000 0.000000 0.000000 0.000000 -0.097279
#
#
# Mechanical properties :
#
#
# Convention : Reuss Voigt Hill
#
# Bulk Modulus (GPa) = 46.95028 61.12746 54.03887
# Shear Modulus (GPa) = 104.20303 22.98286 63.59294
#
# Velocity S-wave (km/s) = 7.35411 3.45376 5.74505
# Velocity P-wave (km/s) = 9.82234 6.90149 8.48849
#
# Compressibility (1/GPa) = 0.02129913
#
# Stress axis : x y z
#
# Youngs Moduli (GPa) = 81.01223 37.21086 104.80515
#
# Poissons Ratio (x) = 0.17851 0.30649
# Poissons Ratio (y) = 0.38864 0.62970
# Poissons Ratio (z) = 0.23691 0.22357
#
# Static dielectric constant tensor:
#      x y z
#    x 3.442240 0.000000 0.000000 
#    y 0.000000 3.488020 0.000000 
#    z 0.000000 0.000000 3.899470 
# 
# 
# High freq. dielectric constant tensor:
#      x y z
#    x 1.745670 0.000000 0.000000 
#    y 0.000000 1.731680 0.000000 
#    z 0.000000 0.000000 1.765560 
# 
# From -- ./inp_files/20346.got.cif
#   From: 2010.03.12/outbox.cif.g09.slc.cpg/sg53_11_cif.got.tgz:20346.got - 2010.04.16 14:36:59.
