data_PCOD8220856
_publ_section_title
;
Structure prediction by ZEFSAII (Michael W. Deem and Ramdas Pophale) SiO2 
 PCOD8220856
Probable space group: P M N A
;
_chemical_formula_sum "Si O2"
_cell_formula_units_Z 64
_cell_length_a 8.698830
_cell_length_b 15.057008
_cell_length_c 22.635143
_cell_angle_alpha 90.000000
_cell_angle_beta 90.000000
_cell_angle_gamma 90.000000
_cell_volume 2964.713748
_symmetry_space_group_name_H-M "P M N A"
_symmetry_group_IT_number 53
_symmetry_cell_setting 'orthorhombic'
loop_
_space_group_symop_operation_xyz
x,y,z
1/2-x,-y,1/2+z
x,-y,-z
1/2-x,y,1/2-z
-x,-y,-z
1/2+x,y,1/2-z
-x,y,z
1/2+x,-y,1/2+z
loop_
_atom_site_type_symbol
_atom_site_label
_atom_site_fract_x
_atom_site_fract_y
_atom_site_fract_z
Si Si1 0.824461 0.244379 0.931800
Si Si2 0.681756 0.558782 0.444164
Si Si3 0.819220 0.308177 0.308536
Si Si4 0.681224 0.004310 0.309912
Si Si5 0.181766 0.500339 0.186878
Si Si6 0.173646 0.807774 0.193109
Si Si7 0.821458 0.165389 0.113815
Si Si8 0.178383 0.897840 0.501827
O O1 0.775546 0.338668 0.960219
O O2 0.810426 0.259311 0.861197
O O3 0.712541 0.160010 0.943449
O O4 0.000000 0.219138 0.948288
O O5 0.747951 0.500000 0.500000
O O6 0.500000 0.545124 0.441811
O O7 0.744852 0.537840 0.377193
O O8 0.750000 0.260834 0.250000
O O9 0.724607 0.397728 0.316926
O O10 0.784902 0.244097 0.362863
O O11 0.000000 0.327394 0.303138
O O12 0.750000 0.043675 0.250000
O O13 0.500000 0.006183 0.306440
O O14 0.735746 0.070590 0.361178
O O15 0.746418 0.905138 0.321586
O O16 0.250000 0.539499 0.250000
O O17 0.000000 0.514458 0.190757
O O18 0.250000 0.762348 0.250000
O O19 0.000000 0.825367 0.210889
O O20 0.000000 0.186097 0.126189
O O21 0.786860 0.158730 0.045045
O O22 0.000000 0.894509 0.519246
O O23 0.234492 0.000000 0.500000
#
# Coordination Sequence:
#
# PCOD8220856 Si02
#       8
#     8   8   8   8   8   8   8   8
#     4  10  21  39  63  88 116 154 202 252 299 363
#     4   9  20  38  62  92 122 157 206 262 315 370
#     4  11  22  37  57  86 123 159 203 254 309 370
#     4   9  18  31  49  75 108 144 186 234 285 345
#     4  10  20  37  62  90 124 163 208 257 315 379
#     4   9  18  33  54  82 112 145 185 230 285 346
#     4  11  22  36  57  82 111 154 203 252 306 364
#     4  11  25  42  59  85 122 161 202 252 307 364
#
# _framework density 21.587243000000001
#
# number of rings (size 3 to 8) (size 9 to 14) (size 15 to 20)
#    0.000    2.000    0.000    4.125    1.750    5.000 
#    0.000    3.750    0.000    1.875    0.000    0.000 
#    0.000    0.000    0.000    0.000    0.000    0.000 
#
# Total GULP energy -792948.846431 kJ/mol
# GULP energy per Si atom -12389.825725 kJ/mol
# Density = 2.153811 g / cm^3
# Si number density = 21.587243 Si / 1000 Ang^3
#
#
#
# Elastic Constant Matrix: (Units=GPa)
#
#
# Indices 1 2 3 4 5 6 
#
# 1 42.2536 22.4559 23.4640 0.0000 0.0000 0.0000
# 2 22.4559 92.6869 36.1786 0.0000 0.0000 0.0000
# 3 23.4640 36.1786 110.7401 0.0000 0.0000 0.0000
# 4 0.0000 0.0000 0.0000 32.8279 0.0000 0.0000
# 5 0.0000 0.0000 0.0000 0.0000 33.4690 0.0000
# 6 0.0000 0.0000 0.0000 0.0000 0.0000 13.4288
#
#
#
# Elastic Compliance Matrix: (Units=1/GPa)
#
#
# Indices 1 2 3 4 5 6 
#
# 1 0.028921 -0.005290 -0.004400 0.000000 0.000000 0.000000
# 2 -0.005290 0.013333 -0.003235 0.000000 0.000000 0.000000
# 3 -0.004400 -0.003235 0.011019 0.000000 0.000000 0.000000
# 4 0.000000 0.000000 0.000000 0.030462 0.000000 0.000000
# 5 0.000000 0.000000 0.000000 0.000000 0.029878 0.000000
# 6 0.000000 0.000000 0.000000 0.000000 0.000000 0.074467
#
#
# Mechanical properties :
#
#
# Convention : Reuss Voigt Hill
#
# Bulk Modulus (GPa) = 36.46356 45.54195 41.00275
# Shear Modulus (GPa) = 22.41434 26.85061 24.63248
#
# Velocity S-wave (km/s) = 3.22578 3.53061 3.38163
# Velocity P-wave (km/s) = 5.54997 6.14514 5.85512
#
# Compressibility (1/GPa) = 0.02742464
#
# Stress axis : x y z
#
# Youngs Moduli (GPa) = 34.57688 74.99983 90.74949
#
# Poissons Ratio (x) = 0.39671 0.39928
# Poissons Ratio (y) = 0.18290 0.29360
# Poissons Ratio (z) = 0.15213 0.24264
#
# Static dielectric constant tensor:
#      x y z
#    x 3.560600 0.000000 0.000000 
#    y 0.000000 3.857780 0.000000 
#    z 0.000000 0.000000 4.217030 
# 
# 
# High freq. dielectric constant tensor:
#      x y z
#    x 1.819320 0.000000 0.000000 
#    y 0.000000 1.846250 0.000000 
#    z 0.000000 0.000000 1.857870 
# 
# From -- ./inp_files/34331.got.cif
#   From: 2010.03.12/outbox.cif.g09.slc.cpg/sg53_18_cif.got.tgz:34331.got - 2010.04.16 14:36:59.
