data_PCOD8220009
_publ_section_title
;
Structure prediction by ZEFSAII (Michael W. Deem and Ramdas Pophale) SiO2 
 PCOD8220009
Probable space group: P M N A
;
_chemical_formula_sum "Si O2"
_cell_formula_units_Z 64
_cell_length_a 9.050160
_cell_length_b 27.869263
_cell_length_c 13.828526
_cell_angle_alpha 90.000000
_cell_angle_beta 90.000000
_cell_angle_gamma 90.000000
_cell_volume 3487.848656
_symmetry_space_group_name_H-M "P M N A"
_symmetry_group_IT_number 53
_symmetry_cell_setting 'orthorhombic'
loop_
_space_group_symop_operation_xyz
x,y,z
1/2-x,-y,1/2+z
x,-y,-z
1/2-x,y,1/2-z
-x,-y,-z
1/2+x,y,1/2-z
-x,y,z
1/2+x,-y,1/2+z
loop_
_atom_site_type_symbol
_atom_site_label
_atom_site_fract_x
_atom_site_fract_y
_atom_site_fract_z
Si Si1 0.174801 0.425125 0.973285
Si Si2 0.327077 0.682309 0.463886
Si Si3 0.327263 0.822925 0.964086
Si Si4 0.673082 0.762742 0.151000
Si Si5 0.828506 0.013240 0.849085
Si Si6 0.825374 0.512772 0.849662
Si Si7 0.327133 0.077091 0.472058
Si Si8 0.172642 0.742574 0.848577
O O1 0.237476 0.371668 0.958730
O O2 0.222255 0.459373 0.884431
O O3 0.000000 0.422551 0.980185
O O4 0.232947 0.448206 0.073107
O O5 0.500000 0.685190 0.438215
O O6 0.238768 0.712125 0.383844
O O7 0.296890 0.701917 0.571446
O O8 0.500000 0.819831 0.940867
O O9 0.273355 0.877009 0.955796
O O10 0.241449 0.792667 0.883440
O O11 0.291943 0.803190 0.071188
O O12 0.750000 0.779352 0.250000
O O13 0.500000 0.756478 0.168841
O O14 0.750000 0.025355 0.750000
O O15 0.000000 0.018119 0.830439
O O16 0.791247 0.959727 0.885501
O O17 0.779024 0.052423 0.927731
O O18 0.750000 0.525706 0.750000
O O19 0.000000 0.515740 0.837621
O O20 0.500000 0.090949 0.473209
O O21 0.250000 0.725468 0.750000
O O22 0.000000 0.750206 0.829983
#
# Coordination Sequence:
#
# PCOD8220009 Si02
#       8
#     8   8   8   8   8   8   8   8
#     4   8  16  32  51  70  97 133 166 198 245 302
#     4   9  18  34  54  74  98 131 170 209 251 298
#     4  10  21  36  54  77 103 132 170 212 251 296
#     4  10  21  36  53  75 103 133 167 208 253 301
#     4   9  19  35  54  76 103 135 169 206 248 296
#     4   9  17  31  50  71  98 131 165 202 245 294
#     4   9  19  36  54  74 104 138 168 202 251 303
#     4  10  20  34  53  75 101 133 167 207 254 302
#
# _framework density 18.349421
#
# number of rings (size 3 to 8) (size 9 to 14) (size 15 to 20)
#    0.000    2.750    0.000    2.625    0.000    5.000 
#    0.000    8.750    0.000    0.000    0.000    0.000 
#    0.000    0.000    0.000    0.000    0.000    0.000 
#
# Total GULP energy -793609.285722 kJ/mol
# GULP energy per Si atom -12400.145089 kJ/mol
# Density = 1.830766 g / cm^3
# Si number density = 18.349421 Si / 1000 Ang^3
#
#
#
# Elastic Constant Matrix: (Units=GPa)
#
#
# Indices 1 2 3 4 5 6 
#
# 1 50.1910 6.4134 11.5532 0.0000 0.0000 0.0000
# 2 6.4134 59.5786 -26.8501 0.0000 0.0000 0.0000
# 3 11.5532 -26.8501 50.4594 0.0000 0.0000 0.0000
# 4 0.0000 0.0000 0.0000 13.6526 0.0000 0.0000
# 5 0.0000 0.0000 0.0000 0.0000 37.2307 0.0000
# 6 0.0000 0.0000 0.0000 0.0000 0.0000 18.8582
#
#
#
# Elastic Compliance Matrix: (Units=1/GPa)
#
#
# Indices 1 2 3 4 5 6 
#
# 1 0.022695 -0.006294 -0.008546 0.000000 0.000000 0.000000
# 2 -0.006294 0.023825 0.014119 0.000000 0.000000 0.000000
# 3 -0.008546 0.014119 0.029287 0.000000 0.000000 0.000000
# 4 0.000000 0.000000 0.000000 0.073246 0.000000 0.000000
# 5 0.000000 0.000000 0.000000 0.000000 0.026860 0.000000
# 6 0.000000 0.000000 0.000000 0.000000 0.000000 0.053027
#
#
# Mechanical properties :
#
#
# Convention : Reuss Voigt Hill
#
# Bulk Modulus (GPa) = 13.44713 15.82909 14.63811
# Shear Modulus (GPa) = 19.59471 25.22247 22.40859
#
# Velocity S-wave (km/s) = 3.27137 3.71153 3.49838
# Velocity P-wave (km/s) = 4.64902 5.19736 4.93082
#
# Compressibility (1/GPa) = 0.07436529
#
# Stress axis : x y z
#
# Youngs Moduli (GPa) = 44.06218 41.97278 34.14455
#
# Poissons Ratio (x) = 0.26419 0.29178
# Poissons Ratio (y) = 0.27734 -0.48208
# Poissons Ratio (z) = 0.37653 -0.59260
#
# Static dielectric constant tensor:
#      x y z
#    x 3.206010 0.000000 0.000000 
#    y 0.000000 3.484740 0.000000 
#    z 0.000000 0.000000 3.311390 
# 
# 
# High freq. dielectric constant tensor:
#      x y z
#    x 1.699670 0.000000 0.000000 
#    y 0.000000 1.711700 0.000000 
#    z 0.000000 0.000000 1.713860 
# 
# From -- ./inp_files/21076.got.cif
#   From: 2010.03.12/outbox.cif.g09.slc.cpg/sg53_11_cif.got.tgz:21076.got - 2010.04.16 14:36:59.
