data_PCOD8220110
_publ_section_title
;
Structure prediction by ZEFSAII (Michael W. Deem and Ramdas Pophale) SiO2 
 PCOD8220110
Probable space group: P M N A
;
_chemical_formula_sum "Si O2"
_cell_formula_units_Z 64
_cell_length_a 15.278582
_cell_length_b 10.118528
_cell_length_c 21.892982
_cell_angle_alpha 90.000000
_cell_angle_beta 90.000000
_cell_angle_gamma 90.000000
_cell_volume 3384.584079
_symmetry_space_group_name_H-M "P M N A"
_symmetry_group_IT_number 53
_symmetry_cell_setting 'orthorhombic'
loop_
_space_group_symop_operation_xyz
x,y,z
1/2-x,-y,1/2+z
x,-y,-z
1/2-x,y,1/2-z
-x,-y,-z
1/2+x,y,1/2-z
-x,y,z
1/2+x,-y,1/2+z
loop_
_atom_site_type_symbol
_atom_site_label
_atom_site_fract_x
_atom_site_fract_y
_atom_site_fract_z
Si Si1 0.600755 0.648615 0.387972
Si Si2 0.772874 0.858859 0.071594
Si Si3 0.754333 0.846322 0.936575
Si Si4 0.401473 0.863923 0.843276
Si Si5 0.599560 0.651142 0.610471
Si Si6 0.848886 0.344117 0.249666
Si Si7 0.399475 0.624767 0.252707
Si Si8 0.178847 0.131782 0.696093
O O1 0.500000 0.686118 0.389465
O O2 0.645832 0.758542 0.430046
O O3 0.616762 0.499373 0.411485
O O4 0.638503 0.661746 0.319319
O O5 0.713815 0.827380 0.129748
O O6 0.801069 0.012638 0.076491
O O7 0.723276 0.835822 0.007147
O O8 0.666306 0.829358 0.897227
O O9 0.827926 0.738713 0.922414
O O10 0.500000 0.881096 0.869873
O O11 0.404671 0.744920 0.795291
O O12 0.373571 0.995280 0.806984
O O13 0.500000 0.693044 0.592607
O O14 0.608362 0.664084 0.683145
O O15 0.750000 0.289841 0.250000
O O16 0.849383 0.496000 0.273317
O O17 0.500000 0.583898 0.258671
O O18 0.387970 0.750054 0.209587
O O19 0.250000 0.119964 0.750000
#
# Coordination Sequence:
#
# PCOD8220110 Si02
#       8
#     8   8   8   8   8   8   8   8
#     4   9  19  35  56  84 116 150 184 228 285 342
#     4  10  22  39  57  80 113 150 193 237 283 341
#     4  10  23  41  57  81 113 156 197 232 283 343
#     4  11  23  39  59  85 116 151 194 245 290 333
#     4  10  21  37  58  87 120 151 189 232 281 347
#     4  11  20  35  59  88 118 151 188 235 292 338
#     4  10  20  34  54  88 122 148 183 232 290 349
#     4  11  21  36  59  87 112 147 191 239 293 342
#
# _framework density 18.909265000000001
#
# number of rings (size 3 to 8) (size 9 to 14) (size 15 to 20)
#    0.000    1.750    2.500    3.000    3.500    1.500 
#    0.000    8.125    0.000    0.000    0.000    2.625 
#    0.000    0.000    0.000    0.000    0.000    0.000 
#
# Total GULP energy -793428.491460 kJ/mol
# GULP energy per Si atom -12397.320179 kJ/mol
# Density = 1.886623 g / cm^3
# Si number density = 18.909265 Si / 1000 Ang^3
#
#
#
# Elastic Constant Matrix: (Units=GPa)
#
#
# Indices 1 2 3 4 5 6 
#
# 1 101.7691 41.9703 32.6598 0.0000 0.0000 0.0000
# 2 41.9703 96.3647 41.7051 0.0000 0.0000 0.0000
# 3 32.6598 41.7051 93.1803 0.0000 0.0000 0.0000
# 4 0.0000 0.0000 0.0000 21.3756 0.0000 0.0000
# 5 0.0000 0.0000 0.0000 0.0000 16.0542 0.0000
# 6 0.0000 0.0000 0.0000 0.0000 0.0000 25.9990
#
#
#
# Elastic Compliance Matrix: (Units=1/GPa)
#
#
# Indices 1 2 3 4 5 6 
#
# 1 0.012393 -0.004363 -0.002391 0.000000 0.000000 0.000000
# 2 -0.004363 0.014406 -0.004919 0.000000 0.000000 0.000000
# 3 -0.002391 -0.004919 0.013771 0.000000 0.000000 0.000000
# 4 0.000000 0.000000 0.000000 0.046782 0.000000 0.000000
# 5 0.000000 0.000000 0.000000 0.000000 0.062289 0.000000
# 6 0.000000 0.000000 0.000000 0.000000 0.000000 0.038463
#
#
# Mechanical properties :
#
#
# Convention : Reuss Voigt Hill
#
# Bulk Modulus (GPa) = 58.05369 58.22051 58.13710
# Shear Modulus (GPa) = 23.02121 24.35102 23.68611
#
# Velocity S-wave (km/s) = 3.49299 3.59246 3.54308
# Velocity P-wave (km/s) = 6.85827 6.93282 6.89564
#
# Compressibility (1/GPa) = 0.01722543
#
# Stress axis : x y z
#
# Youngs Moduli (GPa) = 80.69270 69.41524 72.61422
#
# Poissons Ratio (x) = 0.30284 0.17362
# Poissons Ratio (y) = 0.35204 0.35716
# Poissons Ratio (z) = 0.19294 0.34143
#
# Static dielectric constant tensor:
#      x y z
#    x 3.337900 0.000000 0.000000 
#    y 0.000000 3.638360 0.000000 
#    z 0.000000 0.000000 3.458230 
# 
# 
# High freq. dielectric constant tensor:
#      x y z
#    x 1.724560 0.000000 0.000000 
#    y 0.000000 1.747480 0.000000 
#    z 0.000000 0.000000 1.725840 
# 
# From -- ./inp_files/35316.got.cif
#   From: 2010.03.12/outbox.cif.g09.slc.cpg/sg53_18_cif.got.tgz:35316.got - 2010.04.16 14:36:59.
