data_PCOD8220541
_publ_section_title
;
Structure prediction by ZEFSAII (Michael W. Deem and Ramdas Pophale) SiO2 
 PCOD8220541
Probable space group: P M N A
;
_chemical_formula_sum "Si O2"
_cell_formula_units_Z 48
_cell_length_a 16.431499
_cell_length_b 15.591901
_cell_length_c 9.351687
_cell_angle_alpha 90.000000
_cell_angle_beta 90.000000
_cell_angle_gamma 90.000000
_cell_volume 2395.886365
_symmetry_space_group_name_H-M "P M N A"
_symmetry_group_IT_number 53
_symmetry_cell_setting 'orthorhombic'
loop_
_space_group_symop_operation_xyz
x,y,z
1/2-x,-y,1/2+z
x,-y,-z
1/2-x,y,1/2-z
-x,-y,-z
1/2+x,y,1/2-z
-x,y,z
1/2+x,-y,1/2+z
loop_
_atom_site_type_symbol
_atom_site_label
_atom_site_fract_x
_atom_site_fract_y
_atom_site_fract_z
Si Si1 0.156506 0.740491 0.296505
Si Si2 0.169683 0.892714 0.657786
Si Si3 0.593143 0.402824 0.609189
Si Si4 0.592895 0.279279 0.101082
Si Si5 0.168828 0.924050 0.333222
Si Si6 0.342223 0.576497 0.697340
O O1 0.250000 0.731646 0.250000
O O2 0.099360 0.684416 0.196371
O O3 0.148710 0.709983 0.460714
O O4 0.123463 0.838738 0.275201
O O5 0.250000 0.877216 0.750000
O O6 0.111760 0.810726 0.682123
O O7 0.196087 0.900538 0.493400
O O8 0.121900 0.984278 0.687624
O O9 0.500000 0.417612 0.561853
O O10 0.649786 0.396998 0.468896
O O11 0.622616 0.480235 0.712429
O O12 0.500000 0.277972 0.050876
O O13 0.606170 0.358334 0.207041
O O14 0.250000 0.942201 0.250000
O O15 0.250000 0.579358 0.750000
#
# Coordination Sequence:
#
# PCOD8220541 Si02
#       6
#     8   8   8   8   8   8
#     4  10  20  36  57  82 111 147 189 228 267 322
#     4   9  17  32  53  78 107 144 184 224 270 322
#     4  11  23  41  60  83 113 146 179 224 279 329
#     4  11  22  36  54  84 116 144 179 228 278 322
#     4   8  16  31  52  79 107 139 184 230 266 313
#     4  11  23  40  61  82 107 144 185 224 267 328
#
# _framework density 20.03434
#
# number of rings (size 3 to 8) (size 9 to 14) (size 15 to 20)
#    0.000    2.000    0.000    4.500    0.000    4.667 
#    0.000    9.167    0.000    0.000    0.000   11.667 
#    0.000    0.000    0.000    0.000    0.000    0.000 
#
# Total GULP energy -594725.680019 kJ/mol
# GULP energy per Si atom -12390.118334 kJ/mol
# Density = 1.998874 g / cm^3
# Si number density = 20.034340 Si / 1000 Ang^3
#
#
#
# Elastic Constant Matrix: (Units=GPa)
#
#
# Indices 1 2 3 4 5 6 
#
# 1 90.7162 51.2452 35.8028 0.0000 0.0000 0.0000
# 2 51.2452 155.9805 75.4224 0.0000 0.0000 0.0000
# 3 35.8028 75.4224 76.9651 0.0000 0.0000 0.0000
# 4 0.0000 0.0000 0.0000 31.8953 0.0000 0.0000
# 5 0.0000 0.0000 0.0000 0.0000 12.8016 0.0000
# 6 0.0000 0.0000 0.0000 0.0000 0.0000 14.3229
#
#
#
# Elastic Compliance Matrix: (Units=1/GPa)
#
#
# Indices 1 2 3 4 5 6 
#
# 1 0.014108 -0.002778 -0.003841 0.000000 0.000000 0.000000
# 2 -0.002778 0.012732 -0.011184 0.000000 0.000000 0.000000
# 3 -0.003841 -0.011184 0.025740 0.000000 0.000000 0.000000
# 4 0.000000 0.000000 0.000000 0.031353 0.000000 0.000000
# 5 0.000000 0.000000 0.000000 0.000000 0.078115 0.000000
# 6 0.000000 0.000000 0.000000 0.000000 0.000000 0.069818
#
#
# Mechanical properties :
#
#
# Convention : Reuss Voigt Hill
#
# Bulk Modulus (GPa) = 58.91396 72.06695 65.49045
# Shear Modulus (GPa) = 18.30631 22.55005 20.42818
#
# Velocity S-wave (km/s) = 3.02610 3.35859 3.19667
# Velocity P-wave (km/s) = 6.45601 7.14773 6.81065
#
# Compressibility (1/GPa) = 0.01697391
#
# Stress axis : x y z
#
# Youngs Moduli (GPa) = 70.87935 78.54381 38.85062
#
# Poissons Ratio (x) = 0.21820 0.14921
# Poissons Ratio (y) = 0.19690 0.43452
# Poissons Ratio (z) = 0.27222 0.87845
#
# Static dielectric constant tensor:
#      x y z
#    x 3.342480 0.000000 0.000000 
#    y 0.000000 4.321330 0.000000 
#    z 0.000000 0.000000 3.526150 
# 
# 
# High freq. dielectric constant tensor:
#      x y z
#    x 1.748580 0.000000 0.000000 
#    y 0.000000 1.813860 0.000000 
#    z 0.000000 0.000000 1.778670 
# 
# From -- ./inp_files/9942.got.cif
#   From: 2010.03.12/outbox.cif.g09.slc.cpg/sg53_5_cif.got.tgz:9942.got - 2010.04.16 14:36:59.
