data_PCOD8220800
_publ_section_title
;
Structure prediction by ZEFSAII (Michael W. Deem and Ramdas Pophale) SiO2 
 PCOD8220800
Probable space group: P M N A
;
_chemical_formula_sum "Si O2"
_cell_formula_units_Z 56
_cell_length_a 9.042052
_cell_length_b 20.905646
_cell_length_c 15.416990
_cell_angle_alpha 90.000000
_cell_angle_beta 90.000000
_cell_angle_gamma 90.000000
_cell_volume 2914.272667
_symmetry_space_group_name_H-M "P M N A"
_symmetry_group_IT_number 53
_symmetry_cell_setting 'orthorhombic'
loop_
_space_group_symop_operation_xyz
x,y,z
1/2-x,-y,1/2+z
x,-y,-z
1/2-x,y,1/2-z
-x,-y,-z
1/2+x,y,1/2-z
-x,y,z
1/2+x,-y,1/2+z
loop_
_atom_site_type_symbol
_atom_site_label
_atom_site_fract_x
_atom_site_fract_y
_atom_site_fract_z
Si Si1 0.826585 0.633679 0.163165
Si Si2 0.172510 0.149213 0.995178
Si Si3 0.329639 0.490162 0.901765
Si Si4 0.174233 0.083411 0.663305
Si Si5 0.170295 0.630305 0.662816
Si Si6 0.662309 0.030450 0.405670
Si Si7 0.328255 0.295328 0.488717
O O1 0.750000 0.660696 0.250000
O O2 0.770352 0.562565 0.143669
O O3 0.785709 0.681199 0.084912
O O4 0.000000 0.630208 0.179706
O O5 0.271568 0.127740 0.914664
O O6 0.213357 0.221125 0.020235
O O7 0.000000 0.142374 0.968993
O O8 0.208121 0.104765 0.079554
O O9 0.500000 0.467493 0.901289
O O10 0.306908 0.554861 0.848410
O O11 0.274467 0.500000 0.000000
O O12 0.250000 0.110253 0.750000
O O13 0.000000 0.088216 0.671593
O O14 0.219653 0.008650 0.650973
O O15 0.250000 0.653698 0.750000
O O16 0.233905 0.666013 0.579901
O O17 0.000000 0.648818 0.670866
O O18 0.500000 0.025591 0.360952
O O19 0.653158 0.000000 0.500000
O O20 0.500000 0.308022 0.469710
#
# Coordination Sequence:
#
# PCOD8220800 Si02
#       7
#     8   8   8   8   8   8   8
#     4  11  23  37  57  84 116 152 191 236 287 345
#     4   9  19  37  58  79 109 146 183 224 275 331
#     4  10  20  37  60  86 114 145 185 237 294 346
#     4  11  21  33  53  82 114 144 181 227 272 326
#     4  11  23  39  61  85 113 148 190 240 291 346
#     4   8  15  31  54  77 103 136 171 213 265 316
#     4  10  22  40  60  84 115 153 195 237 284 341
#
# _framework density 19.215771
#
# number of rings (size 3 to 8) (size 9 to 14) (size 15 to 20)
#    0.000    2.000    1.429    3.429    0.000    6.857 
#    0.000    2.143    0.000    0.000    0.000    0.000 
#    0.000    0.000    0.000    0.000    0.000    0.000 
#
# Total GULP energy -694465.352068 kJ/mol
# GULP energy per Si atom -12401.167001 kJ/mol
# Density = 1.917204 g / cm^3
# Si number density = 19.215771 Si / 1000 Ang^3
#
#
#
# Elastic Constant Matrix: (Units=GPa)
#
#
# Indices 1 2 3 4 5 6 
#
# 1 107.1904 30.9989 41.6303 0.0000 0.0000 0.0000
# 2 30.9989 83.7884 5.4019 0.0000 0.0000 0.0000
# 3 41.6303 5.4019 71.8993 0.0000 0.0000 0.0000
# 4 0.0000 0.0000 0.0000 12.2723 0.0000 0.0000
# 5 0.0000 0.0000 0.0000 0.0000 34.5409 0.0000
# 6 0.0000 0.0000 0.0000 0.0000 0.0000 18.5037
#
#
#
# Elastic Compliance Matrix: (Units=1/GPa)
#
#
# Indices 1 2 3 4 5 6 
#
# 1 0.013556 -0.004531 -0.007508 0.000000 0.000000 0.000000
# 2 -0.004531 0.013507 0.001609 0.000000 0.000000 0.000000
# 3 -0.007508 0.001609 0.018135 0.000000 0.000000 0.000000
# 4 0.000000 0.000000 0.000000 0.081485 0.000000 0.000000
# 5 0.000000 0.000000 0.000000 0.000000 0.028951 0.000000
# 6 0.000000 0.000000 0.000000 0.000000 0.000000 0.054043
#
#
# Mechanical properties :
#
#
# Convention : Reuss Voigt Hill
#
# Bulk Modulus (GPa) = 41.09063 46.54891 43.81977
# Shear Modulus (GPa) = 20.95112 25.38651 23.16882
#
# Velocity S-wave (km/s) = 3.30556 3.63868 3.47611
# Velocity P-wave (km/s) = 5.99994 6.47535 6.24217
#
# Compressibility (1/GPa) = 0.02433645
#
# Stress axis : x y z
#
# Youngs Moduli (GPa) = 73.77000 74.03319 55.14231
#
# Poissons Ratio (x) = 0.33545 0.41403
# Poissons Ratio (y) = 0.33426 -0.08871
# Poissons Ratio (z) = 0.55389 -0.11910
#
# Static dielectric constant tensor:
#      x y z
#    x 3.483550 0.000000 0.000000 
#    y 0.000000 3.672010 0.000000 
#    z 0.000000 0.000000 3.534170 
# 
# 
# High freq. dielectric constant tensor:
#      x y z
#    x 1.747030 0.000000 0.000000 
#    y 0.000000 1.742010 0.000000 
#    z 0.000000 0.000000 1.743290 
# 
# From -- ./inp_files/20625.got.cif
#   From: 2010.03.12/outbox.cif.g09.slc.cpg/sg53_11_cif.got.tgz:20625.got - 2010.04.16 14:36:59.
