data_PCOD8220695
_publ_section_title
;
Structure prediction by ZEFSAII (Michael W. Deem and Ramdas Pophale) SiO2 
 PCOD8220695
Probable space group: P M N A
;
_chemical_formula_sum "Si O2"
_cell_formula_units_Z 64
_cell_length_a 9.120714
_cell_length_b 11.816972
_cell_length_c 31.116370
_cell_angle_alpha 90.000000
_cell_angle_beta 90.000000
_cell_angle_gamma 90.000000
_cell_volume 3353.698149
_symmetry_space_group_name_H-M "P M N A"
_symmetry_group_IT_number 53
_symmetry_cell_setting 'orthorhombic'
loop_
_space_group_symop_operation_xyz
x,y,z
1/2-x,-y,1/2+z
x,-y,-z
1/2-x,y,1/2-z
-x,-y,-z
1/2+x,y,1/2-z
-x,y,z
1/2+x,-y,1/2+z
loop_
_atom_site_type_symbol
_atom_site_label
_atom_site_fract_x
_atom_site_fract_y
_atom_site_fract_z
Si Si1 0.829369 0.752761 0.946298
Si Si2 0.828522 0.271501 0.292433
Si Si3 0.171400 0.986883 0.707190
Si Si4 0.827653 0.377938 0.517461
Si Si5 0.670322 0.023898 0.049168
Si Si6 0.331214 0.355399 0.605858
Si Si7 0.170757 0.861270 0.373269
Si Si8 0.834491 0.396781 0.135011
O O1 0.763132 0.872410 0.931386
O O2 0.797790 0.656266 0.911278
O O3 0.000000 0.767014 0.955649
O O4 0.749227 0.718985 0.990019
O O5 0.750000 0.318018 0.250000
O O6 0.781001 0.142430 0.301514
O O7 0.781324 0.348891 0.331764
O O8 0.000000 0.283529 0.285690
O O9 0.250000 0.034384 0.750000
O O10 0.000000 0.996617 0.715670
O O11 0.219181 0.055718 0.665105
O O12 0.782118 0.500000 0.500000
O O13 0.773122 0.367462 0.565407
O O14 0.000000 0.356643 0.515850
O O15 0.500000 0.057225 0.051257
O O16 0.702122 0.917027 0.080044
O O17 0.718872 0.000000 0.000000
O O18 0.500000 0.336382 0.592105
O O19 0.271071 0.249350 0.632890
O O20 0.316381 0.468240 0.634170
O O21 0.000000 0.828920 0.369259
O O22 0.000000 0.363204 0.148519
#
# Coordination Sequence:
#
# PCOD8220695 Si02
#       8
#     8   8   8   8   8   8   8   8
#     4  11  22  36  57  83 113 146 186 237 286 334
#     4  10  20  36  61  89 116 146 180 224 281 340
#     4   9  19  36  59  87 116 146 184 235 287 341
#     4  11  22  36  56  81 110 149 195 236 279 336
#     4  10  21  37  56  80 114 151 189 237 288 343
#     4  11  23  39  58  81 115 153 191 236 284 335
#     4  10  21  38  58  83 117 153 193 239 290 345
#     4  10  22  38  55  81 115 147 182 229 280 330
#
# _framework density 19.083410000000001
#
# number of rings (size 3 to 8) (size 9 to 14) (size 15 to 20)
#    0.000    1.750    1.250    3.000    0.000    6.250 
#    0.000    0.625    0.000    1.500    0.000    0.000 
#    0.000    0.000    0.000    0.000    0.000    0.000 
#
# Total GULP energy -793890.897828 kJ/mol
# GULP energy per Si atom -12404.545279 kJ/mol
# Density = 1.903998 g / cm^3
# Si number density = 19.083410 Si / 1000 Ang^3
#
#
#
# Elastic Constant Matrix: (Units=GPa)
#
#
# Indices 1 2 3 4 5 6 
#
# 1 63.9808 46.6602 32.7849 0.0000 0.0000 0.0000
# 2 46.6602 98.7107 34.4903 0.0000 0.0000 0.0000
# 3 32.7849 34.4903 98.6969 0.0000 0.0000 0.0000
# 4 0.0000 0.0000 0.0000 27.6161 0.0000 0.0000
# 5 0.0000 0.0000 0.0000 0.0000 33.4503 0.0000
# 6 0.0000 0.0000 0.0000 0.0000 0.0000 32.9277
#
#
#
# Elastic Compliance Matrix: (Units=1/GPa)
#
#
# Indices 1 2 3 4 5 6 
#
# 1 0.025780 -0.010473 -0.004904 0.000000 0.000000 0.000000
# 2 -0.010473 0.015794 -0.002041 0.000000 0.000000 0.000000
# 3 -0.004904 -0.002041 0.012474 0.000000 0.000000 0.000000
# 4 0.000000 0.000000 0.000000 0.036211 0.000000 0.000000
# 5 0.000000 0.000000 0.000000 0.000000 0.029895 0.000000
# 6 0.000000 0.000000 0.000000 0.000000 0.000000 0.030370
#
#
# Mechanical properties :
#
#
# Convention : Reuss Voigt Hill
#
# Bulk Modulus (GPa) = 52.04528 54.36212 53.20370
# Shear Modulus (GPa) = 26.07394 28.62902 27.35148
#
# Velocity S-wave (km/s) = 3.70038 3.87745 3.78995
# Velocity P-wave (km/s) = 6.75195 6.97098 6.86234
#
# Compressibility (1/GPa) = 0.01921404
#
# Stress axis : x y z
#
# Youngs Moduli (GPa) = 38.78961 63.31515 80.16655
#
# Poissons Ratio (x) = 0.66308 0.39312
# Poissons Ratio (y) = 0.40623 0.16358
# Poissons Ratio (z) = 0.19022 0.12920
#
# Static dielectric constant tensor:
#      x y z
#    x 3.482840 0.000000 0.000000 
#    y 0.000000 3.680230 0.000000 
#    z 0.000000 0.000000 3.447110 
# 
# 
# High freq. dielectric constant tensor:
#      x y z
#    x 1.746240 0.000000 0.000000 
#    y 0.000000 1.743310 0.000000 
#    z 0.000000 0.000000 1.734710 
# 
# From -- ./inp_files/38111.got.cif
#   From: 2010.03.12/outbox.cif.g09.slc.cpg/sg53_20_cif.got.tgz:38111.got - 2010.04.16 14:36:59.
