data_PCOD8220780
_publ_section_title
;
Structure prediction by ZEFSAII (Michael W. Deem and Ramdas Pophale) SiO2 
 PCOD8220780
Probable space group: P M N A
;
_chemical_formula_sum "Si O2"
_cell_formula_units_Z 48
_cell_length_a 8.676931
_cell_length_b 30.523793
_cell_length_c 9.104939
_cell_angle_alpha 90.000000
_cell_angle_beta 90.000000
_cell_angle_gamma 90.000000
_cell_volume 2411.469004
_symmetry_space_group_name_H-M "P M N A"
_symmetry_group_IT_number 53
_symmetry_cell_setting 'orthorhombic'
loop_
_space_group_symop_operation_xyz
x,y,z
1/2-x,-y,1/2+z
x,-y,-z
1/2-x,y,1/2-z
-x,-y,-z
1/2+x,y,1/2-z
-x,y,z
1/2+x,-y,1/2+z
loop_
_atom_site_type_symbol
_atom_site_label
_atom_site_fract_x
_atom_site_fract_y
_atom_site_fract_z
Si Si1 0.681896 0.122137 0.589315
Si Si2 0.321934 0.456770 0.405734
Si Si3 0.817273 0.711425 0.092683
Si Si4 0.318402 0.794470 0.590311
Si Si5 0.317946 0.381040 0.907469
Si Si6 0.678415 0.956263 0.908235
O O1 0.750000 0.116638 0.750000
O O2 0.500000 0.121796 0.603636
O O3 0.741953 0.167255 0.516887
O O4 0.733143 0.082698 0.486885
O O5 0.299793 0.500000 0.500000
O O6 0.250000 0.467858 0.250000
O O7 0.500000 0.443272 0.392171
O O8 0.227715 0.416934 0.474240
O O9 0.750000 0.724886 0.250000
O O10 0.748268 0.665412 0.038632
O O11 0.000000 0.707436 0.106171
O O12 0.765612 0.747953 0.975865
O O13 0.250000 0.801200 0.750000
O O14 0.500000 0.796945 0.604488
O O15 0.250000 0.394507 0.750000
O O16 0.500000 0.377780 0.893232
O O17 0.750000 0.964511 0.750000
O O18 0.500000 0.943613 0.893238
O O19 0.702695 0.000000 0.000000
#
# Coordination Sequence:
#
# PCOD8220780 Si02
#       6
#     8   8   8   8   8   8
#     4  11  23  40  62  89 119 154 197 243 295 351
#     4  11  24  41  62  88 118 153 194 239 289 346
#     4  10  20  37  59  85 116 151 194 239 287 344
#     4  10  23  39  58  85 117 153 193 240 291 347
#     4  11  22  38  61  88 119 155 195 240 291 345
#     4  11  24  41  62  89 121 157 197 242 292 347
#
# _framework density 19.904879000000001
#
# number of rings (size 3 to 8) (size 9 to 14) (size 15 to 20)
#    0.000    1.333    0.000    6.500    0.000   10.000 
#    0.000    1.667    0.000    0.000    0.000    0.000 
#    0.000    0.000    0.000    0.000    0.000    0.000 
#
# Total GULP energy -595469.841841 kJ/mol
# GULP energy per Si atom -12405.621705 kJ/mol
# Density = 1.985957 g / cm^3
# Si number density = 19.904879 Si / 1000 Ang^3
#
#
#
# Elastic Constant Matrix: (Units=GPa)
#
#
# Indices 1 2 3 4 5 6 
#
# 1 104.4677 49.3545 45.8625 0.0000 0.0000 0.0000
# 2 49.3545 103.3655 49.8436 0.0000 0.0000 0.0000
# 3 45.8625 49.8436 128.4107 0.0000 0.0000 0.0000
# 4 0.0000 0.0000 0.0000 67.8942 0.0000 0.0000
# 5 0.0000 0.0000 0.0000 0.0000 35.8390 0.0000
# 6 0.0000 0.0000 0.0000 0.0000 0.0000 234.7093
#
#
#
# Elastic Compliance Matrix: (Units=1/GPa)
#
#
# Indices 1 2 3 4 5 6 
#
# 1 0.013117 -0.004926 -0.002773 0.000000 0.000000 0.000000
# 2 -0.004926 0.013752 -0.003579 0.000000 0.000000 0.000000
# 3 -0.002773 -0.003579 0.010167 0.000000 0.000000 0.000000
# 4 0.000000 0.000000 0.000000 0.014729 0.000000 0.000000
# 5 0.000000 0.000000 0.000000 0.000000 0.027903 0.000000
# 6 0.000000 0.000000 0.000000 0.000000 0.000000 0.004261
#
#
# Mechanical properties :
#
#
# Convention : Reuss Voigt Hill
#
# Bulk Modulus (GPa) = 69.05511 69.59613 69.32562
# Shear Modulus (GPa) = 44.91988 80.43405 62.67696
#
# Velocity S-wave (km/s) = 4.75566 6.36372 5.61753
# Velocity P-wave (km/s) = 8.05747 9.43590 8.77380
#
# Compressibility (1/GPa) = 0.01448119
#
# Stress axis : x y z
#
# Youngs Moduli (GPa) = 76.23829 72.71634 98.35863
#
# Poissons Ratio (x) = 0.35819 0.27272
# Poissons Ratio (y) = 0.37554 0.35199
# Poissons Ratio (z) = 0.21138 0.26023
#
# Static dielectric constant tensor:
#      x y z
#    x 3.759550 0.000000 0.000000 
#    y 0.000000 3.853250 0.000000 
#    z 0.000000 0.000000 3.557900 
# 
# 
# High freq. dielectric constant tensor:
#      x y z
#    x 1.789480 0.000000 0.000000 
#    y 0.000000 1.793630 0.000000 
#    z 0.000000 0.000000 1.784820 
# 
# From -- ./inp_files/6624.got.cif
#   From: 2010.03.12/outbox.cif.g09.slc.cpg/sg53_4_cif.got.tgz:6624.got - 2010.04.16 14:36:59.
