data_PCOD8220554
_publ_section_title
;
Structure prediction by ZEFSAII (Michael W. Deem and Ramdas Pophale) SiO2 
 PCOD8220554
Probable space group: P M N A
;
_chemical_formula_sum "Si O2"
_cell_formula_units_Z 64
_cell_length_a 8.990805
_cell_length_b 23.781701
_cell_length_c 15.438389
_cell_angle_alpha 90.000000
_cell_angle_beta 90.000000
_cell_angle_gamma 90.000000
_cell_volume 3300.984405
_symmetry_space_group_name_H-M "P M N A"
_symmetry_group_IT_number 53
_symmetry_cell_setting 'orthorhombic'
loop_
_space_group_symop_operation_xyz
x,y,z
1/2-x,-y,1/2+z
x,-y,-z
1/2-x,y,1/2-z
-x,-y,-z
1/2+x,y,1/2-z
-x,y,z
1/2+x,-y,1/2+z
loop_
_atom_site_type_symbol
_atom_site_label
_atom_site_fract_x
_atom_site_fract_y
_atom_site_fract_z
Si Si1 0.826353 0.253946 0.597495
Si Si2 0.673427 0.365907 0.338225
Si Si3 0.676649 0.364186 0.662276
Si Si4 0.327882 0.065998 0.005859
Si Si5 0.328414 0.752421 0.583293
Si Si6 0.326898 0.872032 0.660662
Si Si7 0.323080 0.563241 0.500083
Si Si8 0.327031 0.868852 0.162335
O O1 0.730802 0.301140 0.645050
O O2 0.779422 0.247845 0.498284
O O3 0.790549 0.196282 0.646467
O O4 0.000000 0.269314 0.601804
O O5 0.750000 0.385138 0.250000
O O6 0.500000 0.376671 0.327471
O O7 0.709088 0.300967 0.357351
O O8 0.738331 0.404051 0.415975
O O9 0.750000 0.387494 0.750000
O O10 0.500000 0.364022 0.671350
O O11 0.732650 0.404616 0.585429
O O12 0.500000 0.082213 0.019895
O O13 0.234817 0.088413 0.085970
O O14 0.266158 0.094692 0.918220
O O15 0.303619 0.000000 0.000000
O O16 0.500000 0.750403 0.551459
O O17 0.293685 0.807073 0.639783
O O18 0.250000 0.888751 0.750000
O O19 0.500000 0.883822 0.670351
O O20 0.259205 0.500000 0.500000
O O21 0.500000 0.563131 0.501577
O O22 0.250000 0.889800 0.250000
O O23 0.500000 0.880032 0.173683
#
# Coordination Sequence:
#
# PCOD8220554 Si02
#       8
#     8   8   8   8   8   8   8   8
#     4  11  21  35  59  88 117 150 190 236 289 346
#     4  10  20  36  57  84 114 147 188 230 283 340
#     4  11  22  38  59  85 118 152 192 237 286 347
#     4  10  22  42  63  84 116 155 198 247 293 339
#     4  10  20  36  58  86 117 153 189 233 291 347
#     4  11  23  38  61  89 121 156 194 240 292 351
#     4   9  19  37  59  80 110 154 195 235 286 340
#     4  10  22  38  58  86 115 149 188 233 288 343
#
# _framework density 19.388155999999999
#
# number of rings (size 3 to 8) (size 9 to 14) (size 15 to 20)
#    0.000    1.750    2.500    1.875    0.000    4.750 
#    0.000    1.250    0.000    2.625    0.000    0.000 
#    0.000    0.000    0.000    0.000    0.000    0.000 
#
# Total GULP energy -793885.464278 kJ/mol
# GULP energy per Si atom -12404.460379 kJ/mol
# Density = 1.934403 g / cm^3
# Si number density = 19.388156 Si / 1000 Ang^3
#
#
#
# Elastic Constant Matrix: (Units=GPa)
#
#
# Indices 1 2 3 4 5 6 
#
# 1 61.0104 42.6390 59.2262 0.0000 0.0000 0.0000
# 2 42.6390 107.4689 64.4833 0.0000 0.0000 0.0000
# 3 59.2262 64.4833 187.1204 0.0000 0.0000 0.0000
# 4 0.0000 0.0000 0.0000 8.9901 0.0000 0.0000
# 5 0.0000 0.0000 0.0000 0.0000 40.0488 0.0000
# 6 0.0000 0.0000 0.0000 0.0000 0.0000 15.6928
#
#
#
# Elastic Compliance Matrix: (Units=1/GPa)
#
#
# Indices 1 2 3 4 5 6 
#
# 1 0.027421 -0.007150 -0.006215 0.000000 0.000000 0.000000
# 2 -0.007150 0.013595 -0.002422 0.000000 0.000000 0.000000
# 3 -0.006215 -0.002422 0.008146 0.000000 0.000000 0.000000
# 4 0.000000 0.000000 0.000000 0.111233 0.000000 0.000000
# 5 0.000000 0.000000 0.000000 0.000000 0.024970 0.000000
# 6 0.000000 0.000000 0.000000 0.000000 0.000000 0.063723
#
#
# Mechanical properties :
#
#
# Convention : Reuss Voigt Hill
#
# Bulk Modulus (GPa) = 56.85799 76.47740 66.66770
# Shear Modulus (GPa) = 17.45044 25.56309 21.50676
#
# Velocity S-wave (km/s) = 3.00335 3.63504 3.33419
# Velocity P-wave (km/s) = 6.43557 7.55970 7.02017
#
# Compressibility (1/GPa) = 0.01758768
#
# Stress axis : x y z
#
# Youngs Moduli (GPa) = 36.46800 73.55600 122.76117
#
# Poissons Ratio (x) = 0.52595 0.76298
# Poissons Ratio (y) = 0.26076 0.29730
# Poissons Ratio (z) = 0.22665 0.17814
#
# Static dielectric constant tensor:
#      x y z
#    x 3.382870 0.000000 0.000000 
#    y 0.000000 3.696250 0.000000 
#    z 0.000000 0.000000 3.626150 
# 
# 
# High freq. dielectric constant tensor:
#      x y z
#    x 1.740200 0.000000 0.000000 
#    y 0.000000 1.755210 0.000000 
#    z 0.000000 0.000000 1.768330 
# 
# From -- ./inp_files/20932.got.cif
#   From: 2010.03.12/outbox.cif.g09.slc.cpg/sg53_11_cif.got.tgz:20932.got - 2010.04.16 14:36:59.
