data_PCOD8220417
_publ_section_title
;
Structure prediction by ZEFSAII (Michael W. Deem and Ramdas Pophale) SiO2 
 PCOD8220417
Probable space group: P M N A
;
_chemical_formula_sum "Si O2"
_cell_formula_units_Z 48
_cell_length_a 8.414414
_cell_length_b 10.047707
_cell_length_c 28.115861
_cell_angle_alpha 90.000000
_cell_angle_beta 90.000000
_cell_angle_gamma 90.000000
_cell_volume 2377.071394
_symmetry_space_group_name_H-M "P M N A"
_symmetry_group_IT_number 53
_symmetry_cell_setting 'orthorhombic'
loop_
_space_group_symop_operation_xyz
x,y,z
1/2-x,-y,1/2+z
x,-y,-z
1/2-x,y,1/2-z
-x,-y,-z
1/2+x,y,1/2-z
-x,y,z
1/2+x,-y,1/2+z
loop_
_atom_site_type_symbol
_atom_site_label
_atom_site_fract_x
_atom_site_fract_y
_atom_site_fract_z
Si Si1 0.317064 0.492639 0.945485
Si Si2 0.317355 0.257809 0.395762
Si Si3 0.313953 0.653165 0.801236
Si Si4 0.683165 0.007461 0.054534
Si Si5 0.318998 0.758077 0.397054
Si Si6 0.685395 0.636856 0.299433
O O1 0.500000 0.449763 0.939865
O O2 0.292938 0.636526 0.922481
O O3 0.205778 0.385475 0.920375
O O4 0.265736 0.500000 0.000000
O O5 0.500000 0.298164 0.402208
O O6 0.272407 0.254932 0.340160
O O7 0.289748 0.113034 0.417714
O O8 0.250000 0.697300 0.750000
O O9 0.500000 0.678660 0.804118
O O10 0.278259 0.498502 0.811622
O O11 0.500000 0.050934 0.056970
O O12 0.702687 0.864715 0.079445
O O13 0.740869 0.000000 0.000000
O O14 0.500000 0.802917 0.405609
O O15 0.283190 0.744766 0.340672
O O16 0.750000 0.698071 0.250000
O O17 0.500000 0.600999 0.294869
#
# Coordination Sequence:
#
# PCOD8220417 Si02
#       6
#     8   8   8   8   8   8
#     4  11  23  38  59  88 120 156 202 254 307 363
#     4  12  24  40  62  90 123 160 206 254 307 367
#     4  11  21  36  61  91 125 161 201 249 307 363
#     4  11  25  44  64  87 120 163 208 254 311 374
#     4  11  23  39  61  90 122 158 203 251 304 365
#     4  10  20  35  58  90 124 158 199 246 300 360
#
# _framework density 20.192916
#
# number of rings (size 3 to 8) (size 9 to 14) (size 15 to 20)
#    0.000    1.000    1.667    7.000    0.000    8.667 
#    0.000    0.833    0.000    2.000    0.000    0.000 
#    0.000    0.000    0.000    0.000    0.000    0.000 
#
# Total GULP energy -595553.345021 kJ/mol
# GULP energy per Si atom -12407.361355 kJ/mol
# Density = 2.014696 g / cm^3
# Si number density = 20.192916 Si / 1000 Ang^3
#
#
#
# Elastic Constant Matrix: (Units=GPa)
#
#
# Indices 1 2 3 4 5 6 
#
# 1 73.8027 13.3296 41.6756 0.0000 0.0000 0.0000
# 2 13.3296 78.6967 48.4484 0.0000 0.0000 0.0000
# 3 41.6756 48.4484 158.2705 0.0000 0.0000 0.0000
# 4 0.0000 0.0000 0.0000 33.8283 0.0000 0.0000
# 5 0.0000 0.0000 0.0000 0.0000 19.1231 0.0000
# 6 0.0000 0.0000 0.0000 0.0000 0.0000 29.7444
#
#
#
# Elastic Compliance Matrix: (Units=1/GPa)
#
#
# Indices 1 2 3 4 5 6 
#
# 1 0.015918 -0.000143 -0.004148 0.000000 0.000000 0.000000
# 2 -0.000143 0.015659 -0.004756 0.000000 0.000000 0.000000
# 3 -0.004148 -0.004756 0.008866 0.000000 0.000000 0.000000
# 4 0.000000 0.000000 0.000000 0.029561 0.000000 0.000000
# 5 0.000000 0.000000 0.000000 0.000000 0.052293 0.000000
# 6 0.000000 0.000000 0.000000 0.000000 0.000000 0.033620
#
#
# Mechanical properties :
#
#
# Convention : Reuss Voigt Hill
#
# Bulk Modulus (GPa) = 44.74176 57.51967 51.13072
# Shear Modulus (GPa) = 27.55442 30.36025 28.95733
#
# Velocity S-wave (km/s) = 3.69800 3.88172 3.79097
# Velocity P-wave (km/s) = 6.35916 6.97404 6.67368
#
# Compressibility (1/GPa) = 0.02235048
#
# Stress axis : x y z
#
# Youngs Moduli (GPa) = 62.82361 63.86087 112.78675
#
# Poissons Ratio (x) = 0.00911 0.46781
# Poissons Ratio (y) = 0.00896 0.53640
# Poissons Ratio (z) = 0.26058 0.30371
#
# Static dielectric constant tensor:
#      x y z
#    x 3.624840 0.000000 0.000000 
#    y 0.000000 3.311620 0.000000 
#    z 0.000000 0.000000 4.019280 
# 
# 
# High freq. dielectric constant tensor:
#      x y z
#    x 1.801290 0.000000 0.000000 
#    y 0.000000 1.761240 0.000000 
#    z 0.000000 0.000000 1.808500 
# 
# From -- ./inp_files/37713.got.cif
#   From: 2010.03.12/outbox.cif.g09.slc.cpg/sg53_19_cif.got.tgz:37713.got - 2010.04.16 14:36:59.
