data_PCOD8220270
_publ_section_title
;
Structure prediction by ZEFSAII (Michael W. Deem and Ramdas Pophale) SiO2 
 PCOD8220270
Probable space group: P M N A
;
_chemical_formula_sum "Si O2"
_cell_formula_units_Z 56
_cell_length_a 8.902459
_cell_length_b 22.147781
_cell_length_c 14.455793
_cell_angle_alpha 90.000000
_cell_angle_beta 90.000000
_cell_angle_gamma 90.000000
_cell_volume 2850.244547
_symmetry_space_group_name_H-M "P M N A"
_symmetry_group_IT_number 53
_symmetry_cell_setting 'orthorhombic'
loop_
_space_group_symop_operation_xyz
x,y,z
1/2-x,-y,1/2+z
x,-y,-z
1/2-x,y,1/2-z
-x,-y,-z
1/2+x,y,1/2-z
-x,y,z
1/2+x,-y,1/2+z
loop_
_atom_site_type_symbol
_atom_site_label
_atom_site_fract_x
_atom_site_fract_y
_atom_site_fract_z
Si Si1 0.823467 0.751059 0.150064
Si Si2 0.678316 0.534027 0.155701
Si Si3 0.174263 0.405559 0.158645
Si Si4 0.673124 0.367003 0.539697
Si Si5 0.676919 0.896242 0.842998
Si Si6 0.674337 0.856334 0.039019
Si Si7 0.326017 0.968178 0.159026
O O1 0.750000 0.745764 0.250000
O O2 0.772975 0.694583 0.087392
O O3 0.774253 0.810974 0.097341
O O4 0.000000 0.753042 0.164482
O O5 0.750000 0.560375 0.250000
O O6 0.500000 0.530390 0.164271
O O7 0.744782 0.468345 0.135087
O O8 0.723001 0.578392 0.073176
O O9 0.250000 0.375934 0.250000
O O10 0.000000 0.418594 0.179421
O O11 0.194160 0.360936 0.071297
O O12 0.500000 0.381470 0.564007
O O13 0.750000 0.868787 0.750000
O O14 0.500000 0.896159 0.830288
O O15 0.736837 0.964521 0.860790
O O16 0.721441 0.854922 0.930966
O O17 0.500000 0.839216 0.052764
O O18 0.706067 0.924576 0.072841
O O19 0.250000 0.939919 0.250000
O O20 0.500000 0.972153 0.180699
#
# Coordination Sequence:
#
# PCOD8220270 Si02
#       7
#     8   8   8   8   8   8   8
#     4  11  24  41  59  80 107 139 178 221 265 314
#     4  11  21  33  54  84 115 145 178 218 266 320
#     4  10  20  36  57  81 111 143 177 219 266 316
#     4  10  22  39  57  78 107 144 182 222 267 313
#     4   9  18  33  53  78 108 141 177 219 266 317
#     4  10  20  35  55  78 106 142 181 220 266 317
#     4   9  17  30  50  77 108 140 174 215 265 319
#
# _framework density 19.647438000000001
#
# number of rings (size 3 to 8) (size 9 to 14) (size 15 to 20)
#    0.000    2.000    0.000    4.714    0.000    9.143 
#    0.000    0.714    0.000    7.714    0.000    0.000 
#    0.000    0.000    0.000    0.000    0.000    0.000 
#
# Total GULP energy -694405.714541 kJ/mol
# GULP energy per Si atom -12400.102045 kJ/mol
# Density = 1.960272 g / cm^3
# Si number density = 19.647438 Si / 1000 Ang^3
#
#
#
# Elastic Constant Matrix: (Units=GPa)
#
#
# Indices 1 2 3 4 5 6 
#
# 1 87.2617 33.4951 56.6613 0.0000 0.0000 0.0000
# 2 33.4951 61.9220 52.8724 0.0000 0.0000 0.0000
# 3 56.6613 52.8724 156.8922 0.0000 0.0000 0.0000
# 4 0.0000 0.0000 0.0000 30.4942 0.0000 0.0000
# 5 0.0000 0.0000 0.0000 0.0000 35.0977 0.0000
# 6 0.0000 0.0000 0.0000 0.0000 0.0000 1.3350
#
#
#
# Elastic Compliance Matrix: (Units=1/GPa)
#
#
# Indices 1 2 3 4 5 6 
#
# 1 0.016104 -0.005258 -0.004044 0.000000 0.000000 0.000000
# 2 -0.005258 0.024390 -0.006321 0.000000 0.000000 0.000000
# 3 -0.004044 -0.006321 0.009964 0.000000 0.000000 0.000000
# 4 0.000000 0.000000 0.000000 0.032793 0.000000 0.000000
# 5 0.000000 0.000000 0.000000 0.000000 0.028492 0.000000
# 6 0.000000 0.000000 0.000000 0.000000 0.000000 0.749059
#
#
# Mechanical properties :
#
#
# Convention : Reuss Voigt Hill
#
# Bulk Modulus (GPa) = 52.04690 65.79263 58.91977
# Shear Modulus (GPa) = 5.56513 24.25520 14.91016
#
# Velocity S-wave (km/s) = 1.68483 3.51739 2.75778
# Velocity P-wave (km/s) = 5.50752 7.07498 6.33988
#
# Compressibility (1/GPa) = 0.01921344
#
# Stress axis : x y z
#
# Youngs Moduli (GPa) = 62.09673 40.99967 100.35837
#
# Poissons Ratio (x) = 0.21558 0.40584
# Poissons Ratio (y) = 0.32651 0.63433
# Poissons Ratio (z) = 0.25111 0.25914
#
# Static dielectric constant tensor:
#      x y z
#    x 3.551960 0.000000 0.000000 
#    y 0.000000 3.380560 0.000000 
#    z 0.000000 0.000000 3.873210 
# 
# 
# High freq. dielectric constant tensor:
#      x y z
#    x 1.763340 0.000000 0.000000 
#    y 0.000000 1.738570 0.000000 
#    z 0.000000 0.000000 1.781380 
# 
# From -- ./inp_files/20554.got.cif
#   From: 2010.03.12/outbox.cif.g09.slc.cpg/sg53_11_cif.got.tgz:20554.got - 2010.04.16 14:36:59.
