data_PCOD8220406
_publ_section_title
;
Structure prediction by ZEFSAII (Michael W. Deem and Ramdas Pophale) SiO2 
 PCOD8220406
Probable space group: P M N A
;
_chemical_formula_sum "Si O2"
_cell_formula_units_Z 36
_cell_length_a 9.447229
_cell_length_b 9.294294
_cell_length_c 19.292649
_cell_angle_alpha 90.000000
_cell_angle_beta 90.000000
_cell_angle_gamma 90.000000
_cell_volume 1693.997293
_symmetry_space_group_name_H-M "P M N A"
_symmetry_group_IT_number 53
_symmetry_cell_setting 'orthorhombic'
loop_
_space_group_symop_operation_xyz
x,y,z
1/2-x,-y,1/2+z
x,-y,-z
1/2-x,y,1/2-z
-x,-y,-z
1/2+x,y,1/2-z
-x,y,z
1/2+x,-y,1/2+z
loop_
_atom_site_type_symbol
_atom_site_label
_atom_site_fract_x
_atom_site_fract_y
_atom_site_fract_z
Si Si1 0.842611 0.952835 0.137324
Si Si2 0.834798 0.284228 0.962621
Si Si3 0.664472 0.734775 0.625385
Si Si4 0.250000 0.746585 0.250000
Si Si5 0.339070 0.530915 0.137236
O O1 0.776633 0.863033 0.073189
O O2 0.848420 0.852928 0.205383
O O3 0.000000 0.994941 0.114321
O O4 0.771777 0.109478 0.149336
O O5 0.745948 0.415174 0.930347
O O6 0.000000 0.309842 0.943456
O O7 0.810689 0.275885 0.043482
O O8 0.500000 0.710506 0.645779
O O9 0.759779 0.614031 0.662931
O O10 0.342015 0.647205 0.199173
O O11 0.500000 0.496373 0.116285
#
# Coordination Sequence:
#
# PCOD8220406 Si02
#       5
#     8   8   8   4   8
#     4   9  18  35  59  81 104 140 187 233 271 320
#     4   9  18  35  59  85 113 145 181 222 272 329
#     4  10  20  35  58  87 113 141 181 228 277 326
#     4  10  22  40  56  74 106 148 190 228 276 328
#     4  11  23  37  56  82 114 150 184 223 271 325
#
# _framework density 21.25151
#
# number of rings (size 3 to 8) (size 9 to 14) (size 15 to 20)
#    0.000    2.222    0.000    2.667    0.000    9.778 
#    0.000    7.778    0.000    6.667    0.000    0.000 
#    0.000    0.000    0.000    0.000    0.000    0.000 
#
# Total GULP energy -446190.592407 kJ/mol
# GULP energy per Si atom -12394.183122 kJ/mol
# Density = 2.120314 g / cm^3
# Si number density = 21.251510 Si / 1000 Ang^3
#
#
#
# Elastic Constant Matrix: (Units=GPa)
#
#
# Indices 1 2 3 4 5 6 
#
# 1 93.5327 51.9718 16.0024 0.0000 0.0000 0.0000
# 2 51.9718 178.1975 31.6052 0.0000 0.0000 0.0000
# 3 16.0024 31.6052 67.1620 0.0000 0.0000 0.0000
# 4 0.0000 0.0000 0.0000 15.2828 0.0000 0.0000
# 5 0.0000 0.0000 0.0000 0.0000 13.2483 0.0000
# 6 0.0000 0.0000 0.0000 0.0000 0.0000 21.6559
#
#
#
# Elastic Compliance Matrix: (Units=1/GPa)
#
#
# Indices 1 2 3 4 5 6 
#
# 1 0.012882 -0.003505 -0.001420 0.000000 0.000000 0.000000
# 2 -0.003505 0.007077 -0.002495 0.000000 0.000000 0.000000
# 3 -0.001420 -0.002495 0.016402 0.000000 0.000000 0.000000
# 4 0.000000 0.000000 0.000000 0.065433 0.000000 0.000000
# 5 0.000000 0.000000 0.000000 0.000000 0.075481 0.000000
# 6 0.000000 0.000000 0.000000 0.000000 0.000000 0.046177
#
#
# Mechanical properties :
#
#
# Convention : Reuss Voigt Hill
#
# Bulk Modulus (GPa) = 46.46771 59.78346 53.12559
# Shear Modulus (GPa) = 20.36950 25.99159 23.18055
#
# Velocity S-wave (km/s) = 3.09932 3.50100 3.30627
# Velocity P-wave (km/s) = 5.89243 6.67347 6.29507
#
# Compressibility (1/GPa) = 0.02152032
#
# Stress axis : x y z
#
# Youngs Moduli (GPa) = 77.62713 141.31138 60.96916
#
# Poissons Ratio (x) = 0.49533 0.08657
# Poissons Ratio (y) = 0.27210 0.15211
# Poissons Ratio (z) = 0.11022 0.35256
#
# Static dielectric constant tensor:
#      x y z
#    x 3.416420 0.000000 0.000000 
#    y 0.000000 4.324180 0.000000 
#    z 0.000000 0.000000 3.639860 
# 
# 
# High freq. dielectric constant tensor:
#      x y z
#    x 1.791330 0.000000 0.000000 
#    y 0.000000 1.857440 0.000000 
#    z 0.000000 0.000000 1.823980 
# 
# From -- ./inp_files/30151.got.cif
#   From: 2010.03.12/outbox.cif.g09.slc.cpg/sg53_16_cif.got.tgz:30151.got - 2010.04.16 14:36:59.
