data_PCOD8220792
_publ_section_title
;
Structure prediction by ZEFSAII (Michael W. Deem and Ramdas Pophale) SiO2 
 PCOD8220792
Probable space group: P M N A
;
_chemical_formula_sum "Si O2"
_cell_formula_units_Z 48
_cell_length_a 8.892700
_cell_length_b 10.062454
_cell_length_c 27.860498
_cell_angle_alpha 90.000000
_cell_angle_beta 90.000000
_cell_angle_gamma 90.000000
_cell_volume 2493.023800
_symmetry_space_group_name_H-M "P M N A"
_symmetry_group_IT_number 53
_symmetry_cell_setting 'orthorhombic'
loop_
_space_group_symop_operation_xyz
x,y,z
1/2-x,-y,1/2+z
x,-y,-z
1/2-x,y,1/2-z
-x,-y,-z
1/2+x,y,1/2-z
-x,y,z
1/2+x,-y,1/2+z
loop_
_atom_site_type_symbol
_atom_site_label
_atom_site_fract_x
_atom_site_fract_y
_atom_site_fract_z
Si Si1 0.821768 0.325652 0.045763
Si Si2 0.324558 0.447629 0.201811
Si Si3 0.822434 0.007649 0.800677
Si Si4 0.824376 0.792611 0.633165
Si Si5 0.177523 0.294127 0.838830
Si Si6 0.322647 0.375768 0.558495
O O1 0.735573 0.219374 0.078789
O O2 0.763592 0.472946 0.059870
O O3 0.000000 0.308933 0.053269
O O4 0.772364 0.300127 0.990269
O O5 0.250000 0.390140 0.250000
O O6 0.500000 0.463243 0.210596
O O7 0.287173 0.345589 0.159506
O O8 0.257415 0.591261 0.190823
O O9 0.750000 0.969190 0.750000
O O10 0.763509 0.911053 0.841674
O O11 0.000000 0.992755 0.796257
O O12 0.773730 0.155704 0.815516
O O13 0.000000 0.825704 0.633587
O O14 0.233392 0.297142 0.894388
O O15 0.000000 0.317251 0.836000
O O16 0.500000 0.385727 0.557006
#
# Coordination Sequence:
#
# PCOD8220792 Si02
#       6
#     8   8   8   8   8   8
#     4   9  16  31  58  86 114 148 186 230 280 329
#     4  11  23  36  54  81 109 141 183 231 282 332
#     4  11  24  40  59  81 109 150 190 230 282 337
#     4  11  23  38  56  82 114 149 190 233 280 334
#     4  10  20  37  60  85 113 145 185 231 280 334
#     4   8  15  30  56  88 115 145 184 228 278 333
#
# _framework density 19.253727000000001
#
# number of rings (size 3 to 8) (size 9 to 14) (size 15 to 20)
#    0.000    2.000    1.667    3.500    0.000    6.000 
#    0.000    3.333    0.000    5.000    0.000    0.000 
#    0.000    0.000    0.000    0.000    0.000    0.000 
#
# Total GULP energy -595229.093744 kJ/mol
# GULP energy per Si atom -12400.606120 kJ/mol
# Density = 1.920991 g / cm^3
# Si number density = 19.253727 Si / 1000 Ang^3
#
#
#
# Elastic Constant Matrix: (Units=GPa)
#
#
# Indices 1 2 3 4 5 6 
#
# 1 51.4566 28.3283 20.8491 0.0000 0.0000 0.0000
# 2 28.3283 52.4062 -3.5975 0.0000 0.0000 0.0000
# 3 20.8491 -3.5975 87.1812 0.0000 0.0000 0.0000
# 4 0.0000 0.0000 0.0000 12.4788 0.0000 0.0000
# 5 0.0000 0.0000 0.0000 0.0000 27.9013 0.0000
# 6 0.0000 0.0000 0.0000 0.0000 0.0000 24.0151
#
#
#
# Elastic Compliance Matrix: (Units=1/GPa)
#
#
# Indices 1 2 3 4 5 6 
#
# 1 0.033149 -0.018515 -0.008691 0.000000 0.000000 0.000000
# 2 -0.018515 0.029478 0.005644 0.000000 0.000000 0.000000
# 3 -0.008691 0.005644 0.013782 0.000000 0.000000 0.000000
# 4 0.000000 0.000000 0.000000 0.080136 0.000000 0.000000
# 5 0.000000 0.000000 0.000000 0.000000 0.035841 0.000000
# 6 0.000000 0.000000 0.000000 0.000000 0.000000 0.041641
#
#
# Mechanical properties :
#
#
# Convention : Reuss Voigt Hill
#
# Bulk Modulus (GPa) = 30.04512 31.35596 30.70054
# Shear Modulus (GPa) = 17.34640 22.57665 19.96152
#
# Velocity S-wave (km/s) = 3.00482 3.42802 3.22337
# Velocity P-wave (km/s) = 5.26092 5.65592 5.46199
#
# Compressibility (1/GPa) = 0.03328328
#
# Stress axis : x y z
#
# Youngs Moduli (GPa) = 30.16721 33.92406 72.55949
#
# Poissons Ratio (x) = 0.62811 0.63064
# Poissons Ratio (y) = 0.55855 -0.40954
# Poissons Ratio (z) = 0.26220 -0.19148
#
# Static dielectric constant tensor:
#      x y z
#    x 3.302850 0.000000 0.000000 
#    y 0.000000 3.399510 0.000000 
#    z 0.000000 0.000000 2.541550 
# 
# 
# High freq. dielectric constant tensor:
#      x y z
#    x 1.733090 0.000000 0.000000 
#    y 0.000000 1.730580 0.000000 
#    z 0.000000 0.000000 1.768010 
# 
# From -- ./inp_files/37694.got.cif
#   From: 2010.03.12/outbox.cif.g09.slc.cpg/sg53_19_cif.got.tgz:37694.got - 2010.04.16 14:36:59.
