data_PCOD8220626
_publ_section_title
;
Structure prediction by ZEFSAII (Michael W. Deem and Ramdas Pophale) SiO2 
 PCOD8220626
Probable space group: P M N A
;
_chemical_formula_sum "Si O2"
_cell_formula_units_Z 64
_cell_length_a 15.673028
_cell_length_b 20.657074
_cell_length_c 9.252928
_cell_angle_alpha 90.000000
_cell_angle_beta 90.000000
_cell_angle_gamma 90.000000
_cell_volume 2995.717784
_symmetry_space_group_name_H-M "P M N A"
_symmetry_group_IT_number 53
_symmetry_cell_setting 'orthorhombic'
loop_
_space_group_symop_operation_xyz
x,y,z
1/2-x,-y,1/2+z
x,-y,-z
1/2-x,y,1/2-z
-x,-y,-z
1/2+x,y,1/2-z
-x,y,z
1/2+x,-y,1/2+z
loop_
_atom_site_type_symbol
_atom_site_label
_atom_site_fract_x
_atom_site_fract_y
_atom_site_fract_z
Si Si1 0.897935 0.001437 0.661466
Si Si2 0.399175 0.264756 0.652173
Si Si3 0.601136 0.736910 0.674075
Si Si4 0.601640 0.879686 0.666105
Si Si5 0.397605 0.382469 0.135267
Si Si6 0.659522 0.613113 0.188203
Si Si7 0.101192 0.879480 0.156588
Si Si8 0.095930 0.494895 0.158065
O O1 0.860725 0.936654 0.735243
O O2 0.000000 0.001856 0.667282
O O3 0.863095 0.000000 0.500000
O O4 0.860389 0.065880 0.737744
O O5 0.500000 0.272994 0.661614
O O6 0.366671 0.278843 0.488696
O O7 0.355902 0.313712 0.762503
O O8 0.371461 0.192850 0.704166
O O9 0.500000 0.735919 0.669054
O O10 0.633045 0.808774 0.720819
O O11 0.633301 0.684336 0.789660
O O12 0.500000 0.881056 0.668871
O O13 0.634932 0.892809 0.504531
O O14 0.500000 0.384530 0.109578
O O15 0.363321 0.440261 0.238115
O O16 0.348254 0.389758 0.984408
O O17 0.750000 0.589014 0.250000
O O18 0.593043 0.563662 0.260499
O O19 0.000000 0.884301 0.157727
O O20 0.000000 0.471118 0.128958
O O21 0.141888 0.500000 0.000000
#
# Coordination Sequence:
#
# PCOD8220626 Si02
#       8
#     8   8   8   8   8   8   8   8
#     4   9  15  20  29  54  94 131 158 192 247 309
#     4   9  17  33  54  72  96 133 179 222 258 306
#     4   8  15  29  51  76  97 127 172 218 261 305
#     4   8  13  22  37  59  92 127 158 197 249 309
#     4  10  20  36  59  83 107 136 174 217 259 307
#     4  12  25  37  51  77 111 143 172 208 259 313
#     4   8  14  24  40  60  84 124 170 207 248 300
#     4  10  21  39  63  85 105 136 177 217 256 303
#
# _framework density 21.363827000000001
#
# number of rings (size 3 to 8) (size 9 to 14) (size 15 to 20)
#    0.000    2.750    0.000    4.125    0.000    6.500 
#    0.000    5.625    0.000    0.000    0.000    0.000 
#    0.000   12.000    0.000    0.000    0.000    0.125 
#
# Total GULP energy -793259.506054 kJ/mol
# GULP energy per Si atom -12394.679782 kJ/mol
# Density = 2.131520 g / cm^3
# Si number density = 21.363827 Si / 1000 Ang^3
#
#
#
# Elastic Constant Matrix: (Units=GPa)
#
#
# Indices 1 2 3 4 5 6 
#
# 1 19.8525 6.3153 17.4366 0.0000 0.0000 0.0000
# 2 6.3153 184.0506 111.4546 0.0000 0.0000 0.0000
# 3 17.4366 111.4546 187.7825 0.0000 0.0000 0.0000
# 4 0.0000 0.0000 0.0000 38.0102 0.0000 0.0000
# 5 0.0000 0.0000 0.0000 0.0000 11.0335 0.0000
# 6 0.0000 0.0000 0.0000 0.0000 0.0000 0.7051
#
#
#
# Elastic Compliance Matrix: (Units=1/GPa)
#
#
# Indices 1 2 3 4 5 6 
#
# 1 0.055263 0.001891 -0.006254 0.000000 0.000000 0.000000
# 2 0.001891 0.008547 -0.005248 0.000000 0.000000 0.000000
# 3 -0.006254 -0.005248 0.009021 0.000000 0.000000 0.000000
# 4 0.000000 0.000000 0.000000 0.026309 0.000000 0.000000
# 5 0.000000 0.000000 0.000000 0.000000 0.090633 0.000000
# 6 0.000000 0.000000 0.000000 0.000000 0.000000 1.418156
#
#
# Mechanical properties :
#
#
# Convention : Reuss Voigt Hill
#
# Bulk Modulus (GPa) = 18.65397 73.56651 46.11024
# Shear Modulus (GPa) = 3.03948 27.04838 15.04393
#
# Velocity S-wave (km/s) = 1.19407 3.56207 2.65651
# Velocity P-wave (km/s) = 3.26368 7.17130 5.57132
#
# Compressibility (1/GPa) = 0.05360789
#
# Stress axis : x y z
#
# Youngs Moduli (GPa) = 18.09545 117.00649 110.85301
#
# Poissons Ratio (x) = -0.22123 0.69323
# Poissons Ratio (y) = -0.03421 0.58178
# Poissons Ratio (z) = 0.11316 0.61407
#
# Static dielectric constant tensor:
#      x y z
#    x 3.122420 0.000000 0.000000 
#    y 0.000000 4.249650 0.000000 
#    z 0.000000 0.000000 3.959640 
# 
# 
# High freq. dielectric constant tensor:
#      x y z
#    x 1.775440 0.000000 0.000000 
#    y 0.000000 1.855880 0.000000 
#    z 0.000000 0.000000 1.838300 
# 
# From -- ./inp_files/10263.got.cif
#   From: 2010.03.12/outbox.cif.g09.slc.cpg/sg53_6_cif.got.tgz:10263.got - 2010.04.16 14:36:59.
