data_PCOD8220412
_publ_section_title
;
Structure prediction by ZEFSAII (Michael W. Deem and Ramdas Pophale) SiO2 
 PCOD8220412
Probable space group: P M N A
;
_chemical_formula_sum "Si O2"
_cell_formula_units_Z 64
_cell_length_a 8.717430
_cell_length_b 23.774765
_cell_length_c 14.662461
_cell_angle_alpha 90.000000
_cell_angle_beta 90.000000
_cell_angle_gamma 90.000000
_cell_volume 3038.866150
_symmetry_space_group_name_H-M "P M N A"
_symmetry_group_IT_number 53
_symmetry_cell_setting 'orthorhombic'
loop_
_space_group_symop_operation_xyz
x,y,z
1/2-x,-y,1/2+z
x,-y,-z
1/2-x,y,1/2-z
-x,-y,-z
1/2+x,y,1/2-z
-x,y,z
1/2+x,-y,1/2+z
loop_
_atom_site_type_symbol
_atom_site_label
_atom_site_fract_x
_atom_site_fract_y
_atom_site_fract_z
Si Si1 0.319632 0.063513 0.514694
Si Si2 0.681973 0.463410 0.652865
Si Si3 0.819558 0.418078 0.346646
Si Si4 0.668541 0.895222 0.837671
Si Si5 0.676722 0.631769 0.486015
Si Si6 0.675868 0.243243 0.530019
Si Si7 0.180594 0.147740 0.650304
Si Si8 0.169459 0.235076 0.338448
O O1 0.500000 0.066028 0.529755
O O2 0.274374 0.098694 0.426021
O O3 0.241384 0.090742 0.603373
O O4 0.261198 0.000000 0.500000
O O5 0.750000 0.446541 0.750000
O O6 0.500000 0.467789 0.659541
O O7 0.748314 0.522898 0.619424
O O8 0.735914 0.415478 0.583283
O O9 0.750000 0.399767 0.250000
O O10 0.776740 0.371015 0.421383
O O11 0.000000 0.424615 0.336182
O O12 0.750000 0.924206 0.750000
O O13 0.500000 0.922959 0.852687
O O14 0.646023 0.830187 0.817528
O O15 0.500000 0.621920 0.512642
O O16 0.698008 0.692335 0.437373
O O17 0.500000 0.223297 0.539438
O O18 0.779378 0.202460 0.590606
O O19 0.722414 0.242516 0.424873
O O20 0.250000 0.154410 0.750000
O O21 0.000000 0.143361 0.658532
O O22 0.250000 0.263440 0.250000
O O23 0.000000 0.262340 0.353612
#
# Coordination Sequence:
#
# PCOD8220412 Si02
#       8
#     8   8   8   8   8   8   8   8
#     4  11  24  42  66  96 129 164 204 253 308 365
#     4  10  20  37  60  85 118 156 200 253 308 368
#     4  11  22  37  60  88 120 160 204 251 308 371
#     4  10  20  35  59  89 122 158 196 241 295 356
#     4  10  23  40  59  87 122 161 203 252 310 365
#     4  11  23  41  64  90 124 164 207 257 310 368
#     4  12  26  46  70  95 126 168 214 258 308 365
#     4  10  20  35  58  88 118 155 197 241 297 360
#
# _framework density 21.060487999999999
#
# number of rings (size 3 to 8) (size 9 to 14) (size 15 to 20)
#    0.000    1.375    1.250    5.250    0.000    7.000 
#    0.000    1.250    0.000    0.000    0.000    0.000 
#    0.000    0.000    0.000    0.000    0.000    0.000 
#
# Total GULP energy -793779.608853 kJ/mol
# GULP energy per Si atom -12402.806388 kJ/mol
# Density = 2.101255 g / cm^3
# Si number density = 21.060488 Si / 1000 Ang^3
#
#
#
# Elastic Constant Matrix: (Units=GPa)
#
#
# Indices 1 2 3 4 5 6 
#
# 1 121.7347 30.1265 30.6546 0.0000 0.0000 0.0000
# 2 30.1265 79.3022 28.4234 0.0000 0.0000 0.0000
# 3 30.6546 28.4234 106.7994 0.0000 0.0000 0.0000
# 4 0.0000 0.0000 0.0000 11.8955 0.0000 0.0000
# 5 0.0000 0.0000 0.0000 0.0000 35.4077 0.0000
# 6 0.0000 0.0000 0.0000 0.0000 0.0000 15.9610
#
#
#
# Elastic Compliance Matrix: (Units=1/GPa)
#
#
# Indices 1 2 3 4 5 6 
#
# 1 0.009415 -0.002883 -0.001935 0.000000 0.000000 0.000000
# 2 -0.002883 0.014823 -0.003117 0.000000 0.000000 0.000000
# 3 -0.001935 -0.003117 0.010748 0.000000 0.000000 0.000000
# 4 0.000000 0.000000 0.000000 0.084066 0.000000 0.000000
# 5 0.000000 0.000000 0.000000 0.000000 0.028242 0.000000
# 6 0.000000 0.000000 0.000000 0.000000 0.000000 0.062653
#
#
# Mechanical properties :
#
#
# Convention : Reuss Voigt Hill
#
# Bulk Modulus (GPa) = 52.31481 54.02725 53.17103
# Shear Modulus (GPa) = 21.53406 27.22828 24.38117
#
# Velocity S-wave (km/s) = 3.20110 3.59954 3.40615
# Velocity P-wave (km/s) = 6.20942 6.55627 6.38520
#
# Compressibility (1/GPa) = 0.01911505
#
# Stress axis : x y z
#
# Youngs Moduli (GPa) = 106.20861 67.46446 93.03685
#
# Poissons Ratio (x) = 0.19452 0.18004
# Poissons Ratio (y) = 0.30623 0.29002
# Poissons Ratio (z) = 0.20553 0.21031
#
# Static dielectric constant tensor:
#      x y z
#    x 3.984880 0.000000 0.000000 
#    y 0.000000 3.869080 0.000000 
#    z 0.000000 0.000000 3.771690 
# 
# 
# High freq. dielectric constant tensor:
#      x y z
#    x 1.838580 0.000000 0.000000 
#    y 0.000000 1.819850 0.000000 
#    z 0.000000 0.000000 1.825340 
# 
# From -- ./inp_files/21022.got.cif
#   From: 2010.03.12/outbox.cif.g09.slc.cpg/sg53_11_cif.got.tgz:21022.got - 2010.04.16 14:36:59.
