data_PCOD8220250
_publ_section_title
;
Structure prediction by ZEFSAII (Michael W. Deem and Ramdas Pophale) SiO2 
 PCOD8220250
Probable space group: P M N A
;
_chemical_formula_sum "Si O2"
_cell_formula_units_Z 64
_cell_length_a 8.580696
_cell_length_b 19.392605
_cell_length_c 20.786119
_cell_angle_alpha 90.000000
_cell_angle_beta 90.000000
_cell_angle_gamma 90.000000
_cell_volume 3458.852775
_symmetry_space_group_name_H-M "P M N A"
_symmetry_group_IT_number 53
_symmetry_cell_setting 'orthorhombic'
loop_
_space_group_symop_operation_xyz
x,y,z
1/2-x,-y,1/2+z
x,-y,-z
1/2-x,y,1/2-z
-x,-y,-z
1/2+x,y,1/2-z
-x,y,z
1/2+x,-y,1/2+z
loop_
_atom_site_type_symbol
_atom_site_label
_atom_site_fract_x
_atom_site_fract_y
_atom_site_fract_z
Si Si1 0.816704 0.542886 0.562670
Si Si2 0.182249 0.326183 0.630784
Si Si3 0.814968 0.043344 0.683677
Si Si4 0.179417 0.827106 0.984576
Si Si5 0.681420 0.672995 0.508030
Si Si6 0.683750 0.819759 0.368068
Si Si7 0.683404 0.539062 0.317875
Si Si8 0.317015 0.960466 0.938286
O O1 0.764222 0.500000 0.500000
O O2 0.730730 0.616876 0.560768
O O3 0.765286 0.504339 0.626453
O O4 0.000000 0.555001 0.563627
O O5 0.218639 0.339178 0.555973
O O6 0.233349 0.250554 0.653788
O O7 0.276195 0.380582 0.673763
O O8 0.000000 0.337337 0.642466
O O9 0.750000 0.011820 0.750000
O O10 0.745972 0.119802 0.676790
O O11 0.000000 0.046928 0.684625
O O12 0.750283 0.994543 0.626701
O O13 0.215540 0.748816 0.962686
O O14 0.230549 0.836573 0.058577
O O15 0.000000 0.845743 0.975455
O O16 0.276102 0.879589 0.940343
O O17 0.500000 0.667056 0.489227
O O18 0.500000 0.810039 0.360720
O O19 0.750000 0.512535 0.250000
O O20 0.500000 0.527147 0.320737
O O21 0.500000 0.969947 0.938768
O O22 0.243519 0.000000 0.000000
#
# Coordination Sequence:
#
# PCOD8220250 Si02
#       8
#     8   8   8   8   8   8   8   8
#     4  11  22  37  60  89 117 150 194 237 284 338
#     4  11  21  35  55  82 115 152 192 233 277 333
#     4  11  23  38  55  79 111 148 187 229 278 332
#     4   9  19  33  54  84 114 143 182 230 278 331
#     4  10  20  35  56  86 117 149 188 233 287 336
#     4  10  20  35  54  80 112 149 189 228 275 332
#     4  12  25  41  60  83 116 154 193 238 287 340
#     4  10  20  35  56  82 110 143 184 231 280 330
#
# _framework density 18.503243999999999
#
# number of rings (size 3 to 8) (size 9 to 14) (size 15 to 20)
#    0.000    1.500    2.500    4.500    0.000    4.750 
#    0.000    2.500    0.000    0.750    0.000    1.750 
#    0.000    0.000    0.000    0.000    0.000    0.000 
#
# Total GULP energy -793862.774238 kJ/mol
# GULP energy per Si atom -12404.105847 kJ/mol
# Density = 1.846113 g / cm^3
# Si number density = 18.503244 Si / 1000 Ang^3
#
#
#
# Elastic Constant Matrix: (Units=GPa)
#
#
# Indices 1 2 3 4 5 6 
#
# 1 53.8664 21.5068 17.7815 0.0000 0.0000 0.0000
# 2 21.5068 103.8616 52.5693 0.0000 0.0000 0.0000
# 3 17.7815 52.5693 108.4848 0.0000 0.0000 0.0000
# 4 0.0000 0.0000 0.0000 25.8572 0.0000 0.0000
# 5 0.0000 0.0000 0.0000 0.0000 27.6343 0.0000
# 6 0.0000 0.0000 0.0000 0.0000 0.0000 33.9475
#
#
#
# Elastic Compliance Matrix: (Units=1/GPa)
#
#
# Indices 1 2 3 4 5 6 
#
# 1 0.020478 -0.003367 -0.001725 0.000000 0.000000 0.000000
# 2 -0.003367 0.013311 -0.005898 0.000000 0.000000 0.000000
# 3 -0.001725 -0.005898 0.012359 0.000000 0.000000 0.000000
# 4 0.000000 0.000000 0.000000 0.038674 0.000000 0.000000
# 5 0.000000 0.000000 0.000000 0.000000 0.036187 0.000000
# 6 0.000000 0.000000 0.000000 0.000000 0.000000 0.029457
#
#
# Mechanical properties :
#
#
# Convention : Reuss Voigt Hill
#
# Bulk Modulus (GPa) = 41.37872 49.99201 45.68537
# Shear Modulus (GPa) = 27.70046 29.11149 28.40597
#
# Velocity S-wave (km/s) = 3.87338 3.97081 3.92240
# Velocity P-wave (km/s) = 6.51273 6.93540 6.72738
#
# Compressibility (1/GPa) = 0.02416701
#
# Stress axis : x y z
#
# Youngs Moduli (GPa) = 48.83221 75.12660 80.91452
#
# Poissons Ratio (x) = 0.25299 0.13956
# Poissons Ratio (y) = 0.16444 0.47725
# Poissons Ratio (z) = 0.08422 0.44311
#
# Static dielectric constant tensor:
#      x y z
#    x 3.369220 0.000000 0.000000 
#    y 0.000000 3.479460 0.000000 
#    z 0.000000 0.000000 3.113910 
# 
# 
# High freq. dielectric constant tensor:
#      x y z
#    x 1.726610 0.000000 0.000000 
#    y 0.000000 1.719210 0.000000 
#    z 0.000000 0.000000 1.694490 
# 
# From -- ./inp_files/31292.got.cif
#   From: 2010.03.12/outbox.cif.g09.slc.cpg/sg53_16_cif.got.tgz:31292.got - 2010.04.16 14:36:59.
