data_PCOD8220839
_publ_section_title
;
Structure prediction by ZEFSAII (Michael W. Deem and Ramdas Pophale) SiO2 
 PCOD8220839
Probable space group: P M N A
;
_chemical_formula_sum "Si O2"
_cell_formula_units_Z 48
_cell_length_a 8.844838
_cell_length_b 14.198548
_cell_length_c 20.305323
_cell_angle_alpha 90.000000
_cell_angle_beta 90.000000
_cell_angle_gamma 90.000000
_cell_volume 2550.020778
_symmetry_space_group_name_H-M "P M N A"
_symmetry_group_IT_number 53
_symmetry_cell_setting 'orthorhombic'
loop_
_space_group_symop_operation_xyz
x,y,z
1/2-x,-y,1/2+z
x,-y,-z
1/2-x,y,1/2-z
-x,-y,-z
1/2+x,y,1/2-z
-x,y,z
1/2+x,-y,1/2+z
loop_
_atom_site_type_symbol
_atom_site_label
_atom_site_fract_x
_atom_site_fract_y
_atom_site_fract_z
Si Si1 0.177198 0.941607 0.563874
Si Si2 0.322235 0.558785 0.182489
Si Si3 0.826403 0.549173 0.933318
Si Si4 0.827089 0.243488 0.021275
Si Si5 0.177211 0.256371 0.870060
Si Si6 0.321622 0.947476 0.319509
O O1 0.218336 0.832732 0.554107
O O2 0.000000 0.952754 0.576030
O O3 0.230555 0.000000 0.500000
O O4 0.264973 0.978271 0.627179
O O5 0.250000 0.521782 0.250000
O O6 0.500000 0.559267 0.190064
O O7 0.275921 0.486499 0.125807
O O8 0.267625 0.664339 0.168498
O O9 0.808178 0.661075 0.937754
O O10 0.000000 0.519413 0.920365
O O11 0.768932 0.500000 0.000000
O O12 0.000000 0.207193 0.022956
O O13 0.776956 0.261270 0.946379
O O14 0.229511 0.156794 0.840715
O O15 0.000000 0.274499 0.860349
O O16 0.250000 0.974403 0.250000
O O17 0.500000 0.955266 0.314212
#
# Coordination Sequence:
#
# PCOD8220839 Si02
#       6
#     8   8   8   8   8   8
#     4  11  23  38  59  88 123 158 198 246 293 348
#     4  12  25  39  59  87 123 161 200 245 297 356
#     4  10  20  39  64  88 119 156 197 243 293 351
#     4  10  20  37  63  91 119 155 198 243 293 351
#     4  10  20  37  61  90 122 157 195 242 299 356
#     4  11  23  39  61  87 121 159 200 245 297 357
#
# _framework density 18.823374999999999
#
# number of rings (size 3 to 8) (size 9 to 14) (size 15 to 20)
#    0.000    1.333    3.333    3.000    0.000    5.000 
#    0.000    0.833    0.000    4.000    0.000    0.000 
#    0.000    0.000    0.000    0.000    0.000    0.000 
#
# Total GULP energy -595542.840493 kJ/mol
# GULP energy per Si atom -12407.142510 kJ/mol
# Density = 1.878053 g / cm^3
# Si number density = 18.823375 Si / 1000 Ang^3
#
#
#
# Elastic Constant Matrix: (Units=GPa)
#
#
# Indices 1 2 3 4 5 6 
#
# 1 84.5234 33.3056 50.5147 0.0000 0.0000 0.0000
# 2 33.3056 84.9588 40.3159 0.0000 0.0000 0.0000
# 3 50.5147 40.3159 129.6661 0.0000 0.0000 0.0000
# 4 0.0000 0.0000 0.0000 23.0638 0.0000 0.0000
# 5 0.0000 0.0000 0.0000 0.0000 32.0906 0.0000
# 6 0.0000 0.0000 0.0000 0.0000 0.0000 26.6229
#
#
#
# Elastic Compliance Matrix: (Units=1/GPa)
#
#
# Indices 1 2 3 4 5 6 
#
# 1 0.016511 -0.004012 -0.005185 0.000000 0.000000 0.000000
# 2 -0.004012 0.014783 -0.003033 0.000000 0.000000 0.000000
# 3 -0.005185 -0.003033 0.010675 0.000000 0.000000 0.000000
# 4 0.000000 0.000000 0.000000 0.043358 0.000000 0.000000
# 5 0.000000 0.000000 0.000000 0.000000 0.031162 0.000000
# 6 0.000000 0.000000 0.000000 0.000000 0.000000 0.037562
#
#
# Mechanical properties :
#
#
# Convention : Reuss Voigt Hill
#
# Bulk Modulus (GPa) = 57.11618 60.82454 58.97036
# Shear Modulus (GPa) = 27.12296 28.02293 27.57294
#
# Velocity S-wave (km/s) = 3.80006 3.86259 3.83145
# Velocity P-wave (km/s) = 7.04720 7.23023 7.13930
#
# Compressibility (1/GPa) = 0.01750818
#
# Stress axis : x y z
#
# Youngs Moduli (GPa) = 60.56726 67.64702 93.67677
#
# Poissons Ratio (x) = 0.27141 0.48568
# Poissons Ratio (y) = 0.24301 0.28414
# Poissons Ratio (z) = 0.31402 0.20519
#
# Static dielectric constant tensor:
#      x y z
#    x 3.377250 0.000000 0.000000 
#    y 0.000000 3.410160 0.000000 
#    z 0.000000 0.000000 3.500950 
# 
# 
# High freq. dielectric constant tensor:
#      x y z
#    x 1.730330 0.000000 0.000000 
#    y 0.000000 1.731210 0.000000 
#    z 0.000000 0.000000 1.734920 
# 
# From -- ./inp_files/26184.got.cif
#   From: 2010.03.12/outbox.cif.g09.slc.cpg/sg53_14_cif.got.tgz:26184.got - 2010.04.16 14:36:59.
