data_PCOD8220387
_publ_section_title
;
Structure prediction by ZEFSAII (Michael W. Deem and Ramdas Pophale) SiO2 
 PCOD8220387
Probable space group: P M N A
;
_chemical_formula_sum "Si O2"
_cell_formula_units_Z 40
_cell_length_a 19.633693
_cell_length_b 12.111543
_cell_length_c 8.309123
_cell_angle_alpha 90.000000
_cell_angle_beta 90.000000
_cell_angle_gamma 90.000000
_cell_volume 1975.862229
_symmetry_space_group_name_H-M "P M N A"
_symmetry_group_IT_number 53
_symmetry_cell_setting 'orthorhombic'
loop_
_space_group_symop_operation_xyz
x,y,z
1/2-x,-y,1/2+z
x,-y,-z
1/2-x,y,1/2-z
-x,-y,-z
1/2+x,y,1/2-z
-x,y,z
1/2+x,-y,1/2+z
loop_
_atom_site_type_symbol
_atom_site_label
_atom_site_fract_x
_atom_site_fract_y
_atom_site_fract_z
Si Si1 0.782738 0.193468 0.471916
Si Si2 0.703868 0.397732 0.607997
Si Si3 0.852475 0.862765 0.840136
Si Si4 0.425230 0.745146 0.376105
Si Si5 0.890197 0.932104 0.344256
O O1 0.753483 0.312693 0.516927
O O2 0.718878 0.116833 0.428733
O O3 0.836666 0.206212 0.324493
O O4 0.818649 0.127353 0.615861
O O5 0.681565 0.500000 0.500000
O O6 0.750000 0.446204 0.750000
O O7 0.633619 0.342246 0.670964
O O8 0.881923 0.982450 0.800860
O O9 0.905842 0.797817 0.951322
O O10 0.500000 0.688892 0.394413
O O11 0.435564 0.835110 0.232318
O O12 0.920228 0.000000 0.500000
#
# Coordination Sequence:
#
# PCOD8220387 Si02
#       5
#     8   8   8   8   8
#     4   9  19  36  56  90 123 155 202 263 312 354
#     4  11  24  41  70  92 118 153 212 269 321 367
#     4   9  20  32  58  88 127 164 206 241 300 370
#     4  11  24  41  59  89 130 166 205 255 311 374
#     4  10  20  35  57  88 128 171 204 247 302 371
#
# _framework density 20.244326000000001
#
# number of rings (size 3 to 8) (size 9 to 14) (size 15 to 20)
#    0.000    2.000    2.000    0.600    5.600   20.000 
#    0.000    3.000    0.000    0.600    0.000    0.000 
#    0.000    0.000    0.000    0.000    0.000    0.000 
#
# Total GULP energy -495562.880679 kJ/mol
# GULP energy per Si atom -12389.072017 kJ/mol
# Density = 2.019825 g / cm^3
# Si number density = 20.244326 Si / 1000 Ang^3
#
#
#
# Elastic Constant Matrix: (Units=GPa)
#
#
# Indices 1 2 3 4 5 6 
#
# 1 115.7987 27.5045 34.9192 0.0000 0.0000 0.0000
# 2 27.5045 74.0234 20.9646 0.0000 0.0000 0.0000
# 3 34.9192 20.9646 65.0354 0.0000 0.0000 0.0000
# 4 0.0000 0.0000 0.0000 36.2842 0.0000 0.0000
# 5 0.0000 0.0000 0.0000 0.0000 15.9647 0.0000
# 6 0.0000 0.0000 0.0000 0.0000 0.0000 -6.3248
#
#
#
# Elastic Compliance Matrix: (Units=1/GPa)
#
#
# Indices 1 2 3 4 5 6 
#
# 1 0.010738 -0.002594 -0.004930 0.000000 0.000000 0.000000
# 2 -0.002594 0.015493 -0.003602 0.000000 0.000000 0.000000
# 3 -0.004930 -0.003602 0.019184 0.000000 0.000000 0.000000
# 4 0.000000 0.000000 0.000000 0.027560 0.000000 0.000000
# 5 0.000000 0.000000 0.000000 0.000000 0.062638 0.000000
# 6 0.000000 0.000000 0.000000 0.000000 0.000000 -0.158108
#
#
# Mechanical properties :
#
#
# Convention : Reuss Voigt Hill
#
# Bulk Modulus (GPa) = 43.16774 46.84825 45.00799
# Shear Modulus (GPa) = 668.68960 20.61610 344.65285
#
# Velocity S-wave (km/s) = 18.19414 3.19464 13.06201
# Velocity P-wave (km/s) = 21.51136 6.06624 15.80408
#
# Compressibility (1/GPa) = 0.02316545
#
# Stress axis : x y z
#
# Youngs Moduli (GPa) = 93.12490 64.54504 52.12670
#
# Poissons Ratio (x) = 0.16742 0.25696
# Poissons Ratio (y) = 0.24155 0.18774
# Poissons Ratio (z) = 0.45906 0.23246
#
# Static dielectric constant tensor:
#      x y z
#    x 3.455580 0.000000 0.000000 
#    y 0.000000 3.452040 0.000000 
#    z 0.000000 0.000000 4.064130 
# 
# 
# High freq. dielectric constant tensor:
#      x y z
#    x 1.772100 0.000000 0.000000 
#    y 0.000000 1.765260 0.000000 
#    z 0.000000 0.000000 1.801240 
# 
# From -- ./inp_files/10769.got.cif
#   From: 2010.03.12/outbox.cif.g09.slc.cpg/sg53_6_cif.got.tgz:10769.got - 2010.04.16 14:36:59.
