data_PCOD8220816
_publ_section_title
;
Structure prediction by ZEFSAII (Michael W. Deem and Ramdas Pophale) SiO2 
 PCOD8220816
Probable space group: P M N A
;
_chemical_formula_sum "Si O2"
_cell_formula_units_Z 64
_cell_length_a 16.731435
_cell_length_b 20.927605
_cell_length_c 8.752677
_cell_angle_alpha 90.000000
_cell_angle_beta 90.000000
_cell_angle_gamma 90.000000
_cell_volume 3064.739898
_symmetry_space_group_name_H-M "P M N A"
_symmetry_group_IT_number 53
_symmetry_cell_setting 'orthorhombic'
loop_
_space_group_symop_operation_xyz
x,y,z
1/2-x,-y,1/2+z
x,-y,-z
1/2-x,y,1/2-z
-x,-y,-z
1/2+x,y,1/2-z
-x,y,z
1/2+x,-y,1/2+z
loop_
_atom_site_type_symbol
_atom_site_label
_atom_site_fract_x
_atom_site_fract_y
_atom_site_fract_z
Si Si1 0.165049 0.003610 0.680906
Si Si2 0.593624 0.872661 0.824123
Si Si3 0.905980 0.626134 0.642877
Si Si4 0.337910 0.745802 0.320264
Si Si5 0.339945 0.381097 0.815000
Si Si6 0.093353 0.505027 0.831984
Si Si7 0.407656 0.133640 0.836249
Si Si8 0.907152 0.746258 0.857300
O O1 0.250000 0.018729 0.750000
O O2 0.109408 0.063077 0.730381
O O3 0.168957 0.000000 0.500000
O O4 0.131697 0.936940 0.747449
O O5 0.500000 0.885007 0.837451
O O6 0.614994 0.813864 0.716965
O O7 0.629174 0.858925 0.993416
O O8 0.847342 0.625145 0.497423
O O9 0.874663 0.567882 0.746983
O O10 0.891476 0.691574 0.733534
O O11 0.000000 0.619175 0.597129
O O12 0.250000 0.743217 0.250000
O O13 0.381804 0.683102 0.251829
O O14 0.374358 0.813244 0.276230
O O15 0.345746 0.738319 0.502741
O O16 0.250000 0.388241 0.750000
O O17 0.389673 0.442534 0.766088
O O18 0.000000 0.513664 0.852838
O O19 0.133854 0.500000 0.000000
O O20 0.500000 0.146256 0.844236
O O21 0.000000 0.744801 0.911935
#
# Coordination Sequence:
#
# PCOD8220816 Si02
#       8
#     8   8   8   8   8   8   8   8
#     4  10  21  36  56  82 115 153 190 235 292 355
#     4   9  19  36  58  85 113 146 193 243 292 347
#     4  10  21  40  67  94 120 156 205 258 306 355
#     4  11  24  40  56  84 123 159 196 240 300 364
#     4  11  24  40  58  87 123 162 202 242 298 363
#     4  10  21  38  62  92 123 156 199 250 299 350
#     4  10  20  37  61  85 112 151 198 246 294 350
#     4  10  21  39  64  91 118 152 199 253 302 352
#
# _framework density 20.882684000000001
#
# number of rings (size 3 to 8) (size 9 to 14) (size 15 to 20)
#    0.000    1.875    0.000    3.375    0.000   10.500 
#    0.000    7.500    0.000    3.000    0.000    0.000 
#    0.000    0.000    0.000    0.000    0.000    0.000 
#
# Total GULP energy -793450.900661 kJ/mol
# GULP energy per Si atom -12397.670323 kJ/mol
# Density = 2.083515 g / cm^3
# Si number density = 20.882684 Si / 1000 Ang^3
#
#
#
# Elastic Constant Matrix: (Units=GPa)
#
#
# Indices 1 2 3 4 5 6 
#
# 1 41.6128 17.7863 40.5004 0.0000 0.0000 0.0000
# 2 17.7863 149.1230 58.7845 0.0000 0.0000 0.0000
# 3 40.5004 58.7845 128.7407 0.0000 0.0000 0.0000
# 4 0.0000 0.0000 0.0000 45.7012 0.0000 0.0000
# 5 0.0000 0.0000 0.0000 0.0000 34.9663 0.0000
# 6 0.0000 0.0000 0.0000 0.0000 0.0000 25.4458
#
#
#
# Elastic Compliance Matrix: (Units=1/GPa)
#
#
# Indices 1 2 3 4 5 6 
#
# 1 0.034641 0.000200 -0.010989 0.000000 0.000000 0.000000
# 2 0.000200 0.008179 -0.003798 0.000000 0.000000 0.000000
# 3 -0.010989 -0.003798 0.012959 0.000000 0.000000 0.000000
# 4 0.000000 0.000000 0.000000 0.021881 0.000000 0.000000
# 5 0.000000 0.000000 0.000000 0.000000 0.028599 0.000000
# 6 0.000000 0.000000 0.000000 0.000000 0.000000 0.039299
#
#
# Mechanical properties :
#
#
# Convention : Reuss Voigt Hill
#
# Bulk Modulus (GPa) = 37.58621 61.51321 49.54971
# Shear Modulus (GPa) = 27.23324 34.71634 30.97479
#
# Velocity S-wave (km/s) = 3.61516 4.08173 3.85551
# Velocity P-wave (km/s) = 5.95514 7.19268 6.60296
#
# Compressibility (1/GPa) = 0.02660550
#
# Stress axis : x y z
#
# Youngs Moduli (GPa) = 28.86778 122.26401 77.16881
#
# Poissons Ratio (x) = -0.02448 0.84801
# Poissons Ratio (y) = -0.00578 0.29306
# Poissons Ratio (z) = 0.31723 0.46431
#
# Static dielectric constant tensor:
#      x y z
#    x 3.546060 0.000000 0.000000 
#    y 0.000000 4.284540 0.000000 
#    z 0.000000 0.000000 3.814250 
# 
# 
# High freq. dielectric constant tensor:
#      x y z
#    x 1.795610 0.000000 0.000000 
#    y 0.000000 1.844630 0.000000 
#    z 0.000000 0.000000 1.816210 
# 
# From -- ./inp_files/10239.got.cif
#   From: 2010.03.12/outbox.cif.g09.slc.cpg/sg53_6_cif.got.tgz:10239.got - 2010.04.16 14:36:59.
