data_PCOD8220448
_publ_section_title
;
Structure prediction by ZEFSAII (Michael W. Deem and Ramdas Pophale) SiO2 
 PCOD8220448
Probable space group: P M N A
;
_chemical_formula_sum "Si O2"
_cell_formula_units_Z 64
_cell_length_a 9.616525
_cell_length_b 24.134323
_cell_length_c 14.878168
_cell_angle_alpha 90.000000
_cell_angle_beta 90.000000
_cell_angle_gamma 90.000000
_cell_volume 3453.049023
_symmetry_space_group_name_H-M "P M N A"
_symmetry_group_IT_number 53
_symmetry_cell_setting 'orthorhombic'
loop_
_space_group_symop_operation_xyz
x,y,z
1/2-x,-y,1/2+z
x,-y,-z
1/2-x,y,1/2-z
-x,-y,-z
1/2+x,y,1/2-z
-x,y,z
1/2+x,-y,1/2+z
loop_
_atom_site_type_symbol
_atom_site_label
_atom_site_fract_x
_atom_site_fract_y
_atom_site_fract_z
Si Si1 0.652079 0.103659 0.175322
Si Si2 0.166448 0.148710 0.657174
Si Si3 0.846168 0.768234 0.672763
Si Si4 0.664708 0.938333 0.011382
Si Si5 0.660661 0.583181 0.835953
Si Si6 0.164074 0.369520 0.520134
Si Si7 0.664070 0.246396 0.973463
Si Si8 0.161303 0.544260 0.336130
O O1 0.750000 0.074933 0.250000
O O2 0.500000 0.074898 0.181434
O O3 0.636605 0.167807 0.197050
O O4 0.715178 0.095810 0.075810
O O5 0.250000 0.148559 0.750000
O O6 0.212859 0.093767 0.601473
O O7 0.218234 0.202183 0.599599
O O8 0.000000 0.150400 0.674693
O O9 0.750000 0.740109 0.750000
O O10 0.775964 0.762774 0.574154
O O11 0.000000 0.739885 0.674794
O O12 0.500000 0.940716 0.014369
O O13 0.728202 0.000000 0.000000
O O14 0.750000 0.599881 0.750000
O O15 0.500000 0.594521 0.813151
O O16 0.683151 0.519310 0.864239
O O17 0.716835 0.620602 0.918328
O O18 0.207051 0.308602 0.556194
O O19 0.223242 0.416694 0.585607
O O20 0.000000 0.376185 0.517300
O O21 0.500000 0.238105 0.980970
O O22 0.250000 0.559899 0.250000
O O23 0.000000 0.556956 0.315945
#
# Coordination Sequence:
#
# PCOD8220448 Si02
#       8
#     8   8   8   8   8   8   8   8
#     4   9  16  28  47  70  93 119 150 186 228 274
#     4  10  20  36  55  74  98 130 167 203 239 282
#     4   9  16  28  47  69  91 118 151 187 229 277
#     4   9  17  31  52  74  97 128 163 195 232 285
#     4   9  17  30  48  70  96 125 158 196 240 289
#     4   9  17  29  48  71  93 124 164 200 234 281
#     4   9  17  31  50  70  95 128 164 197 234 286
#     4   9  17  30  48  69  93 122 158 200 242 284
#
# _framework density 18.534344000000001
#
# number of rings (size 3 to 8) (size 9 to 14) (size 15 to 20)
#    0.000    2.875    1.250    0.375    0.000    3.000 
#    0.000    1.875    0.000    5.250    0.000    0.000 
#    0.000    0.000    0.000    0.000    0.000    0.000 
#
# Total GULP energy -793125.609509 kJ/mol
# GULP energy per Si atom -12392.587649 kJ/mol
# Density = 1.849216 g / cm^3
# Si number density = 18.534344 Si / 1000 Ang^3
#
#
#
# Elastic Constant Matrix: (Units=GPa)
#
#
# Indices 1 2 3 4 5 6 
#
# 1 40.4134 16.3892 42.5575 0.0000 0.0000 0.0000
# 2 16.3892 92.2267 50.7349 0.0000 0.0000 0.0000
# 3 42.5575 50.7349 145.9989 0.0000 0.0000 0.0000
# 4 0.0000 0.0000 0.0000 16.9189 0.0000 0.0000
# 5 0.0000 0.0000 0.0000 0.0000 32.4946 0.0000
# 6 0.0000 0.0000 0.0000 0.0000 0.0000 10.0182
#
#
#
# Elastic Compliance Matrix: (Units=1/GPa)
#
#
# Indices 1 2 3 4 5 6 
#
# 1 0.035748 -0.000767 -0.010154 0.000000 0.000000 0.000000
# 2 -0.000767 0.013422 -0.004441 0.000000 0.000000 0.000000
# 3 -0.010154 -0.004441 0.011352 0.000000 0.000000 0.000000
# 4 0.000000 0.000000 0.000000 0.059105 0.000000 0.000000
# 5 0.000000 0.000000 0.000000 0.000000 0.030774 0.000000
# 6 0.000000 0.000000 0.000000 0.000000 0.000000 0.099818
#
#
# Mechanical properties :
#
#
# Convention : Reuss Voigt Hill
#
# Bulk Modulus (GPa) = 33.55769 55.33358 44.44563
# Shear Modulus (GPa) = 17.18950 23.15017 20.16984
#
# Velocity S-wave (km/s) = 3.04869 3.53801 3.30243
# Velocity P-wave (km/s) = 5.52609 6.82711 6.21076
#
# Compressibility (1/GPa) = 0.02979943
#
# Stress axis : x y z
#
# Youngs Moduli (GPa) = 27.97391 74.50473 88.08868
#
# Poissons Ratio (x) = 0.05714 0.89442
# Poissons Ratio (y) = 0.02145 0.39117
# Poissons Ratio (z) = 0.28404 0.33085
#
# Static dielectric constant tensor:
#      x y z
#    x 3.183330 0.000000 0.000000 
#    y 0.000000 3.512520 0.000000 
#    z 0.000000 0.000000 3.508530 
# 
# 
# High freq. dielectric constant tensor:
#      x y z
#    x 1.666880 0.000000 0.000000 
#    y 0.000000 1.718710 0.000000 
#    z 0.000000 0.000000 1.724510 
# 
# From -- ./inp_files/15045.got.cif
#   From: 2010.03.12/outbox.cif.g09.slc.cpg/sg53_8_cif.got.tgz:15045.got - 2010.04.16 14:36:59.
