data_PCOD8220323
_publ_section_title
;
Structure prediction by ZEFSAII (Michael W. Deem and Ramdas Pophale) SiO2 
 PCOD8220323
Probable space group: P M N A
;
_chemical_formula_sum "Si O2"
_cell_formula_units_Z 48
_cell_length_a 9.054043
_cell_length_b 15.137781
_cell_length_c 17.680128
_cell_angle_alpha 90.000000
_cell_angle_beta 90.000000
_cell_angle_gamma 90.000000
_cell_volume 2423.205107
_symmetry_space_group_name_H-M "P M N A"
_symmetry_group_IT_number 53
_symmetry_cell_setting 'orthorhombic'
loop_
_space_group_symop_operation_xyz
x,y,z
1/2-x,-y,1/2+z
x,-y,-z
1/2-x,y,1/2-z
-x,-y,-z
1/2+x,y,1/2-z
-x,y,z
1/2+x,-y,1/2+z
loop_
_atom_site_type_symbol
_atom_site_label
_atom_site_fract_x
_atom_site_fract_y
_atom_site_fract_z
Si Si1 0.828430 0.836136 0.089606
Si Si2 0.825539 0.182444 0.079685
Si Si3 0.674433 0.354041 0.329148
Si Si4 0.329304 0.683015 0.173999
Si Si5 0.828924 0.016790 0.171655
Si Si6 0.670213 0.507788 0.086073
O O1 0.739408 0.774210 0.146228
O O2 0.000000 0.809099 0.093209
O O3 0.803508 0.936611 0.114105
O O4 0.762659 0.824818 0.005241
O O5 0.778909 0.276646 0.113411
O O6 0.760805 0.104250 0.132220
O O7 0.000000 0.170243 0.076044
O O8 0.750000 0.332976 0.250000
O O9 0.500000 0.358741 0.317081
O O10 0.729662 0.446585 0.361595
O O11 0.250000 0.650670 0.250000
O O12 0.500000 0.699010 0.192172
O O13 0.306203 0.608573 0.110585
O O14 0.750000 0.996768 0.250000
O O15 0.000000 0.030356 0.190141
O O16 0.500000 0.478300 0.094770
O O17 0.724261 0.500000 0.000000
#
# Coordination Sequence:
#
# PCOD8220323 Si02
#       6
#     8   8   8   8   8   8
#     4  10  20  36  59  83 109 143 184 229 273 321
#     4   9  19  36  57  82 110 144 185 225 271 327
#     4  11  22  36  57  83 112 146 185 229 275 327
#     4  11  23  38  57  81 111 146 182 223 272 325
#     4  10  20  35  56  81 111 146 183 224 271 324
#     4  10  22  40  60  83 112 145 182 227 279 331
#
# _framework density 19.808475999999999
#
# number of rings (size 3 to 8) (size 9 to 14) (size 15 to 20)
#    0.000    1.833    0.000    4.000    0.000    7.000 
#    0.000    2.500    0.000    2.000    0.000    0.000 
#    0.000    0.000    0.000    0.000    0.000    0.000 
#
# Total GULP energy -595469.399895 kJ/mol
# GULP energy per Si atom -12405.612498 kJ/mol
# Density = 1.976339 g / cm^3
# Si number density = 19.808476 Si / 1000 Ang^3
#
#
#
# Elastic Constant Matrix: (Units=GPa)
#
#
# Indices 1 2 3 4 5 6 
#
# 1 68.1410 33.1150 32.6137 0.0000 0.0000 0.0000
# 2 33.1150 80.8596 11.1357 0.0000 0.0000 0.0000
# 3 32.6137 11.1357 108.8802 0.0000 0.0000 0.0000
# 4 0.0000 0.0000 0.0000 38.7113 0.0000 0.0000
# 5 0.0000 0.0000 0.0000 0.0000 22.6025 0.0000
# 6 0.0000 0.0000 0.0000 0.0000 0.0000 20.0081
#
#
#
# Elastic Compliance Matrix: (Units=1/GPa)
#
#
# Indices 1 2 3 4 5 6 
#
# 1 0.021165 -0.007906 -0.005531 0.000000 0.000000 0.000000
# 2 -0.007906 0.015497 0.000783 0.000000 0.000000 0.000000
# 3 -0.005531 0.000783 0.010761 0.000000 0.000000 0.000000
# 4 0.000000 0.000000 0.000000 0.025832 0.000000 0.000000
# 5 0.000000 0.000000 0.000000 0.000000 0.044243 0.000000
# 6 0.000000 0.000000 0.000000 0.000000 0.000000 0.049980
#
#
# Mechanical properties :
#
#
# Convention : Reuss Voigt Hill
#
# Bulk Modulus (GPa) = 45.21789 45.73438 45.47613
# Shear Modulus (GPa) = 24.98032 28.33215 26.65623
#
# Velocity S-wave (km/s) = 3.55504 3.78604 3.67236
# Velocity P-wave (km/s) = 6.30303 6.50004 6.40229
#
# Compressibility (1/GPa) = 0.02211514
#
# Stress axis : x y z
#
# Youngs Moduli (GPa) = 47.24798 64.52821 92.92752
#
# Poissons Ratio (x) = 0.51017 0.51399
# Poissons Ratio (y) = 0.37355 -0.07278
# Poissons Ratio (z) = 0.26133 -0.05054
#
# Static dielectric constant tensor:
#      x y z
#    x 3.428220 0.000000 0.000000 
#    y 0.000000 3.612530 0.000000 
#    z 0.000000 0.000000 3.789940 
# 
# 
# High freq. dielectric constant tensor:
#      x y z
#    x 1.751990 0.000000 0.000000 
#    y 0.000000 1.784000 0.000000 
#    z 0.000000 0.000000 1.788650 
# 
# From -- ./inp_files/26173.got.cif
#   From: 2010.03.12/outbox.cif.g09.slc.cpg/sg53_14_cif.got.tgz:26173.got - 2010.04.16 14:36:59.
