data_PCOD8220007
_publ_section_title
;
Structure prediction by ZEFSAII (Michael W. Deem and Ramdas Pophale) SiO2 
 PCOD8220007
Probable space group: P M N A
;
_chemical_formula_sum "Si O2"
_cell_formula_units_Z 40
_cell_length_a 7.784015
_cell_length_b 9.608804
_cell_length_c 28.520267
_cell_angle_alpha 90.000000
_cell_angle_beta 90.000000
_cell_angle_gamma 90.000000
_cell_volume 2133.175494
_symmetry_space_group_name_H-M "P M N A"
_symmetry_group_IT_number 53
_symmetry_cell_setting 'orthorhombic'
loop_
_space_group_symop_operation_xyz
x,y,z
1/2-x,-y,1/2+z
x,-y,-z
1/2-x,y,1/2-z
-x,-y,-z
1/2+x,y,1/2-z
-x,y,z
1/2+x,-y,1/2+z
loop_
_atom_site_type_symbol
_atom_site_label
_atom_site_fract_x
_atom_site_fract_y
_atom_site_fract_z
Si Si1 0.190247 0.407196 0.613839
Si Si2 0.802652 0.088327 0.615662
Si Si3 0.300990 0.886421 0.800551
Si Si4 0.807287 0.579746 0.802241
Si Si5 0.000000 0.413586 0.952827
Si Si6 0.500000 0.912315 0.453286
O O1 0.226495 0.248758 0.629070
O O2 0.190561 0.500732 0.660279
O O3 0.330692 0.457082 0.576251
O O4 0.000000 0.420639 0.591129
O O5 0.751542 0.000778 0.661253
O O6 0.673001 0.045569 0.574393
O O7 0.000000 0.058940 0.600011
O O8 0.250000 0.948594 0.750000
O O9 0.500000 0.847632 0.801582
O O10 0.199120 0.744921 0.810719
O O11 0.750000 0.540595 0.750000
O O12 0.000000 0.527314 0.809969
O O13 0.000000 0.250899 0.965304
O O14 0.000000 0.500000 0.000000
O O15 0.500000 0.000000 0.500000
#
# Coordination Sequence:
#
# PCOD8220007 Si02
#       6
#     8   8   8   8   4   4
#     4  10  20  39  59  82 114 149 186 235 282 332
#     4   9  21  38  58  82 113 146 186 231 279 335
#     4  10  20  34  52  81 113 150 188 229 277 330
#     4  11  21  34  53  82 115 152 191 232 276 334
#     4  10  22  40  58  86 114 144 194 234 283 344
#     4  10  22  38  60  84 110 148 186 234 287 332
#
# _framework density 18.751387999999999
#
# number of rings (size 3 to 8) (size 9 to 14) (size 15 to 20)
#    0.000    2.000    1.000    3.600    2.800    3.200 
#    0.000    2.000    0.000    0.000    0.000    0.000 
#    0.000    0.000    0.000    0.000    0.000    0.000 
#
# Total GULP energy -496084.374450 kJ/mol
# GULP energy per Si atom -12402.109361 kJ/mol
# Density = 1.870871 g / cm^3
# Si number density = 18.751388 Si / 1000 Ang^3
#
#
#
# Elastic Constant Matrix: (Units=GPa)
#
#
# Indices 1 2 3 4 5 6 
#
# 1 119.3780 35.5717 64.5492 0.0000 0.0000 0.0000
# 2 35.5717 66.6002 75.6296 0.0000 0.0000 0.0000
# 3 64.5492 75.6296 152.5489 0.0000 0.0000 0.0000
# 4 0.0000 0.0000 0.0000 37.5792 0.0000 0.0000
# 5 0.0000 0.0000 0.0000 0.0000 29.7323 0.0000
# 6 0.0000 0.0000 0.0000 0.0000 0.0000 21.9913
#
#
#
# Elastic Compliance Matrix: (Units=1/GPa)
#
#
# Indices 1 2 3 4 5 6 
#
# 1 0.010914 -0.001339 -0.003954 0.000000 0.000000 0.000000
# 2 -0.001339 0.034522 -0.016549 0.000000 0.000000 0.000000
# 3 -0.003954 -0.016549 0.016433 0.000000 0.000000 0.000000
# 4 0.000000 0.000000 0.000000 0.026610 0.000000 0.000000
# 5 0.000000 0.000000 0.000000 0.000000 0.033633 0.000000
# 6 0.000000 0.000000 0.000000 0.000000 0.000000 0.045473
#
#
# Mechanical properties :
#
#
# Convention : Reuss Voigt Hill
#
# Bulk Modulus (GPa) = 54.98898 76.66980 65.82939
# Shear Modulus (GPa) = 23.00634 28.71232 25.85933
#
# Velocity S-wave (km/s) = 3.50653 3.91731 3.71760
# Velocity P-wave (km/s) = 6.76634 7.83816 7.32189
#
# Compressibility (1/GPa) = 0.01818546
#
# Stress axis : x y z
#
# Youngs Moduli (GPa) = 91.62688 28.96668 60.85315
#
# Poissons Ratio (x) = 0.03878 0.24064
# Poissons Ratio (y) = 0.12266 1.00705
# Poissons Ratio (z) = 0.36233 0.47937
#
# Static dielectric constant tensor:
#      x y z
#    x 3.824530 0.000000 0.000000 
#    y 0.000000 3.324900 0.000000 
#    z 0.000000 0.000000 3.270160 
# 
# 
# High freq. dielectric constant tensor:
#      x y z
#    x 1.750540 0.000000 0.000000 
#    y 0.000000 1.720950 0.000000 
#    z 0.000000 0.000000 1.714770 
# 
# From -- ./inp_files/36080.got.cif
#   From: 2010.03.12/outbox.cif.g09.slc.cpg/sg53_19_cif.got.tgz:36080.got - 2010.04.16 14:36:59.
