data_PCOD8220643
_publ_section_title
;
Structure prediction by ZEFSAII (Michael W. Deem and Ramdas Pophale) SiO2 
 PCOD8220643
Probable space group: P M N A
;
_chemical_formula_sum "Si O2"
_cell_formula_units_Z 56
_cell_length_a 8.782576
_cell_length_b 21.612721
_cell_length_c 14.943467
_cell_angle_alpha 90.000000
_cell_angle_beta 90.000000
_cell_angle_gamma 90.000000
_cell_volume 2836.499639
_symmetry_space_group_name_H-M "P M N A"
_symmetry_group_IT_number 53
_symmetry_cell_setting 'orthorhombic'
loop_
_space_group_symop_operation_xyz
x,y,z
1/2-x,-y,1/2+z
x,-y,-z
1/2-x,y,1/2-z
-x,-y,-z
1/2+x,y,1/2-z
-x,y,z
1/2+x,-y,1/2+z
loop_
_atom_site_type_symbol
_atom_site_label
_atom_site_fract_x
_atom_site_fract_y
_atom_site_fract_z
Si Si1 0.177253 0.620830 0.153252
Si Si2 0.320358 0.362591 0.151790
Si Si3 0.322030 0.484517 0.346647
Si Si4 0.822664 0.070107 0.157173
Si Si5 0.820986 0.059025 0.655744
Si Si6 0.325016 0.854003 0.484350
Si Si7 0.678443 0.288589 0.499971
O O1 0.250000 0.630930 0.250000
O O2 0.207699 0.552218 0.110394
O O3 0.240954 0.670799 0.083048
O O4 0.000000 0.630821 0.168660
O O5 0.250000 0.353904 0.250000
O O6 0.500000 0.363765 0.160296
O O7 0.260903 0.426766 0.104970
O O8 0.268066 0.306120 0.089849
O O9 0.250000 0.488574 0.250000
O O10 0.500000 0.469261 0.341765
O O11 0.750000 0.092991 0.250000
O O12 0.791928 0.123084 0.084735
O O13 0.000000 0.057610 0.172382
O O14 0.747498 0.006338 0.123575
O O15 0.750000 0.079385 0.750000
O O16 0.784434 0.111194 0.583725
O O17 0.000000 0.051976 0.666568
O O18 0.500000 0.867145 0.458149
O O19 0.285268 0.782118 0.478122
O O20 0.500000 0.300131 0.483836
#
# Coordination Sequence:
#
# PCOD8220643 Si02
#       7
#     8   8   8   8   8   8   8
#     4   9  19  35  57  81 109 143 181 228 278 330
#     4  11  22  37  57  81 109 143 183 231 281 331
#     4   9  16  30  53  80 106 137 177 224 280 333
#     4  10  20  36  59  86 114 144 181 227 277 328
#     4  11  22  37  60  87 115 146 183 228 275 326
#     4  10  22  39  58  81 114 152 187 227 274 324
#     4  10  22  40  57  79 112 151 190 225 270 328
#
# _framework density 19.742643000000001
#
# number of rings (size 3 to 8) (size 9 to 14) (size 15 to 20)
#    0.000    2.000    0.000    5.571    0.000    6.286 
#    0.000    5.714    0.000    0.000    0.000    0.000 
#    0.000    0.000    0.000    0.000    0.000    0.000 
#
# Total GULP energy -694351.119949 kJ/mol
# GULP energy per Si atom -12399.127142 kJ/mol
# Density = 1.969771 g / cm^3
# Si number density = 19.742643 Si / 1000 Ang^3
#
#
#
# Elastic Constant Matrix: (Units=GPa)
#
#
# Indices 1 2 3 4 5 6 
#
# 1 114.7768 31.4089 34.0366 0.0000 0.0000 0.0000
# 2 31.4089 66.2369 20.8993 0.0000 0.0000 0.0000
# 3 34.0366 20.8993 64.4798 0.0000 0.0000 0.0000
# 4 0.0000 0.0000 0.0000 25.3797 0.0000 0.0000
# 5 0.0000 0.0000 0.0000 0.0000 29.6597 0.0000
# 6 0.0000 0.0000 0.0000 0.0000 0.0000 33.1349
#
#
#
# Elastic Compliance Matrix: (Units=1/GPa)
#
#
# Indices 1 2 3 4 5 6 
#
# 1 0.011132 -0.003815 -0.004640 0.000000 0.000000 0.000000
# 2 -0.003815 0.018124 -0.003861 0.000000 0.000000 0.000000
# 3 -0.004640 -0.003861 0.019209 0.000000 0.000000 0.000000
# 4 0.000000 0.000000 0.000000 0.039402 0.000000 0.000000
# 5 0.000000 0.000000 0.000000 0.000000 0.033716 0.000000
# 6 0.000000 0.000000 0.000000 0.000000 0.000000 0.030180
#
#
# Mechanical properties :
#
#
# Convention : Reuss Voigt Hill
#
# Bulk Modulus (GPa) = 41.95501 46.46478 44.20989
# Shear Modulus (GPa) = 27.12385 28.24477 27.68431
#
# Velocity S-wave (km/s) = 3.71060 3.78649 3.74874
# Velocity P-wave (km/s) = 6.29723 6.53476 6.41709
#
# Compressibility (1/GPa) = 0.02383506
#
# Stress axis : x y z
#
# Youngs Moduli (GPa) = 89.82728 55.17401 52.05793
#
# Poissons Ratio (x) = 0.21048 0.24155
# Poissons Ratio (y) = 0.34268 0.20098
# Poissons Ratio (z) = 0.41679 0.21301
#
# Static dielectric constant tensor:
#      x y z
#    x 3.610300 0.000000 0.000000 
#    y 0.000000 3.883550 0.000000 
#    z 0.000000 0.000000 3.499530 
# 
# 
# High freq. dielectric constant tensor:
#      x y z
#    x 1.771950 0.000000 0.000000 
#    y 0.000000 1.772300 0.000000 
#    z 0.000000 0.000000 1.764030 
# 
# From -- ./inp_files/20476.got.cif
#   From: 2010.03.12/outbox.cif.g09.slc.cpg/sg53_11_cif.got.tgz:20476.got - 2010.04.16 14:36:59.
