data_PCOD8220398
_publ_section_title
;
Structure prediction by ZEFSAII (Michael W. Deem and Ramdas Pophale) SiO2 
 PCOD8220398
Probable space group: P M N A
;
_chemical_formula_sum "Si O2"
_cell_formula_units_Z 48
_cell_length_a 17.176797
_cell_length_b 17.724916
_cell_length_c 7.290352
_cell_angle_alpha 90.000000
_cell_angle_beta 90.000000
_cell_angle_gamma 90.000000
_cell_volume 2219.600769
_symmetry_space_group_name_H-M "P M N A"
_symmetry_group_IT_number 53
_symmetry_cell_setting 'orthorhombic'
loop_
_space_group_symop_operation_xyz
x,y,z
1/2-x,-y,1/2+z
x,-y,-z
1/2-x,y,1/2-z
-x,-y,-z
1/2+x,y,1/2-z
-x,y,z
1/2+x,-y,1/2+z
loop_
_atom_site_type_symbol
_atom_site_label
_atom_site_fract_x
_atom_site_fract_y
_atom_site_fract_z
Si Si1 0.589642 0.690750 0.328027
Si Si2 0.160691 0.003769 0.213540
Si Si3 0.910037 0.150458 0.184066
Si Si4 0.090607 0.413957 0.495371
Si Si5 0.660258 0.299890 0.278788
Si Si6 0.839348 0.159968 0.791003
O O1 0.500000 0.691163 0.389384
O O2 0.608484 0.621951 0.193445
O O3 0.642702 0.682328 0.507911
O O4 0.608860 0.769664 0.220749
O O5 0.250000 0.022223 0.250000
O O6 0.138485 0.921621 0.300783
O O7 0.110188 0.073433 0.296845
O O8 0.141397 0.000000 0.000000
O O9 0.889021 0.226966 0.294699
O O10 0.000000 0.150689 0.126090
O O11 0.853151 0.153246 0.008709
O O12 0.118830 0.500000 0.500000
O O13 0.138232 0.372966 0.337098
O O14 0.000000 0.407589 0.446204
O O15 0.750000 0.281315 0.250000
O O16 0.750000 0.178753 0.750000
#
# Coordination Sequence:
#
# PCOD8220398 Si02
#       6
#     8   8   8   8   8   8
#     4  10  22  40  65  92 124 165 208 255 305 370
#     4   9  18  33  52  81 116 157 198 248 299 355
#     4  10  20  35  58  85 117 159 209 250 297 362
#     4  10  23  44  67  93 126 163 203 251 312 378
#     4  11  23  39  63  94 125 165 204 258 309 368
#     4   9  18  31  54  83 120 156 198 250 300 359
#
# _framework density 21.625509000000001
#
# number of rings (size 3 to 8) (size 9 to 14) (size 15 to 20)
#    0.000    2.167    0.000    3.500    4.667    4.333 
#    6.000    2.500    0.000    0.500    0.000    0.000 
#    0.000    0.000    0.000    0.000    0.000    0.000 
#
# Total GULP energy -594865.743553 kJ/mol
# GULP energy per Si atom -12393.036324 kJ/mol
# Density = 2.157629 g / cm^3
# Si number density = 21.625509 Si / 1000 Ang^3
#
#
#
# Elastic Constant Matrix: (Units=GPa)
#
#
# Indices 1 2 3 4 5 6 
#
# 1 112.9820 58.1402 46.6761 0.0000 0.0000 0.0000
# 2 58.1402 197.0280 45.3962 0.0000 0.0000 0.0000
# 3 46.6761 45.3962 62.5691 0.0000 0.0000 0.0000
# 4 0.0000 0.0000 0.0000 6.0943 0.0000 0.0000
# 5 0.0000 0.0000 0.0000 0.0000 32.5639 0.0000
# 6 0.0000 0.0000 0.0000 0.0000 0.0000 25.1751
#
#
#
# Elastic Compliance Matrix: (Units=1/GPa)
#
#
# Indices 1 2 3 4 5 6 
#
# 1 0.013410 -0.001984 -0.008564 0.000000 0.000000 0.000000
# 2 -0.001984 0.006388 -0.003155 0.000000 0.000000 0.000000
# 3 -0.008564 -0.003155 0.024660 0.000000 0.000000 0.000000
# 4 0.000000 0.000000 0.000000 0.164088 0.000000 0.000000
# 5 0.000000 0.000000 0.000000 0.000000 0.030709 0.000000
# 6 0.000000 0.000000 0.000000 0.000000 0.000000 0.039722
#
#
# Mechanical properties :
#
#
# Convention : Reuss Voigt Hill
#
# Bulk Modulus (GPa) = 58.64374 74.77822 66.71098
# Shear Modulus (GPa) = 16.02225 27.59110 21.80668
#
# Velocity S-wave (km/s) = 2.72489 3.57579 3.17894
# Velocity P-wave (km/s) = 6.08907 7.19042 6.66254
#
# Compressibility (1/GPa) = 0.01705212
#
# Stress axis : x y z
#
# Youngs Moduli (GPa) = 74.57087 156.55233 40.55133
#
# Poissons Ratio (x) = 0.31057 0.34730
# Poissons Ratio (y) = 0.14794 0.12792
# Poissons Ratio (z) = 0.63866 0.49385
#
# Static dielectric constant tensor:
#      x y z
#    x 3.702030 0.000000 0.000000 
#    y 0.000000 4.717640 0.000000 
#    z 0.000000 0.000000 3.555840 
# 
# 
# High freq. dielectric constant tensor:
#      x y z
#    x 1.837700 0.000000 0.000000 
#    y 0.000000 1.870030 0.000000 
#    z 0.000000 0.000000 1.822310 
# 
# From -- ./inp_files/8697.got.cif
#   From: 2010.03.12/outbox.cif.g09.slc.cpg/sg53_5_cif.got.tgz:8697.got - 2010.04.16 14:36:59.
