data_PCOD8220371
_publ_section_title
;
Structure prediction by ZEFSAII (Michael W. Deem and Ramdas Pophale) SiO2 
 PCOD8220371
Probable space group: P M N A
;
_chemical_formula_sum "Si O2"
_cell_formula_units_Z 48
_cell_length_a 8.752816
_cell_length_b 30.910753
_cell_length_c 9.106506
_cell_angle_alpha 90.000000
_cell_angle_beta 90.000000
_cell_angle_gamma 90.000000
_cell_volume 2463.821052
_symmetry_space_group_name_H-M "P M N A"
_symmetry_group_IT_number 53
_symmetry_cell_setting 'orthorhombic'
loop_
_space_group_symop_operation_xyz
x,y,z
1/2-x,-y,1/2+z
x,-y,-z
1/2-x,y,1/2-z
-x,-y,-z
1/2+x,y,1/2-z
-x,y,z
1/2+x,-y,1/2+z
loop_
_atom_site_type_symbol
_atom_site_label
_atom_site_fract_x
_atom_site_fract_y
_atom_site_fract_z
Si Si1 0.676770 0.295346 0.092340
Si Si2 0.180543 0.875834 0.091590
Si Si3 0.680441 0.619431 0.587822
Si Si4 0.823627 0.542940 0.406342
Si Si5 0.319597 0.041083 0.409595
Si Si6 0.677649 0.800368 0.910451
O O1 0.750000 0.290871 0.250000
O O2 0.500000 0.307968 0.105451
O O3 0.764013 0.335134 0.012810
O O4 0.698589 0.247978 0.020211
O O5 0.250000 0.883875 0.250000
O O6 0.000000 0.873334 0.105373
O O7 0.234381 0.915293 0.989489
O O8 0.241335 0.831408 0.025053
O O9 0.750000 0.613899 0.750000
O O10 0.500000 0.618666 0.600598
O O11 0.734106 0.581343 0.483814
O O12 0.803612 0.500000 0.500000
O O13 0.750000 0.533580 0.250000
O O14 0.000000 0.555981 0.388703
O O15 0.250000 0.040079 0.250000
O O16 0.500000 0.039102 0.395188
O O17 0.257323 0.000000 0.500000
O O18 0.750000 0.805505 0.750000
O O19 0.500000 0.812175 0.895774
#
# Coordination Sequence:
#
# PCOD8220371 Si02
#       6
#     8   8   8   8   8   8
#     4   9  17  31  53  81 112 146 186 230 277 330
#     4  11  23  38  57  81 112 149 189 234 283 336
#     4  11  21  35  58  86 117 151 188 232 280 332
#     4  11  24  41  61  85 114 148 187 231 279 333
#     4  10  22  39  59  85 114 146 185 228 277 332
#     4  10  20  35  57  84 114 148 188 234 280 331
#
# _framework density 19.481933000000001
#
# number of rings (size 3 to 8) (size 9 to 14) (size 15 to 20)
#    0.000    1.667    0.000    6.000    0.000    7.667 
#    0.000    0.833    0.000    4.000    0.000    0.000 
#    0.000    0.000    0.000    0.000    0.000    0.000 
#
# Total GULP energy -595172.423088 kJ/mol
# GULP energy per Si atom -12399.425481 kJ/mol
# Density = 1.943759 g / cm^3
# Si number density = 19.481933 Si / 1000 Ang^3
#
#
#
# Elastic Constant Matrix: (Units=GPa)
#
#
# Indices 1 2 3 4 5 6 
#
# 1 133.4634 69.7440 55.4184 0.0000 0.0000 0.0000
# 2 69.7440 142.6938 58.6857 0.0000 0.0000 0.0000
# 3 55.4184 58.6857 118.3586 0.0000 0.0000 0.0000
# 4 0.0000 0.0000 0.0000 41.9411 0.0000 0.0000
# 5 0.0000 0.0000 0.0000 0.0000 33.2617 0.0000
# 6 0.0000 0.0000 0.0000 0.0000 0.0000 32.0687
#
#
#
# Elastic Compliance Matrix: (Units=1/GPa)
#
#
# Indices 1 2 3 4 5 6 
#
# 1 0.010895 -0.004054 -0.003091 0.000000 0.000000 0.000000
# 2 -0.004054 0.010311 -0.003215 0.000000 0.000000 0.000000
# 3 -0.003091 -0.003215 0.011490 0.000000 0.000000 0.000000
# 4 0.000000 0.000000 0.000000 0.023843 0.000000 0.000000
# 5 0.000000 0.000000 0.000000 0.000000 0.030065 0.000000
# 6 0.000000 0.000000 0.000000 0.000000 0.000000 0.031183
#
#
# Mechanical properties :
#
#
# Convention : Reuss Voigt Hill
#
# Bulk Modulus (GPa) = 83.49216 84.69022 84.09119
# Shear Modulus (GPa) = 35.08817 35.49880 35.29349
#
# Velocity S-wave (km/s) = 4.24850 4.27328 4.26091
# Velocity P-wave (km/s) = 8.18630 8.24096 8.21368
#
# Compressibility (1/GPa) = 0.01197717
#
# Stress axis : x y z
#
# Youngs Moduli (GPa) = 91.78910 96.98022 87.03044
#
# Poissons Ratio (x) = 0.39312 0.26903
# Poissons Ratio (y) = 0.37207 0.27978
# Poissons Ratio (z) = 0.28374 0.31176
#
# Static dielectric constant tensor:
#      x y z
#    x 3.732300 0.000000 0.000000 
#    y 0.000000 4.278670 0.000000 
#    z 0.000000 0.000000 3.322050 
# 
# 
# High freq. dielectric constant tensor:
#      x y z
#    x 1.774020 0.000000 0.000000 
#    y 0.000000 1.784090 0.000000 
#    z 0.000000 0.000000 1.736560 
# 
# From -- ./inp_files/6650.got.cif
#   From: 2010.03.12/outbox.cif.g09.slc.cpg/sg53_4_cif.got.tgz:6650.got - 2010.04.16 14:36:59.
