data_PCOD8220556
_publ_section_title
;
Structure prediction by ZEFSAII (Michael W. Deem and Ramdas Pophale) SiO2 
 PCOD8220556
Probable space group: P M N A
;
_chemical_formula_sum "Si O2"
_cell_formula_units_Z 48
_cell_length_a 9.195817
_cell_length_b 14.226966
_cell_length_c 20.200695
_cell_angle_alpha 90.000000
_cell_angle_beta 90.000000
_cell_angle_gamma 90.000000
_cell_volume 2642.828157
_symmetry_space_group_name_H-M "P M N A"
_symmetry_group_IT_number 53
_symmetry_cell_setting 'orthorhombic'
loop_
_space_group_symop_operation_xyz
x,y,z
1/2-x,-y,1/2+z
x,-y,-z
1/2-x,y,1/2-z
-x,-y,-z
1/2+x,y,1/2-z
-x,y,z
1/2+x,-y,1/2+z
loop_
_atom_site_type_symbol
_atom_site_label
_atom_site_fract_x
_atom_site_fract_y
_atom_site_fract_z
Si Si1 0.331173 0.253015 0.119429
Si Si2 0.830508 0.067129 0.559727
Si Si3 0.666120 0.549521 0.432738
Si Si4 0.330567 0.939901 0.816508
Si Si5 0.833242 0.246294 0.983115
Si Si6 0.330733 0.549317 0.817264
O O1 0.500000 0.241722 0.099987
O O2 0.275174 0.161443 0.158382
O O3 0.302360 0.341984 0.165815
O O4 0.241810 0.265375 0.052856
O O5 0.741766 0.163132 0.557443
O O6 0.000000 0.090831 0.552551
O O7 0.780347 0.000000 0.500000
O O8 0.793688 0.017466 0.628657
O O9 0.719537 0.500000 0.500000
O O10 0.500000 0.519146 0.417569
O O11 0.680510 0.661308 0.438405
O O12 0.770263 0.517360 0.374305
O O13 0.250000 0.969708 0.750000
O O14 0.500000 0.935589 0.800924
O O15 0.000000 0.220144 0.996638
O O16 0.250000 0.523477 0.750000
O O17 0.500000 0.527847 0.808509
#
# Coordination Sequence:
#
# PCOD8220556 Si02
#       6
#     8   8   8   8   8   8
#     4  10  20  36  57  84 118 152 186 227 284 348
#     4  10  20  38  60  80 113 154 190 230 279 337
#     4  10  21  39  59  82 117 153 190 239 289 338
#     4  10  21  37  57  82 114 152 185 227 282 334
#     4  11  22  35  58  89 115 145 188 241 286 328
#     4  11  23  37  59  87 118 155 193 237 287 345
#
# _framework density 18.162362000000002
#
# number of rings (size 3 to 8) (size 9 to 14) (size 15 to 20)
#    0.000    1.667    3.333    1.500    0.000    4.000 
#    0.000    0.833    0.000    2.000    0.000    0.000 
#    0.000    0.000    0.000    0.000    0.000    0.000 
#
# Total GULP energy -595470.589542 kJ/mol
# GULP energy per Si atom -12405.637282 kJ/mol
# Density = 1.812102 g / cm^3
# Si number density = 18.162362 Si / 1000 Ang^3
#
#
#
# Elastic Constant Matrix: (Units=GPa)
#
#
# Indices 1 2 3 4 5 6 
#
# 1 89.2106 49.7380 67.4986 0.0000 0.0000 0.0000
# 2 49.7380 96.5713 44.7622 0.0000 0.0000 0.0000
# 3 67.4986 44.7622 128.7203 0.0000 0.0000 0.0000
# 4 0.0000 0.0000 0.0000 24.1864 0.0000 0.0000
# 5 0.0000 0.0000 0.0000 0.0000 34.2831 0.0000
# 6 0.0000 0.0000 0.0000 0.0000 0.0000 30.3935
#
#
#
# Elastic Compliance Matrix: (Units=1/GPa)
#
#
# Indices 1 2 3 4 5 6 
#
# 1 0.022075 -0.007158 -0.009087 0.000000 0.000000 0.000000
# 2 -0.007158 0.014666 -0.001347 0.000000 0.000000 0.000000
# 3 -0.009087 -0.001347 0.013002 0.000000 0.000000 0.000000
# 4 0.000000 0.000000 0.000000 0.041346 0.000000 0.000000
# 5 0.000000 0.000000 0.000000 0.000000 0.029169 0.000000
# 6 0.000000 0.000000 0.000000 0.000000 0.000000 0.032902
#
#
# Mechanical properties :
#
#
# Convention : Reuss Voigt Hill
#
# Bulk Modulus (GPa) = 68.67769 70.94443 69.81106
# Shear Modulus (GPa) = 25.88051 27.93949 26.91000
#
# Velocity S-wave (km/s) = 3.77895 3.92640 3.85338
# Velocity P-wave (km/s) = 7.54559 7.72667 7.63667
#
# Compressibility (1/GPa) = 0.01456077
#
# Stress axis : x y z
#
# Youngs Moduli (GPa) = 45.29913 68.18604 76.91119
#
# Poissons Ratio (x) = 0.48807 0.69888
# Poissons Ratio (y) = 0.32424 0.10356
# Poissons Ratio (z) = 0.41163 0.09182
#
# Static dielectric constant tensor:
#      x y z
#    x 3.368110 0.000000 0.000000 
#    y 0.000000 3.424840 0.000000 
#    z 0.000000 0.000000 3.275510 
# 
# 
# High freq. dielectric constant tensor:
#      x y z
#    x 1.705900 0.000000 0.000000 
#    y 0.000000 1.707050 0.000000 
#    z 0.000000 0.000000 1.700820 
# 
# From -- ./inp_files/26175.got.cif
#   From: 2010.03.12/outbox.cif.g09.slc.cpg/sg53_14_cif.got.tgz:26175.got - 2010.04.16 14:36:59.
