data_PCOD8220073
_publ_section_title
;
Structure prediction by ZEFSAII (Michael W. Deem and Ramdas Pophale) SiO2 
 PCOD8220073
Probable space group: P M N A
;
_chemical_formula_sum "Si O2"
_cell_formula_units_Z 64
_cell_length_a 8.939901
_cell_length_b 20.943994
_cell_length_c 18.454647
_cell_angle_alpha 90.000000
_cell_angle_beta 90.000000
_cell_angle_gamma 90.000000
_cell_volume 3455.397039
_symmetry_space_group_name_H-M "P M N A"
_symmetry_group_IT_number 53
_symmetry_cell_setting 'orthorhombic'
loop_
_space_group_symop_operation_xyz
x,y,z
1/2-x,-y,1/2+z
x,-y,-z
1/2-x,y,1/2-z
-x,-y,-z
1/2+x,y,1/2-z
-x,y,z
1/2+x,-y,1/2+z
loop_
_atom_site_type_symbol
_atom_site_label
_atom_site_fract_x
_atom_site_fract_y
_atom_site_fract_z
Si Si1 0.830104 0.193126 0.539777
Si Si2 0.174207 0.506551 0.917577
Si Si3 0.175946 0.753732 0.175992
Si Si4 0.675213 0.246305 0.112152
Si Si5 0.822338 0.876529 0.825258
Si Si6 0.172862 0.063117 0.459338
Si Si7 0.673645 0.389914 0.678521
Si Si8 0.323906 0.383695 0.172503
O O1 0.723733 0.203999 0.607935
O O2 0.787246 0.240137 0.473246
O O3 0.805592 0.120812 0.515037
O O4 0.000000 0.205459 0.564273
O O5 0.214555 0.437326 0.885939
O O6 0.270958 0.561433 0.881251
O O7 0.000000 0.523617 0.907611
O O8 0.222070 0.500000 0.000000
O O9 0.250000 0.779588 0.250000
O O10 0.231358 0.681284 0.160385
O O11 0.000000 0.758665 0.185385
O O12 0.500000 0.231978 0.125230
O O13 0.768906 0.195299 0.157816
O O14 0.723953 0.316011 0.138587
O O15 0.750000 0.899440 0.750000
O O16 0.770087 0.925583 0.887426
O O17 0.000000 0.877626 0.819059
O O18 0.000000 0.056673 0.435749
O O19 0.230601 0.000000 0.500000
O O20 0.750000 0.417773 0.750000
O O21 0.500000 0.387913 0.694745
O O22 0.250000 0.393509 0.250000
O O23 0.500000 0.388316 0.182358
#
# Coordination Sequence:
#
# PCOD8220073 Si02
#       8
#     8   8   8   8   8   8   8   8
#     4   9  18  34  56  82 111 140 174 220 269 319
#     4  10  22  38  55  76 106 141 178 224 275 329
#     4  10  20  34  54  79 106 138 180 225 273 325
#     4   9  20  37  56  81 113 146 182 224 275 332
#     4  11  21  34  56  85 116 149 188 232 274 323
#     4   9  19  38  61  83 113 152 187 223 272 325
#     4   9  19  35  53  74  98 133 176 220 268 321
#     4  11  23  38  56  80 109 143 182 225 275 330
#
# _framework density 18.521750999999998
#
# number of rings (size 3 to 8) (size 9 to 14) (size 15 to 20)
#    0.000    2.250    0.000    3.375    1.750    6.500 
#    0.000    0.625    0.000    0.000    0.000    0.000 
#    0.000    0.000    0.000    0.000    0.000    0.000 
#
# Total GULP energy -793768.310366 kJ/mol
# GULP energy per Si atom -12402.629849 kJ/mol
# Density = 1.847959 g / cm^3
# Si number density = 18.521751 Si / 1000 Ang^3
#
#
#
# Elastic Constant Matrix: (Units=GPa)
#
#
# Indices 1 2 3 4 5 6 
#
# 1 81.3941 39.2000 58.2077 0.0000 0.0000 0.0000
# 2 39.2000 86.2900 59.6345 0.0000 0.0000 0.0000
# 3 58.2077 59.6345 146.5384 0.0000 0.0000 0.0000
# 4 0.0000 0.0000 0.0000 50.7611 0.0000 0.0000
# 5 0.0000 0.0000 0.0000 0.0000 33.2823 0.0000
# 6 0.0000 0.0000 0.0000 0.0000 0.0000 32.9292
#
#
#
# Elastic Compliance Matrix: (Units=1/GPa)
#
#
# Indices 1 2 3 4 5 6 
#
# 1 0.018385 -0.004598 -0.005431 0.000000 0.000000 0.000000
# 2 -0.004598 0.017273 -0.005203 0.000000 0.000000 0.000000
# 3 -0.005431 -0.005203 0.011099 0.000000 0.000000 0.000000
# 4 0.000000 0.000000 0.000000 0.019700 0.000000 0.000000
# 5 0.000000 0.000000 0.000000 0.000000 0.030046 0.000000
# 6 0.000000 0.000000 0.000000 0.000000 0.000000 0.030368
#
#
# Mechanical properties :
#
#
# Convention : Reuss Voigt Hill
#
# Bulk Modulus (GPa) = 61.38059 69.81190 65.59625
# Shear Modulus (GPa) = 30.71866 33.87319 32.29593
#
# Velocity S-wave (km/s) = 4.07691 4.28113 4.18026
# Velocity P-wave (km/s) = 7.44132 7.88740 7.66760
#
# Compressibility (1/GPa) = 0.01629179
#
# Stress axis : x y z
#
# Youngs Moduli (GPa) = 54.39317 57.89215 90.09788
#
# Poissons Ratio (x) = 0.26620 0.48936
# Poissons Ratio (y) = 0.25011 0.46878
# Poissons Ratio (z) = 0.29544 0.30122
#
# Static dielectric constant tensor:
#      x y z
#    x 3.339690 0.000000 0.000000 
#    y 0.000000 3.444570 0.000000 
#    z 0.000000 0.000000 3.512580 
# 
# 
# High freq. dielectric constant tensor:
#      x y z
#    x 1.717000 0.000000 0.000000 
#    y 0.000000 1.711190 0.000000 
#    z 0.000000 0.000000 1.726170 
# 
# From -- ./inp_files/26795.got.cif
#   From: 2010.03.12/outbox.cif.g09.slc.cpg/sg53_14_cif.got.tgz:26795.got - 2010.04.16 14:36:59.
