data_PCOD8220486
_publ_section_title
;
Structure prediction by ZEFSAII (Michael W. Deem and Ramdas Pophale) SiO2 
 PCOD8220486
Probable space group: P M N A
;
_chemical_formula_sum "Si O2"
_cell_formula_units_Z 48
_cell_length_a 8.573312
_cell_length_b 30.930118
_cell_length_c 9.312815
_cell_angle_alpha 90.000000
_cell_angle_beta 90.000000
_cell_angle_gamma 90.000000
_cell_volume 2469.512231
_symmetry_space_group_name_H-M "P M N A"
_symmetry_group_IT_number 53
_symmetry_cell_setting 'orthorhombic'
loop_
_space_group_symop_operation_xyz
x,y,z
1/2-x,-y,1/2+z
x,-y,-z
1/2-x,y,1/2-z
-x,-y,-z
1/2+x,y,1/2-z
-x,y,z
1/2+x,-y,1/2+z
loop_
_atom_site_type_symbol
_atom_site_label
_atom_site_fract_x
_atom_site_fract_y
_atom_site_fract_z
Si Si1 0.316224 0.794239 0.095032
Si Si2 0.684779 0.541065 0.409715
Si Si3 0.816759 0.958680 0.594182
Si Si4 0.815627 0.129528 0.090838
Si Si5 0.684635 0.296952 0.593709
Si Si6 0.815618 0.622463 0.908677
O O1 0.250000 0.805879 0.250000
O O2 0.500000 0.790039 0.104696
O O3 0.247982 0.748948 0.037967
O O4 0.268392 0.831901 0.989383
O O5 0.745333 0.500000 0.500000
O O6 0.750000 0.539523 0.250000
O O7 0.500000 0.541205 0.399239
O O8 0.747124 0.583520 0.492058
O O9 0.750000 0.968636 0.750000
O O10 0.732467 0.916826 0.523139
O O11 0.000000 0.949290 0.603594
O O12 0.776114 0.000000 0.500000
O O13 0.750000 0.129680 0.250000
O O14 0.000000 0.136143 0.086081
O O15 0.750000 0.308730 0.750000
O O16 0.500000 0.294948 0.605042
O O17 0.741339 0.332849 0.480406
O O18 0.750000 0.618034 0.750000
O O19 0.000000 0.620651 0.898721
#
# Coordination Sequence:
#
# PCOD8220486 Si02
#       6
#     8   8   8   8   8   8
#     4  11  22  38  59  84 113 146 186 230 279 332
#     4  10  21  37  57  83 113 146 186 229 275 328
#     4  10  21  37  57  82 112 146 186 230 277 330
#     4  11  22  38  59  83 113 148 186 229 279 333
#     4  10  20  36  56  80 109 142 183 227 275 329
#     4  10  22  37  55  81 112 145 184 229 274 328
#
# _framework density 19.437037
#
# number of rings (size 3 to 8) (size 9 to 14) (size 15 to 20)
#    0.000    1.667    0.000    7.000    0.000    5.000 
#    0.000    3.333    0.000    0.000    0.000    0.000 
#    0.000    0.000    0.000    0.000    0.000    0.000 
#
# Total GULP energy -595310.785319 kJ/mol
# GULP energy per Si atom -12402.308027 kJ/mol
# Density = 1.939280 g / cm^3
# Si number density = 19.437037 Si / 1000 Ang^3
#
#
#
# Elastic Constant Matrix: (Units=GPa)
#
#
# Indices 1 2 3 4 5 6 
#
# 1 70.5184 31.6954 24.1660 0.0000 0.0000 0.0000
# 2 31.6954 155.5550 81.0597 0.0000 0.0000 0.0000
# 3 24.1660 81.0597 115.0217 0.0000 0.0000 0.0000
# 4 0.0000 0.0000 0.0000 53.4301 0.0000 0.0000
# 5 0.0000 0.0000 0.0000 0.0000 36.7753 0.0000
# 6 0.0000 0.0000 0.0000 0.0000 0.0000 -26.0052
#
#
#
# Elastic Compliance Matrix: (Units=1/GPa)
#
#
# Indices 1 2 3 4 5 6 
#
# 1 0.015809 -0.002355 -0.001662 0.000000 0.000000 0.000000
# 2 -0.002355 0.010510 -0.006912 0.000000 0.000000 0.000000
# 3 -0.001662 -0.006912 0.013914 0.000000 0.000000 0.000000
# 4 0.000000 0.000000 0.000000 0.018716 0.000000 0.000000
# 5 0.000000 0.000000 0.000000 0.000000 0.027192 0.000000
# 6 0.000000 0.000000 0.000000 0.000000 0.000000 -0.038454
#
#
# Mechanical properties :
#
#
# Convention : Reuss Voigt Hill
#
# Bulk Modulus (GPa) = 54.42058 68.32638 61.37348
# Shear Modulus (GPa) = 66.07520 26.45161 46.26340
#
# Velocity S-wave (km/s) = 5.83680 3.69302 4.88399
# Velocity P-wave (km/s) = 8.57225 7.30846 7.96546
#
# Compressibility (1/GPa) = 0.01837540
#
# Stress axis : x y z
#
# Youngs Moduli (GPa) = 63.25627 95.14313 71.86801
#
# Poissons Ratio (x) = 0.22409 0.11941
# Poissons Ratio (y) = 0.14899 0.49677
# Poissons Ratio (z) = 0.10510 0.65765
#
# Static dielectric constant tensor:
#      x y z
#    x 3.610060 0.000000 0.000000 
#    y 0.000000 4.017370 0.000000 
#    z 0.000000 0.000000 3.372320 
# 
# 
# High freq. dielectric constant tensor:
#      x y z
#    x 1.765090 0.000000 0.000000 
#    y 0.000000 1.778030 0.000000 
#    z 0.000000 0.000000 1.753600 
# 
# From -- ./inp_files/6750.got.cif
#   From: 2010.03.12/outbox.cif.g09.slc.cpg/sg53_4_cif.got.tgz:6750.got - 2010.04.16 14:36:59.
