data_PCOD8220067
_publ_section_title
;
Structure prediction by ZEFSAII (Michael W. Deem and Ramdas Pophale) SiO2 
 PCOD8220067
Probable space group: P M N A
;
_chemical_formula_sum "Si O2"
_cell_formula_units_Z 64
_cell_length_a 9.264038
_cell_length_b 21.741757
_cell_length_c 16.471802
_cell_angle_alpha 90.000000
_cell_angle_beta 90.000000
_cell_angle_gamma 90.000000
_cell_volume 3317.692099
_symmetry_space_group_name_H-M "P M N A"
_symmetry_group_IT_number 53
_symmetry_cell_setting 'orthorhombic'
loop_
_space_group_symop_operation_xyz
x,y,z
1/2-x,-y,1/2+z
x,-y,-z
1/2-x,y,1/2-z
-x,-y,-z
1/2+x,y,1/2-z
-x,y,z
1/2+x,-y,1/2+z
loop_
_atom_site_type_symbol
_atom_site_label
_atom_site_fract_x
_atom_site_fract_y
_atom_site_fract_z
Si Si1 0.832962 0.228666 0.670886
Si Si2 0.168548 0.780592 0.668787
Si Si3 0.329222 0.429612 0.001383
Si Si4 0.341980 0.119353 0.415378
Si Si5 0.329210 0.997897 0.330192
Si Si6 0.158311 0.871225 0.100156
Si Si7 0.169354 0.638254 0.665923
Si Si8 0.831269 0.371122 0.667458
O O1 0.750000 0.205459 0.750000
O O2 0.766734 0.186753 0.600588
O O3 0.801588 0.299550 0.653166
O O4 0.000000 0.215310 0.680897
O O5 0.250000 0.799841 0.750000
O O6 0.231074 0.824880 0.599896
O O7 0.199733 0.709579 0.646734
O O8 0.000000 0.792387 0.679435
O O9 0.500000 0.421908 0.001239
O O10 0.270463 0.401496 0.915940
O O11 0.279007 0.500000 0.000000
O O12 0.271976 0.398033 0.085372
O O13 0.500000 0.133899 0.375576
O O14 0.282007 0.053146 0.388942
O O15 0.364071 0.110250 0.509039
O O16 0.250000 0.017484 0.250000
O O17 0.500000 0.994767 0.319555
O O18 0.271784 0.930928 0.357141
O O19 0.000000 0.854168 0.137279
O O20 0.250000 0.618007 0.750000
O O21 0.000000 0.624989 0.679696
O O22 0.750000 0.394037 0.750000
O O23 0.000000 0.386055 0.680232
#
# Coordination Sequence:
#
# PCOD8220067 Si02
#       8
#     8   8   8   8   8   8   8   8
#     4  10  20  34  54  78 107 139 177 221 268 320
#     4  10  20  34  54  78 107 139 177 221 268 320
#     4   9  18  34  57  83 111 148 189 224 268 331
#     4  10  21  36  54  77 105 137 174 217 267 319
#     4  10  21  37  55  73  99 136 175 216 264 316
#     4  10  21  36  54  77 105 137 174 217 267 319
#     4   9  19  35  56  81 112 147 185 229 276 326
#     4   9  19  35  56  81 112 147 185 229 276 326
#
# _framework density 19.290519
#
# number of rings (size 3 to 8) (size 9 to 14) (size 15 to 20)
#    0.000    2.375    0.000    1.875    1.750    6.500 
#    0.000    0.625    0.000    3.000    0.000    0.000 
#    0.000    0.000    0.000    0.000    0.000    0.000 
#
# Total GULP energy -793178.630276 kJ/mol
# GULP energy per Si atom -12393.416098 kJ/mol
# Density = 1.924661 g / cm^3
# Si number density = 19.290519 Si / 1000 Ang^3
#
#
#
# Elastic Constant Matrix: (Units=GPa)
#
#
# Indices 1 2 3 4 5 6 
#
# 1 59.1554 44.6214 38.7922 0.0000 0.0000 0.0000
# 2 44.6214 100.2050 53.8012 0.0000 0.0000 0.0000
# 3 38.7922 53.8012 122.0273 0.0000 0.0000 0.0000
# 4 0.0000 0.0000 0.0000 36.9294 0.0000 0.0000
# 5 0.0000 0.0000 0.0000 0.0000 28.2336 0.0000
# 6 0.0000 0.0000 0.0000 0.0000 0.0000 34.3212
#
#
#
# Elastic Compliance Matrix: (Units=1/GPa)
#
#
# Indices 1 2 3 4 5 6 
#
# 1 0.027084 -0.009744 -0.004314 0.000000 0.000000 0.000000
# 2 -0.009744 0.016580 -0.004213 0.000000 0.000000 0.000000
# 3 -0.004314 -0.004213 0.011423 0.000000 0.000000 0.000000
# 4 0.000000 0.000000 0.000000 0.027079 0.000000 0.000000
# 5 0.000000 0.000000 0.000000 0.000000 0.035419 0.000000
# 6 0.000000 0.000000 0.000000 0.000000 0.000000 0.029136
#
#
# Mechanical properties :
#
#
# Convention : Reuss Voigt Hill
#
# Bulk Modulus (GPa) = 53.91832 61.75749 57.83791
# Shear Modulus (GPa) = 26.39295 29.50837 27.95066
#
# Velocity S-wave (km/s) = 3.70291 3.91536 3.81061
# Velocity P-wave (km/s) = 6.80393 7.24734 7.02913
#
# Compressibility (1/GPa) = 0.01854657
#
# Stress axis : x y z
#
# Youngs Moduli (GPa) = 36.92281 60.31196 87.53923
#
# Poissons Ratio (x) = 0.58770 0.37761
# Poissons Ratio (y) = 0.35979 0.36876
# Poissons Ratio (z) = 0.15927 0.25407
#
# Static dielectric constant tensor:
#      x y z
#    x 3.569850 0.000000 0.000000 
#    y 0.000000 3.517730 0.000000 
#    z 0.000000 0.000000 3.584920 
# 
# 
# High freq. dielectric constant tensor:
#      x y z
#    x 1.730430 0.000000 0.000000 
#    y 0.000000 1.753780 0.000000 
#    z 0.000000 0.000000 1.755130 
# 
# From -- ./inp_files/20816.got.cif
#   From: 2010.03.12/outbox.cif.g09.slc.cpg/sg53_11_cif.got.tgz:20816.got - 2010.04.16 14:36:59.
