data_PCOD8220509
_publ_section_title
;
Structure prediction by ZEFSAII (Michael W. Deem and Ramdas Pophale) SiO2 
 PCOD8220509
Probable space group: P M N A
;
_chemical_formula_sum "Si O2"
_cell_formula_units_Z 56
_cell_length_a 9.028280
_cell_length_b 21.784035
_cell_length_c 13.920778
_cell_angle_alpha 90.000000
_cell_angle_beta 90.000000
_cell_angle_gamma 90.000000
_cell_volume 2737.832367
_symmetry_space_group_name_H-M "P M N A"
_symmetry_group_IT_number 53
_symmetry_cell_setting 'orthorhombic'
loop_
_space_group_symop_operation_xyz
x,y,z
1/2-x,-y,1/2+z
x,-y,-z
1/2-x,y,1/2-z
-x,-y,-z
1/2+x,y,1/2-z
-x,y,z
1/2+x,-y,1/2+z
loop_
_atom_site_type_symbol
_atom_site_label
_atom_site_fract_x
_atom_site_fract_y
_atom_site_fract_z
Si Si1 0.826090 0.903995 0.534650
Si Si2 0.325981 0.671355 0.853135
Si Si3 0.169348 0.709706 0.151361
Si Si4 0.173263 0.022436 0.650494
Si Si5 0.824676 0.407127 0.645457
Si Si6 0.829111 0.461635 0.350550
Si Si7 0.168947 0.778232 0.966108
O O1 0.777145 0.928501 0.429955
O O2 0.737302 0.843274 0.561653
O O3 0.000000 0.889879 0.535922
O O4 0.783917 0.954337 0.614773
O O5 0.250000 0.672266 0.750000
O O6 0.500000 0.683260 0.841091
O O7 0.297203 0.603584 0.903922
O O8 0.258205 0.724328 0.916326
O O9 0.250000 0.727926 0.250000
O O10 0.247392 0.651756 0.096006
O O11 0.000000 0.692550 0.174025
O O12 0.179510 0.767959 0.080707
O O13 0.250000 0.038856 0.750000
O O14 0.000000 0.026856 0.666820
O O15 0.750000 0.407979 0.750000
O O16 0.789817 0.473706 0.594050
O O17 0.000000 0.395309 0.650261
O O18 0.750000 0.460675 0.250000
O O19 0.000000 0.465187 0.324188
O O20 0.000000 0.776541 0.930190
#
# Coordination Sequence:
#
# PCOD8220509 Si02
#       7
#     8   8   8   8   8   8   8
#     4   9  20  39  59  82 115 151 182 216 264 319
#     4  10  20  36  57  79 107 144 184 228 279 333
#     4  10  21  36  53  75 105 141 184 231 278 331
#     4   9  19  37  62  90 117 145 179 218 262 314
#     4   9  15  26  47  73 100 131 172 223 278 334
#     4   8  15  27  46  73 100 130 172 222 276 332
#     4  11  24  39  55  80 113 148 188 230 270 319
#
# _framework density 20.454138
#
# number of rings (size 3 to 8) (size 9 to 14) (size 15 to 20)
#    0.000    2.571    0.000    3.429    0.000    5.714 
#    0.000    6.429    0.000    4.286    0.000    0.000 
#    0.000    0.000    0.000    0.000    0.000    0.000 
#
# Total GULP energy -693786.754467 kJ/mol
# GULP energy per Si atom -12389.049187 kJ/mol
# Density = 2.040758 g / cm^3
# Si number density = 20.454138 Si / 1000 Ang^3
#
#
#
# Elastic Constant Matrix: (Units=GPa)
#
#
# Indices 1 2 3 4 5 6 
#
# 1 86.8826 26.9614 6.2262 0.0000 0.0000 0.0000
# 2 26.9614 89.5565 -5.8922 0.0000 0.0000 0.0000
# 3 6.2262 -5.8922 26.3934 0.0000 0.0000 0.0000
# 4 0.0000 0.0000 0.0000 -26.3895 0.0000 0.0000
# 5 0.0000 0.0000 0.0000 0.0000 27.5919 0.0000
# 6 0.0000 0.0000 0.0000 0.0000 0.0000 35.7771
#
#
#
# Elastic Compliance Matrix: (Units=1/GPa)
#
#
# Indices 1 2 3 4 5 6 
#
# 1 0.013105 -0.004211 -0.004032 0.000000 0.000000 0.000000
# 2 -0.004211 0.012685 0.003825 0.000000 0.000000 0.000000
# 3 -0.004032 0.003825 0.039693 0.000000 0.000000 0.000000
# 4 0.000000 0.000000 0.000000 -0.037894 0.000000 0.000000
# 5 0.000000 0.000000 0.000000 0.000000 0.036243 0.000000
# 6 0.000000 0.000000 0.000000 0.000000 0.000000 0.027951
#
#
# Mechanical properties :
#
#
# Convention : Reuss Voigt Hill
#
# Bulk Modulus (GPa) = 17.65221 28.60261 23.12741
# Shear Modulus (GPa) = 41.84067 19.09837 30.46952
#
# Velocity S-wave (km/s) = 4.52772 3.05899 3.86379
# Velocity P-wave (km/s) = 5.99855 5.14691 5.58897
#
# Compressibility (1/GPa) = 0.05665014
#
# Stress axis : x y z
#
# Youngs Moduli (GPa) = 76.30473 78.83045 25.19317
#
# Poissons Ratio (x) = 0.33193 0.10157
# Poissons Ratio (y) = 0.32129 -0.09637
# Poissons Ratio (z) = 0.30763 -0.30155
#
# Static dielectric constant tensor:
#      x y z
#    x 3.665270 0.000000 0.000000 
#    y 0.000000 4.102110 0.000000 
#    z 0.000000 0.000000 3.782850 
# 
# 
# High freq. dielectric constant tensor:
#      x y z
#    x 1.801160 0.000000 0.000000 
#    y 0.000000 1.811790 0.000000 
#    z 0.000000 0.000000 1.777870 
# 
# From -- ./inp_files/20521.got.cif
#   From: 2010.03.12/outbox.cif.g09.slc.cpg/sg53_11_cif.got.tgz:20521.got - 2010.04.16 14:36:59.
