data_PCOD8220143
_publ_section_title
;
Structure prediction by ZEFSAII (Michael W. Deem and Ramdas Pophale) SiO2 
 PCOD8220143
Probable space group: P M N A
;
_chemical_formula_sum "Si O2"
_cell_formula_units_Z 56
_cell_length_a 14.628740
_cell_length_b 8.566159
_cell_length_c 22.391032
_cell_angle_alpha 90.000000
_cell_angle_beta 90.000000
_cell_angle_gamma 90.000000
_cell_volume 2805.867528
_symmetry_space_group_name_H-M "P M N A"
_symmetry_group_IT_number 53
_symmetry_cell_setting 'orthorhombic'
loop_
_space_group_symop_operation_xyz
x,y,z
1/2-x,-y,1/2+z
x,-y,-z
1/2-x,y,1/2-z
-x,-y,-z
1/2+x,y,1/2-z
-x,y,z
1/2+x,-y,1/2+z
loop_
_atom_site_type_symbol
_atom_site_label
_atom_site_fract_x
_atom_site_fract_y
_atom_site_fract_z
Si Si1 0.103869 0.994376 0.071117
Si Si2 0.227432 0.183274 0.404723
Si Si3 0.901579 0.097215 0.610809
Si Si4 0.896343 0.682088 0.496126
Si Si5 0.901017 0.703378 0.282141
Si Si6 0.606813 0.692837 0.351387
Si Si7 0.242310 0.536974 0.680888
O O1 0.134291 0.826549 0.100195
O O2 0.000000 0.027807 0.091567
O O3 0.165387 0.139332 0.093056
O O4 0.112567 0.000000 0.000000
O O5 0.183621 0.237678 0.466439
O O6 0.209949 0.310665 0.354137
O O7 0.179551 0.021684 0.391425
O O8 0.883455 0.251082 0.570501
O O9 0.907839 0.139980 0.680175
O O10 0.000000 0.023716 0.591282
O O11 0.876318 0.500000 0.500000
O O12 0.000000 0.716042 0.519557
O O13 0.869803 0.753905 0.215660
O O14 0.835572 0.592149 0.319630
O O15 0.000000 0.619601 0.277576
O O16 0.500000 0.648187 0.360137
O O17 0.668703 0.534898 0.354027
O O18 0.250000 0.587975 0.750000
#
# Coordination Sequence:
#
# PCOD8220143 Si02
#       7
#     8   8   8   8   8   8   8
#     4  10  22  39  58  80 106 141 189 243 293 338
#     4  12  23  34  54  81 114 149 179 221 284 339
#     4  10  20  34  55  85 116 144 177 218 269 333
#     4  10  21  37  57  82 114 150 185 219 259 322
#     4   9  18  35  59  82 106 143 187 226 269 328
#     4   9  19  39  62  78 101 143 190 234 280 330
#     4  10  22  37  55  82 112 145 188 234 277 328
#
# _framework density 19.958176999999999
#
# number of rings (size 3 to 8) (size 9 to 14) (size 15 to 20)
#    0.000    2.000    0.000    3.429    0.000    6.286 
#    0.000    0.000    0.000    3.000    0.000    0.000 
#    0.000    0.000    0.000    0.000    0.000    0.000 
#
# Total GULP energy -693773.166336 kJ/mol
# GULP energy per Si atom -12388.806542 kJ/mol
# Density = 1.991275 g / cm^3
# Si number density = 19.958177 Si / 1000 Ang^3
#
#
#
# Elastic Constant Matrix: (Units=GPa)
#
#
# Indices 1 2 3 4 5 6 
#
# 1 89.6335 42.3824 27.0341 0.0000 0.0000 0.0000
# 2 42.3824 87.6769 45.0357 0.0000 0.0000 0.0000
# 3 27.0341 45.0357 89.5764 0.0000 0.0000 0.0000
# 4 0.0000 0.0000 0.0000 28.0748 0.0000 0.0000
# 5 0.0000 0.0000 0.0000 0.0000 30.3349 0.0000
# 6 0.0000 0.0000 0.0000 0.0000 0.0000 -4.6767
#
#
#
# Elastic Compliance Matrix: (Units=1/GPa)
#
#
# Indices 1 2 3 4 5 6 
#
# 1 0.014550 -0.006441 -0.001153 0.000000 0.000000 0.000000
# 2 -0.006441 0.018228 -0.007220 0.000000 0.000000 0.000000
# 3 -0.001153 -0.007220 0.015142 0.000000 0.000000 0.000000
# 4 0.000000 0.000000 0.000000 0.035619 0.000000 0.000000
# 5 0.000000 0.000000 0.000000 0.000000 0.032965 0.000000
# 6 0.000000 0.000000 0.000000 0.000000 0.000000 -0.213826
#
#
# Mechanical properties :
#
#
# Convention : Reuss Voigt Hill
#
# Bulk Modulus (GPa) = 54.67212 55.08790 54.88001
# Shear Modulus (GPa) = -81.17373 20.90891 -30.13241
#
# Velocity S-wave (km/s) = -6.38437 3.24023 -3.88980
# Velocity P-wave (km/s) = 5.18596 6.45449 2.71719
#
# Compressibility (1/GPa) = 0.01829086
#
# Stress axis : x y z
#
# Youngs Moduli (GPa) = 68.72905 54.86085 66.04285
#
# Poissons Ratio (x) = 0.35337 0.07613
# Poissons Ratio (y) = 0.44270 0.47685
# Poissons Ratio (z) = 0.07923 0.39612
#
# Static dielectric constant tensor:
#      x y z
#    x 3.989930 0.000000 0.000000 
#    y 0.000000 3.503230 0.000000 
#    z 0.000000 0.000000 3.729770 
# 
# 
# High freq. dielectric constant tensor:
#      x y z
#    x 1.795200 0.000000 0.000000 
#    y 0.000000 1.755430 0.000000 
#    z 0.000000 0.000000 1.780310 
# 
# From -- ./inp_files/32441.got.cif
#   From: 2010.03.12/outbox.cif.g09.slc.cpg/sg53_17_cif.got.tgz:32441.got - 2010.04.16 14:36:59.
