data_PCOD8220705
_publ_section_title
;
Structure prediction by ZEFSAII (Michael W. Deem and Ramdas Pophale) SiO2 
 PCOD8220705
Probable space group: P M N A
;
_chemical_formula_sum "Si O2"
_cell_formula_units_Z 64
_cell_length_a 9.142756
_cell_length_b 19.512904
_cell_length_c 18.508942
_cell_angle_alpha 90.000000
_cell_angle_beta 90.000000
_cell_angle_gamma 90.000000
_cell_volume 3302.027090
_symmetry_space_group_name_H-M "P M N A"
_symmetry_group_IT_number 53
_symmetry_cell_setting 'orthorhombic'
loop_
_space_group_symop_operation_xyz
x,y,z
1/2-x,-y,1/2+z
x,-y,-z
1/2-x,y,1/2-z
-x,-y,-z
1/2+x,y,1/2-z
-x,y,z
1/2+x,-y,1/2+z
loop_
_atom_site_type_symbol
_atom_site_label
_atom_site_fract_x
_atom_site_fract_y
_atom_site_fract_z
Si Si1 0.169354 0.787054 0.447321
Si Si2 0.168689 0.841149 0.917328
Si Si3 0.170279 0.108233 0.674625
Si Si4 0.331837 0.631170 0.049470
Si Si5 0.168849 0.414131 0.086549
Si Si6 0.169149 0.529380 0.324352
Si Si7 0.333064 0.719575 0.678040
Si Si8 0.168364 0.004010 0.083021
O O1 0.251642 0.831282 0.506943
O O2 0.198468 0.822387 0.370270
O O3 0.226439 0.708954 0.444519
O O4 0.000000 0.788709 0.467604
O O5 0.231145 0.789669 0.856325
O O6 0.189513 0.918300 0.889263
O O7 0.000000 0.823528 0.931801
O O8 0.250000 0.117575 0.750000
O O9 0.000000 0.095354 0.688703
O O10 0.230667 0.042802 0.632124
O O11 0.500000 0.628724 0.023328
O O12 0.314885 0.597419 0.127794
O O13 0.235164 0.587168 0.993796
O O14 0.257793 0.465419 0.136413
O O15 0.187601 0.338667 0.118569
O O16 0.000000 0.436970 0.082785
O O17 0.250000 0.544806 0.250000
O O18 0.000000 0.511365 0.309455
O O19 0.250000 0.698704 0.750000
O O20 0.500000 0.729144 0.700616
O O21 0.000000 0.980073 0.090055
O O22 0.219167 0.000000 0.000000
#
# Coordination Sequence:
#
# PCOD8220705 Si02
#       8
#     8   8   8   8   8   8   8   8
#     4  10  21  38  61  88 116 154 199 244 295 352
#     4  10  20  37  59  86 117 150 193 241 291 350
#     4  11  24  40  60  88 123 158 202 251 300 356
#     4  10  22  40  62  88 119 154 197 247 299 353
#     4  11  22  38  62  90 118 153 198 244 292 352
#     4  11  24  41  60  85 120 158 197 244 298 354
#     4  10  22  37  55  83 117 150 187 232 284 341
#     4  10  20  36  62  88 116 155 196 241 296 354
#
# _framework density 19.382034000000001
#
# number of rings (size 3 to 8) (size 9 to 14) (size 15 to 20)
#    0.000    1.625    2.500    1.875    0.000    7.250 
#    0.000    1.250    0.000    0.000    0.000    0.000 
#    0.000    0.000    0.000    0.000    0.000    0.000 
#
# Total GULP energy -793902.739066 kJ/mol
# GULP energy per Si atom -12404.730298 kJ/mol
# Density = 1.933792 g / cm^3
# Si number density = 19.382034 Si / 1000 Ang^3
#
#
#
# Elastic Constant Matrix: (Units=GPa)
#
#
# Indices 1 2 3 4 5 6 
#
# 1 97.6790 31.9319 59.9277 0.0000 0.0000 0.0000
# 2 31.9319 68.4310 21.3982 0.0000 0.0000 0.0000
# 3 59.9277 21.3982 113.6269 0.0000 0.0000 0.0000
# 4 0.0000 0.0000 0.0000 27.5029 0.0000 0.0000
# 5 0.0000 0.0000 0.0000 0.0000 38.0861 0.0000
# 6 0.0000 0.0000 0.0000 0.0000 0.0000 28.4405
#
#
#
# Elastic Compliance Matrix: (Units=1/GPa)
#
#
# Indices 1 2 3 4 5 6 
#
# 1 0.016820 -0.005392 -0.007855 0.000000 0.000000 0.000000
# 2 -0.005392 0.017256 -0.000406 0.000000 0.000000 0.000000
# 3 -0.007855 -0.000406 0.013020 0.000000 0.000000 0.000000
# 4 0.000000 0.000000 0.000000 0.036360 0.000000 0.000000
# 5 0.000000 0.000000 0.000000 0.000000 0.026256 0.000000
# 6 0.000000 0.000000 0.000000 0.000000 0.000000 0.035161
#
#
# Mechanical properties :
#
#
# Convention : Reuss Voigt Hill
#
# Bulk Modulus (GPa) = 50.53222 56.25030 53.39126
# Shear Modulus (GPa) = 27.96783 29.90453 28.93618
#
# Velocity S-wave (km/s) = 3.80278 3.93224 3.86805
# Velocity P-wave (km/s) = 6.73868 7.04993 6.89606
#
# Compressibility (1/GPa) = 0.01978935
#
# Stress axis : x y z
#
# Youngs Moduli (GPa) = 59.45374 57.94976 76.80394
#
# Poissons Ratio (x) = 0.31248 0.60333
# Poissons Ratio (y) = 0.32059 0.03117
# Poissons Ratio (z) = 0.46703 0.02352
#
# Static dielectric constant tensor:
#      x y z
#    x 3.606580 0.000000 0.000000 
#    y 0.000000 3.703890 0.000000 
#    z 0.000000 0.000000 3.487580 
# 
# 
# High freq. dielectric constant tensor:
#      x y z
#    x 1.755000 0.000000 0.000000 
#    y 0.000000 1.766470 0.000000 
#    z 0.000000 0.000000 1.753180 
# 
# From -- ./inp_files/26837.got.cif
#   From: 2010.03.12/outbox.cif.g09.slc.cpg/sg53_14_cif.got.tgz:26837.got - 2010.04.16 14:36:59.
