data_PCOD8220291
_publ_section_title
;
Structure prediction by ZEFSAII (Michael W. Deem and Ramdas Pophale) SiO2 
 PCOD8220291
Probable space group: P M N A
;
_chemical_formula_sum "Si O2"
_cell_formula_units_Z 64
_cell_length_a 9.250885
_cell_length_b 14.639630
_cell_length_c 23.875709
_cell_angle_alpha 90.000000
_cell_angle_beta 90.000000
_cell_angle_gamma 90.000000
_cell_volume 3233.476134
_symmetry_space_group_name_H-M "P M N A"
_symmetry_group_IT_number 53
_symmetry_cell_setting 'orthorhombic'
loop_
_space_group_symop_operation_xyz
x,y,z
1/2-x,-y,1/2+z
x,-y,-z
1/2-x,y,1/2-z
-x,-y,-z
1/2+x,y,1/2-z
-x,y,z
1/2+x,-y,1/2+z
loop_
_atom_site_type_symbol
_atom_site_label
_atom_site_fract_x
_atom_site_fract_y
_atom_site_fract_z
Si Si1 0.331003 0.814554 0.377697
Si Si2 0.834058 0.841372 0.882783
Si Si3 0.337525 0.532155 0.844785
Si Si4 0.331510 0.227818 0.500957
Si Si5 0.670431 0.015170 0.691331
Si Si6 0.337309 0.725003 0.802513
Si Si7 0.831274 0.590739 0.532301
Si Si8 0.169587 0.358587 0.805965
O O1 0.500000 0.833830 0.378651
O O2 0.271490 0.818099 0.441573
O O3 0.265124 0.893183 0.337697
O O4 0.293726 0.715272 0.353243
O O5 0.805144 0.843285 0.949819
O O6 0.734201 0.760975 0.859252
O O7 0.000000 0.815840 0.870582
O O8 0.792915 0.936234 0.853472
O O9 0.500000 0.490423 0.847980
O O10 0.334038 0.615210 0.800806
O O11 0.289580 0.574119 0.903614
O O12 0.224858 0.456443 0.825965
O O13 0.500000 0.250437 0.508083
O O14 0.254419 0.323829 0.491660
O O15 0.750000 0.997117 0.750000
O O16 0.500000 0.021392 0.703691
O O17 0.250000 0.765404 0.750000
O O18 0.500000 0.762358 0.798734
O O19 0.783552 0.500000 0.500000
O O20 0.000000 0.611719 0.524700
O O21 0.250000 0.327130 0.750000
O O22 0.000000 0.365815 0.793494
#
# Coordination Sequence:
#
# PCOD8220291 Si02
#       8
#     8   8   8   8   8   8   8   8
#     4   9  20  38  59  84 114 148 188 237 287 339
#     4  10  21  36  58  87 115 148 188 231 281 336
#     4  10  21  36  53  79 111 148 188 229 281 334
#     4  10  20  36  58  85 116 149 190 233 281 339
#     4  10  21  39  61  86 116 149 190 236 287 343
#     4  11  22  36  55  78 111 149 186 229 279 333
#     4  10  20  35  55  80 113 152 192 232 277 332
#     4  11  22  36  56  81 111 148 190 238 289 338
#
# _framework density 19.792942
#
# number of rings (size 3 to 8) (size 9 to 14) (size 15 to 20)
#    0.000    1.875    1.250    2.625    0.000    4.750 
#    0.000    4.375    0.000    0.000    0.000    2.625 
#    0.000    0.000    0.000    0.000    0.000    0.000 
#
# Total GULP energy -793618.338430 kJ/mol
# GULP energy per Si atom -12400.286538 kJ/mol
# Density = 1.974789 g / cm^3
# Si number density = 19.792942 Si / 1000 Ang^3
#
#
#
# Elastic Constant Matrix: (Units=GPa)
#
#
# Indices 1 2 3 4 5 6 
#
# 1 75.6928 38.9796 51.4830 0.0000 0.0000 0.0000
# 2 38.9796 83.0560 50.5411 0.0000 0.0000 0.0000
# 3 51.4830 50.5411 143.1272 0.0000 0.0000 0.0000
# 4 0.0000 0.0000 0.0000 32.0122 0.0000 0.0000
# 5 0.0000 0.0000 0.0000 0.0000 27.3118 0.0000
# 6 0.0000 0.0000 0.0000 0.0000 0.0000 20.4605
#
#
#
# Elastic Compliance Matrix: (Units=1/GPa)
#
#
# Indices 1 2 3 4 5 6 
#
# 1 0.019786 -0.006311 -0.004889 0.000000 0.000000 0.000000
# 2 -0.006311 0.017348 -0.003856 0.000000 0.000000 0.000000
# 3 -0.004889 -0.003856 0.010107 0.000000 0.000000 0.000000
# 4 0.000000 0.000000 0.000000 0.031238 0.000000 0.000000
# 5 0.000000 0.000000 0.000000 0.000000 0.036614 0.000000
# 6 0.000000 0.000000 0.000000 0.000000 0.000000 0.048875
#
#
# Mechanical properties :
#
#
# Convention : Reuss Voigt Hill
#
# Bulk Modulus (GPa) = 58.37662 64.87592 61.62627
# Shear Modulus (GPa) = 25.02625 26.68172 25.85399
#
# Velocity S-wave (km/s) = 3.55970 3.67555 3.61809
# Velocity P-wave (km/s) = 6.81564 7.13172 6.97547
#
# Compressibility (1/GPa) = 0.01713015
#
# Stress axis : x y z
#
# Youngs Moduli (GPa) = 50.53968 57.64196 98.94326
#
# Poissons Ratio (x) = 0.36380 0.48369
# Poissons Ratio (y) = 0.31897 0.38151
# Poissons Ratio (z) = 0.24707 0.22226
#
# Static dielectric constant tensor:
#      x y z
#    x 3.443670 0.000000 0.000000 
#    y 0.000000 3.541750 0.000000 
#    z 0.000000 0.000000 3.877590 
# 
# 
# High freq. dielectric constant tensor:
#      x y z
#    x 1.754230 0.000000 0.000000 
#    y 0.000000 1.767850 0.000000 
#    z 0.000000 0.000000 1.787750 
# 
# From -- ./inp_files/34279.got.cif
#   From: 2010.03.12/outbox.cif.g09.slc.cpg/sg53_18_cif.got.tgz:34279.got - 2010.04.16 14:36:59.
