data_PCOD8220193
_publ_section_title
;
Structure prediction by ZEFSAII (Michael W. Deem and Ramdas Pophale) SiO2 
 PCOD8220193
Probable space group: P M N A
;
_chemical_formula_sum "Si O2"
_cell_formula_units_Z 52
_cell_length_a 19.583235
_cell_length_b 11.432862
_cell_length_c 11.797907
_cell_angle_alpha 90.000000
_cell_angle_beta 90.000000
_cell_angle_gamma 90.000000
_cell_volume 2641.461988
_symmetry_space_group_name_H-M "P M N A"
_symmetry_group_IT_number 53
_symmetry_cell_setting 'orthorhombic'
loop_
_space_group_symop_operation_xyz
x,y,z
1/2-x,-y,1/2+z
x,-y,-z
1/2-x,y,1/2-z
-x,-y,-z
1/2+x,y,1/2-z
-x,y,z
1/2+x,-y,1/2+z
loop_
_atom_site_type_symbol
_atom_site_label
_atom_site_fract_x
_atom_site_fract_y
_atom_site_fract_z
Si Si1 0.770249 0.000000 0.000000
Si Si2 0.323843 0.199003 0.061681
Si Si3 0.423278 0.521938 0.126469
Si Si4 0.329215 0.355070 0.260139
Si Si5 0.423316 0.205301 0.863910
Si Si6 0.181280 0.820756 0.177359
Si Si7 0.704761 0.639450 0.498890
O O1 0.722369 0.915646 0.924983
O O2 0.816375 0.075688 0.915088
O O3 0.346806 0.239185 0.186923
O O4 0.280703 0.305213 0.005557
O O5 0.389175 0.172085 0.983861
O O6 0.500000 0.469610 0.134627
O O7 0.376016 0.461220 0.219545
O O8 0.423582 0.657161 0.154790
O O9 0.394394 0.500000 0.000000
O O10 0.250000 0.393784 0.250000
O O11 0.341682 0.324760 0.392153
O O12 0.500000 0.154265 0.863787
O O13 0.381522 0.149756 0.759764
O O14 0.250000 0.815020 0.250000
O O15 0.170290 0.695555 0.113231
O O16 0.710714 0.500000 0.500000
#
# Coordination Sequence:
#
# PCOD8220193 Si02
#       7
#     4   8   8   8   8   8   8
#     4  10  22  40  62  90 110 160 214 266 320 368
#     4  10  21  37  58  88 122 159 201 265 315 369
#     4  10  20  34  58  88 131 177 209 249 310 381
#     4  10  21  32  54  91 126 163 206 262 310 368
#     4  11  22  38  62  96 128 161 210 260 315 375
#     4  11  22  41  66  90 121 168 214 262 312 377
#     4  10  21  34  55  92 127 164 203 258 316 369
#
# _framework density 19.686069
#
# number of rings (size 3 to 8) (size 9 to 14) (size 15 to 20)
#    0.000    1.692    4.615    0.923    4.308    5.538 
#    0.000    1.538    0.000    2.769    0.000    0.000 
#    0.000    0.000    0.000    0.000    0.000    0.000 
#
# Total GULP energy -644699.011757 kJ/mol
# GULP energy per Si atom -12398.057918 kJ/mol
# Density = 1.964126 g / cm^3
# Si number density = 19.686069 Si / 1000 Ang^3
#
#
#
# Elastic Constant Matrix: (Units=GPa)
#
#
# Indices 1 2 3 4 5 6 
#
# 1 100.7631 18.9420 47.3091 0.0000 0.0000 0.0000
# 2 18.9420 87.8450 22.9591 0.0000 0.0000 0.0000
# 3 47.3091 22.9591 118.9853 0.0000 0.0000 0.0000
# 4 0.0000 0.0000 0.0000 30.2066 0.0000 0.0000
# 5 0.0000 0.0000 0.0000 0.0000 28.2803 0.0000
# 6 0.0000 0.0000 0.0000 0.0000 0.0000 13.9751
#
#
#
# Elastic Compliance Matrix: (Units=1/GPa)
#
#
# Indices 1 2 3 4 5 6 
#
# 1 0.012377 -0.001456 -0.004640 0.000000 0.000000 0.000000
# 2 -0.001456 0.012160 -0.001767 0.000000 0.000000 0.000000
# 3 -0.004640 -0.001767 0.010590 0.000000 0.000000 0.000000
# 4 0.000000 0.000000 0.000000 0.033105 0.000000 0.000000
# 5 0.000000 0.000000 0.000000 0.000000 0.035360 0.000000
# 6 0.000000 0.000000 0.000000 0.000000 0.000000 0.071556
#
#
# Mechanical properties :
#
#
# Convention : Reuss Voigt Hill
#
# Bulk Modulus (GPa) = 51.54746 54.00154 52.77450
# Shear Modulus (GPa) = 25.33684 29.05126 27.19405
#
# Velocity S-wave (km/s) = 3.59143 3.84569 3.72073
# Velocity P-wave (km/s) = 6.59086 6.87095 6.73236
#
# Compressibility (1/GPa) = 0.01939960
#
# Stress axis : x y z
#
# Youngs Moduli (GPa) = 80.79822 82.23978 94.42591
#
# Poissons Ratio (x) = 0.11974 0.43814
# Poissons Ratio (y) = 0.11765 0.16688
# Poissons Ratio (z) = 0.37490 0.14535
#
# Static dielectric constant tensor:
#      x y z
#    x 3.496140 0.000000 0.000000 
#    y 0.000000 3.564990 0.000000 
#    z 0.000000 0.000000 3.985840 
# 
# 
# High freq. dielectric constant tensor:
#      x y z
#    x 1.733830 0.000000 0.000000 
#    y 0.000000 1.758690 0.000000 
#    z 0.000000 0.000000 1.775910 
# 
# From -- ./inp_files/17857.got.cif
#   From: 2010.03.12/outbox.cif.g09.slc.cpg/sg53_9_cif.got.tgz:17857.got - 2010.04.16 14:36:59.
