data_PCOD8220461
_publ_section_title
;
Structure prediction by ZEFSAII (Michael W. Deem and Ramdas Pophale) SiO2 
 PCOD8220461
Probable space group: P M N A
;
_chemical_formula_sum "Si O2"
_cell_formula_units_Z 40
_cell_length_a 24.140871
_cell_length_b 8.858169
_cell_length_c 9.834076
_cell_angle_alpha 90.000000
_cell_angle_beta 90.000000
_cell_angle_gamma 90.000000
_cell_volume 2102.957313
_symmetry_space_group_name_H-M "P M N A"
_symmetry_group_IT_number 53
_symmetry_cell_setting 'orthorhombic'
loop_
_space_group_symop_operation_xyz
x,y,z
1/2-x,-y,1/2+z
x,-y,-z
1/2-x,y,1/2-z
-x,-y,-z
1/2+x,y,1/2-z
-x,y,z
1/2+x,-y,1/2+z
loop_
_atom_site_type_symbol
_atom_site_label
_atom_site_fract_x
_atom_site_fract_y
_atom_site_fract_z
Si Si1 0.882272 0.200577 0.783295
Si Si2 0.500000 0.851483 0.696574
Si Si3 0.228298 0.139050 0.898263
Si Si4 0.899582 0.904375 0.631755
Si Si5 0.000000 0.805074 0.102038
Si Si6 0.329978 0.324655 0.973480
O O1 0.833881 0.209604 0.896976
O O2 0.942348 0.257149 0.835682
O O3 0.869140 0.306905 0.656957
O O4 0.876944 0.025017 0.739623
O O5 0.551344 0.814620 0.794031
O O6 0.500000 0.755970 0.556930
O O7 0.500000 0.020071 0.638999
O O8 0.250000 0.086006 0.750000
O O9 0.267290 0.274101 0.948884
O O10 0.232673 0.000000 0.000000
O O11 0.853860 0.779166 0.595365
O O12 0.920350 0.000000 0.500000
O O13 0.330278 0.500000 0.000000
#
# Coordination Sequence:
#
# PCOD8220461 Si02
#       6
#     8   4   8   8   4   8
#     4   9  19  35  58  81 113 138 177 226 276 328
#     4   9  17  28  54  83 110 138 174 227 274 328
#     4  10  20  36  58  85 112 144 181 234 279 330
#     4   9  17  32  54  83 108 138 179 229 271 324
#     4   9  18  32  54  83 109 137 176 222 281 324
#     4  10  20  36  55  79 110 145 187 224 268 322
#
# _framework density 19.020831999999999
#
# number of rings (size 3 to 8) (size 9 to 14) (size 15 to 20)
#    0.000    2.600    0.000    3.300    5.600    2.400 
#    0.000   11.000    0.000    1.200    0.000    0.000 
#    0.000    0.000    0.000    0.000    0.000    0.000 
#
# Total GULP energy -495642.699578 kJ/mol
# GULP energy per Si atom -12391.067489 kJ/mol
# Density = 1.897754 g / cm^3
# Si number density = 19.020832 Si / 1000 Ang^3
#
#
#
# Elastic Constant Matrix: (Units=GPa)
#
#
# Indices 1 2 3 4 5 6 
#
# 1 182.7784 50.0937 67.8185 0.0000 0.0000 0.0000
# 2 50.0937 91.2812 37.4191 0.0000 0.0000 0.0000
# 3 67.8185 37.4191 79.5749 0.0000 0.0000 0.0000
# 4 0.0000 0.0000 0.0000 11.4868 0.0000 0.0000
# 5 0.0000 0.0000 0.0000 0.0000 27.4793 0.0000
# 6 0.0000 0.0000 0.0000 0.0000 0.0000 6.2871
#
#
#
# Elastic Compliance Matrix: (Units=1/GPa)
#
#
# Indices 1 2 3 4 5 6 
#
# 1 0.008300 -0.002050 -0.006110 0.000000 0.000000 0.000000
# 2 -0.002050 0.014078 -0.004872 0.000000 0.000000 0.000000
# 3 -0.006110 -0.004872 0.020065 0.000000 0.000000 0.000000
# 4 0.000000 0.000000 0.000000 0.087057 0.000000 0.000000
# 5 0.000000 0.000000 0.000000 0.000000 0.036391 0.000000
# 6 0.000000 0.000000 0.000000 0.000000 0.000000 0.159056
#
#
# Mechanical properties :
#
#
# Convention : Reuss Voigt Hill
#
# Bulk Modulus (GPa) = 61.05798 73.81078 67.43438
# Shear Modulus (GPa) = 14.02642 22.27085 18.14864
#
# Velocity S-wave (km/s) = 2.71850 3.42550 3.09228
# Velocity P-wave (km/s) = 6.48259 7.38478 6.94834
#
# Compressibility (1/GPa) = 0.01637787
#
# Stress axis : x y z
#
# Youngs Moduli (GPa) = 120.48267 71.03414 49.83824
#
# Poissons Ratio (x) = 0.14565 0.30449
# Poissons Ratio (y) = 0.24703 0.24283
# Poissons Ratio (z) = 0.73609 0.34611
#
# Static dielectric constant tensor:
#      x y z
#    x 3.893420 0.000000 0.000000 
#    y 0.000000 2.930260 0.000000 
#    z 0.000000 0.000000 3.663460 
# 
# 
# High freq. dielectric constant tensor:
#      x y z
#    x 1.754640 0.000000 0.000000 
#    y 0.000000 1.686170 0.000000 
#    z 0.000000 0.000000 1.741680 
# 
# From -- ./inp_files/12362.got.cif
#   From: 2010.03.12/outbox.cif.g09.slc.cpg/sg53_7_cif.got.tgz:12362.got - 2010.04.16 14:36:59.
