data_PCOD8220940
_publ_section_title
;
Structure prediction by ZEFSAII (Michael W. Deem and Ramdas Pophale) SiO2 
 PCOD8220940
Probable space group: P M N A
;
_chemical_formula_sum "Si O2"
_cell_formula_units_Z 40
_cell_length_a 17.460839
_cell_length_b 8.993774
_cell_length_c 12.546888
_cell_angle_alpha 90.000000
_cell_angle_beta 90.000000
_cell_angle_gamma 90.000000
_cell_volume 1970.348735
_symmetry_space_group_name_H-M "P M N A"
_symmetry_group_IT_number 53
_symmetry_cell_setting 'orthorhombic'
loop_
_space_group_symop_operation_xyz
x,y,z
1/2-x,-y,1/2+z
x,-y,-z
1/2-x,y,1/2-z
-x,-y,-z
1/2+x,y,1/2-z
-x,y,z
1/2+x,-y,1/2+z
loop_
_atom_site_type_symbol
_atom_site_label
_atom_site_fract_x
_atom_site_fract_y
_atom_site_fract_z
Si Si1 0.662294 0.157564 0.718628
Si Si2 0.409056 0.643902 0.863633
Si Si3 0.088833 0.850952 0.824624
Si Si4 0.090193 0.682926 0.402063
Si Si5 0.911651 0.663684 0.035632
O O1 0.750000 0.164597 0.750000
O O2 0.616500 0.182567 0.828207
O O3 0.641745 0.284424 0.632692
O O4 0.638919 0.999053 0.671735
O O5 0.500000 0.643275 0.855166
O O6 0.376845 0.743283 0.767081
O O7 0.378439 0.474332 0.855608
O O8 0.380692 0.710683 0.976949
O O9 0.000000 0.891017 0.803646
O O10 0.099014 0.774548 0.937946
O O11 0.000000 0.675408 0.405548
O O12 0.000000 0.661125 0.074857
O O13 0.885508 0.500000 0.000000
#
# Coordination Sequence:
#
# PCOD8220940 Si02
#       5
#     8   8   8   8   8
#     4  12  25  39  52  87 127 164 195 234 303 366
#     4   8  16  33  61  92 111 140 193 248 295 336
#     4  10  20  38  63  89 117 153 201 251 297 348
#     4   9  17  35  61  86 116 150 196 247 287 344
#     4  10  21  42  72  94 112 149 210 269 304 346
#
# _framework density 20.300975999999999
#
# number of rings (size 3 to 8) (size 9 to 14) (size 15 to 20)
#    0.000    2.200    0.000    4.800    0.000    5.600 
#   10.800    5.000    0.000    0.000    0.000    0.000 
#    0.000    0.000    0.000    0.000    0.000    0.000 
#
# Total GULP energy -495973.678652 kJ/mol
# GULP energy per Si atom -12399.341966 kJ/mol
# Density = 2.025477 g / cm^3
# Si number density = 20.300976 Si / 1000 Ang^3
#
#
#
# Elastic Constant Matrix: (Units=GPa)
#
#
# Indices 1 2 3 4 5 6 
#
# 1 61.3717 42.8437 43.2427 0.0000 0.0000 0.0000
# 2 42.8437 79.4279 24.2363 0.0000 0.0000 0.0000
# 3 43.2427 24.2363 93.3583 0.0000 0.0000 0.0000
# 4 0.0000 0.0000 0.0000 36.0484 0.0000 0.0000
# 5 0.0000 0.0000 0.0000 0.0000 8.1944 0.0000
# 6 0.0000 0.0000 0.0000 0.0000 0.0000 49.9236
#
#
#
# Elastic Compliance Matrix: (Units=1/GPa)
#
#
# Indices 1 2 3 4 5 6 
#
# 1 0.036136 -0.015622 -0.012682 0.000000 0.000000 0.000000
# 2 -0.015622 0.020427 0.001933 0.000000 0.000000 0.000000
# 3 -0.012682 0.001933 0.016084 0.000000 0.000000 0.000000
# 4 0.000000 0.000000 0.000000 0.027740 0.000000 0.000000
# 5 0.000000 0.000000 0.000000 0.000000 0.122034 0.000000
# 6 0.000000 0.000000 0.000000 0.000000 0.000000 0.020031
#
#
# Mechanical properties :
#
#
# Convention : Reuss Voigt Hill
#
# Bulk Modulus (GPa) = 50.24079 50.53372 50.38726
# Shear Modulus (GPa) = 16.56567 27.08897 21.82732
#
# Velocity S-wave (km/s) = 2.85968 3.65686 3.28256
# Velocity P-wave (km/s) = 5.97540 6.54037 6.26426
#
# Compressibility (1/GPa) = 0.01990414
#
# Stress axis : x y z
#
# Youngs Moduli (GPa) = 27.67335 48.95540 62.17413
#
# Poissons Ratio (x) = 0.76478 0.78851
# Poissons Ratio (y) = 0.43231 -0.12019
# Poissons Ratio (z) = 0.35096 -0.09463
#
# Static dielectric constant tensor:
#      x y z
#    x 3.238220 0.000000 0.000000 
#    y 0.000000 3.763700 0.000000 
#    z 0.000000 0.000000 3.510510 
# 
# 
# High freq. dielectric constant tensor:
#      x y z
#    x 1.745480 0.000000 0.000000 
#    y 0.000000 1.796010 0.000000 
#    z 0.000000 0.000000 1.812400 
# 
# From -- ./inp_files/16677.got.cif
#   From: 2010.03.12/outbox.cif.g09.slc.cpg/sg53_9_cif.got.tgz:16677.got - 2010.04.16 14:36:59.
