data_PCOD8220375
_publ_section_title
;
Structure prediction by ZEFSAII (Michael W. Deem and Ramdas Pophale) SiO2 
 PCOD8220375
Probable space group: P M N A
;
_chemical_formula_sum "Si O2"
_cell_formula_units_Z 64
_cell_length_a 8.797302
_cell_length_b 21.458977
_cell_length_c 17.575512
_cell_angle_alpha 90.000000
_cell_angle_beta 90.000000
_cell_angle_gamma 90.000000
_cell_volume 3317.924511
_symmetry_space_group_name_H-M "P M N A"
_symmetry_group_IT_number 53
_symmetry_cell_setting 'orthorhombic'
loop_
_space_group_symop_operation_xyz
x,y,z
1/2-x,-y,1/2+z
x,-y,-z
1/2-x,y,1/2-z
-x,-y,-z
1/2+x,y,1/2-z
-x,y,z
1/2+x,-y,1/2+z
loop_
_atom_site_type_symbol
_atom_site_label
_atom_site_fract_x
_atom_site_fract_y
_atom_site_fract_z
Si Si1 0.820704 0.002882 0.670862
Si Si2 0.179047 0.224485 0.167601
Si Si3 0.178184 0.630159 0.174174
Si Si4 0.822225 0.313971 0.447042
Si Si5 0.321411 0.878551 0.399970
Si Si6 0.677834 0.102600 0.425051
Si Si7 0.677350 0.569639 0.483666
Si Si8 0.821109 0.252047 0.605330
O O1 0.750000 0.979271 0.750000
O O2 0.770987 0.956207 0.604577
O O3 0.000000 0.003190 0.678425
O O4 0.762595 0.071751 0.652525
O O5 0.250000 0.218413 0.250000
O O6 0.239249 0.286468 0.126610
O O7 0.229292 0.164287 0.119476
O O8 0.000000 0.229359 0.175056
O O9 0.250000 0.599393 0.250000
O O10 0.214280 0.584401 0.104164
O O11 0.260490 0.696177 0.162969
O O12 0.000000 0.641062 0.183958
O O13 0.767300 0.384454 0.460309
O O14 0.778248 0.271990 0.519603
O O15 0.000000 0.314297 0.431428
O O16 0.500000 0.884049 0.386202
O O17 0.277735 0.889441 0.487434
O O18 0.264510 0.811196 0.373992
O O19 0.500000 0.089079 0.414337
O O20 0.734138 0.500000 0.500000
O O21 0.500000 0.577702 0.501414
O O22 0.000000 0.243488 0.615818
#
# Coordination Sequence:
#
# PCOD8220375 Si02
#       8
#     8   8   8   8   8   8   8   8
#     4  12  26  42  59  81 112 150 192 240 293 346
#     4  11  22  37  58  86 117 152 192 237 291 344
#     4  10  20  35  57  85 118 153 193 238 288 340
#     4  10  20  35  57  85 117 150 187 235 284 338
#     4  11  22  39  62  87 115 148 189 235 289 348
#     4  10  22  40  62  86 113 149 190 236 289 348
#     4   9  19  37  61  86 115 157 201 239 284 340
#     4  10  20  35  57  85 115 147 188 232 282 339
#
# _framework density 19.289165000000001
#
# number of rings (size 3 to 8) (size 9 to 14) (size 15 to 20)
#    0.000    1.625    1.250    3.750    0.000    6.750 
#    0.000    3.125    0.000    1.500    0.000    0.000 
#    0.000    0.000    0.000    0.000    0.000    0.000 
#
# Total GULP energy -794015.405259 kJ/mol
# GULP energy per Si atom -12406.490707 kJ/mol
# Density = 1.924526 g / cm^3
# Si number density = 19.289165 Si / 1000 Ang^3
#
#
#
# Elastic Constant Matrix: (Units=GPa)
#
#
# Indices 1 2 3 4 5 6 
#
# 1 68.7378 28.2682 26.2660 0.0000 0.0000 0.0000
# 2 28.2682 107.5346 19.0632 0.0000 0.0000 0.0000
# 3 26.2660 19.0632 71.0225 0.0000 0.0000 0.0000
# 4 0.0000 0.0000 0.0000 22.1156 0.0000 0.0000
# 5 0.0000 0.0000 0.0000 0.0000 33.8006 0.0000
# 6 0.0000 0.0000 0.0000 0.0000 0.0000 29.0173
#
#
#
# Elastic Compliance Matrix: (Units=1/GPa)
#
#
# Indices 1 2 3 4 5 6 
#
# 1 0.018306 -0.003792 -0.005752 0.000000 0.000000 0.000000
# 2 -0.003792 0.010550 -0.001429 0.000000 0.000000 0.000000
# 3 -0.005752 -0.001429 0.016591 0.000000 0.000000 0.000000
# 4 0.000000 0.000000 0.000000 0.045217 0.000000 0.000000
# 5 0.000000 0.000000 0.000000 0.000000 0.029585 0.000000
# 6 0.000000 0.000000 0.000000 0.000000 0.000000 0.034462
#
#
# Mechanical properties :
#
#
# Convention : Reuss Voigt Hill
#
# Bulk Modulus (GPa) = 42.55479 43.83218 43.19349
# Shear Modulus (GPa) = 27.10169 28.56654 27.83411
#
# Velocity S-wave (km/s) = 3.75243 3.85250 3.80279
# Velocity P-wave (km/s) = 6.39403 6.52396 6.45933
#
# Compressibility (1/GPa) = 0.02349912
#
# Stress axis : x y z
#
# Youngs Moduli (GPa) = 54.62817 94.79029 60.27423
#
# Poissons Ratio (x) = 0.35948 0.34669
# Poissons Ratio (y) = 0.20717 0.08614
# Poissons Ratio (z) = 0.31422 0.13546
#
# Static dielectric constant tensor:
#      x y z
#    x 3.528300 0.000000 0.000000 
#    y 0.000000 3.498740 0.000000 
#    z 0.000000 0.000000 3.795810 
# 
# 
# High freq. dielectric constant tensor:
#      x y z
#    x 1.759380 0.000000 0.000000 
#    y 0.000000 1.746800 0.000000 
#    z 0.000000 0.000000 1.752060 
# 
# From -- ./inp_files/26924.got.cif
#   From: 2010.03.12/outbox.cif.g09.slc.cpg/sg53_14_cif.got.tgz:26924.got - 2010.04.16 14:36:59.
