data_PCOD8220252
_publ_section_title
;
Structure prediction by ZEFSAII (Michael W. Deem and Ramdas Pophale) SiO2 
 PCOD8220252
Probable space group: P M N A
;
_chemical_formula_sum "Si O2"
_cell_formula_units_Z 44
_cell_length_a 19.066816
_cell_length_b 8.985941
_cell_length_c 13.949311
_cell_angle_alpha 90.000000
_cell_angle_beta 90.000000
_cell_angle_gamma 90.000000
_cell_volume 2389.981258
_symmetry_space_group_name_H-M "P M N A"
_symmetry_group_IT_number 53
_symmetry_cell_setting 'orthorhombic'
loop_
_space_group_symop_operation_xyz
x,y,z
1/2-x,-y,1/2+z
x,-y,-z
1/2-x,y,1/2-z
-x,-y,-z
1/2+x,y,1/2-z
-x,y,z
1/2+x,-y,1/2+z
loop_
_atom_site_type_symbol
_atom_site_label
_atom_site_fract_x
_atom_site_fract_y
_atom_site_fract_z
Si Si1 0.812742 0.522315 0.890390
Si Si2 0.580138 0.707782 0.717187
Si Si3 0.794987 0.221713 0.340555
Si Si4 0.233119 0.000000 0.500000
Si Si5 0.421307 0.016543 0.608714
Si Si6 0.297015 0.191500 0.661624
O O1 0.885417 0.575909 0.843818
O O2 0.748546 0.636516 0.878024
O O3 0.791031 0.368431 0.841307
O O4 0.830424 0.500000 0.000000
O O5 0.500000 0.667686 0.745013
O O6 0.626802 0.727866 0.812571
O O7 0.584000 0.855310 0.654588
O O8 0.750000 0.156002 0.250000
O O9 0.809201 0.097796 0.422069
O O10 0.276207 0.879802 0.439853
O O11 0.500000 0.079274 0.608892
O O12 0.376761 0.132704 0.673192
O O13 0.393266 0.000000 0.500000
O O14 0.250000 0.134232 0.750000
#
# Coordination Sequence:
#
# PCOD8220252 Si02
#       6
#     8   8   8   4   8   8
#     4  11  21  38  58  85 117 146 191 243 288 341
#     4  10  21  38  58  81 117 156 189 230 290 350
#     4  10  21  38  57  84 116 152 190 239 289 338
#     4  12  20  34  58  82 114 148 192 238 280 342
#     4  10  20  35  54  81 117 149 180 228 287 344
#     4  12  22  34  57  88 113 145 191 237 284 338
#
# _framework density 18.410184999999998
#
# number of rings (size 3 to 8) (size 9 to 14) (size 15 to 20)
#    0.000    1.273    2.727    6.545    0.000    1.091 
#    0.000    0.455    0.000    1.636    0.000    0.000 
#    0.000    0.000    0.000    0.000    0.000    0.000 
#
# Total GULP energy -545350.694088 kJ/mol
# GULP energy per Si atom -12394.333957 kJ/mol
# Density = 1.836828 g / cm^3
# Si number density = 18.410185 Si / 1000 Ang^3
#
#
#
# Elastic Constant Matrix: (Units=GPa)
#
#
# Indices 1 2 3 4 5 6 
#
# 1 146.2334 50.1349 63.7076 0.0000 0.0000 0.0000
# 2 50.1349 108.8727 46.0613 0.0000 0.0000 0.0000
# 3 63.7076 46.0613 110.0378 0.0000 0.0000 0.0000
# 4 0.0000 0.0000 0.0000 36.5021 0.0000 0.0000
# 5 0.0000 0.0000 0.0000 0.0000 19.1630 0.0000
# 6 0.0000 0.0000 0.0000 0.0000 0.0000 3.4637
#
#
#
# Elastic Compliance Matrix: (Units=1/GPa)
#
#
# Indices 1 2 3 4 5 6 
#
# 1 0.009690 -0.002538 -0.004548 0.000000 0.000000 0.000000
# 2 -0.002538 0.011827 -0.003481 0.000000 0.000000 0.000000
# 3 -0.004548 -0.003481 0.013178 0.000000 0.000000 0.000000
# 4 0.000000 0.000000 0.000000 0.027396 0.000000 0.000000
# 5 0.000000 0.000000 0.000000 0.000000 0.052184 0.000000
# 6 0.000000 0.000000 0.000000 0.000000 0.000000 0.288711
#
#
# Mechanical properties :
#
#
# Convention : Reuss Voigt Hill
#
# Bulk Modulus (GPa) = 73.74274 76.10573 74.92424
# Shear Modulus (GPa) = 11.66485 25.50842 18.58664
#
# Velocity S-wave (km/s) = 2.51989 3.72635 3.18084
# Velocity P-wave (km/s) = 6.97200 7.74228 7.36722
#
# Compressibility (1/GPa) = 0.01356066
#
# Stress axis : x y z
#
# Youngs Moduli (GPa) = 103.20230 84.55540 75.88514
#
# Poissons Ratio (x) = 0.21461 0.34509
# Poissons Ratio (y) = 0.26193 0.26416
# Poissons Ratio (z) = 0.46932 0.29435
#
# Static dielectric constant tensor:
#      x y z
#    x 3.561680 0.000000 0.000000 
#    y 0.000000 3.488140 0.000000 
#    z 0.000000 0.000000 2.857040 
# 
# 
# High freq. dielectric constant tensor:
#      x y z
#    x 1.698770 0.000000 0.000000 
#    y 0.000000 1.723480 0.000000 
#    z 0.000000 0.000000 1.710910 
# 
# From -- ./inp_files/23499.got.cif
#   From: 2010.03.12/outbox.cif.g09.slc.cpg/sg53_12_cif.got.tgz:23499.got - 2010.04.16 14:36:59.
