data_PCOD8220729
_publ_section_title
;
Structure prediction by ZEFSAII (Michael W. Deem and Ramdas Pophale) SiO2 
 PCOD8220729
Probable space group: P M N A
;
_chemical_formula_sum "Si O2"
_cell_formula_units_Z 64
_cell_length_a 15.187647
_cell_length_b 9.617336
_cell_length_c 23.570093
_cell_angle_alpha 90.000000
_cell_angle_beta 90.000000
_cell_angle_gamma 90.000000
_cell_volume 3442.758663
_symmetry_space_group_name_H-M "P M N A"
_symmetry_group_IT_number 53
_symmetry_cell_setting 'orthorhombic'
loop_
_space_group_symop_operation_xyz
x,y,z
1/2-x,-y,1/2+z
x,-y,-z
1/2-x,y,1/2-z
-x,-y,-z
1/2+x,y,1/2-z
-x,y,z
1/2+x,-y,1/2+z
loop_
_atom_site_type_symbol
_atom_site_label
_atom_site_fract_x
_atom_site_fract_y
_atom_site_fract_z
Si Si1 0.601871 0.659460 0.378032
Si Si2 0.751382 0.836944 0.064343
Si Si3 0.752289 0.840152 0.934154
Si Si4 0.402919 0.843392 0.852129
Si Si5 0.599271 0.662312 0.621699
Si Si6 0.848722 0.331571 0.249011
Si Si7 0.397657 0.635802 0.250616
Si Si8 0.101081 0.163030 0.649934
O O1 0.500000 0.695699 0.390718
O O2 0.662618 0.751276 0.418294
O O3 0.621413 0.498131 0.390311
O O4 0.626620 0.693501 0.312822
O O5 0.664543 0.790165 0.098778
O O6 0.772544 0.998034 0.075209
O O7 0.729693 0.806963 0.999042
O O8 0.668591 0.790311 0.897376
O O9 0.837949 0.756165 0.916027
O O10 0.500000 0.830345 0.880033
O O11 0.403202 0.751498 0.795744
O O12 0.384736 0.002364 0.834807
O O13 0.500000 0.696794 0.603070
O O14 0.608364 0.696190 0.688128
O O15 0.750000 0.273054 0.250000
O O16 0.846313 0.494849 0.264411
O O17 0.500000 0.596551 0.249238
O O18 0.370941 0.752431 0.205694
O O19 0.000000 0.194958 0.632451
#
# Coordination Sequence:
#
# PCOD8220729 Si02
#       8
#     8   8   8   8   8   8   8   8
#     4   9  20  37  56  80 108 144 179 216 269 325
#     4  10  22  37  57  76 110 140 183 233 266 315
#     4  10  22  39  53  81 105 143 187 224 272 315
#     4  10  20  37  57  80 112 144 178 221 267 321
#     4  10  21  38  57  79 111 143 178 220 267 324
#     4  11  20  33  56  85 112 140 176 216 268 326
#     4   9  19  35  54  82 113 140 176 215 265 330
#     4   9  20  36  56  82 110 143 179 219 270 321
#
# _framework density 18.589742000000001
#
# number of rings (size 3 to 8) (size 9 to 14) (size 15 to 20)
#    0.000    2.250    1.250    1.875    3.500    3.000 
#    0.000    6.250    0.000    0.000    0.000    4.375 
#    0.000    0.000    0.000    0.000    0.000    0.000 
#
# Total GULP energy -793748.095152 kJ/mol
# GULP energy per Si atom -12402.313987 kJ/mol
# Density = 1.854743 g / cm^3
# Si number density = 18.589742 Si / 1000 Ang^3
#
#
#
# Elastic Constant Matrix: (Units=GPa)
#
#
# Indices 1 2 3 4 5 6 
#
# 1 92.9698 33.3307 31.0161 0.0000 0.0000 0.0000
# 2 33.3307 50.1096 37.0189 0.0000 0.0000 0.0000
# 3 31.0161 37.0189 79.6195 0.0000 0.0000 0.0000
# 4 0.0000 0.0000 0.0000 20.4942 0.0000 0.0000
# 5 0.0000 0.0000 0.0000 0.0000 19.7687 0.0000
# 6 0.0000 0.0000 0.0000 0.0000 0.0000 31.0632
#
#
#
# Elastic Compliance Matrix: (Units=1/GPa)
#
#
# Indices 1 2 3 4 5 6 
#
# 1 0.014282 -0.008209 -0.001747 0.000000 0.000000 0.000000
# 2 -0.008209 0.035116 -0.013129 0.000000 0.000000 0.000000
# 3 -0.001747 -0.013129 0.019345 0.000000 0.000000 0.000000
# 4 0.000000 0.000000 0.000000 0.048794 0.000000 0.000000
# 5 0.000000 0.000000 0.000000 0.000000 0.050585 0.000000
# 6 0.000000 0.000000 0.000000 0.000000 0.000000 0.032192
#
#
# Mechanical properties :
#
#
# Convention : Reuss Voigt Hill
#
# Bulk Modulus (GPa) = 44.30231 47.27004 45.78617
# Shear Modulus (GPa) = 19.68434 22.35409 21.01922
#
# Velocity S-wave (km/s) = 3.25758 3.47146 3.36622
# Velocity P-wave (km/s) = 6.16704 6.44603 6.30808
#
# Compressibility (1/GPa) = 0.02257219
#
# Stress axis : x y z
#
# Youngs Moduli (GPa) = 70.01794 28.47702 51.69420
#
# Poissons Ratio (x) = 0.23378 0.09029
# Poissons Ratio (y) = 0.57481 0.67870
# Poissons Ratio (z) = 0.12230 0.37388
#
# Static dielectric constant tensor:
#      x y z
#    x 3.519580 0.000000 0.000000 
#    y 0.000000 3.330170 0.000000 
#    z 0.000000 0.000000 3.366690 
# 
# 
# High freq. dielectric constant tensor:
#      x y z
#    x 1.733100 0.000000 0.000000 
#    y 0.000000 1.714030 0.000000 
#    z 0.000000 0.000000 1.714100 
# 
# From -- ./inp_files/35315.got.cif
#   From: 2010.03.12/outbox.cif.g09.slc.cpg/sg53_18_cif.got.tgz:35315.got - 2010.04.16 14:36:59.
