data_PCOD8220424
_publ_section_title
;
Structure prediction by ZEFSAII (Michael W. Deem and Ramdas Pophale) SiO2 
 PCOD8220424
Probable space group: P M N A
;
_chemical_formula_sum "Si O2"
_cell_formula_units_Z 56
_cell_length_a 8.623428
_cell_length_b 21.396204
_cell_length_c 15.403903
_cell_angle_alpha 90.000000
_cell_angle_beta 90.000000
_cell_angle_gamma 90.000000
_cell_volume 2842.152957
_symmetry_space_group_name_H-M "P M N A"
_symmetry_group_IT_number 53
_symmetry_cell_setting 'orthorhombic'
loop_
_space_group_symop_operation_xyz
x,y,z
1/2-x,-y,1/2+z
x,-y,-z
1/2-x,y,1/2-z
-x,-y,-z
1/2+x,y,1/2-z
-x,y,z
1/2+x,-y,1/2+z
loop_
_atom_site_type_symbol
_atom_site_label
_atom_site_fract_x
_atom_site_fract_y
_atom_site_fract_z
Si Si1 0.683810 0.709951 0.998761
Si Si2 0.183146 0.500174 0.900085
Si Si3 0.816887 0.851606 0.495621
Si Si4 0.684221 0.629212 0.160171
Si Si5 0.316324 0.628528 0.839824
Si Si6 0.182704 0.064939 0.341691
Si Si7 0.682847 0.069314 0.657804
O O1 0.500000 0.708906 0.995625
O O2 0.743830 0.780817 0.996524
O O3 0.750586 0.672517 0.916162
O O4 0.743598 0.675996 0.085537
O O5 0.244725 0.438692 0.853967
O O6 0.260201 0.558164 0.852354
O O7 0.000000 0.504574 0.889608
O O8 0.235511 0.500000 0.000000
O O9 0.770082 0.885922 0.584536
O O10 0.729120 0.881353 0.414824
O O11 0.000000 0.855746 0.478704
O O12 0.750000 0.656648 0.250000
O O13 0.500000 0.624440 0.162261
O O14 0.250000 0.655434 0.750000
O O15 0.500000 0.629841 0.837794
O O16 0.250000 0.088697 0.250000
O O17 0.000000 0.057886 0.332592
O O18 0.251093 0.998130 0.368530
O O19 0.750000 0.091847 0.750000
O O20 0.500000 0.064447 0.665697
#
# Coordination Sequence:
#
# PCOD8220424 Si02
#       7
#     8   8   8   8   8   8   8
#     4   9  21  40  60  81 113 155 193 232 280 339
#     4  11  22  37  60  88 116 145 185 239 290 338
#     4  10  21  39  60  84 116 154 195 235 285 340
#     4  11  22  39  61  85 113 149 190 234 286 343
#     4  11  22  39  61  86 115 151 192 233 286 341
#     4  10  20  35  59  87 118 153 189 236 286 338
#     4  11  22  37  59  87 118 151 190 238 287 340
#
# _framework density 19.703372000000002
#
# number of rings (size 3 to 8) (size 9 to 14) (size 15 to 20)
#    0.000    1.571    1.429    4.714    0.000    4.571 
#    0.000    4.286    0.000    0.000    0.000    0.000 
#    0.000    0.000    0.000    0.000    0.000    0.000 
#
# Total GULP energy -694661.727479 kJ/mol
# GULP energy per Si atom -12404.673705 kJ/mol
# Density = 1.965853 g / cm^3
# Si number density = 19.703372 Si / 1000 Ang^3
#
#
#
# Elastic Constant Matrix: (Units=GPa)
#
#
# Indices 1 2 3 4 5 6 
#
# 1 70.4973 27.7541 42.8812 0.0000 0.0000 0.0000
# 2 27.7541 145.0584 87.4938 0.0000 0.0000 0.0000
# 3 42.8812 87.4938 174.1167 0.0000 0.0000 0.0000
# 4 0.0000 0.0000 0.0000 8.8146 0.0000 0.0000
# 5 0.0000 0.0000 0.0000 0.0000 34.4207 0.0000
# 6 0.0000 0.0000 0.0000 0.0000 0.0000 14.0967
#
#
#
# Elastic Compliance Matrix: (Units=1/GPa)
#
#
# Indices 1 2 3 4 5 6 
#
# 1 0.016791 -0.001031 -0.003617 0.000000 0.000000 0.000000
# 2 -0.001031 0.009955 -0.004749 0.000000 0.000000 0.000000
# 3 -0.003617 -0.004749 0.009020 0.000000 0.000000 0.000000
# 4 0.000000 0.000000 0.000000 0.113448 0.000000 0.000000
# 5 0.000000 0.000000 0.000000 0.000000 0.029052 0.000000
# 6 0.000000 0.000000 0.000000 0.000000 0.000000 0.070938
#
#
# Mechanical properties :
#
#
# Convention : Reuss Voigt Hill
#
# Bulk Modulus (GPa) = 58.91680 78.43673 68.67676
# Shear Modulus (GPa) = 18.27112 26.90265 22.58688
#
# Velocity S-wave (km/s) = 3.04848 3.69912 3.38945
# Velocity P-wave (km/s) = 6.50828 7.62495 7.08864
#
# Compressibility (1/GPa) = 0.01697309
#
# Stress axis : x y z
#
# Youngs Moduli (GPa) = 59.55561 100.45000 110.86083
#
# Poissons Ratio (x) = 0.10355 0.40101
# Poissons Ratio (y) = 0.06139 0.52644
# Poissons Ratio (z) = 0.21543 0.47700
#
# Static dielectric constant tensor:
#      x y z
#    x 3.493900 0.000000 0.000000 
#    y 0.000000 3.646750 0.000000 
#    z 0.000000 0.000000 3.921240 
# 
# 
# High freq. dielectric constant tensor:
#      x y z
#    x 1.763470 0.000000 0.000000 
#    y 0.000000 1.763660 0.000000 
#    z 0.000000 0.000000 1.787630 
# 
# From -- ./inp_files/20533.got.cif
#   From: 2010.03.12/outbox.cif.g09.slc.cpg/sg53_11_cif.got.tgz:20533.got - 2010.04.16 14:36:59.
