data_PCOD8220651
_publ_section_title
;
Structure prediction by ZEFSAII (Michael W. Deem and Ramdas Pophale) SiO2 
 PCOD8220651
Probable space group: P M N A
;
_chemical_formula_sum "Si O2"
_cell_formula_units_Z 64
_cell_length_a 8.850919
_cell_length_b 21.212990
_cell_length_c 17.616867
_cell_angle_alpha 90.000000
_cell_angle_beta 90.000000
_cell_angle_gamma 90.000000
_cell_volume 3307.645284
_symmetry_space_group_name_H-M "P M N A"
_symmetry_group_IT_number 53
_symmetry_cell_setting 'orthorhombic'
loop_
_space_group_symop_operation_xyz
x,y,z
1/2-x,-y,1/2+z
x,-y,-z
1/2-x,y,1/2-z
-x,-y,-z
1/2+x,y,1/2-z
-x,y,z
1/2+x,-y,1/2+z
loop_
_atom_site_type_symbol
_atom_site_label
_atom_site_fract_x
_atom_site_fract_y
_atom_site_fract_z
Si Si1 0.324108 0.879540 0.399446
Si Si2 0.822091 0.997311 0.328576
Si Si3 0.175869 0.620620 0.328718
Si Si4 0.825111 0.571469 0.023255
Si Si5 0.822384 0.683905 0.555338
Si Si6 0.675870 0.102008 0.425776
Si Si7 0.177957 0.225343 0.168517
Si Si8 0.327088 0.751668 0.099587
O O1 0.500000 0.890400 0.384305
O O2 0.231350 0.926847 0.346816
O O3 0.280446 0.890148 0.486772
O O4 0.280437 0.808737 0.375743
O O5 0.750000 0.020992 0.250000
O O6 0.000000 0.998803 0.319964
O O7 0.771661 0.043661 0.395406
O O8 0.250000 0.600212 0.250000
O O9 0.252561 0.580187 0.394435
O O10 0.201781 0.694928 0.342081
O O11 0.000000 0.603930 0.328061
O O12 0.000000 0.590282 0.027065
O O13 0.799772 0.500000 0.000000
O O14 0.744769 0.614880 0.960256
O O15 0.746566 0.712160 0.630536
O O16 0.783366 0.729006 0.484678
O O17 0.000000 0.677313 0.567950
O O18 0.500000 0.086245 0.415286
O O19 0.721806 0.165240 0.382071
O O20 0.250000 0.214801 0.250000
O O21 0.000000 0.233804 0.176395
O O22 0.500000 0.774491 0.101819
#
# Coordination Sequence:
#
# PCOD8220651 Si02
#       8
#     8   8   8   8   8   8   8   8
#     4  11  22  38  61  87 115 149 189 237 290 349
#     4  12  26  42  59  80 110 150 192 242 296 349
#     4  10  21  37  59  89 123 160 198 245 294 345
#     4  10  21  38  62  90 121 160 202 243 289 345
#     4  10  20  36  59  86 118 153 191 238 285 341
#     4  10  22  40  61  86 114 149 191 237 291 351
#     4  11  22  37  58  87 119 154 193 239 296 349
#     4   9  19  35  56  84 116 150 190 232 283 342
#
# _framework density 19.349112000000002
#
# number of rings (size 3 to 8) (size 9 to 14) (size 15 to 20)
#    0.000    1.625    1.250    4.500    0.000    8.500 
#    0.000    1.875    0.000    3.000    0.000    0.000 
#    0.000    0.000    0.000    0.000    0.000    0.000 
#
# Total GULP energy -794008.678470 kJ/mol
# GULP energy per Si atom -12406.385601 kJ/mol
# Density = 1.930507 g / cm^3
# Si number density = 19.349112 Si / 1000 Ang^3
#
#
#
# Elastic Constant Matrix: (Units=GPa)
#
#
# Indices 1 2 3 4 5 6 
#
# 1 102.1710 47.7265 31.2396 0.0000 0.0000 0.0000
# 2 47.7265 86.4628 17.7681 0.0000 0.0000 0.0000
# 3 31.2396 17.7681 67.8367 0.0000 0.0000 0.0000
# 4 0.0000 0.0000 0.0000 20.9445 0.0000 0.0000
# 5 0.0000 0.0000 0.0000 0.0000 35.2710 0.0000
# 6 0.0000 0.0000 0.0000 0.0000 0.0000 34.1612
#
#
#
# Elastic Compliance Matrix: (Units=1/GPa)
#
#
# Indices 1 2 3 4 5 6 
#
# 1 0.014562 -0.007039 -0.004862 0.000000 0.000000 0.000000
# 2 -0.007039 0.015626 -0.000851 0.000000 0.000000 0.000000
# 3 -0.004862 -0.000851 0.017203 0.000000 0.000000 0.000000
# 4 0.000000 0.000000 0.000000 0.047745 0.000000 0.000000
# 5 0.000000 0.000000 0.000000 0.000000 0.028352 0.000000
# 6 0.000000 0.000000 0.000000 0.000000 0.000000 0.029273
#
#
# Mechanical properties :
#
#
# Convention : Reuss Voigt Hill
#
# Bulk Modulus (GPa) = 45.69055 49.99320 47.84188
# Shear Modulus (GPa) = 26.94503 28.72442 27.83472
#
# Velocity S-wave (km/s) = 3.73577 3.85715 3.79694
# Velocity P-wave (km/s) = 6.50177 6.76242 6.63337
#
# Compressibility (1/GPa) = 0.02188636
#
# Stress axis : x y z
#
# Youngs Moduli (GPa) = 68.67031 63.99559 58.12782
#
# Poissons Ratio (x) = 0.45047 0.28264
# Poissons Ratio (y) = 0.48337 0.04949
# Poissons Ratio (z) = 0.33390 0.05448
#
# Static dielectric constant tensor:
#      x y z
#    x 3.584780 0.000000 0.000000 
#    y 0.000000 3.442000 0.000000 
#    z 0.000000 0.000000 3.519850 
# 
# 
# High freq. dielectric constant tensor:
#      x y z
#    x 1.764400 0.000000 0.000000 
#    y 0.000000 1.748990 0.000000 
#    z 0.000000 0.000000 1.752160 
# 
# From -- ./inp_files/26949.got.cif
#   From: 2010.03.12/outbox.cif.g09.slc.cpg/sg53_14_cif.got.tgz:26949.got - 2010.04.16 14:36:59.
