data_PCOD8220260
_publ_section_title
;
Structure prediction by ZEFSAII (Michael W. Deem and Ramdas Pophale) SiO2 
 PCOD8220260
Probable space group: P M N A
;
_chemical_formula_sum "Si O2"
_cell_formula_units_Z 48
_cell_length_a 8.893443
_cell_length_b 7.995884
_cell_length_c 34.407408
_cell_angle_alpha 90.000000
_cell_angle_beta 90.000000
_cell_angle_gamma 90.000000
_cell_volume 2446.743077
_symmetry_space_group_name_H-M "P M N A"
_symmetry_group_IT_number 53
_symmetry_cell_setting 'orthorhombic'
loop_
_space_group_symop_operation_xyz
x,y,z
1/2-x,-y,1/2+z
x,-y,-z
1/2-x,y,1/2-z
-x,-y,-z
1/2+x,y,1/2-z
-x,y,z
1/2+x,-y,1/2+z
loop_
_atom_site_type_symbol
_atom_site_label
_atom_site_fract_x
_atom_site_fract_y
_atom_site_fract_z
Si Si1 0.321747 0.191386 0.845657
Si Si2 0.671442 0.814896 0.838543
Si Si3 0.164155 0.309782 0.005182
Si Si4 0.824483 0.170174 0.924792
Si Si5 0.179297 0.498673 0.708048
Si Si6 0.171117 0.828947 0.574640
O O1 0.500000 0.181288 0.849564
O O2 0.258924 0.248829 0.887525
O O3 0.269595 0.331718 0.815048
O O4 0.258902 0.003968 0.834080
O O5 0.500000 0.830258 0.825544
O O6 0.745037 0.669616 0.811711
O O7 0.685116 0.746470 0.882727
O O8 0.281266 0.295570 0.040572
O O9 0.000000 0.222375 0.013082
O O10 0.130113 0.500000 0.000000
O O11 0.238173 0.242484 0.965382
O O12 0.000000 0.207305 0.920226
O O13 0.791097 0.975562 0.926934
O O14 0.250000 0.483443 0.750000
O O15 0.000000 0.504808 0.710329
O O16 0.000000 0.891642 0.568155
#
# Coordination Sequence:
#
# PCOD8220260 Si02
#       6
#     8   8   8   8   8   8
#     4   9  19  36  58  80 108 144 181 226 272 319
#     4   8  17  35  55  78 107 139 176 218 269 319
#     4  10  22  36  49  74 112 148 180 224 277 323
#     4  10  20  35  55  77 106 144 182 223 273 326
#     4  10  21  37  57  81 110 141 173 218 273 327
#     4  10  20  35  56  79 104 140 187 231 271 323
#
# _framework density 19.617916999999998
#
# number of rings (size 3 to 8) (size 9 to 14) (size 15 to 20)
#    0.000    2.500    0.000    2.500    2.333    5.000 
#    0.000    4.167    0.000    0.000    0.000    0.000 
#    0.000    0.000    0.000    0.000    0.000    0.000 
#
# Total GULP energy -594748.580191 kJ/mol
# GULP energy per Si atom -12390.595421 kJ/mol
# Density = 1.957327 g / cm^3
# Si number density = 19.617917 Si / 1000 Ang^3
#
#
#
# Elastic Constant Matrix: (Units=GPa)
#
#
# Indices 1 2 3 4 5 6 
#
# 1 29.1682 18.5439 31.6726 0.0000 0.0000 0.0000
# 2 18.5439 92.0683 58.0861 0.0000 0.0000 0.0000
# 3 31.6726 58.0861 130.6866 0.0000 0.0000 0.0000
# 4 0.0000 0.0000 0.0000 36.8222 0.0000 0.0000
# 5 0.0000 0.0000 0.0000 0.0000 39.1176 0.0000
# 6 0.0000 0.0000 0.0000 0.0000 0.0000 17.0850
#
#
#
# Elastic Compliance Matrix: (Units=1/GPa)
#
#
# Indices 1 2 3 4 5 6 
#
# 1 0.047190 -0.003181 -0.010023 0.000000 0.000000 0.000000
# 2 -0.003181 0.015309 -0.006033 0.000000 0.000000 0.000000
# 3 -0.010023 -0.006033 0.012763 0.000000 0.000000 0.000000
# 4 0.000000 0.000000 0.000000 0.027158 0.000000 0.000000
# 5 0.000000 0.000000 0.000000 0.000000 0.025564 0.000000
# 6 0.000000 0.000000 0.000000 0.000000 0.000000 0.058531
#
#
# Mechanical properties :
#
#
# Convention : Reuss Voigt Hill
#
# Bulk Modulus (GPa) = 27.18394 52.05869 39.62132
# Shear Modulus (GPa) = 21.07483 28.17966 24.62724
#
# Velocity S-wave (km/s) = 3.28115 3.79413 3.54693
# Velocity P-wave (km/s) = 5.31426 6.76667 6.08396
#
# Compressibility (1/GPa) = 0.03678643
#
# Stress axis : x y z
#
# Youngs Moduli (GPa) = 21.19104 65.32263 78.35452
#
# Poissons Ratio (x) = 0.20782 0.78532
# Poissons Ratio (y) = 0.06742 0.47273
# Poissons Ratio (z) = 0.21239 0.39410
#
# Static dielectric constant tensor:
#      x y z
#    x 3.403180 0.000000 0.000000 
#    y 0.000000 3.775470 0.000000 
#    z 0.000000 0.000000 4.764130 
# 
# 
# High freq. dielectric constant tensor:
#      x y z
#    x 1.739310 0.000000 0.000000 
#    y 0.000000 1.762250 0.000000 
#    z 0.000000 0.000000 1.767950 
# 
# From -- ./inp_files/37731.got.cif
#   From: 2010.03.12/outbox.cif.g09.slc.cpg/sg53_19_cif.got.tgz:37731.got - 2010.04.16 14:36:59.
