data_PCOD8220184
_publ_section_title
;
Structure prediction by ZEFSAII (Michael W. Deem and Ramdas Pophale) SiO2 
 PCOD8220184
Probable space group: P M N A
;
_chemical_formula_sum "Si O2"
_cell_formula_units_Z 48
_cell_length_a 17.546719
_cell_length_b 26.462235
_cell_length_c 5.035895
_cell_angle_alpha 90.000000
_cell_angle_beta 90.000000
_cell_angle_gamma 90.000000
_cell_volume 2338.293969
_symmetry_space_group_name_H-M "P M N A"
_symmetry_group_IT_number 53
_symmetry_cell_setting 'orthorhombic'
loop_
_space_group_symop_operation_xyz
x,y,z
1/2-x,-y,1/2+z
x,-y,-z
1/2-x,y,1/2-z
-x,-y,-z
1/2+x,y,1/2-z
-x,y,z
1/2+x,-y,1/2+z
loop_
_atom_site_type_symbol
_atom_site_label
_atom_site_fract_x
_atom_site_fract_y
_atom_site_fract_z
Si Si1 0.700589 0.792171 0.514796
Si Si2 0.162237 0.466125 0.747493
Si Si3 0.411127 0.945552 0.935217
Si Si4 0.411058 0.118286 0.551508
Si Si5 0.588841 0.359684 0.755029
Si Si6 0.335439 0.315948 0.257135
O O1 0.750000 0.780420 0.250000
O O2 0.631106 0.828454 0.444530
O O3 0.665911 0.741720 0.644803
O O4 0.750000 0.818074 0.750000
O O5 0.143599 0.500000 0.500000
O O6 0.250000 0.448221 0.750000
O O7 0.109132 0.417902 0.706699
O O8 0.140716 0.500000 0.000000
O O9 0.500000 0.955050 0.887854
O O10 0.377600 0.920263 0.668977
O O11 0.394651 0.906781 0.168277
O O12 0.372664 0.000000 0.000000
O O13 0.500000 0.129273 0.501850
O O14 0.500000 0.351030 0.792899
O O15 0.612579 0.347380 0.455554
O O16 0.630812 0.322059 0.961417
O O17 0.250000 0.338487 0.250000
#
# Coordination Sequence:
#
# PCOD8220184 Si02
#       6
#     8   8   8   8   8   8
#     4  11  23  41  62  85 115 155 198 243 299 360
#     4  10  21  38  61  88 120 163 207 241 284 354
#     4   9  17  31  53  82 114 149 192 238 287 351
#     4  10  20  34  57  86 113 147 192 245 298 348
#     4  12  25  40  63  96 128 156 195 257 315 348
#     4  11  23  43  65  86 117 164 210 242 291 370
#
# _framework density 20.527788000000001
#
# number of rings (size 3 to 8) (size 9 to 14) (size 15 to 20)
#    0.000    1.500    0.000    6.500    0.000    5.333 
#    0.000    1.667    0.000   10.000    0.000    0.000 
#    0.000    0.000    0.000    0.000    0.000    0.000 
#
# Total GULP energy -595225.738150 kJ/mol
# GULP energy per Si atom -12400.536211 kJ/mol
# Density = 2.048107 g / cm^3
# Si number density = 20.527788 Si / 1000 Ang^3
#
#
#
# Elastic Constant Matrix: (Units=GPa)
#
#
# Indices 1 2 3 4 5 6 
#
# 1 89.8215 35.2132 18.0117 0.0000 0.0000 0.0000
# 2 35.2132 92.9601 6.0813 0.0000 0.0000 0.0000
# 3 18.0117 6.0813 74.0890 0.0000 0.0000 0.0000
# 4 0.0000 0.0000 0.0000 7.3949 0.0000 0.0000
# 5 0.0000 0.0000 0.0000 0.0000 27.2577 0.0000
# 6 0.0000 0.0000 0.0000 0.0000 0.0000 31.6466
#
#
#
# Elastic Compliance Matrix: (Units=1/GPa)
#
#
# Indices 1 2 3 4 5 6 
#
# 1 0.013673 -0.004989 -0.002915 0.000000 0.000000 0.000000
# 2 -0.004989 0.012636 0.000176 0.000000 0.000000 0.000000
# 3 -0.002915 0.000176 0.014191 0.000000 0.000000 0.000000
# 4 0.000000 0.000000 0.000000 0.135228 0.000000 0.000000
# 5 0.000000 0.000000 0.000000 0.000000 0.036687 0.000000
# 6 0.000000 0.000000 0.000000 0.000000 0.000000 0.031599
#
#
# Mechanical properties :
#
#
# Convention : Reuss Voigt Hill
#
# Bulk Modulus (GPa) = 39.92831 41.72034 40.82432
# Shear Modulus (GPa) = 18.66939 26.43082 22.55011
#
# Velocity S-wave (km/s) = 3.01901 3.59216 3.31798
# Velocity P-wave (km/s) = 5.62545 6.12966 5.88296
#
# Compressibility (1/GPa) = 0.02504489
#
# Stress axis : x y z
#
# Youngs Moduli (GPa) = 73.13440 79.14169 70.46505
#
# Poissons Ratio (x) = 0.39482 0.20538
# Poissons Ratio (y) = 0.36485 -0.01238
# Poissons Ratio (z) = 0.21316 -0.01390
#
# Static dielectric constant tensor:
#      x y z
#    x 3.489340 0.000000 0.000000 
#    y 0.000000 3.653290 0.000000 
#    z 0.000000 0.000000 4.053320 
# 
# 
# High freq. dielectric constant tensor:
#      x y z
#    x 1.776990 0.000000 0.000000 
#    y 0.000000 1.808480 0.000000 
#    z 0.000000 0.000000 1.826930 
# 
# From -- ./inp_files/1428.got.cif
#   From: 2010.03.12/outbox.cif.g09.slc.cpg/sg53_1_cif.got.tgz:1428.got - 2010.04.16 14:36:59.
