data_PCOD8220102
_publ_section_title
;
Structure prediction by ZEFSAII (Michael W. Deem and Ramdas Pophale) SiO2 
 PCOD8220102
Probable space group: P M N A
;
_chemical_formula_sum "Si O2"
_cell_formula_units_Z 64
_cell_length_a 8.869427
_cell_length_b 21.606407
_cell_length_c 17.628359
_cell_angle_alpha 90.000000
_cell_angle_beta 90.000000
_cell_angle_gamma 90.000000
_cell_volume 3378.236131
_symmetry_space_group_name_H-M "P M N A"
_symmetry_group_IT_number 53
_symmetry_cell_setting 'orthorhombic'
loop_
_space_group_symop_operation_xyz
x,y,z
1/2-x,-y,1/2+z
x,-y,-z
1/2-x,y,1/2-z
-x,-y,-z
1/2+x,y,1/2-z
-x,y,z
1/2+x,-y,1/2+z
loop_
_atom_site_type_symbol
_atom_site_label
_atom_site_fract_x
_atom_site_fract_y
_atom_site_fract_z
Si Si1 0.176872 0.872388 0.326196
Si Si2 0.321642 0.932341 0.019055
Si Si3 0.824513 0.499905 0.830881
Si Si4 0.672967 0.179719 0.450739
Si Si5 0.321707 0.606744 0.922099
Si Si6 0.672615 0.759672 0.391247
Si Si7 0.678375 0.719415 0.668176
Si Si8 0.173197 0.377409 0.919249
O O1 0.250000 0.899980 0.250000
O O2 0.237927 0.911769 0.397924
O O3 0.223003 0.800603 0.336471
O O4 0.000000 0.877702 0.318552
O O5 0.500000 0.933356 0.017860
O O6 0.268073 0.883442 0.955750
O O7 0.255400 0.000000 0.000000
O O8 0.750000 0.511546 0.750000
O O9 0.743740 0.542067 0.893026
O O10 0.800218 0.429189 0.855800
O O11 0.000000 0.517471 0.826184
O O12 0.500000 0.159719 0.448722
O O13 0.707189 0.224598 0.521305
O O14 0.718875 0.217287 0.375726
O O15 0.500000 0.608329 0.911079
O O16 0.248463 0.661643 0.874747
O O17 0.282908 0.612037 0.010370
O O18 0.500000 0.774528 0.370349
O O19 0.711714 0.687740 0.379075
O O20 0.750000 0.725483 0.750000
O O21 0.500000 0.709291 0.673510
O O22 0.000000 0.377351 0.948735
#
# Coordination Sequence:
#
# PCOD8220102 Si02
#       8
#     8   8   8   8   8   8   8   8
#     4  10  20  34  54  82 114 149 188 229 277 328
#     4   9  19  36  58  83 113 150 191 233 276 325
#     4  11  24  41  59  78 109 148 188 234 289 341
#     4   9  18  34  57  81 111 144 180 226 271 329
#     4  12  24  38  59  84 111 145 189 236 282 338
#     4   9  17  34  57  81 109 142 179 223 276 329
#     4  11  22  38  58  84 115 147 186 232 287 340
#     4  10  21  39  61  84 111 147 184 229 284 340
#
# _framework density 18.944797000000001
#
# number of rings (size 3 to 8) (size 9 to 14) (size 15 to 20)
#    0.000    1.875    1.250    3.000    0.000    5.250 
#    0.000    1.875    0.000    3.000    0.000    0.000 
#    0.000    0.000    0.000    0.000    0.000    0.000 
#
# Total GULP energy -793804.042689 kJ/mol
# GULP energy per Si atom -12403.188167 kJ/mol
# Density = 1.890168 g / cm^3
# Si number density = 18.944797 Si / 1000 Ang^3
#
#
#
# Elastic Constant Matrix: (Units=GPa)
#
#
# Indices 1 2 3 4 5 6 
#
# 1 78.9366 36.4660 31.1651 0.0000 0.0000 0.0000
# 2 36.4660 122.7251 24.1820 0.0000 0.0000 0.0000
# 3 31.1651 24.1820 73.1504 0.0000 0.0000 0.0000
# 4 0.0000 0.0000 0.0000 18.5469 0.0000 0.0000
# 5 0.0000 0.0000 0.0000 0.0000 34.0891 0.0000
# 6 0.0000 0.0000 0.0000 0.0000 0.0000 26.0048
#
#
#
# Elastic Compliance Matrix: (Units=1/GPa)
#
#
# Indices 1 2 3 4 5 6 
#
# 1 0.016752 -0.003820 -0.005874 0.000000 0.000000 0.000000
# 2 -0.003820 0.009587 -0.001542 0.000000 0.000000 0.000000
# 3 -0.005874 -0.001542 0.016683 0.000000 0.000000 0.000000
# 4 0.000000 0.000000 0.000000 0.053917 0.000000 0.000000
# 5 0.000000 0.000000 0.000000 0.000000 0.029335 0.000000
# 6 0.000000 0.000000 0.000000 0.000000 0.000000 0.038454
#
#
# Mechanical properties :
#
#
# Convention : Reuss Voigt Hill
#
# Bulk Modulus (GPa) = 48.66222 50.93761 49.79991
# Shear Modulus (GPa) = 25.76631 27.92810 26.84720
#
# Velocity S-wave (km/s) = 3.69192 3.84367 3.76856
# Velocity P-wave (km/s) = 6.62690 6.82966 6.72904
#
# Compressibility (1/GPa) = 0.02054982
#
# Stress axis : x y z
#
# Youngs Moduli (GPa) = 59.69261 104.30557 59.94182
#
# Poissons Ratio (x) = 0.39848 0.35212
# Poissons Ratio (y) = 0.22804 0.09241
# Poissons Ratio (z) = 0.35066 0.16081
#
# Static dielectric constant tensor:
#      x y z
#    x 3.465160 0.000000 0.000000 
#    y 0.000000 3.616120 0.000000 
#    z 0.000000 0.000000 3.511660 
# 
# 
# High freq. dielectric constant tensor:
#      x y z
#    x 1.737240 0.000000 0.000000 
#    y 0.000000 1.736400 0.000000 
#    z 0.000000 0.000000 1.731750 
# 
# From -- ./inp_files/26956.got.cif
#   From: 2010.03.12/outbox.cif.g09.slc.cpg/sg53_14_cif.got.tgz:26956.got - 2010.04.16 14:36:59.
