data_PCOD8220054
_publ_section_title
;
Structure prediction by ZEFSAII (Michael W. Deem and Ramdas Pophale) SiO2 
 PCOD8220054
Probable space group: P M N A
;
_chemical_formula_sum "Si O2"
_cell_formula_units_Z 56
_cell_length_a 14.125559
_cell_length_b 9.592624
_cell_length_c 19.901930
_cell_angle_alpha 90.000000
_cell_angle_beta 90.000000
_cell_angle_gamma 90.000000
_cell_volume 2696.734925
_symmetry_space_group_name_H-M "P M N A"
_symmetry_group_IT_number 53
_symmetry_cell_setting 'orthorhombic'
loop_
_space_group_symop_operation_xyz
x,y,z
1/2-x,-y,1/2+z
x,-y,-z
1/2-x,y,1/2-z
-x,-y,-z
1/2+x,y,1/2-z
-x,y,z
1/2+x,-y,1/2+z
loop_
_atom_site_type_symbol
_atom_site_label
_atom_site_fract_x
_atom_site_fract_y
_atom_site_fract_z
Si Si1 0.793238 0.028383 0.641710
Si Si2 0.607247 0.230113 0.763445
Si Si3 0.394032 0.164752 0.615007
Si Si4 0.390971 0.341932 0.483436
Si Si5 0.782881 0.267433 0.401774
Si Si6 0.391857 0.779474 0.037482
Si Si7 0.891801 0.534065 0.361427
O O1 0.824499 0.104497 0.711020
O O2 0.682783 0.044143 0.621858
O O3 0.855821 0.091659 0.581823
O O4 0.802587 0.861766 0.648602
O O5 0.500000 0.193385 0.786894
O O6 0.613254 0.254056 0.683748
O O7 0.637964 0.376536 0.796065
O O8 0.500000 0.101103 0.607370
O O9 0.367953 0.259445 0.551792
O O10 0.365421 0.500000 0.500000
O O11 0.500000 0.323850 0.461665
O O12 0.327441 0.288523 0.421325
O O13 0.836144 0.231121 0.469426
O O14 0.822542 0.403320 0.365093
O O15 0.500000 0.808686 0.020366
O O16 0.377868 0.632021 0.074205
O O17 0.000000 0.481053 0.356750
#
# Coordination Sequence:
#
# PCOD8220054 Si02
#       7
#     8   8   8   8   8   8   8
#     4  11  22  35  55  87 120 154 193 241 290 357
#     4   9  20  40  65  88 112 152 206 248 287 349
#     4  10  21  40  66  84 108 156 207 252 290 338
#     4  10  22  39  61  90 120 152 199 254 302 348
#     4  12  22  33  56  89 126 154 186 239 305 353
#     4  10  20  34  53  82 121 161 196 230 283 358
#     4   9  19  35  58  89 119 152 194 239 291 355
#
# _framework density 20.765853
#
# number of rings (size 3 to 8) (size 9 to 14) (size 15 to 20)
#    0.000    1.857    1.429    3.857    2.000    4.571 
#    0.000    1.429    6.286    0.000    0.000    0.000 
#    0.000    0.000    0.000    0.000    0.000    0.000 
#
# Total GULP energy -694295.939978 kJ/mol
# GULP energy per Si atom -12398.141785 kJ/mol
# Density = 2.071859 g / cm^3
# Si number density = 20.765853 Si / 1000 Ang^3
#
#
#
# Elastic Constant Matrix: (Units=GPa)
#
#
# Indices 1 2 3 4 5 6 
#
# 1 111.6734 48.2432 10.7957 0.0000 0.0000 0.0000
# 2 48.2432 132.7432 23.1983 0.0000 0.0000 0.0000
# 3 10.7957 23.1983 38.8366 0.0000 0.0000 0.0000
# 4 0.0000 0.0000 0.0000 0.9823 0.0000 0.0000
# 5 0.0000 0.0000 0.0000 0.0000 17.0035 0.0000
# 6 0.0000 0.0000 0.0000 0.0000 0.0000 15.4438
#
#
#
# Elastic Compliance Matrix: (Units=1/GPa)
#
#
# Indices 1 2 3 4 5 6 
#
# 1 0.010641 -0.003741 -0.000723 0.000000 0.000000 0.000000
# 2 -0.003741 0.009726 -0.004770 0.000000 0.000000 0.000000
# 3 -0.000723 -0.004770 0.028799 0.000000 0.000000 0.000000
# 4 0.000000 0.000000 0.000000 1.017983 0.000000 0.000000
# 5 0.000000 0.000000 0.000000 0.000000 0.058811 0.000000
# 6 0.000000 0.000000 0.000000 0.000000 0.000000 0.064751
#
#
# Mechanical properties :
#
#
# Convention : Reuss Voigt Hill
#
# Bulk Modulus (GPa) = 32.57542 49.74750 41.16146
# Shear Modulus (GPa) = 4.10033 20.08699 12.09366
#
# Velocity S-wave (km/s) = 1.40671 3.11353 2.41588
# Velocity P-wave (km/s) = 4.28480 6.07732 5.25801
#
# Compressibility (1/GPa) = 0.03069800
#
# Stress axis : x y z
#
# Youngs Moduli (GPa) = 93.97947 102.81220 34.72302
#
# Poissons Ratio (x) = 0.38459 0.02512
# Poissons Ratio (y) = 0.35155 0.16563
# Poissons Ratio (z) = 0.06798 0.49042
#
# Static dielectric constant tensor:
#      x y z
#    x 4.098020 0.000000 0.000000 
#    y 0.000000 3.644870 0.000000 
#    z 0.000000 0.000000 3.683340 
# 
# 
# High freq. dielectric constant tensor:
#      x y z
#    x 1.833830 0.000000 0.000000 
#    y 0.000000 1.792480 0.000000 
#    z 0.000000 0.000000 1.796670 
# 
# From -- ./inp_files/32491.got.cif
#   From: 2010.03.12/outbox.cif.g09.slc.cpg/sg53_17_cif.got.tgz:32491.got - 2010.04.16 14:36:59.
