data_PCOD8220889
_publ_section_title
;
Structure prediction by ZEFSAII (Michael W. Deem and Ramdas Pophale) SiO2 
 PCOD8220889
Probable space group: P M N A
;
_chemical_formula_sum "Si O2"
_cell_formula_units_Z 64
_cell_length_a 14.209812
_cell_length_b 12.842230
_cell_length_c 17.749856
_cell_angle_alpha 90.000000
_cell_angle_beta 90.000000
_cell_angle_gamma 90.000000
_cell_volume 3239.094435
_symmetry_space_group_name_H-M "P M N A"
_symmetry_group_IT_number 53
_symmetry_cell_setting 'orthorhombic'
loop_
_space_group_symop_operation_xyz
x,y,z
1/2-x,-y,1/2+z
x,-y,-z
1/2-x,y,1/2-z
-x,-y,-z
1/2+x,y,1/2-z
-x,y,z
1/2+x,-y,1/2+z
loop_
_atom_site_type_symbol
_atom_site_label
_atom_site_fract_x
_atom_site_fract_y
_atom_site_fract_z
Si Si1 0.721679 0.432349 0.929851
Si Si2 0.770410 0.069339 0.567765
Si Si3 0.609129 0.022409 0.197780
Si Si4 0.607742 0.137079 0.670998
Si Si5 0.887418 0.752730 0.503921
Si Si6 0.608319 0.748035 0.826356
Si Si7 0.653905 0.526169 0.785813
Si Si8 0.601544 0.370332 0.669257
O O1 0.654441 0.499291 0.874336
O O2 0.817086 0.395563 0.889936
O O3 0.755573 0.500000 0.000000
O O4 0.655045 0.341334 0.957129
O O5 0.822996 0.998944 0.628590
O O6 0.678495 0.126363 0.600940
O O7 0.850097 0.145132 0.536667
O O8 0.730803 0.000000 0.500000
O O9 0.500000 0.006121 0.174629
O O10 0.637278 0.947307 0.266216
O O11 0.627107 0.144341 0.219012
O O12 0.500000 0.116069 0.645091
O O13 0.619646 0.254330 0.703722
O O14 0.847568 0.750345 0.589643
O O15 0.000000 0.751184 0.499442
O O16 0.500000 0.728711 0.840368
O O17 0.641850 0.650405 0.775714
O O18 0.750000 0.489070 0.750000
O O19 0.584667 0.453548 0.737159
O O20 0.500000 0.368464 0.626566
#
# Coordination Sequence:
#
# PCOD8220889 Si02
#       8
#     8   8   8   8   8   8   8   8
#     4  11  22  39  61  90 122 155 202 245 300 358
#     4  12  23  38  62  90 120 157 198 246 300 358
#     4  10  22  38  60  90 122 159 199 246 297 357
#     4  10  23  42  63  88 119 158 204 250 295 346
#     4  11  23  37  58  90 124 155 191 241 303 363
#     4  10  20  38  58  84 124 158 192 238 299 363
#     4  10  22  36  58  88 120 160 200 248 296 351
#     4  10  22  41  64  88 119 158 204 252 295 346
#
# _framework density 19.758610000000001
#
# number of rings (size 3 to 8) (size 9 to 14) (size 15 to 20)
#    0.000    1.500    3.750    1.125    1.750    4.250 
#    0.000    0.000    0.000    0.000    0.000    0.000 
#    0.000    0.000    0.000    0.000    0.000    0.000 
#
# Total GULP energy -793181.681942 kJ/mol
# GULP energy per Si atom -12393.463780 kJ/mol
# Density = 1.971364 g / cm^3
# Si number density = 19.758610 Si / 1000 Ang^3
#
#
#
# Elastic Constant Matrix: (Units=GPa)
#
#
# Indices 1 2 3 4 5 6 
#
# 1 80.9742 39.5298 39.6795 0.0000 0.0000 0.0000
# 2 39.5298 147.5039 52.3538 0.0000 0.0000 0.0000
# 3 39.6795 52.3538 92.0588 0.0000 0.0000 0.0000
# 4 0.0000 0.0000 0.0000 33.0226 0.0000 0.0000
# 5 0.0000 0.0000 0.0000 0.0000 18.2006 0.0000
# 6 0.0000 0.0000 0.0000 0.0000 0.0000 27.1955
#
#
#
# Elastic Compliance Matrix: (Units=1/GPa)
#
#
# Indices 1 2 3 4 5 6 
#
# 1 0.016279 -0.002346 -0.005683 0.000000 0.000000 0.000000
# 2 -0.002346 0.008832 -0.004012 0.000000 0.000000 0.000000
# 3 -0.005683 -0.004012 0.015593 0.000000 0.000000 0.000000
# 4 0.000000 0.000000 0.000000 0.030282 0.000000 0.000000
# 5 0.000000 0.000000 0.000000 0.000000 0.054943 0.000000
# 6 0.000000 0.000000 0.000000 0.000000 0.000000 0.036771
#
#
# Mechanical properties :
#
#
# Convention : Reuss Voigt Hill
#
# Bulk Modulus (GPa) = 60.15227 64.85147 62.50187
# Shear Modulus (GPa) = 25.99791 28.28200 27.13996
#
# Velocity S-wave (km/s) = 3.63130 3.78746 3.71020
# Velocity P-wave (km/s) = 6.93480 7.21246 7.07499
#
# Compressibility (1/GPa) = 0.01662448
#
# Stress axis : x y z
#
# Youngs Moduli (GPa) = 61.42698 113.22472 64.12934
#
# Poissons Ratio (x) = 0.26560 0.36444
# Poissons Ratio (y) = 0.14409 0.25727
# Poissons Ratio (z) = 0.34908 0.45422
#
# Static dielectric constant tensor:
#      x y z
#    x 3.595360 0.000000 0.000000 
#    y 0.000000 140.374560 0.000000 
#    z 0.000000 0.000000 4.125490 
# 
# 
# High freq. dielectric constant tensor:
#      x y z
#    x 1.773540 0.000000 0.000000 
#    y 0.000000 1.787990 0.000000 
#    z 0.000000 0.000000 1.751930 
# 
# From -- ./inp_files/28526.got.cif
#   From: 2010.03.12/outbox.cif.g09.slc.cpg/sg53_15_cif.got.tgz:28526.got - 2010.04.16 14:36:59.
