data_PCOD8220339
_publ_section_title
;
Structure prediction by ZEFSAII (Michael W. Deem and Ramdas Pophale) SiO2 
 PCOD8220339
Probable space group: P M N A
;
_chemical_formula_sum "Si O2"
_cell_formula_units_Z 56
_cell_length_a 8.994472
_cell_length_b 15.998879
_cell_length_c 19.174512
_cell_angle_alpha 90.000000
_cell_angle_beta 90.000000
_cell_angle_gamma 90.000000
_cell_volume 2759.240448
_symmetry_space_group_name_H-M "P M N A"
_symmetry_group_IT_number 53
_symmetry_cell_setting 'orthorhombic'
loop_
_space_group_symop_operation_xyz
x,y,z
1/2-x,-y,1/2+z
x,-y,-z
1/2-x,y,1/2-z
-x,-y,-z
1/2+x,y,1/2-z
-x,y,z
1/2+x,-y,1/2+z
loop_
_atom_site_type_symbol
_atom_site_label
_atom_site_fract_x
_atom_site_fract_y
_atom_site_fract_z
Si Si1 0.170799 0.253597 0.933515
Si Si2 0.677725 0.140443 0.826467
Si Si3 0.165292 0.815785 0.920961
Si Si4 0.170516 0.421766 0.544022
Si Si5 0.828857 0.996528 0.079465
Si Si6 0.673841 0.699185 0.820227
Si Si7 0.667346 0.512820 0.815879
O O1 0.266229 0.223582 0.866908
O O2 0.231343 0.339797 0.966587
O O3 0.000000 0.265273 0.910339
O O4 0.186756 0.184765 0.994873
O O5 0.750000 0.136983 0.750000
O O6 0.500000 0.142528 0.819616
O O7 0.727131 0.060062 0.871118
O O8 0.184047 0.909214 0.891733
O O9 0.284259 0.756156 0.885366
O O10 0.000000 0.782296 0.903551
O O11 0.233782 0.500000 0.500000
O O12 0.183335 0.445377 0.624333
O O13 0.000000 0.403729 0.521088
O O14 0.000000 0.964002 0.082199
O O15 0.770602 0.000000 0.000000
O O16 0.750000 0.733058 0.750000
O O17 0.500000 0.705053 0.809500
O O18 0.729266 0.604605 0.837004
O O19 0.750000 0.473923 0.750000
O O20 0.500000 0.525965 0.792408
#
# Coordination Sequence:
#
# PCOD8220339 Si02
#       7
#     8   8   8   8   8   8   8
#     4  11  23  41  63  90 123 162 205 253 311 368
#     4  12  26  44  67  95 127 164 210 258 310 370
#     4  10  21  37  61  88 119 158 197 241 297 359
#     4  10  21  38  59  86 121 158 203 257 309 360
#     4  10  20  41  67  90 123 162 199 247 306 361
#     4  10  20  35  56  83 117 155 197 247 299 356
#     4   9  19  35  55  78 109 150 192 239 298 354
#
# _framework density 20.295441
#
# number of rings (size 3 to 8) (size 9 to 14) (size 15 to 20)
#    0.000    1.714    1.429    3.000    0.000    5.714 
#    0.000    1.429    0.000    0.000    0.000    0.000 
#    0.000    0.000    0.000    0.000    0.000    0.000 
#
# Total GULP energy -694457.342568 kJ/mol
# GULP energy per Si atom -12401.023974 kJ/mol
# Density = 2.024925 g / cm^3
# Si number density = 20.295441 Si / 1000 Ang^3
#
#
#
# Elastic Constant Matrix: (Units=GPa)
#
#
# Indices 1 2 3 4 5 6 
#
# 1 112.1793 44.0413 50.6279 0.0000 0.0000 0.0000
# 2 44.0413 90.8041 28.6677 0.0000 0.0000 0.0000
# 3 50.6279 28.6677 87.1196 0.0000 0.0000 0.0000
# 4 0.0000 0.0000 0.0000 24.0653 0.0000 0.0000
# 5 0.0000 0.0000 0.0000 0.0000 33.7874 0.0000
# 6 0.0000 0.0000 0.0000 0.0000 0.0000 16.9277
#
#
#
# Elastic Compliance Matrix: (Units=1/GPa)
#
#
# Indices 1 2 3 4 5 6 
#
# 1 0.013597 -0.004576 -0.006396 0.000000 0.000000 0.000000
# 2 -0.004576 0.013829 -0.001892 0.000000 0.000000 0.000000
# 3 -0.006396 -0.001892 0.015818 0.000000 0.000000 0.000000
# 4 0.000000 0.000000 0.000000 0.041554 0.000000 0.000000
# 5 0.000000 0.000000 0.000000 0.000000 0.029597 0.000000
# 6 0.000000 0.000000 0.000000 0.000000 0.000000 0.059075
#
#
# Mechanical properties :
#
#
# Convention : Reuss Voigt Hill
#
# Bulk Modulus (GPa) = 57.08525 59.64186 58.36355
# Shear Modulus (GPa) = 24.38601 26.07382 25.22991
#
# Velocity S-wave (km/s) = 3.47010 3.58818 3.52963
# Velocity P-wave (km/s) = 6.65159 6.82769 6.74021
#
# Compressibility (1/GPa) = 0.01751766
#
# Stress axis : x y z
#
# Youngs Moduli (GPa) = 73.54384 72.31107 63.21926
#
# Poissons Ratio (x) = 0.33086 0.40436
# Poissons Ratio (y) = 0.33650 0.11959
# Poissons Ratio (z) = 0.47040 0.13679
#
# Static dielectric constant tensor:
#      x y z
#    x 3.604680 0.000000 0.000000 
#    y 0.000000 3.659530 0.000000 
#    z 0.000000 0.000000 3.669770 
# 
# 
# High freq. dielectric constant tensor:
#      x y z
#    x 1.786190 0.000000 0.000000 
#    y 0.000000 1.796480 0.000000 
#    z 0.000000 0.000000 1.792300 
# 
# From -- ./inp_files/30842.got.cif
#   From: 2010.03.12/outbox.cif.g09.slc.cpg/sg53_16_cif.got.tgz:30842.got - 2010.04.16 14:36:59.
