data_PCOD8220725
_publ_section_title
;
Structure prediction by ZEFSAII (Michael W. Deem and Ramdas Pophale) SiO2 
 PCOD8220725
Probable space group: P M N A
;
_chemical_formula_sum "Si O2"
_cell_formula_units_Z 48
_cell_length_a 17.858271
_cell_length_b 11.395302
_cell_length_c 12.521048
_cell_angle_alpha 90.000000
_cell_angle_beta 90.000000
_cell_angle_gamma 90.000000
_cell_volume 2548.038167
_symmetry_space_group_name_H-M "P M N A"
_symmetry_group_IT_number 53
_symmetry_cell_setting 'orthorhombic'
loop_
_space_group_symop_operation_xyz
x,y,z
1/2-x,-y,1/2+z
x,-y,-z
1/2-x,y,1/2-z
-x,-y,-z
1/2+x,y,1/2-z
-x,y,z
1/2+x,-y,1/2+z
loop_
_atom_site_type_symbol
_atom_site_label
_atom_site_fract_x
_atom_site_fract_y
_atom_site_fract_z
Si Si1 0.647079 0.146371 0.427825
Si Si2 0.085210 0.906873 0.139131
Si Si3 0.319012 0.866119 0.974115
Si Si4 0.585393 0.493538 0.120800
Si Si5 0.585836 0.242962 0.842259
Si Si6 0.663433 0.721365 0.773324
O O1 0.591207 0.164463 0.527400
O O2 0.730699 0.157324 0.474294
O O3 0.625568 0.242389 0.338887
O O4 0.639158 0.019107 0.371257
O O5 0.111945 0.825224 0.236145
O O6 0.000000 0.948016 0.155597
O O7 0.351664 0.824911 0.859610
O O8 0.358219 0.787095 0.062910
O O9 0.339995 0.000000 0.000000
O O10 0.500000 0.448959 0.116724
O O11 0.592372 0.618456 0.179464
O O12 0.632412 0.402324 0.189133
O O13 0.616982 0.500000 0.000000
O O14 0.500000 0.210669 0.873087
O O15 0.750000 0.705762 0.750000
#
# Coordination Sequence:
#
# PCOD8220725 Si02
#       6
#     8   8   8   8   8   8
#     4  10  20  37  56  84 119 158 191 227 292 351
#     4  10  20  38  59  85 119 152 195 235 283 350
#     4  11  20  35  58  84 118 151 187 242 290 351
#     4  10  20  40  63  82 112 154 196 241 295 340
#     4  10  22  38  59  87 115 150 198 247 290 339
#     4  10  22  37  55  87 120 149 196 243 284 348
#
# _framework density 18.838021999999999
#
# number of rings (size 3 to 8) (size 9 to 14) (size 15 to 20)
#    0.000    1.833    3.333    2.000    0.000    2.333 
#    3.000    0.833    0.000    3.000    0.000    0.000 
#    0.000    0.000    0.000    0.000    0.000    0.000 
#
# Total GULP energy -595150.070975 kJ/mol
# GULP energy per Si atom -12398.959812 kJ/mol
# Density = 1.879515 g / cm^3
# Si number density = 18.838022 Si / 1000 Ang^3
#
#
#
# Elastic Constant Matrix: (Units=GPa)
#
#
# Indices 1 2 3 4 5 6 
#
# 1 54.3362 42.6441 51.7035 0.0000 0.0000 0.0000
# 2 42.6441 94.5129 60.6619 0.0000 0.0000 0.0000
# 3 51.7035 60.6619 131.4580 0.0000 0.0000 0.0000
# 4 0.0000 0.0000 0.0000 36.9606 0.0000 0.0000
# 5 0.0000 0.0000 0.0000 0.0000 31.3511 0.0000
# 6 0.0000 0.0000 0.0000 0.0000 0.0000 28.6222
#
#
#
# Elastic Compliance Matrix: (Units=1/GPa)
#
#
# Indices 1 2 3 4 5 6 
#
# 1 0.034848 -0.009841 -0.009165 0.000000 0.000000 0.000000
# 2 -0.009841 0.017812 -0.004349 0.000000 0.000000 0.000000
# 3 -0.009165 -0.004349 0.013218 0.000000 0.000000 0.000000
# 4 0.000000 0.000000 0.000000 0.027056 0.000000 0.000000
# 5 0.000000 0.000000 0.000000 0.000000 0.031897 0.000000
# 6 0.000000 0.000000 0.000000 0.000000 0.000000 0.034938
#
#
# Mechanical properties :
#
#
# Convention : Reuss Voigt Hill
#
# Bulk Modulus (GPa) = 52.16748 65.59180 58.87964
# Shear Modulus (GPa) = 23.48866 27.73997 25.61432
#
# Velocity S-wave (km/s) = 3.53494 3.84155 3.69143
# Velocity P-wave (km/s) = 6.66437 7.38722 7.03509
#
# Compressibility (1/GPa) = 0.01916903
#
# Stress axis : x y z
#
# Youngs Moduli (GPa) = 28.69591 56.14147 75.65201
#
# Poissons Ratio (x) = 0.55249 0.69334
# Poissons Ratio (y) = 0.28240 0.32900
# Poissons Ratio (z) = 0.26299 0.24415
#
# Static dielectric constant tensor:
#      x y z
#    x 3.335130 0.000000 0.000000 
#    y 0.000000 3.370300 0.000000 
#    z 0.000000 0.000000 3.748340 
# 
# 
# High freq. dielectric constant tensor:
#      x y z
#    x 1.723920 0.000000 0.000000 
#    y 0.000000 1.721190 0.000000 
#    z 0.000000 0.000000 1.742140 
# 
# From -- ./inp_files/16949.got.cif
#   From: 2010.03.12/outbox.cif.g09.slc.cpg/sg53_9_cif.got.tgz:16949.got - 2010.04.16 14:36:59.
