data_PCOD8220243
_publ_section_title
;
Structure prediction by ZEFSAII (Michael W. Deem and Ramdas Pophale) SiO2 
 PCOD8220243
Probable space group: P M N A
;
_chemical_formula_sum "Si O2"
_cell_formula_units_Z 40
_cell_length_a 8.590636
_cell_length_b 25.312505
_cell_length_c 9.704482
_cell_angle_alpha 90.000000
_cell_angle_beta 90.000000
_cell_angle_gamma 90.000000
_cell_volume 2110.244625
_symmetry_space_group_name_H-M "P M N A"
_symmetry_group_IT_number 53
_symmetry_cell_setting 'orthorhombic'
loop_
_space_group_symop_operation_xyz
x,y,z
1/2-x,-y,1/2+z
x,-y,-z
1/2-x,y,1/2-z
-x,-y,-z
1/2+x,y,1/2-z
-x,y,z
1/2+x,-y,1/2+z
loop_
_atom_site_type_symbol
_atom_site_label
_atom_site_fract_x
_atom_site_fract_y
_atom_site_fract_z
Si Si1 0.315651 0.136108 0.600496
Si Si2 0.184413 0.456448 0.396558
Si Si3 0.816341 0.049156 0.403600
Si Si4 0.183655 0.661302 0.603893
Si Si5 0.814842 0.249916 0.604341
O O1 0.250000 0.118265 0.750000
O O2 0.500000 0.133661 0.610074
O O3 0.256861 0.100030 0.476102
O O4 0.260324 0.194561 0.560722
O O5 0.253214 0.500000 0.500000
O O6 0.250000 0.472586 0.250000
O O7 0.241604 0.397497 0.438937
O O8 0.000000 0.458717 0.392182
O O9 0.750000 0.041093 0.250000
O O10 0.000000 0.056430 0.392384
O O11 0.770503 0.000000 0.500000
O O12 0.250000 0.678200 0.750000
O O13 0.244595 0.704554 0.497189
O O14 0.000000 0.662171 0.612490
O O15 0.750000 0.268286 0.750000
O O16 0.000000 0.243567 0.607879
#
# Coordination Sequence:
#
# PCOD8220243 Si02
#       5
#     8   8   8   8   8
#     4  11  22  38  60  84 113 147 184 226 273 322
#     4   9  18  33  51  73 102 134 171 215 263 315
#     4  11  24  41  62  88 117 149 186 226 270 321
#     4   9  19  34  52  74 102 137 174 216 264 316
#     4  10  20  35  54  78 108 140 179 222 267 319
#
# _framework density 18.955148999999999
#
# number of rings (size 3 to 8) (size 9 to 14) (size 15 to 20)
#    0.000    2.000    0.000    4.800    0.000    6.800 
#    0.000    2.000    0.000    0.000    0.000    0.000 
#    0.000    0.000    0.000    0.000    0.000    0.000 
#
# Total GULP energy -495991.435673 kJ/mol
# GULP energy per Si atom -12399.785892 kJ/mol
# Density = 1.891201 g / cm^3
# Si number density = 18.955149 Si / 1000 Ang^3
#
#
#
# Elastic Constant Matrix: (Units=GPa)
#
#
# Indices 1 2 3 4 5 6 
#
# 1 73.5953 46.3401 56.2719 0.0000 0.0000 0.0000
# 2 46.3401 142.0993 119.6297 0.0000 0.0000 0.0000
# 3 56.2719 119.6297 162.7083 0.0000 0.0000 0.0000
# 4 0.0000 0.0000 0.0000 73.7836 0.0000 0.0000
# 5 0.0000 0.0000 0.0000 0.0000 35.3740 0.0000
# 6 0.0000 0.0000 0.0000 0.0000 0.0000 -4.2742
#
#
#
# Elastic Compliance Matrix: (Units=1/GPa)
#
#
# Indices 1 2 3 4 5 6 
#
# 1 0.018630 -0.001709 -0.005186 0.000000 0.000000 0.000000
# 2 -0.001709 0.018626 -0.013104 0.000000 0.000000 0.000000
# 3 -0.005186 -0.013104 0.017574 0.000000 0.000000 0.000000
# 4 0.000000 0.000000 0.000000 0.013553 0.000000 0.000000
# 5 0.000000 0.000000 0.000000 0.000000 0.028269 0.000000
# 6 0.000000 0.000000 0.000000 0.000000 0.000000 -0.233964
#
#
# Mechanical properties :
#
#
# Convention : Reuss Voigt Hill
#
# Bulk Modulus (GPa) = 67.42370 91.43181 79.42776
# Shear Modulus (GPa) = -54.13068 31.38743 -11.37163
#
# Velocity S-wave (km/s) = -5.34970 4.07366 -2.45199
# Velocity P-wave (km/s) = 1.58482 8.39446 5.82903
#
# Compressibility (1/GPa) = 0.01483158
#
# Stress axis : x y z
#
# Youngs Moduli (GPa) = 53.67828 53.68707 56.90166
#
# Poissons Ratio (x) = 0.09175 0.29512
# Poissons Ratio (y) = 0.09173 0.74563
# Poissons Ratio (z) = 0.27840 0.70351
#
# Static dielectric constant tensor:
#      x y z
#    x 3.476120 0.000000 0.000000 
#    y 0.000000 3.814270 0.000000 
#    z 0.000000 0.000000 3.663770 
# 
# 
# High freq. dielectric constant tensor:
#      x y z
#    x 1.741620 0.000000 0.000000 
#    y 0.000000 1.749140 0.000000 
#    z 0.000000 0.000000 1.737990 
# 
# From -- ./inp_files/6454.got.cif
#   From: 2010.03.12/outbox.cif.g09.slc.cpg/sg53_4_cif.got.tgz:6454.got - 2010.04.16 14:36:59.
