data_PCOD8220282
_publ_section_title
;
Structure prediction by ZEFSAII (Michael W. Deem and Ramdas Pophale) SiO2 
 PCOD8220282
Probable space group: P M N A
;
_chemical_formula_sum "Si O2"
_cell_formula_units_Z 48
_cell_length_a 8.967471
_cell_length_b 29.947050
_cell_length_c 9.456671
_cell_angle_alpha 90.000000
_cell_angle_beta 90.000000
_cell_angle_gamma 90.000000
_cell_volume 2539.582400
_symmetry_space_group_name_H-M "P M N A"
_symmetry_group_IT_number 53
_symmetry_cell_setting 'orthorhombic'
loop_
_space_group_symop_operation_xyz
x,y,z
1/2-x,-y,1/2+z
x,-y,-z
1/2-x,y,1/2-z
-x,-y,-z
1/2+x,y,1/2-z
-x,y,z
1/2+x,-y,1/2+z
loop_
_atom_site_type_symbol
_atom_site_label
_atom_site_fract_x
_atom_site_fract_y
_atom_site_fract_z
Si Si1 0.826916 0.609528 0.897598
Si Si2 0.671895 0.286669 0.394220
Si Si3 0.675806 0.041157 0.097948
Si Si4 0.172807 0.880416 0.399289
Si Si5 0.673438 0.780189 0.101473
Si Si6 0.325602 0.542035 0.099796
O O1 0.750000 0.595948 0.750000
O O2 0.805967 0.661530 0.930898
O O3 0.000000 0.595972 0.887051
O O4 0.749109 0.584866 0.027721
O O5 0.750000 0.273883 0.250000
O O6 0.500000 0.273700 0.383003
O O7 0.750030 0.257203 0.509913
O O8 0.750000 0.036960 0.250000
O O9 0.500000 0.041861 0.121674
O O10 0.732631 0.086102 0.019665
O O11 0.725267 0.000000 0.000000
O O12 0.250000 0.889673 0.250000
O O13 0.200992 0.830254 0.457224
O O14 0.000000 0.889289 0.370649
O O15 0.750000 0.776294 0.250000
O O16 0.500000 0.769196 0.114757
O O17 0.250000 0.532507 0.250000
O O18 0.500000 0.551299 0.122262
O O19 0.296114 0.500000 0.000000
#
# Coordination Sequence:
#
# PCOD8220282 Si02
#       6
#     8   8   8   8   8   8
#     4  10  21  38  60  84 112 146 184 227 274 325
#     4  10  21  37  57  82 111 145 184 226 274 325
#     4  10  21  36  54  78 107 138 175 218 264 317
#     4   9  19  35  54  78 106 138 178 221 266 318
#     4  10  20  35  55  79 109 144 182 225 272 323
#     4  11  24  40  60  86 115 148 185 226 272 323
#
# _framework density 18.900745000000001
#
# number of rings (size 3 to 8) (size 9 to 14) (size 15 to 20)
#    0.000    2.000    0.000    3.000    0.000    7.667 
#    0.000    1.667    0.000    0.000    0.000    0.000 
#    0.000    0.000    0.000    0.000    0.000    0.000 
#
# Total GULP energy -595306.112134 kJ/mol
# GULP energy per Si atom -12402.210669 kJ/mol
# Density = 1.885773 g / cm^3
# Si number density = 18.900745 Si / 1000 Ang^3
#
#
#
# Elastic Constant Matrix: (Units=GPa)
#
#
# Indices 1 2 3 4 5 6 
#
# 1 119.4402 57.5359 63.4146 0.0000 0.0000 0.0000
# 2 57.5359 82.5844 51.8521 0.0000 0.0000 0.0000
# 3 63.4146 51.8521 99.5896 0.0000 0.0000 0.0000
# 4 0.0000 0.0000 0.0000 40.9920 0.0000 0.0000
# 5 0.0000 0.0000 0.0000 0.0000 41.4015 0.0000
# 6 0.0000 0.0000 0.0000 0.0000 0.0000 14.9442
#
#
#
# Elastic Compliance Matrix: (Units=1/GPa)
#
#
# Indices 1 2 3 4 5 6 
#
# 1 0.014653 -0.006463 -0.005965 0.000000 0.000000 0.000000
# 2 -0.006463 0.020841 -0.006735 0.000000 0.000000 0.000000
# 3 -0.005965 -0.006735 0.017346 0.000000 0.000000 0.000000
# 4 0.000000 0.000000 0.000000 0.024395 0.000000 0.000000
# 5 0.000000 0.000000 0.000000 0.000000 0.024154 0.000000
# 6 0.000000 0.000000 0.000000 0.000000 0.000000 0.066916
#
#
# Mechanical properties :
#
#
# Convention : Reuss Voigt Hill
#
# Bulk Modulus (GPa) = 68.90660 71.91326 70.40993
# Shear Modulus (GPa) = 23.64410 28.05499 25.84954
#
# Velocity S-wave (km/s) = 3.54073 3.85688 3.70218
# Velocity P-wave (km/s) = 7.29739 7.61344 7.45709
#
# Compressibility (1/GPa) = 0.01451240
#
# Stress axis : x y z
#
# Youngs Moduli (GPa) = 68.24560 47.98335 57.64868
#
# Poissons Ratio (x) = 0.31013 0.34389
# Poissons Ratio (y) = 0.44108 0.38828
# Poissons Ratio (z) = 0.40711 0.32318
#
# Static dielectric constant tensor:
#      x y z
#    x 3.601010 0.000000 0.000000 
#    y 0.000000 3.763130 0.000000 
#    z 0.000000 0.000000 4.332560 
# 
# 
# High freq. dielectric constant tensor:
#      x y z
#    x 1.745090 0.000000 0.000000 
#    y 0.000000 1.746030 0.000000 
#    z 0.000000 0.000000 1.735330 
# 
# From -- ./inp_files/6590.got.cif
#   From: 2010.03.12/outbox.cif.g09.slc.cpg/sg53_4_cif.got.tgz:6590.got - 2010.04.16 14:36:59.
