data_PCOD8220655
_publ_section_title
;
Structure prediction by ZEFSAII (Michael W. Deem and Ramdas Pophale) SiO2 
 PCOD8220655
Probable space group: P M N A
;
_chemical_formula_sum "Si O2"
_cell_formula_units_Z 48
_cell_length_a 9.084565
_cell_length_b 16.738473
_cell_length_c 15.777380
_cell_angle_alpha 90.000000
_cell_angle_beta 90.000000
_cell_angle_gamma 90.000000
_cell_volume 2399.135950
_symmetry_space_group_name_H-M "P M N A"
_symmetry_group_IT_number 53
_symmetry_cell_setting 'orthorhombic'
loop_
_space_group_symop_operation_xyz
x,y,z
1/2-x,-y,1/2+z
x,-y,-z
1/2-x,y,1/2-z
-x,-y,-z
1/2+x,y,1/2-z
-x,y,z
1/2+x,-y,1/2+z
loop_
_atom_site_type_symbol
_atom_site_label
_atom_site_fract_x
_atom_site_fract_y
_atom_site_fract_z
Si Si1 0.834606 0.849460 0.889263
Si Si2 0.328735 0.675449 0.666475
Si Si3 0.333248 0.855519 0.416427
Si Si4 0.673420 0.994896 0.163346
Si Si5 0.326179 0.310049 0.662783
Si Si6 0.175104 0.409164 0.998137
O O1 0.799073 0.770084 0.837101
O O2 0.000000 0.880576 0.869029
O O3 0.718428 0.916260 0.863038
O O4 0.821223 0.826177 0.987376
O O5 0.250000 0.640705 0.750000
O O6 0.500000 0.655611 0.674233
O O7 0.262540 0.633785 0.582453
O O8 0.500000 0.882426 0.395360
O O9 0.225531 0.930876 0.406153
O O10 0.284898 0.781827 0.357435
O O11 0.750000 0.968741 0.250000
O O12 0.500000 0.991363 0.173396
O O13 0.250000 0.336421 0.750000
O O14 0.500000 0.320278 0.672902
O O15 0.265491 0.366051 0.586868
O O16 0.000000 0.403296 0.998285
O O17 0.231095 0.500000 0.000000
#
# Coordination Sequence:
#
# PCOD8220655 Si02
#       6
#     8   8   8   8   8   8
#     4  10  20  37  59  81 111 151 193 235 285 343
#     4  10  20  36  59  87 116 152 194 236 283 341
#     4  10  20  37  59  81 111 151 193 235 285 343
#     4  12  25  38  53  79 113 149 193 241 288 339
#     4  10  20  36  59  87 116 152 194 236 283 341
#     4   9  18  36  61  86 115 152 192 233 283 347
#
# _framework density 20.007201999999999
#
# number of rings (size 3 to 8) (size 9 to 14) (size 15 to 20)
#    0.000    1.833    1.667    3.000    0.000    7.333 
#    0.000    0.833    0.000    1.000    0.000    0.000 
#    0.000    0.000    0.000    0.000    0.000    0.000 
#
# Total GULP energy -595334.743761 kJ/mol
# GULP energy per Si atom -12402.807162 kJ/mol
# Density = 1.996167 g / cm^3
# Si number density = 20.007202 Si / 1000 Ang^3
#
#
#
# Elastic Constant Matrix: (Units=GPa)
#
#
# Indices 1 2 3 4 5 6 
#
# 1 79.5535 40.0018 39.4137 0.0000 0.0000 0.0000
# 2 40.0018 91.6876 44.5119 0.0000 0.0000 0.0000
# 3 39.4137 44.5119 134.6510 0.0000 0.0000 0.0000
# 4 0.0000 0.0000 0.0000 24.5110 0.0000 0.0000
# 5 0.0000 0.0000 0.0000 0.0000 33.2670 0.0000
# 6 0.0000 0.0000 0.0000 0.0000 0.0000 12.4794
#
#
#
# Elastic Compliance Matrix: (Units=1/GPa)
#
#
# Indices 1 2 3 4 5 6 
#
# 1 0.017075 -0.005983 -0.003020 0.000000 0.000000 0.000000
# 2 -0.005983 0.015088 -0.003236 0.000000 0.000000 0.000000
# 3 -0.003020 -0.003236 0.009380 0.000000 0.000000 0.000000
# 4 0.000000 0.000000 0.000000 0.040798 0.000000 0.000000
# 5 0.000000 0.000000 0.000000 0.000000 0.030060 0.000000
# 6 0.000000 0.000000 0.000000 0.000000 0.000000 0.080132
#
#
# Mechanical properties :
#
#
# Convention : Reuss Voigt Hill
#
# Bulk Modulus (GPa) = 58.60266 61.52741 60.06504
# Shear Modulus (GPa) = 22.45161 26.18246 24.31704
#
# Velocity S-wave (km/s) = 3.35352 3.62145 3.49006
# Velocity P-wave (km/s) = 6.65952 6.95025 6.80644
#
# Compressibility (1/GPa) = 0.01706407
#
# Stress axis : x y z
#
# Youngs Moduli (GPa) = 58.56499 66.27690 106.60458
#
# Poissons Ratio (x) = 0.39656 0.32196
# Poissons Ratio (y) = 0.35042 0.34501
# Poissons Ratio (z) = 0.17687 0.21449
#
# Static dielectric constant tensor:
#      x y z
#    x 3.352310 0.000000 0.000000 
#    y 0.000000 3.559010 0.000000 
#    z 0.000000 0.000000 3.775410 
# 
# 
# High freq. dielectric constant tensor:
#      x y z
#    x 1.746800 0.000000 0.000000 
#    y 0.000000 1.778800 0.000000 
#    z 0.000000 0.000000 1.796290 
# 
# From -- ./inp_files/20164.got.cif
#   From: 2010.03.12/outbox.cif.g09.slc.cpg/sg53_11_cif.got.tgz:20164.got - 2010.04.16 14:36:59.
