data_PCOD8220368
_publ_section_title
;
Structure prediction by ZEFSAII (Michael W. Deem and Ramdas Pophale) SiO2 
 PCOD8220368
Probable space group: P M N A
;
_chemical_formula_sum "Si O2"
_cell_formula_units_Z 48
_cell_length_a 17.739089
_cell_length_b 8.932308
_cell_length_c 15.216345
_cell_angle_alpha 90.000000
_cell_angle_beta 90.000000
_cell_angle_gamma 90.000000
_cell_volume 2411.045182
_symmetry_space_group_name_H-M "P M N A"
_symmetry_group_IT_number 53
_symmetry_cell_setting 'orthorhombic'
loop_
_space_group_symop_operation_xyz
x,y,z
1/2-x,-y,1/2+z
x,-y,-z
1/2-x,y,1/2-z
-x,-y,-z
1/2+x,y,1/2-z
-x,y,z
1/2+x,-y,1/2+z
loop_
_atom_site_type_symbol
_atom_site_label
_atom_site_fract_x
_atom_site_fract_y
_atom_site_fract_z
Si Si1 0.363404 0.420228 0.911921
Si Si2 0.085087 0.090446 0.238739
Si Si3 0.289947 0.624324 0.341024
Si Si4 0.189525 0.056134 0.905075
Si Si5 0.863860 0.932984 0.409088
Si Si6 0.584357 0.433605 0.259263
O O1 0.274681 0.457456 0.897850
O O2 0.375249 0.243555 0.915306
O O3 0.413689 0.483559 0.833686
O O4 0.391574 0.500000 0.000000
O O5 0.106838 0.262097 0.256481
O O6 0.000000 0.075820 0.202273
O O7 0.142924 0.029733 0.167929
O O8 0.088600 0.998230 0.328939
O O9 0.250000 0.678415 0.250000
O O10 0.323742 0.766461 0.392619
O O11 0.357299 0.507517 0.327239
O O12 0.277440 0.018766 0.893597
O O13 0.160800 0.000000 0.000000
O O14 0.894847 0.000000 0.500000
O O15 0.500000 0.449058 0.298127
#
# Coordination Sequence:
#
# PCOD8220368 Si02
#       6
#     8   8   8   8   8   8
#     4  10  20  35  57  84 112 142 179 224 275 331
#     4  11  23  38  56  81 115 150 187 230 276 330
#     4   9  19  36  57  81 108 142 185 229 277 332
#     4  10  21  37  59  84 110 143 186 233 279 331
#     4  10  21  37  60  88 113 143 184 229 278 331
#     4  10  22  37  54  79 110 148 186 223 275 329
#
# _framework density 19.908380000000001
#
# number of rings (size 3 to 8) (size 9 to 14) (size 15 to 20)
#    0.000    2.000    0.000    4.500    0.000   11.667 
#    0.000    0.000    0.000    2.500    0.000    0.000 
#    0.000    0.000    0.000    0.000    0.000    0.000 
#
# Total GULP energy -595309.838076 kJ/mol
# GULP energy per Si atom -12402.288293 kJ/mol
# Density = 1.986307 g / cm^3
# Si number density = 19.908380 Si / 1000 Ang^3
#
#
#
# Elastic Constant Matrix: (Units=GPa)
#
#
# Indices 1 2 3 4 5 6 
#
# 1 64.0892 45.4571 12.1838 0.0000 0.0000 0.0000
# 2 45.4571 113.1750 34.7824 0.0000 0.0000 0.0000
# 3 12.1838 34.7824 74.3318 0.0000 0.0000 0.0000
# 4 0.0000 0.0000 0.0000 40.0840 0.0000 0.0000
# 5 0.0000 0.0000 0.0000 0.0000 2.3365 0.0000
# 6 0.0000 0.0000 0.0000 0.0000 0.0000 28.3562
#
#
#
# Elastic Compliance Matrix: (Units=1/GPa)
#
#
# Indices 1 2 3 4 5 6 
#
# 1 0.021843 -0.008962 0.000613 0.000000 0.000000 0.000000
# 2 -0.008962 0.013997 -0.005081 0.000000 0.000000 0.000000
# 3 0.000613 -0.005081 0.015730 0.000000 0.000000 0.000000
# 4 0.000000 0.000000 0.000000 0.024948 0.000000 0.000000
# 5 0.000000 0.000000 0.000000 0.000000 0.427994 0.000000
# 6 0.000000 0.000000 0.000000 0.000000 0.000000 0.035266
#
#
# Mechanical properties :
#
#
# Convention : Reuss Voigt Hill
#
# Bulk Modulus (GPa) = 40.46694 48.49360 44.48027
# Shear Modulus (GPa) = 8.69757 24.76684 16.73221
#
# Velocity S-wave (km/s) = 2.09243 3.53092 2.90221
# Velocity P-wave (km/s) = 5.11942 6.40582 5.79840
#
# Compressibility (1/GPa) = 0.02471153
#
# Stress axis : x y z
#
# Youngs Moduli (GPa) = 45.78103 71.44453 63.57234
#
# Poissons Ratio (x) = 0.64027 -0.03898
# Poissons Ratio (y) = 0.41028 0.32299
# Poissons Ratio (z) = -0.02807 0.36299
#
# Static dielectric constant tensor:
#      x y z
#    x 3.550680 0.000000 0.000000 
#    y 0.000000 3.695240 0.000000 
#    z 0.000000 0.000000 3.692500 
# 
# 
# High freq. dielectric constant tensor:
#      x y z
#    x 1.772030 0.000000 0.000000 
#    y 0.000000 1.784860 0.000000 
#    z 0.000000 0.000000 1.769680 
# 
# From -- ./inp_files/23672.got.cif
#   From: 2010.03.12/outbox.cif.g09.slc.cpg/sg53_12_cif.got.tgz:23672.got - 2010.04.16 14:36:59.
