data_PCOD8220234
_publ_section_title
;
Structure prediction by ZEFSAII (Michael W. Deem and Ramdas Pophale) SiO2 
 PCOD8220234
Probable space group: P M N A
;
_chemical_formula_sum "Si O2"
_cell_formula_units_Z 64
_cell_length_a 8.844371
_cell_length_b 21.744193
_cell_length_c 18.212977
_cell_angle_alpha 90.000000
_cell_angle_beta 90.000000
_cell_angle_gamma 90.000000
_cell_volume 3502.605177
_symmetry_space_group_name_H-M "P M N A"
_symmetry_group_IT_number 53
_symmetry_cell_setting 'orthorhombic'
loop_
_space_group_symop_operation_xyz
x,y,z
1/2-x,-y,1/2+z
x,-y,-z
1/2-x,y,1/2-z
-x,-y,-z
1/2+x,y,1/2-z
-x,y,z
1/2+x,-y,1/2+z
loop_
_atom_site_type_symbol
_atom_site_label
_atom_site_fract_x
_atom_site_fract_y
_atom_site_fract_z
Si Si1 0.175111 0.432201 0.969302
Si Si2 0.320729 0.754093 0.672148
Si Si3 0.319270 0.873328 0.589786
Si Si4 0.833419 0.995428 0.087332
Si Si5 0.679690 0.863934 0.424746
Si Si6 0.819917 0.616952 0.327280
Si Si7 0.826520 0.743276 0.396041
Si Si8 0.823752 0.321949 0.453145
O O1 0.252096 0.427563 0.889352
O O2 0.000000 0.413368 0.962499
O O3 0.195729 0.500000 0.000000
O O4 0.258561 0.388374 0.026962
O O5 0.250000 0.739109 0.750000
O O6 0.500000 0.752235 0.676889
O O7 0.261972 0.821150 0.645577
O O8 0.265699 0.701763 0.617138
O O9 0.500000 0.877193 0.588452
O O10 0.261734 0.856026 0.508311
O O11 0.252758 0.940924 0.614465
O O12 0.754802 0.929552 0.107139
O O13 0.000000 0.993953 0.122521
O O14 0.846593 0.000000 0.000000
O O15 0.500000 0.865913 0.422012
O O16 0.736913 0.805959 0.377314
O O17 0.750000 0.596658 0.250000
O O18 0.772041 0.687619 0.343880
O O19 0.000000 0.609704 0.327243
O O20 0.795477 0.724463 0.479854
O O21 0.000000 0.757638 0.381663
O O22 0.000000 0.328283 0.434704
#
# Coordination Sequence:
#
# PCOD8220234 Si02
#       8
#     8   8   8   8   8   8   8   8
#     4  10  21  38  62  90 117 146 179 214 255 307
#     4  11  21  33  50  72 100 136 179 225 276 327
#     4   8  14  25  42  65  92 124 165 217 267 315
#     4   7  11  20  37  63  91 116 155 210 259 308
#     4   9  14  23  44  71  93 122 167 213 259 313
#     4  10  21  37  57  83 114 148 182 220 264 310
#     4   9  18  30  47  73 105 135 164 208 263 311
#     4  10  20  35  54  77 106 139 175 217 261 306
#
# _framework density 18.272114999999999
#
# number of rings (size 3 to 8) (size 9 to 14) (size 15 to 20)
#    0.000    2.750    1.250    3.750    0.000    3.500 
#    0.000    0.625    0.000    8.625    0.000    3.500 
#    0.000    0.000    0.000    0.000    0.000    0.000 
#
# Total GULP energy -793069.928176 kJ/mol
# GULP energy per Si atom -12391.717628 kJ/mol
# Density = 1.823053 g / cm^3
# Si number density = 18.272115 Si / 1000 Ang^3
#
#
#
# Elastic Constant Matrix: (Units=GPa)
#
#
# Indices 1 2 3 4 5 6 
#
# 1 61.5415 36.9957 29.6111 0.0000 0.0000 0.0000
# 2 36.9957 108.4068 35.7508 0.0000 0.0000 0.0000
# 3 29.6111 35.7508 88.3820 0.0000 0.0000 0.0000
# 4 0.0000 0.0000 0.0000 49.4745 0.0000 0.0000
# 5 0.0000 0.0000 0.0000 0.0000 21.0130 0.0000
# 6 0.0000 0.0000 0.0000 0.0000 0.0000 20.1323
#
#
#
# Elastic Compliance Matrix: (Units=1/GPa)
#
#
# Indices 1 2 3 4 5 6 
#
# 1 0.022243 -0.005923 -0.005056 0.000000 0.000000 0.000000
# 2 -0.005923 0.012222 -0.002959 0.000000 0.000000 0.000000
# 3 -0.005056 -0.002959 0.014206 0.000000 0.000000 0.000000
# 4 0.000000 0.000000 0.000000 0.020212 0.000000 0.000000
# 5 0.000000 0.000000 0.000000 0.000000 0.047590 0.000000
# 6 0.000000 0.000000 0.000000 0.000000 0.000000 0.049671
#
#
# Mechanical properties :
#
#
# Convention : Reuss Voigt Hill
#
# Bulk Modulus (GPa) = 48.09360 51.44950 49.77155
# Shear Modulus (GPa) = 24.88158 28.52215 26.70187
#
# Velocity S-wave (km/s) = 3.69416 3.95519 3.82690
# Velocity P-wave (km/s) = 6.67635 7.00547 6.84289
#
# Compressibility (1/GPa) = 0.02079279
#
# Stress axis : x y z
#
# Youngs Moduli (GPa) = 44.95846 81.82056 70.39518
#
# Poissons Ratio (x) = 0.48465 0.35593
# Poissons Ratio (y) = 0.26630 0.20832
# Poissons Ratio (z) = 0.22731 0.24213
#
# Static dielectric constant tensor:
#      x y z
#    x 3.140190 0.000000 0.000000 
#    y 0.000000 3.604560 0.000000 
#    z 0.000000 0.000000 3.083000 
# 
# 
# High freq. dielectric constant tensor:
#      x y z
#    x 1.687210 0.000000 0.000000 
#    y 0.000000 1.719650 0.000000 
#    z 0.000000 0.000000 1.671930 
# 
# From -- ./inp_files/26767.got.cif
#   From: 2010.03.12/outbox.cif.g09.slc.cpg/sg53_14_cif.got.tgz:26767.got - 2010.04.16 14:36:59.
