data_PCOD8220221
_publ_section_title
;
Structure prediction by ZEFSAII (Michael W. Deem and Ramdas Pophale) SiO2 
 PCOD8220221
Probable space group: P M N A
;
_chemical_formula_sum "Si O2"
_cell_formula_units_Z 64
_cell_length_a 15.460285
_cell_length_b 8.948746
_cell_length_c 21.223412
_cell_angle_alpha 90.000000
_cell_angle_beta 90.000000
_cell_angle_gamma 90.000000
_cell_volume 2936.262521
_symmetry_space_group_name_H-M "P M N A"
_symmetry_group_IT_number 53
_symmetry_cell_setting 'orthorhombic'
loop_
_space_group_symop_operation_xyz
x,y,z
1/2-x,-y,1/2+z
x,-y,-z
1/2-x,y,1/2-z
-x,-y,-z
1/2+x,y,1/2-z
-x,y,z
1/2+x,-y,1/2+z
loop_
_atom_site_type_symbol
_atom_site_label
_atom_site_fract_x
_atom_site_fract_y
_atom_site_fract_z
Si Si1 0.398158 0.412115 0.938234
Si Si2 0.155187 0.933772 0.194190
Si Si3 0.654347 0.075628 0.559420
Si Si4 0.653532 0.069910 0.184457
Si Si5 0.899820 0.398601 0.942775
Si Si6 0.148585 0.072732 0.561495
Si Si7 0.600503 0.604449 0.301974
Si Si8 0.397940 0.402327 0.184808
O O1 0.500000 0.390015 0.940619
O O2 0.355508 0.250332 0.937684
O O3 0.369844 0.498927 0.875173
O O4 0.365135 0.500000 0.000000
O O5 0.108519 0.964482 0.126430
O O6 0.155892 0.755431 0.206667
O O7 0.105005 0.019132 0.250726
O O8 0.252379 0.995302 0.189343
O O9 0.656608 0.251695 0.549819
O O10 0.752452 0.017385 0.561825
O O11 0.605350 0.000000 0.500000
O O12 0.655375 0.248761 0.180580
O O13 0.604462 0.999561 0.123851
O O14 0.884692 0.466233 0.872251
O O15 0.000000 0.358617 0.952549
O O16 0.866127 0.500000 0.000000
O O17 0.102517 0.000000 0.500000
O O18 0.500000 0.646151 0.292322
O O19 0.629829 0.485689 0.249169
O O20 0.500000 0.367392 0.183578
#
# Coordination Sequence:
#
# PCOD8220221 Si02
#       8
#     8   8   8   8   8   8   8   8
#     4  10  21  36  53  76 106 139 178 221 265 317
#     4   9  19  36  53  75 105 140 180 218 262 314
#     4   9  19  34  51  74 104 134 169 211 253 305
#     4  10  20  35  53  78 109 137 175 222 269 322
#     4   9  18  33  53  77 103 131 167 210 256 308
#     4  10  20  35  55  77 105 141 178 220 265 315
#     4   9  18  35  57  78 104 140 179 219 266 321
#     4  10  21  36  55  81 110 139 175 222 274 327
#
# _framework density 21.796417999999999
#
# number of rings (size 3 to 8) (size 9 to 14) (size 15 to 20)
#    0.000    2.500    0.000    1.500    0.000    3.000 
#    0.000   10.000    0.000    0.000    0.000    0.000 
#    0.000    0.000    0.000    0.000    0.000    0.000 
#
# Total GULP energy -793079.847564 kJ/mol
# GULP energy per Si atom -12391.872618 kJ/mol
# Density = 2.174681 g / cm^3
# Si number density = 21.796418 Si / 1000 Ang^3
#
#
#
# Elastic Constant Matrix: (Units=GPa)
#
#
# Indices 1 2 3 4 5 6 
#
# 1 28.6823 19.0167 9.7090 0.0000 0.0000 0.0000
# 2 19.0167 151.8119 107.4377 0.0000 0.0000 0.0000
# 3 9.7090 107.4377 260.2230 0.0000 0.0000 0.0000
# 4 0.0000 0.0000 0.0000 50.6106 0.0000 0.0000
# 5 0.0000 0.0000 0.0000 0.0000 0.7711 0.0000
# 6 0.0000 0.0000 0.0000 0.0000 0.0000 -82.0773
#
#
#
# Elastic Compliance Matrix: (Units=1/GPa)
#
#
# Indices 1 2 3 4 5 6 
#
# 1 0.038133 -0.005326 0.000776 0.000000 0.000000 0.000000
# 2 -0.005326 0.010050 -0.003951 0.000000 0.000000 0.000000
# 3 0.000776 -0.003951 0.005445 0.000000 0.000000 0.000000
# 4 0.000000 0.000000 0.000000 0.019759 0.000000 0.000000
# 5 0.000000 0.000000 0.000000 0.000000 1.296910 0.000000
# 6 0.000000 0.000000 0.000000 0.000000 0.000000 -0.012184
#
#
# Mechanical properties :
#
#
# Convention : Reuss Voigt Hill
#
# Bulk Modulus (GPa) = 27.30201 79.22710 53.26455
# Shear Modulus (GPa) = 3.60406 14.16446 8.88426
#
# Velocity S-wave (km/s) = 1.28728 2.55199 2.02111
# Velocity P-wave (km/s) = 3.84221 6.71648 5.47146
#
# Compressibility (1/GPa) = 0.03662735
#
# Stress axis : x y z
#
# Youngs Moduli (GPa) = 26.22383 99.50085 183.65460
#
# Poissons Ratio (x) = 0.52995 -0.14255
# Poissons Ratio (y) = 0.13967 0.72556
# Poissons Ratio (z) = -0.02035 0.39310
#
# Static dielectric constant tensor:
#      x y z
#    x 3.431020 0.000000 0.000000 
#    y 0.000000 3.675270 0.000000 
#    z 0.000000 0.000000 5.405050 
# 
# 
# High freq. dielectric constant tensor:
#      x y z
#    x 1.817390 0.000000 0.000000 
#    y 0.000000 1.843040 0.000000 
#    z 0.000000 0.000000 1.894320 
# 
# From -- ./inp_files/35558.got.cif
#   From: 2010.03.12/outbox.cif.g09.slc.cpg/sg53_18_cif.got.tgz:35558.got - 2010.04.16 14:36:59.
