data_PCOD8220454
_publ_section_title
;
Structure prediction by ZEFSAII (Michael W. Deem and Ramdas Pophale) SiO2 
 PCOD8220454
Probable space group: P M N A
;
_chemical_formula_sum "Si O2"
_cell_formula_units_Z 48
_cell_length_a 8.814945
_cell_length_b 30.966856
_cell_length_c 9.528513
_cell_angle_alpha 90.000000
_cell_angle_beta 90.000000
_cell_angle_gamma 90.000000
_cell_volume 2601.008984
_symmetry_space_group_name_H-M "P M N A"
_symmetry_group_IT_number 53
_symmetry_cell_setting 'orthorhombic'
loop_
_space_group_symop_operation_xyz
x,y,z
1/2-x,-y,1/2+z
x,-y,-z
1/2-x,y,1/2-z
-x,-y,-z
1/2+x,y,1/2-z
-x,y,z
1/2+x,-y,1/2+z
loop_
_atom_site_type_symbol
_atom_site_label
_atom_site_fract_x
_atom_site_fract_y
_atom_site_fract_z
Si Si1 0.820711 0.539903 0.596421
Si Si2 0.678073 0.133428 0.099298
Si Si3 0.176780 0.616489 0.401987
Si Si4 0.680013 0.796087 0.404331
Si Si5 0.176374 0.035724 0.396895
Si Si6 0.677353 0.711734 0.098533
O O1 0.768689 0.500000 0.500000
O O2 0.750000 0.536269 0.750000
O O3 0.760544 0.582845 0.516939
O O4 0.000000 0.540826 0.615672
O O5 0.750000 0.142436 0.250000
O O6 0.500000 0.143974 0.105085
O O7 0.709380 0.084299 0.050236
O O8 0.762088 0.162950 0.988185
O O9 0.250000 0.609156 0.250000
O O10 0.206811 0.664385 0.468052
O O11 0.000000 0.608875 0.376680
O O12 0.750000 0.798608 0.250000
O O13 0.500000 0.796436 0.397123
O O14 0.738542 0.751596 0.480323
O O15 0.250000 0.026740 0.250000
O O16 0.000000 0.027811 0.378468
O O17 0.247515 0.000000 0.500000
O O18 0.750000 0.708958 0.250000
O O19 0.500000 0.722520 0.108254
#
# Coordination Sequence:
#
# PCOD8220454 Si02
#       6
#     8   8   8   8   8   8
#     4  10  21  36  53  76 105 135 170 210 252 300
#     4  10  20  36  55  76 105 139 174 212 258 310
#     4   9  18  32  52  77 103 133 169 210 254 303
#     4  11  21  34  53  78 106 137 176 218 260 305
#     4   9  19  35  54  77 104 134 169 209 253 303
#     4   9  16  29  49  73 102 133 168 211 257 302
#
# _framework density 18.454377999999998
#
# number of rings (size 3 to 8) (size 9 to 14) (size 15 to 20)
#    0.000    2.333    0.000    4.000    0.000    3.333 
#    0.000    2.500    0.000    2.000    0.000    0.000 
#    0.000    0.000    0.000    0.000    0.000    0.000 
#
# Total GULP energy -594931.889872 kJ/mol
# GULP energy per Si atom -12394.414372 kJ/mol
# Density = 1.841238 g / cm^3
# Si number density = 18.454378 Si / 1000 Ang^3
#
#
#
# Elastic Constant Matrix: (Units=GPa)
#
#
# Indices 1 2 3 4 5 6 
#
# 1 96.5618 69.7533 52.2740 0.0000 0.0000 0.0000
# 2 69.7533 173.0704 84.8623 0.0000 0.0000 0.0000
# 3 52.2740 84.8623 94.6239 0.0000 0.0000 0.0000
# 4 0.0000 0.0000 0.0000 34.2383 0.0000 0.0000
# 5 0.0000 0.0000 0.0000 0.0000 29.3436 0.0000
# 6 0.0000 0.0000 0.0000 0.0000 0.0000 -1.5941
#
#
#
# Elastic Compliance Matrix: (Units=1/GPa)
#
#
# Indices 1 2 3 4 5 6 
#
# 1 0.016054 -0.003787 -0.005473 0.000000 0.000000 0.000000
# 2 -0.003787 0.011207 -0.007958 0.000000 0.000000 0.000000
# 3 -0.005473 -0.007958 0.020729 0.000000 0.000000 0.000000
# 4 0.000000 0.000000 0.000000 0.029207 0.000000 0.000000
# 5 0.000000 0.000000 0.000000 0.000000 0.034079 0.000000
# 6 0.000000 0.000000 0.000000 0.000000 0.000000 -0.627325
#
#
# Mechanical properties :
#
#
# Convention : Reuss Voigt Hill
#
# Bulk Modulus (GPa) = 73.78133 86.44839 80.11486
# Shear Modulus (GPa) = -10.48009 22.88865 6.20428
#
# Velocity S-wave (km/s) = -2.38563 3.52559 1.83555
# Velocity P-wave (km/s) = 5.69902 7.96989 6.92813
#
# Compressibility (1/GPa) = 0.01355356
#
# Stress axis : x y z
#
# Youngs Moduli (GPa) = 62.28837 89.23364 48.24185
#
# Poissons Ratio (x) = 0.33793 0.26402
# Poissons Ratio (y) = 0.23588 0.38393
# Poissons Ratio (z) = 0.34089 0.71015
#
# Static dielectric constant tensor:
#      x y z
#    x 3.453210 0.000000 0.000000 
#    y 0.000000 4.306310 0.000000 
#    z 0.000000 0.000000 3.186490 
# 
# 
# High freq. dielectric constant tensor:
#      x y z
#    x 1.720840 0.000000 0.000000 
#    y 0.000000 1.740630 0.000000 
#    z 0.000000 0.000000 1.686460 
# 
# From -- ./inp_files/6629.got.cif
#   From: 2010.03.12/outbox.cif.g09.slc.cpg/sg53_4_cif.got.tgz:6629.got - 2010.04.16 14:36:59.
