data_PCOD8220306
_publ_section_title
;
Structure prediction by ZEFSAII (Michael W. Deem and Ramdas Pophale) SiO2 
 PCOD8220306
Probable space group: P M N A
;
_chemical_formula_sum "Si O2"
_cell_formula_units_Z 56
_cell_length_a 9.567372
_cell_length_b 20.869136
_cell_length_c 15.262113
_cell_angle_alpha 90.000000
_cell_angle_beta 90.000000
_cell_angle_gamma 90.000000
_cell_volume 3047.276024
_symmetry_space_group_name_H-M "P M N A"
_symmetry_group_IT_number 53
_symmetry_cell_setting 'orthorhombic'
loop_
_space_group_symop_operation_xyz
x,y,z
1/2-x,-y,1/2+z
x,-y,-z
1/2-x,y,1/2-z
-x,-y,-z
1/2+x,y,1/2-z
-x,y,z
1/2+x,-y,1/2+z
loop_
_atom_site_type_symbol
_atom_site_label
_atom_site_fract_x
_atom_site_fract_y
_atom_site_fract_z
Si Si1 0.661669 0.564304 0.332688
Si Si2 0.162249 0.128189 0.668695
Si Si3 0.665285 0.993075 0.903033
Si Si4 0.337843 0.583446 0.667114
Si Si5 0.336072 0.654744 0.491822
Si Si6 0.663995 0.142034 0.166725
Si Si7 0.838694 0.781045 0.492552
O O1 0.750000 0.588805 0.250000
O O2 0.500000 0.574274 0.309447
O O3 0.695005 0.490479 0.354169
O O4 0.706709 0.604738 0.416863
O O5 0.250000 0.156143 0.750000
O O6 0.197801 0.166974 0.581180
O O7 0.000000 0.133880 0.692597
O O8 0.207619 0.054595 0.653918
O O9 0.500000 0.987139 0.913253
O O10 0.721367 0.928859 0.856826
O O11 0.731348 0.000000 0.000000
O O12 0.250000 0.607928 0.750000
O O13 0.500000 0.593520 0.688863
O O14 0.290220 0.624951 0.584293
O O15 0.500000 0.669158 0.489865
O O16 0.255153 0.719814 0.474731
O O17 0.750000 0.167755 0.250000
O O18 0.500000 0.141321 0.189157
O O19 0.696798 0.189173 0.086606
O O20 0.000000 0.760636 0.487257
#
# Coordination Sequence:
#
# PCOD8220306 Si02
#       7
#     8   8   8   8   8   8   8
#     4   9  18  34  56  81 107 135 170 213 260 308
#     4  10  20  35  56  79 103 135 174 216 262 311
#     4   9  15  30  57  80 101 132 171 213 260 314
#     4   9  18  34  56  81 107 135 170 213 260 308
#     4  10  21  36  55  77 105 141 176 212 258 306
#     4  10  20  35  56  79 103 135 174 216 262 311
#     4  10  22  38  53  73 104 143 180 212 252 309
#
# _framework density 18.377068999999999
#
# number of rings (size 3 to 8) (size 9 to 14) (size 15 to 20)
#    0.000    2.429    1.429    0.857    0.000    5.143 
#    0.000    5.714    0.000    5.143    0.000    0.000 
#    0.000    0.000    0.000    0.000    0.000    0.000 
#
# Total GULP energy -694523.154434 kJ/mol
# GULP energy per Si atom -12402.199186 kJ/mol
# Density = 1.833524 g / cm^3
# Si number density = 18.377069 Si / 1000 Ang^3
#
#
#
# Elastic Constant Matrix: (Units=GPa)
#
#
# Indices 1 2 3 4 5 6 
#
# 1 42.9972 24.0049 40.0231 0.0000 0.0000 0.0000
# 2 24.0049 52.0310 7.0626 0.0000 0.0000 0.0000
# 3 40.0231 7.0626 98.3194 0.0000 0.0000 0.0000
# 4 0.0000 0.0000 0.0000 9.6062 0.0000 0.0000
# 5 0.0000 0.0000 0.0000 0.0000 34.1501 0.0000
# 6 0.0000 0.0000 0.0000 0.0000 0.0000 22.4403
#
#
#
# Elastic Compliance Matrix: (Units=1/GPa)
#
#
# Indices 1 2 3 4 5 6 
#
# 1 0.055434 -0.022733 -0.020933 0.000000 0.000000 0.000000
# 2 -0.022733 0.028732 0.007190 0.000000 0.000000 0.000000
# 3 -0.020933 0.007190 0.018175 0.000000 0.000000 0.000000
# 4 0.000000 0.000000 0.000000 0.104099 0.000000 0.000000
# 5 0.000000 0.000000 0.000000 0.000000 0.029282 0.000000
# 6 0.000000 0.000000 0.000000 0.000000 0.000000 0.044563
#
#
# Mechanical properties :
#
#
# Convention : Reuss Voigt Hill
#
# Bulk Modulus (GPa) = 34.02586 37.28098 35.65342
# Shear Modulus (GPa) = 13.77285 21.38981 17.58133
#
# Velocity S-wave (km/s) = 2.74059 3.41536 3.09641
# Velocity P-wave (km/s) = 5.34510 5.99029 5.67687
#
# Compressibility (1/GPa) = 0.02938941
#
# Stress axis : x y z
#
# Youngs Moduli (GPa) = 18.03955 34.80488 55.01921
#
# Poissons Ratio (x) = 0.79124 1.15169
# Poissons Ratio (y) = 0.41010 -0.39560
# Poissons Ratio (z) = 0.37761 -0.25026
#
# Static dielectric constant tensor:
#      x y z
#    x 3.154820 0.000000 0.000000 
#    y 0.000000 3.337090 0.000000 
#    z 0.000000 0.000000 3.458920 
# 
# 
# High freq. dielectric constant tensor:
#      x y z
#    x 1.690250 0.000000 0.000000 
#    y 0.000000 1.710860 0.000000 
#    z 0.000000 0.000000 1.724350 
# 
# From -- ./inp_files/14977.got.cif
#   From: 2010.03.12/outbox.cif.g09.slc.cpg/sg53_8_cif.got.tgz:14977.got - 2010.04.16 14:36:59.
