data_PCOD8220522
_publ_section_title
;
Structure prediction by ZEFSAII (Michael W. Deem and Ramdas Pophale) SiO2 
 PCOD8220522
Probable space group: P M N A
;
_chemical_formula_sum "Si O2"
_cell_formula_units_Z 56
_cell_length_a 8.899320
_cell_length_b 21.107211
_cell_length_c 15.018325
_cell_angle_alpha 90.000000
_cell_angle_beta 90.000000
_cell_angle_gamma 90.000000
_cell_volume 2821.039540
_symmetry_space_group_name_H-M "P M N A"
_symmetry_group_IT_number 53
_symmetry_cell_setting 'orthorhombic'
loop_
_space_group_symop_operation_xyz
x,y,z
1/2-x,-y,1/2+z
x,-y,-z
1/2-x,y,1/2-z
-x,-y,-z
1/2+x,y,1/2-z
-x,y,z
1/2+x,-y,1/2+z
loop_
_atom_site_type_symbol
_atom_site_label
_atom_site_fract_x
_atom_site_fract_y
_atom_site_fract_z
Si Si1 0.824186 0.011533 0.345458
Si Si2 0.672256 0.212634 0.508011
Si Si3 0.673523 0.357515 0.511144
Si Si4 0.174827 0.848044 0.654293
Si Si5 0.674924 0.443029 0.842145
Si Si6 0.824181 0.410671 0.342619
Si Si7 0.178121 0.888278 0.152822
O O1 0.750000 0.012680 0.250000
O O2 0.795103 0.081200 0.386228
O O3 0.000000 0.996300 0.339633
O O4 0.742078 0.952768 0.394834
O O5 0.500000 0.197367 0.485370
O O6 0.694272 0.284709 0.539100
O O7 0.764756 0.201110 0.417957
O O8 0.728291 0.169494 0.589765
O O9 0.500000 0.377476 0.508110
O O10 0.758514 0.401034 0.580459
O O11 0.746347 0.366875 0.415122
O O12 0.250000 0.837197 0.750000
O O13 0.000000 0.836295 0.669175
O O14 0.750000 0.422868 0.750000
O O15 0.500000 0.429191 0.833839
O O16 0.707451 0.516008 0.865361
O O17 0.750000 0.391474 0.250000
O O18 0.000000 0.396010 0.338784
O O19 0.250000 0.877392 0.250000
O O20 0.000000 0.892945 0.162963
#
# Coordination Sequence:
#
# PCOD8220522 Si02
#       7
#     8   8   8   8   8   8   8
#     4   9  17  31  53  82 109 136 176 225 279 334
#     4  10  24  41  55  78 112 150 192 229 269 328
#     4  11  23  39  58  82 115 153 191 232 277 328
#     4  10  21  37  59  83 110 144 182 229 281 332
#     4  10  21  38  61  89 118 147 184 230 278 331
#     4  10  21  38  61  89 117 147 185 229 279 332
#     4  10  20  36  57  80 108 143 182 228 279 329
#
# _framework density 19.850838
#
# number of rings (size 3 to 8) (size 9 to 14) (size 15 to 20)
#    0.000    2.000    0.000    3.857    0.000    9.143 
#    0.000    4.286    0.000    0.000    0.000    0.000 
#    0.000    0.000    0.000    0.000    0.000    0.000 
#
# Total GULP energy -694379.870603 kJ/mol
# GULP energy per Si atom -12399.640546 kJ/mol
# Density = 1.980566 g / cm^3
# Si number density = 19.850838 Si / 1000 Ang^3
#
#
#
# Elastic Constant Matrix: (Units=GPa)
#
#
# Indices 1 2 3 4 5 6 
#
# 1 90.9074 20.7380 27.9283 0.0000 0.0000 0.0000
# 2 20.7380 47.4818 15.5661 0.0000 0.0000 0.0000
# 3 27.9283 15.5661 71.4881 0.0000 0.0000 0.0000
# 4 0.0000 0.0000 0.0000 13.3527 0.0000 0.0000
# 5 0.0000 0.0000 0.0000 0.0000 34.5911 0.0000
# 6 0.0000 0.0000 0.0000 0.0000 0.0000 33.8159
#
#
#
# Elastic Compliance Matrix: (Units=1/GPa)
#
#
# Indices 1 2 3 4 5 6 
#
# 1 0.013311 -0.004425 -0.004237 0.000000 0.000000 0.000000
# 2 -0.004425 0.024150 -0.003530 0.000000 0.000000 0.000000
# 3 -0.004237 -0.003530 0.016412 0.000000 0.000000 0.000000
# 4 0.000000 0.000000 0.000000 0.074891 0.000000 0.000000
# 5 0.000000 0.000000 0.000000 0.000000 0.028909 0.000000
# 6 0.000000 0.000000 0.000000 0.000000 0.000000 0.029572
#
#
# Mechanical properties :
#
#
# Convention : Reuss Voigt Hill
#
# Bulk Modulus (GPa) = 33.90902 37.59357 35.75130
# Shear Modulus (GPa) = 22.57745 26.06160 24.31952
#
# Velocity S-wave (km/s) = 3.37613 3.62729 3.50396
# Velocity P-wave (km/s) = 5.68477 6.04335 5.86680
#
# Compressibility (1/GPa) = 0.02949068
#
# Stress axis : x y z
#
# Youngs Moduli (GPa) = 75.12452 41.40704 60.93038
#
# Poissons Ratio (x) = 0.18322 0.25815
# Poissons Ratio (y) = 0.33241 0.21508
# Poissons Ratio (z) = 0.31829 0.14617
#
# Static dielectric constant tensor:
#      x y z
#    x 3.751580 0.000000 0.000000 
#    y 0.000000 3.938290 0.000000 
#    z 0.000000 0.000000 3.526700 
# 
# 
# High freq. dielectric constant tensor:
#      x y z
#    x 1.788050 0.000000 0.000000 
#    y 0.000000 1.777250 0.000000 
#    z 0.000000 0.000000 1.767580 
# 
# From -- ./inp_files/20640.got.cif
#   From: 2010.03.12/outbox.cif.g09.slc.cpg/sg53_11_cif.got.tgz:20640.got - 2010.04.16 14:36:59.
