data_PCOD8220496
_publ_section_title
;
Structure prediction by ZEFSAII (Michael W. Deem and Ramdas Pophale) SiO2 
 PCOD8220496
Probable space group: P M N A
;
_chemical_formula_sum "Si O2"
_cell_formula_units_Z 56
_cell_length_a 8.965633
_cell_length_b 15.576494
_cell_length_c 19.710348
_cell_angle_alpha 90.000000
_cell_angle_beta 90.000000
_cell_angle_gamma 90.000000
_cell_volume 2752.611765
_symmetry_space_group_name_H-M "P M N A"
_symmetry_group_IT_number 53
_symmetry_cell_setting 'orthorhombic'
loop_
_space_group_symop_operation_xyz
x,y,z
1/2-x,-y,1/2+z
x,-y,-z
1/2-x,y,1/2-z
-x,-y,-z
1/2+x,y,1/2-z
-x,y,z
1/2+x,-y,1/2+z
loop_
_atom_site_type_symbol
_atom_site_label
_atom_site_fract_x
_atom_site_fract_y
_atom_site_fract_z
Si Si1 0.174270 0.917403 0.542630
Si Si2 0.325178 0.809319 0.181963
Si Si3 0.326426 0.525514 0.180955
Si Si4 0.676174 0.327961 0.179433
Si Si5 0.824575 0.332863 0.576003
Si Si6 0.672841 0.002466 0.183207
Si Si7 0.823265 0.742636 0.952584
O O1 0.208389 0.935066 0.621293
O O2 0.270565 0.835656 0.520161
O O3 0.000000 0.898053 0.528776
O O4 0.225452 0.000000 0.500000
O O5 0.250000 0.773301 0.250000
O O6 0.500000 0.804438 0.193602
O O7 0.278434 0.750513 0.119164
O O8 0.269582 0.906172 0.166574
O O9 0.250000 0.557394 0.250000
O O10 0.500000 0.539187 0.193142
O O11 0.285964 0.427333 0.164844
O O12 0.273618 0.582412 0.117079
O O13 0.750000 0.298727 0.250000
O O14 0.500000 0.310644 0.182456
O O15 0.748200 0.272228 0.120120
O O16 0.734065 0.329233 0.505597
O O17 0.000000 0.335214 0.559271
O O18 0.750000 0.040805 0.250000
O O19 0.500000 0.998440 0.198906
O O20 0.000000 0.738150 0.945928
#
# Coordination Sequence:
#
# PCOD8220496 Si02
#       7
#     8   8   8   8   8   8   8
#     4  10  21  40  63  82 107 147 191 235 287 346
#     4   9  17  30  51  79 112 148 184 224 273 331
#     4   9  19  35  60  90 118 152 192 235 284 338
#     4  10  21  41  65  88 116 150 191 239 290 344
#     4  10  20  36  56  81 116 155 193 232 279 340
#     4   9  18  32  52  78 105 137 177 221 272 329
#     4  12  26  40  57  85 116 150 192 239 291 341
#
# _framework density 20.344314000000001
#
# number of rings (size 3 to 8) (size 9 to 14) (size 15 to 20)
#    0.000    2.143    0.000    3.000    0.000    6.000 
#    0.000    7.143    0.000    0.000    0.000    0.000 
#    0.000    0.000    0.000    0.000    0.000    0.000 
#
# Total GULP energy -694553.500931 kJ/mol
# GULP energy per Si atom -12402.741088 kJ/mol
# Density = 2.029801 g / cm^3
# Si number density = 20.344314 Si / 1000 Ang^3
#
#
#
# Elastic Constant Matrix: (Units=GPa)
#
#
# Indices 1 2 3 4 5 6 
#
# 1 75.6240 32.5402 50.8592 0.0000 0.0000 0.0000
# 2 32.5402 70.1023 35.9112 0.0000 0.0000 0.0000
# 3 50.8592 35.9112 116.5972 0.0000 0.0000 0.0000
# 4 0.0000 0.0000 0.0000 23.8874 0.0000 0.0000
# 5 0.0000 0.0000 0.0000 0.0000 38.4581 0.0000
# 6 0.0000 0.0000 0.0000 0.0000 0.0000 12.8999
#
#
#
# Elastic Compliance Matrix: (Units=1/GPa)
#
#
# Indices 1 2 3 4 5 6 
#
# 1 0.020569 -0.005879 -0.007162 0.000000 0.000000 0.000000
# 2 -0.005879 0.018618 -0.003170 0.000000 0.000000 0.000000
# 3 -0.007162 -0.003170 0.012677 0.000000 0.000000 0.000000
# 4 0.000000 0.000000 0.000000 0.041863 0.000000 0.000000
# 5 0.000000 0.000000 0.000000 0.000000 0.026002 0.000000
# 6 0.000000 0.000000 0.000000 0.000000 0.000000 0.077520
#
#
# Mechanical properties :
#
#
# Convention : Reuss Voigt Hill
#
# Bulk Modulus (GPa) = 51.43292 55.66051 53.54671
# Shear Modulus (GPa) = 21.17293 24.58327 22.87810
#
# Velocity S-wave (km/s) = 3.22953 3.47992 3.35706
# Velocity P-wave (km/s) = 6.26439 6.60039 6.43458
#
# Compressibility (1/GPa) = 0.01944280
#
# Stress axis : x y z
#
# Youngs Moduli (GPa) = 48.61578 53.71262 78.88573
#
# Poissons Ratio (x) = 0.31579 0.56494
# Poissons Ratio (y) = 0.28583 0.25003
# Poissons Ratio (z) = 0.34816 0.17024
#
# Static dielectric constant tensor:
#      x y z
#    x 3.506360 0.000000 0.000000 
#    y 0.000000 3.798230 0.000000 
#    z 0.000000 0.000000 3.806010 
# 
# 
# High freq. dielectric constant tensor:
#      x y z
#    x 1.778070 0.000000 0.000000 
#    y 0.000000 1.794230 0.000000 
#    z 0.000000 0.000000 1.802680 
# 
# From -- ./inp_files/30771.got.cif
#   From: 2010.03.12/outbox.cif.g09.slc.cpg/sg53_16_cif.got.tgz:30771.got - 2010.04.16 14:36:59.
