data_PCOD8220870
_publ_section_title
;
Structure prediction by ZEFSAII (Michael W. Deem and Ramdas Pophale) SiO2 
 PCOD8220870
Probable space group: P M N A
;
_chemical_formula_sum "Si O2"
_cell_formula_units_Z 64
_cell_length_a 8.741255
_cell_length_b 23.678790
_cell_length_c 15.179315
_cell_angle_alpha 90.000000
_cell_angle_beta 90.000000
_cell_angle_gamma 90.000000
_cell_volume 3141.850161
_symmetry_space_group_name_H-M "P M N A"
_symmetry_group_IT_number 53
_symmetry_cell_setting 'orthorhombic'
loop_
_space_group_symop_operation_xyz
x,y,z
1/2-x,-y,1/2+z
x,-y,-z
1/2-x,y,1/2-z
-x,-y,-z
1/2+x,y,1/2-z
-x,y,z
1/2+x,-y,1/2+z
loop_
_atom_site_type_symbol
_atom_site_label
_atom_site_fract_x
_atom_site_fract_y
_atom_site_fract_z
Si Si1 0.678159 0.108417 0.154048
Si Si2 0.180837 0.807477 0.503880
Si Si3 0.680874 0.128417 0.652491
Si Si4 0.321027 0.621996 0.339368
Si Si5 0.680122 0.311999 0.488798
Si Si6 0.323558 0.385658 0.159421
Si Si7 0.321296 0.016146 0.845186
Si Si8 0.675073 0.509748 0.097926
O O1 0.750000 0.118049 0.250000
O O2 0.500000 0.117835 0.168735
O O3 0.708262 0.045574 0.112453
O O4 0.742790 0.152563 0.082799
O O5 0.262342 0.822178 0.411697
O O6 0.225518 0.744405 0.530261
O O7 0.000000 0.813909 0.492208
O O8 0.750000 0.136853 0.750000
O O9 0.500000 0.130025 0.659911
O O10 0.736574 0.068853 0.608192
O O11 0.250000 0.646524 0.250000
O O12 0.500000 0.621791 0.328897
O O13 0.268477 0.663245 0.417257
O O14 0.270606 0.557776 0.354241
O O15 0.500000 0.299706 0.484454
O O16 0.725397 0.358385 0.417716
O O17 0.250000 0.364360 0.250000
O O18 0.500000 0.366401 0.153306
O O19 0.308676 0.452996 0.154048
O O20 0.250000 0.011718 0.750000
O O21 0.500000 0.030659 0.840991
O O22 0.500000 0.530307 0.091551
O O23 0.741049 0.500000 0.000000
#
# Coordination Sequence:
#
# PCOD8220870 Si02
#       8
#     8   8   8   8   8   8   8   8
#     4   9  20  37  60  88 119 155 195 240 296 354
#     4  11  24  42  62  86 117 158 203 250 301 355
#     4  11  22  38  60  88 120 156 197 244 298 357
#     4  11  24  40  63  91 122 158 198 243 297 357
#     4  11  25  44  62  86 118 156 204 255 301 353
#     4  11  23  40  64  92 123 160 200 245 298 356
#     4   9  16  31  55  85 119 153 190 236 291 355
#     4  10  20  37  63  94 127 160 195 239 295 355
#
# _framework density 20.370165
#
# number of rings (size 3 to 8) (size 9 to 14) (size 15 to 20)
#    0.000    1.625    1.250    4.125    0.000    6.750 
#    0.000    5.000    0.000    0.000    0.000    0.000 
#    0.000    0.000    0.000    0.000    0.000    0.000 
#
# Total GULP energy -793643.371363 kJ/mol
# GULP energy per Si atom -12400.677678 kJ/mol
# Density = 2.032380 g / cm^3
# Si number density = 20.370165 Si / 1000 Ang^3
#
#
#
# Elastic Constant Matrix: (Units=GPa)
#
#
# Indices 1 2 3 4 5 6 
#
# 1 83.7163 32.0374 40.0814 0.0000 0.0000 0.0000
# 2 32.0374 73.1993 10.7940 0.0000 0.0000 0.0000
# 3 40.0814 10.7940 94.7813 0.0000 0.0000 0.0000
# 4 0.0000 0.0000 0.0000 26.1390 0.0000 0.0000
# 5 0.0000 0.0000 0.0000 0.0000 29.3797 0.0000
# 6 0.0000 0.0000 0.0000 0.0000 0.0000 31.3509
#
#
#
# Elastic Compliance Matrix: (Units=1/GPa)
#
#
# Indices 1 2 3 4 5 6 
#
# 1 0.017768 -0.006783 -0.006742 0.000000 0.000000 0.000000
# 2 -0.006783 0.016484 0.000991 0.000000 0.000000 0.000000
# 3 -0.006742 0.000991 0.013289 0.000000 0.000000 0.000000
# 4 0.000000 0.000000 0.000000 0.038257 0.000000 0.000000
# 5 0.000000 0.000000 0.000000 0.000000 0.034037 0.000000
# 6 0.000000 0.000000 0.000000 0.000000 0.000000 0.031897
#
#
# Mechanical properties :
#
#
# Convention : Reuss Voigt Hill
#
# Bulk Modulus (GPa) = 44.49479 46.39138 45.44309
# Shear Modulus (GPa) = 27.13116 28.62618 27.87867
#
# Velocity S-wave (km/s) = 3.65349 3.75280 3.70348
# Velocity P-wave (km/s) = 6.29983 6.44993 6.37532
#
# Compressibility (1/GPa) = 0.02247454
#
# Stress axis : x y z
#
# Youngs Moduli (GPa) = 56.27951 60.66562 75.25233
#
# Poissons Ratio (x) = 0.41148 0.50732
# Poissons Ratio (y) = 0.38173 -0.07458
# Poissons Ratio (z) = 0.37941 -0.06012
#
# Static dielectric constant tensor:
#      x y z
#    x 3.698380 0.000000 0.000000 
#    y 0.000000 3.938800 0.000000 
#    z 0.000000 0.000000 3.888370 
# 
# 
# High freq. dielectric constant tensor:
#      x y z
#    x 1.800820 0.000000 0.000000 
#    y 0.000000 1.797040 0.000000 
#    z 0.000000 0.000000 1.795780 
# 
# From -- ./inp_files/20830.got.cif
#   From: 2010.03.12/outbox.cif.g09.slc.cpg/sg53_11_cif.got.tgz:20830.got - 2010.04.16 14:36:59.
