data_PCOD8220916
_publ_section_title
;
Structure prediction by ZEFSAII (Michael W. Deem and Ramdas Pophale) SiO2 
 PCOD8220916
Probable space group: P M N A
;
_chemical_formula_sum "Si O2"
_cell_formula_units_Z 40
_cell_length_a 17.890903
_cell_length_b 7.566770
_cell_length_c 15.005666
_cell_angle_alpha 90.000000
_cell_angle_beta 90.000000
_cell_angle_gamma 90.000000
_cell_volume 2031.412264
_symmetry_space_group_name_H-M "P M N A"
_symmetry_group_IT_number 53
_symmetry_cell_setting 'orthorhombic'
loop_
_space_group_symop_operation_xyz
x,y,z
1/2-x,-y,1/2+z
x,-y,-z
1/2-x,y,1/2-z
-x,-y,-z
1/2+x,y,1/2-z
-x,y,z
1/2+x,-y,1/2+z
loop_
_atom_site_type_symbol
_atom_site_label
_atom_site_fract_x
_atom_site_fract_y
_atom_site_fract_z
Si Si1 0.801227 0.770867 0.335434
Si Si2 0.683725 0.365988 0.179378
Si Si3 0.919373 0.869282 0.919754
Si Si4 0.229034 0.703791 0.984193
Si Si5 0.914742 0.945046 0.724424
O O1 0.750000 0.801625 0.250000
O O2 0.835689 0.572589 0.336886
O O3 0.751373 0.806644 0.424807
O O4 0.867833 0.912400 0.332102
O O5 0.750000 0.351095 0.250000
O O6 0.708036 0.262631 0.089927
O O7 0.611225 0.258876 0.211191
O O8 0.851581 0.742610 0.943017
O O9 0.904829 0.981911 0.829722
O O10 0.000000 0.767554 0.909098
O O11 0.927597 0.000000 0.000000
O O12 0.225191 0.500000 0.000000
O O13 0.000000 0.962073 0.692382
#
# Coordination Sequence:
#
# PCOD8220916 Si02
#       5
#     8   8   8   8   8
#     4  10  22  38  60  89 118 155 200 243 290 352
#     4  10  20  38  61  87 115 152 203 246 288 348
#     4  10  21  36  56  88 123 152 189 239 299 363
#     4  10  21  37  61  87 114 154 198 245 296 345
#     4  11  23  39  60  86 121 162 194 239 303 349
#
# _framework density 19.690735
#
# number of rings (size 3 to 8) (size 9 to 14) (size 15 to 20)
#    0.000    1.800    2.000    1.800    2.800    1.200 
#    0.000    2.000    0.000    3.600    0.000    0.000 
#    0.000    0.000    0.000    0.000    0.000    0.000 
#
# Total GULP energy -495746.488942 kJ/mol
# GULP energy per Si atom -12393.662224 kJ/mol
# Density = 1.964592 g / cm^3
# Si number density = 19.690735 Si / 1000 Ang^3
#
#
#
# Elastic Constant Matrix: (Units=GPa)
#
#
# Indices 1 2 3 4 5 6 
#
# 1 122.9515 49.8922 29.2870 0.0000 0.0000 0.0000
# 2 49.8922 45.3412 31.4366 0.0000 0.0000 0.0000
# 3 29.2870 31.4366 67.8549 0.0000 0.0000 0.0000
# 4 0.0000 0.0000 0.0000 87.8579 0.0000 0.0000
# 5 0.0000 0.0000 0.0000 0.0000 29.7036 0.0000
# 6 0.0000 0.0000 0.0000 0.0000 0.0000 18.7876
#
#
#
# Elastic Compliance Matrix: (Units=1/GPa)
#
#
# Indices 1 2 3 4 5 6 
#
# 1 0.014828 -0.017500 0.001708 0.000000 0.000000 0.000000
# 2 -0.017500 0.053146 -0.017069 0.000000 0.000000 0.000000
# 3 0.001708 -0.017069 0.021908 0.000000 0.000000 0.000000
# 4 0.000000 0.000000 0.000000 0.011382 0.000000 0.000000
# 5 0.000000 0.000000 0.000000 0.000000 0.033666 0.000000
# 6 0.000000 0.000000 0.000000 0.000000 0.000000 0.053227
#
#
# Mechanical properties :
#
#
# Convention : Reuss Voigt Hill
#
# Bulk Modulus (GPa) = 41.39146 50.81990 46.10568
# Shear Modulus (GPa) = 19.08886 35.63860 27.36373
#
# Velocity S-wave (km/s) = 3.11695 4.25893 3.73188
# Velocity P-wave (km/s) = 5.83269 7.07458 6.48344
#
# Compressibility (1/GPa) = 0.02415957
#
# Stress axis : x y z
#
# Youngs Moduli (GPa) = 67.44049 18.81597 45.64528
#
# Poissons Ratio (x) = 0.32929 -0.07796
# Poissons Ratio (y) = 1.18023 0.77911
# Poissons Ratio (z) = -0.11518 0.32117
#
# Static dielectric constant tensor:
#      x y z
#    x 3.634250 0.000000 0.000000 
#    y 0.000000 3.093990 0.000000 
#    z 0.000000 0.000000 0.683850 
# 
# 
# High freq. dielectric constant tensor:
#      x y z
#    x 1.758450 0.000000 0.000000 
#    y 0.000000 1.755400 0.000000 
#    z 0.000000 0.000000 1.784380 
# 
# From -- ./inp_files/22388.got.cif
#   From: 2010.03.12/outbox.cif.g09.slc.cpg/sg53_12_cif.got.tgz:22388.got - 2010.04.16 14:36:59.
