data_PCOD8220349
_publ_section_title
;
Structure prediction by ZEFSAII (Michael W. Deem and Ramdas Pophale) SiO2 
 PCOD8220349
Probable space group: P M N A
;
_chemical_formula_sum "Si O2"
_cell_formula_units_Z 64
_cell_length_a 9.265889
_cell_length_b 16.437974
_cell_length_c 21.608855
_cell_angle_alpha 90.000000
_cell_angle_beta 90.000000
_cell_angle_gamma 90.000000
_cell_volume 3291.297484
_symmetry_space_group_name_H-M "P M N A"
_symmetry_group_IT_number 53
_symmetry_cell_setting 'orthorhombic'
loop_
_space_group_symop_operation_xyz
x,y,z
1/2-x,-y,1/2+z
x,-y,-z
1/2-x,y,1/2-z
-x,-y,-z
1/2+x,y,1/2-z
-x,y,z
1/2+x,-y,1/2+z
loop_
_atom_site_type_symbol
_atom_site_label
_atom_site_fract_x
_atom_site_fract_y
_atom_site_fract_z
Si Si1 0.662517 0.795124 0.308413
Si Si2 0.328977 0.713872 0.434961
Si Si3 0.666620 0.956165 0.375330
Si Si4 0.667633 0.265024 0.189766
Si Si5 0.333971 0.451317 0.936397
Si Si6 0.661884 0.891061 0.881895
Si Si7 0.830451 0.550760 0.686773
Si Si8 0.335099 0.139010 0.977779
O O1 0.750000 0.764821 0.250000
O O2 0.500000 0.772909 0.293152
O O3 0.715604 0.743807 0.366876
O O4 0.682481 0.891392 0.319951
O O5 0.500000 0.718726 0.446454
O O6 0.272791 0.623659 0.444134
O O7 0.247883 0.774705 0.481657
O O8 0.500000 0.966177 0.394742
O O9 0.755302 0.924506 0.433909
O O10 0.730930 0.042160 0.352250
O O11 0.750000 0.234670 0.250000
O O12 0.500000 0.264475 0.205325
O O13 0.707786 0.200786 0.136177
O O14 0.715006 0.356298 0.170918
O O15 0.500000 0.423142 0.929369
O O16 0.285890 0.500406 0.874590
O O17 0.314793 0.500000 0.000000
O O18 0.500000 0.908922 0.857643
O O19 0.668611 0.900469 0.955105
O O20 0.750000 0.521129 0.750000
O O21 0.000000 0.542470 0.699629
O O22 0.500000 0.152395 0.955379
#
# Coordination Sequence:
#
# PCOD8220349 Si02
#       8
#     8   8   8   8   8   8   8   8
#     4   9  20  37  56  78 106 145 185 226 274 328
#     4  10  22  39  56  82 117 146 179 227 281 336
#     4  10  21  36  52  77 114 146 180 230 282 329
#     4   9  19  36  55  77 107 141 181 229 275 325
#     4  10  22  38  61  89 117 151 193 238 286 341
#     4  10  21  34  54  80 106 142 187 231 274 325
#     4   9  19  37  60  83 112 151 192 235 285 340
#     4  10  20  35  57  80 107 144 187 227 270 329
#
# _framework density 19.445219000000002
#
# number of rings (size 3 to 8) (size 9 to 14) (size 15 to 20)
#    0.000    2.375    0.000    2.250    1.750    7.750 
#    0.000    5.000    0.000    0.000    0.000    0.000 
#    0.000    0.000    0.000    0.000    0.000    0.000 
#
# Total GULP energy -793491.208946 kJ/mol
# GULP energy per Si atom -12398.300140 kJ/mol
# Density = 1.940096 g / cm^3
# Si number density = 19.445219 Si / 1000 Ang^3
#
#
#
# Elastic Constant Matrix: (Units=GPa)
#
#
# Indices 1 2 3 4 5 6 
#
# 1 82.8382 40.5191 23.7278 0.0000 0.0000 0.0000
# 2 40.5191 91.2436 12.8952 0.0000 0.0000 0.0000
# 3 23.7278 12.8952 61.7720 0.0000 0.0000 0.0000
# 4 0.0000 0.0000 0.0000 19.9989 0.0000 0.0000
# 5 0.0000 0.0000 0.0000 0.0000 27.8818 0.0000
# 6 0.0000 0.0000 0.0000 0.0000 0.0000 81.9402
#
#
#
# Elastic Compliance Matrix: (Units=1/GPa)
#
#
# Indices 1 2 3 4 5 6 
#
# 1 0.016824 -0.006757 -0.005052 0.000000 0.000000 0.000000
# 2 -0.006757 0.014007 -0.000328 0.000000 0.000000 0.000000
# 3 -0.005052 -0.000328 0.018198 0.000000 0.000000 0.000000
# 4 0.000000 0.000000 0.000000 0.050003 0.000000 0.000000
# 5 0.000000 0.000000 0.000000 0.000000 0.035866 0.000000
# 6 0.000000 0.000000 0.000000 0.000000 0.000000 0.012204
#
#
# Mechanical properties :
#
#
# Convention : Reuss Voigt Hill
#
# Bulk Modulus (GPa) = 40.39826 43.34867 41.87346
# Shear Modulus (GPa) = 27.83552 36.54497 32.19025
#
# Velocity S-wave (km/s) = 3.78760 4.33989 4.07311
# Velocity P-wave (km/s) = 6.32048 6.88868 6.61069
#
# Compressibility (1/GPa) = 0.02475354
#
# Stress axis : x y z
#
# Youngs Moduli (GPa) = 59.43929 71.39409 54.95231
#
# Poissons Ratio (x) = 0.48242 0.27761
# Poissons Ratio (y) = 0.40164 0.01805
# Poissons Ratio (z) = 0.30027 0.02345
#
# Static dielectric constant tensor:
#      x y z
#    x 3.614380 0.000000 0.000000 
#    y 0.000000 3.609230 0.000000 
#    z 0.000000 0.000000 3.460630 
# 
# 
# High freq. dielectric constant tensor:
#      x y z
#    x 1.758550 0.000000 0.000000 
#    y 0.000000 1.760030 0.000000 
#    z 0.000000 0.000000 1.746730 
# 
# From -- ./inp_files/34225.got.cif
#   From: 2010.03.12/outbox.cif.g09.slc.cpg/sg53_18_cif.got.tgz:34225.got - 2010.04.16 14:36:59.
