data_PCOD8220048
_publ_section_title
;
Structure prediction by ZEFSAII (Michael W. Deem and Ramdas Pophale) SiO2 
 PCOD8220048
Probable space group: P M N A
;
_chemical_formula_sum "Si O2"
_cell_formula_units_Z 64
_cell_length_a 8.877939
_cell_length_b 22.467699
_cell_length_c 17.461160
_cell_angle_alpha 90.000000
_cell_angle_beta 90.000000
_cell_angle_gamma 90.000000
_cell_volume 3482.922778
_symmetry_space_group_name_H-M "P M N A"
_symmetry_group_IT_number 53
_symmetry_cell_setting 'orthorhombic'
loop_
_space_group_symop_operation_xyz
x,y,z
1/2-x,-y,1/2+z
x,-y,-z
1/2-x,y,1/2-z
-x,-y,-z
1/2+x,y,1/2-z
-x,y,z
1/2+x,-y,1/2+z
loop_
_atom_site_type_symbol
_atom_site_label
_atom_site_fract_x
_atom_site_fract_y
_atom_site_fract_z
Si Si1 0.677602 0.918505 0.619725
Si Si2 0.673145 0.751150 0.988800
Si Si3 0.830402 0.542064 0.573022
Si Si4 0.176886 0.799100 0.674289
Si Si5 0.823847 0.366733 0.973221
Si Si6 0.677729 0.552834 0.330760
Si Si7 0.327657 0.882858 0.029017
Si Si8 0.324626 0.960871 0.173991
O O1 0.500000 0.915147 0.630445
O O2 0.752988 0.864196 0.664362
O O3 0.719523 0.916341 0.530212
O O4 0.738511 0.979097 0.654242
O O5 0.500000 0.732106 0.998850
O O6 0.714045 0.758068 0.898951
O O7 0.777346 0.702094 0.028783
O O8 0.707818 0.812743 0.032363
O O9 0.826767 0.500000 0.500000
O O10 0.755149 0.603885 0.547387
O O11 0.739158 0.511540 0.642256
O O12 0.000000 0.554349 0.601240
O O13 0.250000 0.769290 0.750000
O O14 0.000000 0.806326 0.685206
O O15 0.774952 0.397331 0.893190
O O16 0.000000 0.373999 0.985091
O O17 0.750000 0.571246 0.250000
O O18 0.500000 0.548452 0.321023
O O19 0.500000 0.892570 0.001324
O O20 0.297793 0.910155 0.111427
O O21 0.250000 0.933955 0.250000
O O22 0.500000 0.975044 0.185114
#
# Coordination Sequence:
#
# PCOD8220048 Si02
#       8
#     8   8   8   8   8   8   8   8
#     4  11  21  33  53  79 104 131 167 211 260 319
#     4   9  19  36  56  76 101 137 179 217 257 309
#     4   9  17  31  53  78 104 136 170 205 250 302
#     4  10  20  35  54  77 105 135 169 212 263 315
#     4  10  20  34  54  80 108 139 178 220 258 302
#     4  10  20  34  53  80 112 142 175 218 263 306
#     4   9  20  38  56  74 100 136 174 215 263 313
#     4  11  22  36  53  74 103 135 169 213 265 318
#
# _framework density 18.375371000000001
#
# number of rings (size 3 to 8) (size 9 to 14) (size 15 to 20)
#    0.000    2.125    0.000    4.500    0.000    8.000 
#    0.000    1.250    0.000    4.500    0.000    0.000 
#    0.000    0.000    0.000    0.000    0.000    0.000 
#
# Total GULP energy -793735.877679 kJ/mol
# GULP energy per Si atom -12402.123089 kJ/mol
# Density = 1.833355 g / cm^3
# Si number density = 18.375371 Si / 1000 Ang^3
#
#
#
# Elastic Constant Matrix: (Units=GPa)
#
#
# Indices 1 2 3 4 5 6 
#
# 1 103.2819 33.3008 53.3787 0.0000 0.0000 0.0000
# 2 33.3008 62.6894 45.0374 0.0000 0.0000 0.0000
# 3 53.3787 45.0374 109.9855 0.0000 0.0000 0.0000
# 4 0.0000 0.0000 0.0000 18.4485 0.0000 0.0000
# 5 0.0000 0.0000 0.0000 0.0000 31.6963 0.0000
# 6 0.0000 0.0000 0.0000 0.0000 0.0000 22.4043
#
#
#
# Elastic Compliance Matrix: (Units=1/GPa)
#
#
# Indices 1 2 3 4 5 6 
#
# 1 0.013438 -0.003475 -0.005099 0.000000 0.000000 0.000000
# 2 -0.003475 0.023499 -0.007936 0.000000 0.000000 0.000000
# 3 -0.005099 -0.007936 0.014816 0.000000 0.000000 0.000000
# 4 0.000000 0.000000 0.000000 0.054205 0.000000 0.000000
# 5 0.000000 0.000000 0.000000 0.000000 0.031549 0.000000
# 6 0.000000 0.000000 0.000000 0.000000 0.000000 0.044634
#
#
# Mechanical properties :
#
#
# Convention : Reuss Voigt Hill
#
# Bulk Modulus (GPa) = 53.38017 59.93231 56.65624
# Shear Modulus (GPa) = 22.58295 24.12581 23.35438
#
# Velocity S-wave (km/s) = 3.50948 3.62739 3.56892
# Velocity P-wave (km/s) = 6.74795 7.08733 6.91972
#
# Compressibility (1/GPa) = 0.01873355
#
# Stress axis : x y z
#
# Youngs Moduli (GPa) = 74.41661 42.55494 67.49351
#
# Poissons Ratio (x) = 0.14789 0.34413
# Poissons Ratio (y) = 0.25862 0.53562
# Poissons Ratio (z) = 0.37943 0.33771
#
# Static dielectric constant tensor:
#      x y z
#    x 3.497830 0.000000 0.000000 
#    y 0.000000 3.239960 0.000000 
#    z 0.000000 0.000000 3.485790 
# 
# 
# High freq. dielectric constant tensor:
#      x y z
#    x 1.723590 0.000000 0.000000 
#    y 0.000000 1.697270 0.000000 
#    z 0.000000 0.000000 1.707850 
# 
# From -- ./inp_files/26789.got.cif
#   From: 2010.03.12/outbox.cif.g09.slc.cpg/sg53_14_cif.got.tgz:26789.got - 2010.04.16 14:36:59.
