data_PCOD8220283
_publ_section_title
;
Structure prediction by ZEFSAII (Michael W. Deem and Ramdas Pophale) SiO2 
 PCOD8220283
Probable space group: P M N A
;
_chemical_formula_sum "Si O2"
_cell_formula_units_Z 64
_cell_length_a 8.712872
_cell_length_b 14.316528
_cell_length_c 25.995090
_cell_angle_alpha 90.000000
_cell_angle_beta 90.000000
_cell_angle_gamma 90.000000
_cell_volume 3242.577511
_symmetry_space_group_name_H-M "P M N A"
_symmetry_group_IT_number 53
_symmetry_cell_setting 'orthorhombic'
loop_
_space_group_symop_operation_xyz
x,y,z
1/2-x,-y,1/2+z
x,-y,-z
1/2-x,y,1/2-z
-x,-y,-z
1/2+x,y,1/2-z
-x,y,z
1/2+x,-y,1/2+z
loop_
_atom_site_type_symbol
_atom_site_label
_atom_site_fract_x
_atom_site_fract_y
_atom_site_fract_z
Si Si1 0.316630 0.401742 0.400153
Si Si2 0.819543 0.086739 0.638778
Si Si3 0.182669 0.613134 0.101900
Si Si4 0.319380 0.711105 0.696960
Si Si5 0.181340 0.075424 0.196337
Si Si6 0.317837 0.259219 0.694959
Si Si7 0.178720 0.092450 0.970399
Si Si8 0.320851 0.705872 0.501297
O O1 0.500000 0.398426 0.400896
O O2 0.255125 0.507449 0.399396
O O3 0.252916 0.350700 0.349415
O O4 0.248244 0.347713 0.449876
O O5 0.740240 0.157751 0.678166
O O6 0.776720 0.109548 0.580428
O O7 0.000000 0.092297 0.646538
O O8 0.757058 0.983412 0.650636
O O9 0.241083 0.664669 0.153389
O O10 0.250092 0.666430 0.051897
O O11 0.000000 0.614978 0.101122
O O12 0.250000 0.672857 0.750000
O O13 0.500000 0.701743 0.700975
O O14 0.270166 0.817741 0.686894
O O15 0.250000 0.039050 0.250000
O O16 0.000000 0.061553 0.196209
O O17 0.250000 0.287773 0.750000
O O18 0.500000 0.256876 0.698508
O O19 0.207815 0.182838 0.006416
O O20 0.000000 0.083753 0.955095
O O21 0.235339 0.000000 0.000000
O O22 0.500000 0.683639 0.500493
#
# Coordination Sequence:
#
# PCOD8220283 Si02
#       8
#     8   8   8   8   8   8   8   8
#     4   9  17  29  52  85 113 142 186 233 279 331
#     4  12  24  38  57  81 113 150 188 233 284 340
#     4   9  17  31  52  81 115 145 181 235 285 331
#     4   9  19  34  54  80 112 146 181 225 276 330
#     4  10  20  35  55  79 109 144 184 228 276 333
#     4  11  22  38  58  84 116 152 195 237 289 345
#     4  10  21  36  58  86 116 148 187 233 283 338
#     4   9  16  30  53  82 112 143 181 229 281 330
#
# _framework density 19.737386999999998
#
# number of rings (size 3 to 8) (size 9 to 14) (size 15 to 20)
#    0.000    2.125    1.250    2.625    1.750    2.750 
#    0.000    0.000    0.000    0.750    0.000    0.875 
#    0.000    0.000    0.000    0.000    0.000    0.000 
#
# Total GULP energy -793695.302160 kJ/mol
# GULP energy per Si atom -12401.489096 kJ/mol
# Density = 1.969246 g / cm^3
# Si number density = 19.737387 Si / 1000 Ang^3
#
#
#
# Elastic Constant Matrix: (Units=GPa)
#
#
# Indices 1 2 3 4 5 6 
#
# 1 45.6096 21.9398 25.2395 0.0000 0.0000 0.0000
# 2 21.9398 140.5686 80.5179 0.0000 0.0000 0.0000
# 3 25.2395 80.5179 158.6915 0.0000 0.0000 0.0000
# 4 0.0000 0.0000 0.0000 39.1064 0.0000 0.0000
# 5 0.0000 0.0000 0.0000 0.0000 27.8428 0.0000
# 6 0.0000 0.0000 0.0000 0.0000 0.0000 9.9474
#
#
#
# Elastic Compliance Matrix: (Units=1/GPa)
#
#
# Indices 1 2 3 4 5 6 
#
# 1 0.024535 -0.002247 -0.002762 0.000000 0.000000 0.000000
# 2 -0.002247 0.010234 -0.004835 0.000000 0.000000 0.000000
# 3 -0.002762 -0.004835 0.009194 0.000000 0.000000 0.000000
# 4 0.000000 0.000000 0.000000 0.025571 0.000000 0.000000
# 5 0.000000 0.000000 0.000000 0.000000 0.035916 0.000000
# 6 0.000000 0.000000 0.000000 0.000000 0.000000 0.100529
#
#
# Mechanical properties :
#
#
# Convention : Reuss Voigt Hill
#
# Bulk Modulus (GPa) = 41.19624 66.69602 53.94613
# Shear Modulus (GPa) = 21.38946 29.85750 25.62348
#
# Velocity S-wave (km/s) = 3.29554 3.89361 3.60699
# Velocity P-wave (km/s) = 5.94964 7.35382 6.68868
#
# Compressibility (1/GPa) = 0.02427406
#
# Stress axis : x y z
#
# Youngs Moduli (GPa) = 40.75870 97.70934 108.76396
#
# Poissons Ratio (x) = 0.21958 0.30040
# Poissons Ratio (y) = 0.09160 0.52592
# Poissons Ratio (z) = 0.11257 0.47246
#
# Static dielectric constant tensor:
#      x y z
#    x 3.148690 0.000000 0.000000 
#    y 0.000000 3.759380 0.000000 
#    z 0.000000 0.000000 3.761050 
# 
# 
# High freq. dielectric constant tensor:
#      x y z
#    x 1.724340 0.000000 0.000000 
#    y 0.000000 1.778710 0.000000 
#    z 0.000000 0.000000 1.778060 
# 
# From -- ./inp_files/34187.got.cif
#   From: 2010.03.12/outbox.cif.g09.slc.cpg/sg53_18_cif.got.tgz:34187.got - 2010.04.16 14:36:59.
