data_PCOD8220034
_publ_section_title
;
Structure prediction by ZEFSAII (Michael W. Deem and Ramdas Pophale) SiO2 
 PCOD8220034
Probable space group: P M N A
;
_chemical_formula_sum "Si O2"
_cell_formula_units_Z 64
_cell_length_a 9.191059
_cell_length_b 18.291104
_cell_length_c 20.604264
_cell_angle_alpha 90.000000
_cell_angle_beta 90.000000
_cell_angle_gamma 90.000000
_cell_volume 3463.877931
_symmetry_space_group_name_H-M "P M N A"
_symmetry_group_IT_number 53
_symmetry_cell_setting 'orthorhombic'
loop_
_space_group_symop_operation_xyz
x,y,z
1/2-x,-y,1/2+z
x,-y,-z
1/2-x,y,1/2-z
-x,-y,-z
1/2+x,y,1/2-z
-x,y,z
1/2+x,-y,1/2+z
loop_
_atom_site_type_symbol
_atom_site_label
_atom_site_fract_x
_atom_site_fract_y
_atom_site_fract_z
Si Si1 0.671380 0.710376 0.315728
Si Si2 0.169990 0.210273 0.314247
Si Si3 0.170128 0.210579 0.568127
Si Si4 0.672438 0.043287 0.938672
Si Si5 0.330213 0.699932 0.939260
Si Si6 0.330467 0.541562 0.314258
Si Si7 0.829251 0.042182 0.314188
Si Si8 0.172152 0.452699 0.060886
O O1 0.750000 0.736442 0.250000
O O2 0.500000 0.724538 0.308995
O O3 0.734237 0.756108 0.374876
O O4 0.706969 0.625637 0.329420
O O5 0.250000 0.239619 0.250000
O O6 0.223166 0.256809 0.375689
O O7 0.210674 0.126305 0.328343
O O8 0.000000 0.219779 0.302317
O O9 0.220325 0.127272 0.558597
O O10 0.206006 0.251598 0.501663
O O11 0.000000 0.216485 0.586251
O O12 0.500000 0.035972 0.940425
O O13 0.732015 0.005970 0.873286
O O14 0.739519 0.000000 0.000000
O O15 0.500000 0.681901 0.935061
O O16 0.242611 0.625841 0.944192
O O17 0.250000 0.513590 0.250000
O O18 0.500000 0.530696 0.302185
O O19 0.274410 0.493286 0.374151
O O20 0.750000 0.013425 0.250000
O O21 0.000000 0.031482 0.304268
O O22 0.000000 0.443272 0.059986
O O23 0.225843 0.500000 0.000000
#
# Coordination Sequence:
#
# PCOD8220034 Si02
#       8
#     8   8   8   8   8   8   8   8
#     4  10  20  36  57  79 105 137 172 210 255 307
#     4   9  18  33  52  75 103 135 171 211 254 302
#     4  10  20  34  53  78 106 136 173 216 260 307
#     4   9  17  31  53  77 100 132 174 215 254 299
#     4  10  21  35  52  76 105 135 170 213 257 303
#     4   9  19  35  55  77 101 132 168 208 253 303
#     4   9  17  31  52  75 100 132 168 206 249 297
#     4  10  21  37  55  75 101 133 170 210 253 303
#
# _framework density 18.476402
#
# number of rings (size 3 to 8) (size 9 to 14) (size 15 to 20)
#    0.000    2.500    0.000    1.875    0.000    7.250 
#    0.000    4.375    0.000    3.000    0.000    0.000 
#    0.000    0.000    0.000    0.000    0.000    0.000 
#
# Total GULP energy -793764.422377 kJ/mol
# GULP energy per Si atom -12402.569100 kJ/mol
# Density = 1.843435 g / cm^3
# Si number density = 18.476402 Si / 1000 Ang^3
#
#
#
# Elastic Constant Matrix: (Units=GPa)
#
#
# Indices 1 2 3 4 5 6 
#
# 1 42.2624 41.5867 52.7781 0.0000 0.0000 0.0000
# 2 41.5867 125.2298 93.0986 0.0000 0.0000 0.0000
# 3 52.7781 93.0986 181.5115 0.0000 0.0000 0.0000
# 4 0.0000 0.0000 0.0000 40.9505 0.0000 0.0000
# 5 0.0000 0.0000 0.0000 0.0000 33.6254 0.0000
# 6 0.0000 0.0000 0.0000 0.0000 0.0000 19.5890
#
#
#
# Elastic Compliance Matrix: (Units=1/GPa)
#
#
# Indices 1 2 3 4 5 6 
#
# 1 0.041329 -0.007743 -0.008046 0.000000 0.000000 0.000000
# 2 -0.007743 0.014358 -0.005113 0.000000 0.000000 0.000000
# 3 -0.008046 -0.005113 0.010471 0.000000 0.000000 0.000000
# 4 0.000000 0.000000 0.000000 0.024420 0.000000 0.000000
# 5 0.000000 0.000000 0.000000 0.000000 0.029739 0.000000
# 6 0.000000 0.000000 0.000000 0.000000 0.000000 0.051049
#
#
# Mechanical properties :
#
#
# Convention : Reuss Voigt Hill
#
# Bulk Modulus (GPa) = 41.06048 80.43673 60.74860
# Shear Modulus (GPa) = 22.59517 29.60231 26.09874
#
# Velocity S-wave (km/s) = 3.50082 4.00705 3.76246
# Velocity P-wave (km/s) = 6.21389 8.06461 7.19897
#
# Compressibility (1/GPa) = 0.02435432
#
# Stress axis : x y z
#
# Youngs Moduli (GPa) = 24.19630 69.64981 95.50211
#
# Poissons Ratio (x) = 0.53932 0.76837
# Poissons Ratio (y) = 0.18736 0.48826
# Poissons Ratio (z) = 0.19467 0.35609
#
# Static dielectric constant tensor:
#      x y z
#    x 3.195490 0.000000 0.000000 
#    y 0.000000 3.417050 0.000000 
#    z 0.000000 0.000000 3.947850 
# 
# 
# High freq. dielectric constant tensor:
#      x y z
#    x 1.695210 0.000000 0.000000 
#    y 0.000000 1.718640 0.000000 
#    z 0.000000 0.000000 1.733960 
# 
# From -- ./inp_files/31106.got.cif
#   From: 2010.03.12/outbox.cif.g09.slc.cpg/sg53_16_cif.got.tgz:31106.got - 2010.04.16 14:36:59.
