data_PCOD8220100
_publ_section_title
;
Structure prediction by ZEFSAII (Michael W. Deem and Ramdas Pophale) SiO2 
 PCOD8220100
Probable space group: P M N A
;
_chemical_formula_sum "Si O2"
_cell_formula_units_Z 48
_cell_length_a 8.954278
_cell_length_b 11.188527
_cell_length_c 23.501339
_cell_angle_alpha 90.000000
_cell_angle_beta 90.000000
_cell_angle_gamma 90.000000
_cell_volume 2354.485905
_symmetry_space_group_name_H-M "P M N A"
_symmetry_group_IT_number 53
_symmetry_cell_setting 'orthorhombic'
loop_
_space_group_symop_operation_xyz
x,y,z
1/2-x,-y,1/2+z
x,-y,-z
1/2-x,y,1/2-z
-x,-y,-z
1/2+x,y,1/2-z
-x,y,z
1/2+x,-y,1/2+z
loop_
_atom_site_type_symbol
_atom_site_label
_atom_site_fract_x
_atom_site_fract_y
_atom_site_fract_z
Si Si1 0.833001 0.971369 0.915276
Si Si2 0.830545 0.827315 0.805139
Si Si3 0.825296 0.633595 0.310675
Si Si4 0.676893 0.386283 0.132489
Si Si5 0.174462 0.784981 0.417193
Si Si6 0.324593 0.723102 0.527286
O O1 0.828196 0.934139 0.849811
O O2 0.786952 0.858917 0.953966
O O3 0.000000 0.015764 0.931573
O O4 0.716851 0.076923 0.924873
O O5 0.750000 0.880349 0.750000
O O6 0.737518 0.713824 0.825380
O O7 0.000000 0.786460 0.792630
O O8 0.750000 0.655689 0.250000
O O9 0.772253 0.511378 0.340426
O O10 0.781185 0.740031 0.354141
O O11 0.000000 0.630187 0.299153
O O12 0.500000 0.375910 0.126668
O O13 0.748039 0.371023 0.069938
O O14 0.260255 0.704702 0.464069
O O15 0.000000 0.768112 0.428183
O O16 0.500000 0.698354 0.529067
#
# Coordination Sequence:
#
# PCOD8220100 Si02
#       6
#     8   8   8   8   8   8
#     4   9  20  37  55  79 113 149 185 230 281 332
#     4  10  20  34  54  82 114 146 186 236 286 336
#     4  10  24  42  59  82 113 150 189 231 276 326
#     4  10  20  37  60  84 112 145 184 232 284 333
#     4  11  23  38  57  83 114 149 189 230 276 331
#     4  10  21  38  60  87 116 145 182 229 282 336
#
# _framework density 20.386617000000001
#
# number of rings (size 3 to 8) (size 9 to 14) (size 15 to 20)
#    0.000    2.000    0.000    4.000    0.000   11.333 
#    0.000    6.667    0.000    0.000    0.000    0.000 
#    0.000    0.000    0.000    0.000    0.000    0.000 
#
# Total GULP energy -595293.209452 kJ/mol
# GULP energy per Si atom -12401.941864 kJ/mol
# Density = 2.034022 g / cm^3
# Si number density = 20.386617 Si / 1000 Ang^3
#
#
#
# Elastic Constant Matrix: (Units=GPa)
#
#
# Indices 1 2 3 4 5 6 
#
# 1 90.4651 21.7450 55.2052 0.0000 0.0000 0.0000
# 2 21.7450 43.2073 29.3160 0.0000 0.0000 0.0000
# 3 55.2052 29.3160 147.2163 0.0000 0.0000 0.0000
# 4 0.0000 0.0000 0.0000 9.3766 0.0000 0.0000
# 5 0.0000 0.0000 0.0000 0.0000 40.4396 0.0000
# 6 0.0000 0.0000 0.0000 0.0000 0.0000 22.8377
#
#
#
# Elastic Compliance Matrix: (Units=1/GPa)
#
#
# Indices 1 2 3 4 5 6 
#
# 1 0.014999 -0.004315 -0.004765 0.000000 0.000000 0.000000
# 2 -0.004315 0.028001 -0.003958 0.000000 0.000000 0.000000
# 3 -0.004765 -0.003958 0.009368 0.000000 0.000000 0.000000
# 4 0.000000 0.000000 0.000000 0.106649 0.000000 0.000000
# 5 0.000000 0.000000 0.000000 0.000000 0.024728 0.000000
# 6 0.000000 0.000000 0.000000 0.000000 0.000000 0.043787
#
#
# Mechanical properties :
#
#
# Convention : Reuss Voigt Hill
#
# Bulk Modulus (GPa) = 38.03525 54.82456 46.42990
# Shear Modulus (GPa) = 19.05680 26.17228 22.61454
#
# Velocity S-wave (km/s) = 3.06072 3.58690 3.33420
# Velocity P-wave (km/s) = 5.58463 6.64118 6.13569
#
# Compressibility (1/GPa) = 0.02629140
#
# Stress axis : x y z
#
# Youngs Moduli (GPa) = 66.67015 35.71250 106.74857
#
# Poissons Ratio (x) = 0.15412 0.50868
# Poissons Ratio (y) = 0.28771 0.42249
# Poissons Ratio (z) = 0.31770 0.14134
#
# Static dielectric constant tensor:
#      x y z
#    x 3.689010 0.000000 0.000000 
#    y 0.000000 3.515650 0.000000 
#    z 0.000000 0.000000 3.923060 
# 
# 
# High freq. dielectric constant tensor:
#      x y z
#    x 1.800930 0.000000 0.000000 
#    y 0.000000 1.780740 0.000000 
#    z 0.000000 0.000000 1.813570 
# 
# From -- ./inp_files/33889.got.cif
#   From: 2010.03.12/outbox.cif.g09.slc.cpg/sg53_17_cif.got.tgz:33889.got - 2010.04.16 14:36:59.
