data_PCOD8220761
_publ_section_title
;
Structure prediction by ZEFSAII (Michael W. Deem and Ramdas Pophale) SiO2 
 PCOD8220761
Probable space group: P M N A
;
_chemical_formula_sum "Si O2"
_cell_formula_units_Z 32
_cell_length_a 8.652260
_cell_length_b 20.281640
_cell_length_c 9.257698
_cell_angle_alpha 90.000000
_cell_angle_beta 90.000000
_cell_angle_gamma 90.000000
_cell_volume 1624.559569
_symmetry_space_group_name_H-M "P M N A"
_symmetry_group_IT_number 53
_symmetry_cell_setting 'orthorhombic'
loop_
_space_group_symop_operation_xyz
x,y,z
1/2-x,-y,1/2+z
x,-y,-z
1/2-x,y,1/2-z
-x,-y,-z
1/2+x,y,1/2-z
-x,y,z
1/2+x,-y,1/2+z
loop_
_atom_site_type_symbol
_atom_site_label
_atom_site_fract_x
_atom_site_fract_y
_atom_site_fract_z
Si Si1 0.182844 0.705949 0.593116
Si Si2 0.318121 0.557632 0.902010
Si Si3 0.320378 0.935089 0.906659
Si Si4 0.682623 0.819184 0.407718
O O1 0.250000 0.725098 0.750000
O O2 0.229904 0.631325 0.549381
O O3 0.255320 0.750122 0.467822
O O4 0.000000 0.716379 0.599049
O O5 0.250000 0.540676 0.750000
O O6 0.500000 0.552402 0.894936
O O7 0.246798 0.500000 0.000000
O O8 0.250000 0.948071 0.750000
O O9 0.500000 0.916566 0.892988
O O10 0.231575 0.875743 0.982033
O O11 0.294349 0.000000 0.000000
O O12 0.750000 0.833777 0.250000
O O13 0.500000 0.816674 0.395474
#
# Coordination Sequence:
#
# PCOD8220761 Si02
#       4
#     8   8   8   8
#     4  10  20  37  59  83 114 151 193 238 287 343
#     4   9  19  35  55  81 112 147 188 234 284 340
#     4  11  24  42  65  92 122 156 194 236 284 338
#     4  12  25  41  61  86 118 153 193 239 288 342
#
# _framework density 19.697645999999999
#
# number of rings (size 3 to 8) (size 9 to 14) (size 15 to 20)
#    0.000    1.500    0.000    5.250    0.000    6.500 
#    0.000    2.500    0.000    0.000    0.000    0.000 
#    0.000    0.000    0.000    0.000    0.000    0.000 
#
# Total GULP energy -396869.208416 kJ/mol
# GULP energy per Si atom -12402.162763 kJ/mol
# Density = 1.965281 g / cm^3
# Si number density = 19.697646 Si / 1000 Ang^3
#
#
#
# Elastic Constant Matrix: (Units=GPa)
#
#
# Indices 1 2 3 4 5 6 
#
# 1 99.2078 38.8994 54.4995 0.0000 0.0000 0.0000
# 2 38.8994 109.4662 62.3898 0.0000 0.0000 0.0000
# 3 54.4995 62.3898 127.5615 0.0000 0.0000 0.0000
# 4 0.0000 0.0000 0.0000 128.5770 0.0000 0.0000
# 5 0.0000 0.0000 0.0000 0.0000 36.7289 0.0000
# 6 0.0000 0.0000 0.0000 0.0000 0.0000 14.1889
#
#
#
# Elastic Compliance Matrix: (Units=1/GPa)
#
#
# Indices 1 2 3 4 5 6 
#
# 1 0.013509 -0.002095 -0.004747 0.000000 0.000000 0.000000
# 2 -0.002095 0.012991 -0.005459 0.000000 0.000000 0.000000
# 3 -0.004747 -0.005459 0.012537 0.000000 0.000000 0.000000
# 4 0.000000 0.000000 0.000000 0.007777 0.000000 0.000000
# 5 0.000000 0.000000 0.000000 0.000000 0.027227 0.000000
# 6 0.000000 0.000000 0.000000 0.000000 0.000000 0.070477
#
#
# Mechanical properties :
#
#
# Convention : Reuss Voigt Hill
#
# Bulk Modulus (GPa) = 69.27199 71.97923 70.62561
# Shear Modulus (GPa) = 28.74689 47.92875 38.33782
#
# Velocity S-wave (km/s) = 3.82436 4.93812 4.41649
# Velocity P-wave (km/s) = 7.39899 8.31473 7.87019
#
# Compressibility (1/GPa) = 0.01443585
#
# Stress axis : x y z
#
# Youngs Moduli (GPa) = 74.02460 76.97706 79.76206
#
# Poissons Ratio (x) = 0.16127 0.37863
# Poissons Ratio (y) = 0.15508 0.43540
# Poissons Ratio (z) = 0.35139 0.42020
#
# Static dielectric constant tensor:
#      x y z
#    x 3.712430 0.000000 0.000000 
#    y 0.000000 3.957560 0.000000 
#    z 0.000000 0.000000 3.693590 
# 
# 
# High freq. dielectric constant tensor:
#      x y z
#    x 1.778790 0.000000 0.000000 
#    y 0.000000 1.785820 0.000000 
#    z 0.000000 0.000000 1.772120 
# 
# From -- ./inp_files/6013.got.cif
#   From: 2010.03.12/outbox.cif.g09.slc.cpg/sg53_4_cif.got.tgz:6013.got - 2010.04.16 14:36:59.
