data_PCOD8220358
_publ_section_title
;
Structure prediction by ZEFSAII (Michael W. Deem and Ramdas Pophale) SiO2 
 PCOD8220358
Probable space group: P M N A
;
_chemical_formula_sum "Si O2"
_cell_formula_units_Z 64
_cell_length_a 9.099223
_cell_length_b 25.938114
_cell_length_c 14.432678
_cell_angle_alpha 90.000000
_cell_angle_beta 90.000000
_cell_angle_gamma 90.000000
_cell_volume 3406.352795
_symmetry_space_group_name_H-M "P M N A"
_symmetry_group_IT_number 53
_symmetry_cell_setting 'orthorhombic'
loop_
_space_group_symop_operation_xyz
x,y,z
1/2-x,-y,1/2+z
x,-y,-z
1/2-x,y,1/2-z
-x,-y,-z
1/2+x,y,1/2-z
-x,y,z
1/2+x,-y,1/2+z
loop_
_atom_site_type_symbol
_atom_site_label
_atom_site_fract_x
_atom_site_fract_y
_atom_site_fract_z
Si Si1 0.333716 0.896556 0.836473
Si Si2 0.672978 0.369288 0.849141
Si Si3 0.333198 0.825756 0.011138
Si Si4 0.827162 0.363865 0.150974
Si Si5 0.670523 0.707551 0.988050
Si Si6 0.673011 0.889770 0.340353
Si Si7 0.163963 0.997529 0.891083
Si Si8 0.670744 0.440902 0.511695
O O1 0.250000 0.871955 0.750000
O O2 0.500000 0.906619 0.809068
O O3 0.317164 0.854494 0.914835
O O4 0.269467 0.952346 0.859896
O O5 0.750000 0.361294 0.750000
O O6 0.500000 0.376581 0.832684
O O7 0.735574 0.419218 0.902295
O O8 0.707781 0.320167 0.914481
O O9 0.500000 0.830313 0.049348
O O10 0.286409 0.766866 0.999151
O O11 0.217775 0.852408 0.077587
O O12 0.750000 0.371906 0.250000
O O13 0.764899 0.313938 0.097697
O O14 0.000000 0.356608 0.167635
O O15 0.792479 0.412898 0.085481
O O16 0.500000 0.700052 0.962663
O O17 0.750000 0.867030 0.250000
O O18 0.500000 0.888266 0.329843
O O19 0.729255 0.948131 0.356100
O O20 0.000000 0.987934 0.851553
O O21 0.157878 0.000000 0.000000
O O22 0.715570 0.500000 0.500000
O O23 0.500000 0.434028 0.537080
#
# Coordination Sequence:
#
# PCOD8220358 Si02
#       8
#     8   8   8   8   8   8   8   8
#     4  11  23  37  57  82 110 143 179 221 270 328
#     4  10  20  35  57  82 111 148 188 232 277 328
#     4  10  22  40  59  82 111 142 180 227 278 329
#     4  10  20  35  57  83 112 148 189 231 276 328
#     4   9  20  39  59  80 109 143 184 233 280 327
#     4  11  23  38  58  82 111 144 179 222 270 327
#     4  10  20  37  59  82 109 141 178 220 268 324
#     4   9  19  36  56  82 117 152 188 231 276 324
#
# _framework density 18.788425
#
# number of rings (size 3 to 8) (size 9 to 14) (size 15 to 20)
#    0.000    2.000    1.250    1.875    0.000    6.000 
#    0.000    3.750    0.000    0.000    0.000    0.000 
#    0.000    0.000    0.000    0.000    0.000    0.000 
#
# Total GULP energy -793684.722400 kJ/mol
# GULP energy per Si atom -12401.323787 kJ/mol
# Density = 1.874566 g / cm^3
# Si number density = 18.788425 Si / 1000 Ang^3
#
#
#
# Elastic Constant Matrix: (Units=GPa)
#
#
# Indices 1 2 3 4 5 6 
#
# 1 104.4789 58.7233 64.1560 0.0000 0.0000 0.0000
# 2 58.7233 136.6607 48.3501 0.0000 0.0000 0.0000
# 3 64.1560 48.3501 113.2250 0.0000 0.0000 0.0000
# 4 0.0000 0.0000 0.0000 19.8002 0.0000 0.0000
# 5 0.0000 0.0000 0.0000 0.0000 39.3001 0.0000
# 6 0.0000 0.0000 0.0000 0.0000 0.0000 26.1173
#
#
#
# Elastic Compliance Matrix: (Units=1/GPa)
#
#
# Indices 1 2 3 4 5 6 
#
# 1 0.016760 -0.004526 -0.007564 0.000000 0.000000 0.000000
# 2 -0.004526 0.009842 -0.001638 0.000000 0.000000 0.000000
# 3 -0.007564 -0.001638 0.013817 0.000000 0.000000 0.000000
# 4 0.000000 0.000000 0.000000 0.050505 0.000000 0.000000
# 5 0.000000 0.000000 0.000000 0.000000 0.025445 0.000000
# 6 0.000000 0.000000 0.000000 0.000000 0.000000 0.038289
#
#
# Mechanical properties :
#
#
# Convention : Reuss Voigt Hill
#
# Bulk Modulus (GPa) = 77.14164 77.42484 77.28324
# Shear Modulus (GPa) = 26.81914 29.25251 28.03583
#
# Velocity S-wave (km/s) = 3.78223 3.95009 3.86707
# Velocity P-wave (km/s) = 7.76021 7.88052 7.82060
#
# Compressibility (1/GPa) = 0.01296317
#
# Stress axis : x y z
#
# Youngs Moduli (GPa) = 59.66743 101.60866 72.37230
#
# Poissons Ratio (x) = 0.45984 0.54741
# Poissons Ratio (y) = 0.27003 0.11857
# Poissons Ratio (z) = 0.45131 0.16647
#
# Static dielectric constant tensor:
#      x y z
#    x 3.552170 0.000000 0.000000 
#    y 0.000000 3.442800 0.000000 
#    z 0.000000 0.000000 3.508690 
# 
# 
# High freq. dielectric constant tensor:
#      x y z
#    x 1.736330 0.000000 0.000000 
#    y 0.000000 1.726760 0.000000 
#    z 0.000000 0.000000 1.738070 
# 
# From -- ./inp_files/20964.got.cif
#   From: 2010.03.12/outbox.cif.g09.slc.cpg/sg53_11_cif.got.tgz:20964.got - 2010.04.16 14:36:59.
