data_PCOD8220580
_publ_section_title
;
Structure prediction by ZEFSAII (Michael W. Deem and Ramdas Pophale) SiO2 
 PCOD8220580
Probable space group: P M N A
;
_chemical_formula_sum "Si O2"
_cell_formula_units_Z 48
_cell_length_a 8.666971
_cell_length_b 30.245215
_cell_length_c 9.489270
_cell_angle_alpha 90.000000
_cell_angle_beta 90.000000
_cell_angle_gamma 90.000000
_cell_volume 2487.464110
_symmetry_space_group_name_H-M "P M N A"
_symmetry_group_IT_number 53
_symmetry_cell_setting 'orthorhombic'
loop_
_space_group_symop_operation_xyz
x,y,z
1/2-x,-y,1/2+z
x,-y,-z
1/2-x,y,1/2-z
-x,-y,-z
1/2+x,y,1/2-z
-x,y,z
1/2+x,-y,1/2+z
loop_
_atom_site_type_symbol
_atom_site_label
_atom_site_fract_x
_atom_site_fract_y
_atom_site_fract_z
Si Si1 0.681511 0.709359 0.403924
Si Si2 0.182366 0.363272 0.400856
Si Si3 0.180161 0.960095 0.103483
Si Si4 0.817356 0.867018 0.403033
Si Si5 0.818053 0.463126 0.396701
Si Si6 0.181968 0.207500 0.095415
O O1 0.750000 0.717430 0.250000
O O2 0.500000 0.703585 0.390530
O O3 0.751553 0.665534 0.472421
O O4 0.727430 0.750445 0.501682
O O5 0.250000 0.348141 0.250000
O O6 0.233778 0.413428 0.436859
O O7 0.000000 0.357705 0.392899
O O8 0.250000 0.976051 0.250000
O O9 0.266319 0.916081 0.051245
O O10 0.000000 0.949207 0.118944
O O11 0.213848 0.000000 0.000000
O O12 0.750000 0.854100 0.250000
O O13 0.755689 0.835232 0.524025
O O14 0.000000 0.863775 0.394253
O O15 0.748958 0.500000 0.500000
O O16 0.750000 0.477542 0.250000
O O17 0.000000 0.465603 0.390248
O O18 0.250000 0.214569 0.250000
O O19 0.000000 0.200948 0.106104
#
# Coordination Sequence:
#
# PCOD8220580 Si02
#       6
#     8   8   8   8   8   8
#     4  11  24  40  60  85 114 148 186 230 279 334
#     4  10  20  36  58  82 112 148 187 232 280 333
#     4  10  21  37  58  84 115 151 192 236 282 335
#     4  11  22  38  61  86 116 152 190 235 284 335
#     4   9  19  35  54  79 110 145 185 228 276 329
#     4  11  24  41  61  86 115 148 187 230 279 334
#
# _framework density 19.296759999999999
#
# number of rings (size 3 to 8) (size 9 to 14) (size 15 to 20)
#    0.000    1.667    0.000    5.500    0.000    9.000 
#    0.000    3.333    0.000    0.000    0.000    0.000 
#    0.000    0.000    0.000    0.000    0.000    0.000 
#
# Total GULP energy -595338.351873 kJ/mol
# GULP energy per Si atom -12402.882331 kJ/mol
# Density = 1.925284 g / cm^3
# Si number density = 19.296760 Si / 1000 Ang^3
#
#
#
# Elastic Constant Matrix: (Units=GPa)
#
#
# Indices 1 2 3 4 5 6 
#
# 1 94.8475 57.1521 71.0963 0.0000 0.0000 0.0000
# 2 57.1521 121.5711 98.6666 0.0000 0.0000 0.0000
# 3 71.0963 98.6666 161.3453 0.0000 0.0000 0.0000
# 4 0.0000 0.0000 0.0000 48.8197 0.0000 0.0000
# 5 0.0000 0.0000 0.0000 0.0000 37.9892 0.0000
# 6 0.0000 0.0000 0.0000 0.0000 0.0000 23.9686
#
#
#
# Elastic Compliance Matrix: (Units=1/GPa)
#
#
# Indices 1 2 3 4 5 6 
#
# 1 0.016538 -0.003693 -0.005029 0.000000 0.000000 0.000000
# 2 -0.003693 0.017156 -0.008864 0.000000 0.000000 0.000000
# 3 -0.005029 -0.008864 0.013834 0.000000 0.000000 0.000000
# 4 0.000000 0.000000 0.000000 0.020484 0.000000 0.000000
# 5 0.000000 0.000000 0.000000 0.000000 0.026323 0.000000
# 6 0.000000 0.000000 0.000000 0.000000 0.000000 0.041721
#
#
# Mechanical properties :
#
#
# Convention : Reuss Voigt Hill
#
# Bulk Modulus (GPa) = 80.93065 92.39930 86.66498
# Shear Modulus (GPa) = 28.51488 32.21210 30.36349
#
# Velocity S-wave (km/s) = 3.84826 4.09014 3.97104
# Velocity P-wave (km/s) = 7.85981 8.38409 8.12618
#
# Compressibility (1/GPa) = 0.01235626
#
# Stress axis : x y z
#
# Youngs Moduli (GPa) = 60.46522 58.28993 72.28458
#
# Poissons Ratio (x) = 0.21529 0.36352
# Poissons Ratio (y) = 0.22332 0.64070
# Poissons Ratio (z) = 0.30408 0.51666
#
# Static dielectric constant tensor:
#      x y z
#    x 3.639440 0.000000 0.000000 
#    y 0.000000 3.735600 0.000000 
#    z 0.000000 0.000000 3.314980 
# 
# 
# High freq. dielectric constant tensor:
#      x y z
#    x 1.764840 0.000000 0.000000 
#    y 0.000000 1.763880 0.000000 
#    z 0.000000 0.000000 1.753640 
# 
# From -- ./inp_files/6677.got.cif
#   From: 2010.03.12/outbox.cif.g09.slc.cpg/sg53_4_cif.got.tgz:6677.got - 2010.04.16 14:36:59.
