data_PCOD8220575
_publ_section_title
;
Structure prediction by ZEFSAII (Michael W. Deem and Ramdas Pophale) SiO2 
 PCOD8220575
Probable space group: P M N A
;
_chemical_formula_sum "Si O2"
_cell_formula_units_Z 64
_cell_length_a 8.809164
_cell_length_b 20.188894
_cell_length_c 18.454418
_cell_angle_alpha 90.000000
_cell_angle_beta 90.000000
_cell_angle_gamma 90.000000
_cell_volume 3282.068013
_symmetry_space_group_name_H-M "P M N A"
_symmetry_group_IT_number 53
_symmetry_cell_setting 'orthorhombic'
loop_
_space_group_symop_operation_xyz
x,y,z
1/2-x,-y,1/2+z
x,-y,-z
1/2-x,y,1/2-z
-x,-y,-z
1/2+x,y,1/2-z
-x,y,z
1/2+x,-y,1/2+z
loop_
_atom_site_type_symbol
_atom_site_label
_atom_site_fract_x
_atom_site_fract_y
_atom_site_fract_z
Si Si1 0.179347 0.080208 0.173349
Si Si2 0.822659 0.684594 0.674320
Si Si3 0.320281 0.578679 0.427353
Si Si4 0.176792 0.190512 0.421396
Si Si5 0.176934 0.058114 0.674996
Si Si6 0.679530 0.431005 0.410404
Si Si7 0.820951 0.696083 0.171849
Si Si8 0.174696 0.812450 0.411615
O O1 0.250000 0.102169 0.250000
O O2 0.222778 0.133051 0.112919
O O3 0.000000 0.076267 0.181600
O O4 0.243389 0.009145 0.148719
O O5 0.750000 0.706267 0.750000
O O6 0.780700 0.739792 0.615010
O O7 0.759941 0.613906 0.649176
O O8 0.000000 0.678205 0.686151
O O9 0.500000 0.582138 0.430142
O O10 0.261059 0.588755 0.509405
O O11 0.271965 0.507144 0.395736
O O12 0.253109 0.636554 0.377111
O O13 0.222104 0.195214 0.505197
O O14 0.000000 0.173031 0.411124
O O15 0.250000 0.083591 0.750000
O O16 0.203428 0.112233 0.612845
O O17 0.000000 0.044093 0.688389
O O18 0.500000 0.421494 0.403557
O O19 0.750000 0.689421 0.250000
O O20 0.779506 0.765773 0.136481
O O21 0.000000 0.690788 0.179066
O O22 0.000000 0.792187 0.399256
#
# Coordination Sequence:
#
# PCOD8220575 Si02
#       8
#     8   8   8   8   8   8   8   8
#     4  11  22  37  59  85 113 145 184 226 270 322
#     4  11  23  37  55  80 110 144 183 227 274 325
#     4   8  17  34  57  83 110 145 182 221 273 330
#     4  10  22  40  59  81 112 146 182 226 277 331
#     4  10  20  36  58  82 111 146 182 221 270 325
#     4   9  17  35  60  82 109 143 182 225 272 327
#     4  11  22  36  55  80 111 146 186 229 275 327
#     4  10  22  39  59  83 111 145 183 227 278 329
#
# _framework density 19.499901000000001
#
# number of rings (size 3 to 8) (size 9 to 14) (size 15 to 20)
#    0.000    2.000    0.000    5.250    0.000    5.500 
#    0.000    6.875    0.000    0.000    0.000    0.000 
#    0.000    0.000    0.000    0.000    0.000    0.000 
#
# Total GULP energy -793814.561560 kJ/mol
# GULP energy per Si atom -12403.352524 kJ/mol
# Density = 1.945552 g / cm^3
# Si number density = 19.499901 Si / 1000 Ang^3
#
#
#
# Elastic Constant Matrix: (Units=GPa)
#
#
# Indices 1 2 3 4 5 6 
#
# 1 82.4197 33.8444 28.6363 0.0000 0.0000 0.0000
# 2 33.8444 85.9263 29.1083 0.0000 0.0000 0.0000
# 3 28.6363 29.1083 75.6685 0.0000 0.0000 0.0000
# 4 0.0000 0.0000 0.0000 39.0218 0.0000 0.0000
# 5 0.0000 0.0000 0.0000 0.0000 21.5769 0.0000
# 6 0.0000 0.0000 0.0000 0.0000 0.0000 24.3244
#
#
#
# Elastic Compliance Matrix: (Units=1/GPa)
#
#
# Indices 1 2 3 4 5 6 
#
# 1 0.015478 -0.004728 -0.004039 0.000000 0.000000 0.000000
# 2 -0.004728 0.014826 -0.003914 0.000000 0.000000 0.000000
# 3 -0.004039 -0.003914 0.016250 0.000000 0.000000 0.000000
# 4 0.000000 0.000000 0.000000 0.025627 0.000000 0.000000
# 5 0.000000 0.000000 0.000000 0.000000 0.046346 0.000000
# 6 0.000000 0.000000 0.000000 0.000000 0.000000 0.041111
#
#
# Mechanical properties :
#
#
# Convention : Reuss Voigt Hill
#
# Bulk Modulus (GPa) = 47.18795 47.46581 47.32688
# Shear Modulus (GPa) = 26.03317 27.14631 26.58974
#
# Velocity S-wave (km/s) = 3.65779 3.73517 3.69668
# Velocity P-wave (km/s) = 6.48774 6.55716 6.52254
#
# Compressibility (1/GPa) = 0.02119185
#
# Stress axis : x y z
#
# Youngs Moduli (GPa) = 64.60872 67.44860 61.54011
#
# Poissons Ratio (x) = 0.31891 0.24854
# Poissons Ratio (y) = 0.30548 0.24087
# Poissons Ratio (z) = 0.26093 0.26399
#
# Static dielectric constant tensor:
#      x y z
#    x 3.428560 0.000000 0.000000 
#    y 0.000000 3.691160 0.000000 
#    z 0.000000 0.000000 3.647400 
# 
# 
# High freq. dielectric constant tensor:
#      x y z
#    x 1.750360 0.000000 0.000000 
#    y 0.000000 1.770680 0.000000 
#    z 0.000000 0.000000 1.761650 
# 
# From -- ./inp_files/26959.got.cif
#   From: 2010.03.12/outbox.cif.g09.slc.cpg/sg53_14_cif.got.tgz:26959.got - 2010.04.16 14:36:59.
