data_PCOD8220421
_publ_section_title
;
Structure prediction by ZEFSAII (Michael W. Deem and Ramdas Pophale) SiO2 
 PCOD8220421
Probable space group: P M N A
;
_chemical_formula_sum "Si O2"
_cell_formula_units_Z 40
_cell_length_a 14.765366
_cell_length_b 7.569295
_cell_length_c 18.232391
_cell_angle_alpha 90.000000
_cell_angle_beta 90.000000
_cell_angle_gamma 90.000000
_cell_volume 2037.714210
_symmetry_space_group_name_H-M "P M N A"
_symmetry_group_IT_number 53
_symmetry_cell_setting 'orthorhombic'
loop_
_space_group_symop_operation_xyz
x,y,z
1/2-x,-y,1/2+z
x,-y,-z
1/2-x,y,1/2-z
-x,-y,-z
1/2+x,y,1/2-z
-x,y,z
1/2+x,-y,1/2+z
loop_
_atom_site_type_symbol
_atom_site_label
_atom_site_fract_x
_atom_site_fract_y
_atom_site_fract_z
Si Si1 0.102272 0.363342 0.935222
Si Si2 0.839457 0.096823 0.208924
Si Si3 0.753876 0.078496 0.925026
Si Si4 0.601836 0.516688 0.713809
Si Si5 0.604756 0.211709 0.812837
O O1 0.172838 0.213986 0.956093
O O2 0.144612 0.456945 0.863072
O O3 0.000000 0.288091 0.923367
O O4 0.099941 0.500000 0.000000
O O5 0.750000 0.151416 0.250000
O O6 0.899220 0.271794 0.219570
O O7 0.812315 0.056783 0.124928
O O8 0.887925 0.928643 0.245938
O O9 0.669643 0.159699 0.880036
O O10 0.711798 0.000000 0.000000
O O11 0.500000 0.449389 0.712321
O O12 0.642082 0.402313 0.782283
O O13 0.500000 0.218166 0.840072
#
# Coordination Sequence:
#
# PCOD8220421 Si02
#       5
#     8   8   8   8   8
#     4  10  21  36  57  88 123 159 195 243 310 373
#     4  10  21  34  60  90 116 157 202 252 302 358
#     4  11  23  39  59  91 125 165 205 254 318 367
#     4  10  20  35  59  85 115 157 197 246 306 359
#     4  10  22  41  62  87 122 163 210 258 303 365
#
# _framework density 19.629837999999999
#
# number of rings (size 3 to 8) (size 9 to 14) (size 15 to 20)
#    0.000    1.800    2.000    1.800    2.800    1.600 
#    0.000    0.000    0.000    0.600    0.000    0.000 
#    0.000    0.000    0.000    0.000    0.000    0.000 
#
# Total GULP energy -495595.680357 kJ/mol
# GULP energy per Si atom -12389.892009 kJ/mol
# Density = 1.958516 g / cm^3
# Si number density = 19.629838 Si / 1000 Ang^3
#
#
#
# Elastic Constant Matrix: (Units=GPa)
#
#
# Indices 1 2 3 4 5 6 
#
# 1 89.5443 31.3933 45.9056 0.0000 0.0000 0.0000
# 2 31.3933 108.2173 41.3792 0.0000 0.0000 0.0000
# 3 45.9056 41.3792 120.1337 0.0000 0.0000 0.0000
# 4 0.0000 0.0000 0.0000 18.3350 0.0000 0.0000
# 5 0.0000 0.0000 0.0000 0.0000 25.0478 0.0000
# 6 0.0000 0.0000 0.0000 0.0000 0.0000 31.1053
#
#
#
# Elastic Compliance Matrix: (Units=1/GPa)
#
#
# Indices 1 2 3 4 5 6 
#
# 1 0.014405 -0.002389 -0.004682 0.000000 0.000000 0.000000
# 2 -0.002389 0.011038 -0.002889 0.000000 0.000000 0.000000
# 3 -0.004682 -0.002889 0.011108 0.000000 0.000000 0.000000
# 4 0.000000 0.000000 0.000000 0.054541 0.000000 0.000000
# 5 0.000000 0.000000 0.000000 0.000000 0.039924 0.000000
# 6 0.000000 0.000000 0.000000 0.000000 0.000000 0.032149
#
#
# Mechanical properties :
#
#
# Convention : Reuss Voigt Hill
#
# Bulk Modulus (GPa) = 60.12390 61.69459 60.90925
# Shear Modulus (GPa) = 26.50709 28.17877 27.34293
#
# Velocity S-wave (km/s) = 3.67869 3.79292 3.73624
# Velocity P-wave (km/s) = 6.98133 7.11891 7.05046
#
# Compressibility (1/GPa) = 0.01663232
#
# Stress axis : x y z
#
# Youngs Moduli (GPa) = 69.41907 90.59273 90.02307
#
# Poissons Ratio (x) = 0.21640 0.42147
# Poissons Ratio (y) = 0.16582 0.26011
# Poissons Ratio (z) = 0.32500 0.26175
#
# Static dielectric constant tensor:
#      x y z
#    x 3.510900 0.000000 0.000000 
#    y 0.000000 3.497220 0.000000 
#    z 0.000000 0.000000 3.552960 
# 
# 
# High freq. dielectric constant tensor:
#      x y z
#    x 1.761790 0.000000 0.000000 
#    y 0.000000 1.764180 0.000000 
#    z 0.000000 0.000000 1.760470 
# 
# From -- ./inp_files/22451.got.cif
#   From: 2010.03.12/outbox.cif.g09.slc.cpg/sg53_12_cif.got.tgz:22451.got - 2010.04.16 14:36:59.
