data_PCOD8220469
_publ_section_title
;
Structure prediction by ZEFSAII (Michael W. Deem and Ramdas Pophale) SiO2 
 PCOD8220469
Probable space group: P M N A
;
_chemical_formula_sum "Si O2"
_cell_formula_units_Z 40
_cell_length_a 9.920946
_cell_length_b 23.895495
_cell_length_c 9.208233
_cell_angle_alpha 90.000000
_cell_angle_beta 90.000000
_cell_angle_gamma 90.000000
_cell_volume 2182.958187
_symmetry_space_group_name_H-M "P M N A"
_symmetry_group_IT_number 53
_symmetry_cell_setting 'orthorhombic'
loop_
_space_group_symop_operation_xyz
x,y,z
1/2-x,-y,1/2+z
x,-y,-z
1/2-x,y,1/2-z
-x,-y,-z
1/2+x,y,1/2-z
-x,y,z
1/2+x,-y,1/2+z
loop_
_atom_site_type_symbol
_atom_site_label
_atom_site_fract_x
_atom_site_fract_y
_atom_site_fract_z
Si Si1 0.500000 0.560463 0.073273
Si Si2 0.654115 0.856850 0.617370
Si Si3 0.000000 0.556895 0.084315
Si Si4 0.754514 0.368924 0.919978
Si Si5 0.342269 0.272153 0.385405
Si Si6 0.843858 0.050041 0.890478
O O1 0.500000 0.547620 0.243774
O O2 0.623525 0.598932 0.022757
O O3 0.500000 0.500000 0.000000
O O4 0.750000 0.875018 0.750000
O O5 0.500000 0.867794 0.667259
O O6 0.677187 0.792592 0.573650
O O7 0.688753 0.892397 0.474394
O O8 0.127307 0.590861 0.030019
O O9 0.000000 0.500000 0.000000
O O10 0.750000 0.359151 0.750000
O O11 0.779448 0.307676 0.984133
O O12 0.250000 0.288486 0.250000
O O13 0.500000 0.285784 0.355964
O O14 0.750000 0.045551 0.750000
O O15 0.000000 0.047503 0.840868
O O16 0.809705 0.000000 0.000000
#
# Coordination Sequence:
#
# PCOD8220469 Si02
#       6
#     4   8   4   8   8   8
#     4  10  22  36  54  82 108 134 179 224 267 328
#     4   9  19  36  56  80 112 146 186 232 277 325
#     4  10  20  36  56  76 104 142 175 216 273 320
#     4  10  21  37  56  78 108 143 176 220 273 328
#     4  10  21  37  57  82 111 145 184 228 274 325
#     4  10  21  36  56  84 116 152 192 234 280 330
#
# _framework density 18.323758999999999
#
# number of rings (size 3 to 8) (size 9 to 14) (size 15 to 20)
#    0.000    2.200    1.000    1.200    1.400    3.600 
#    0.000    0.000    0.000    0.000    0.000    0.000 
#    0.000    0.000    0.000    0.000    0.000    0.000 
#
# Total GULP energy -495954.939470 kJ/mol
# GULP energy per Si atom -12398.873487 kJ/mol
# Density = 1.828205 g / cm^3
# Si number density = 18.323759 Si / 1000 Ang^3
#
#
#
# Elastic Constant Matrix: (Units=GPa)
#
#
# Indices 1 2 3 4 5 6 
#
# 1 147.4430 64.9194 69.5548 0.0000 0.0000 0.0000
# 2 64.9194 113.7957 67.0074 0.0000 0.0000 0.0000
# 3 69.5548 67.0074 93.7949 0.0000 0.0000 0.0000
# 4 0.0000 0.0000 0.0000 37.3784 0.0000 0.0000
# 5 0.0000 0.0000 0.0000 0.0000 48.2379 0.0000
# 6 0.0000 0.0000 0.0000 0.0000 0.0000 23.0044
#
#
#
# Elastic Compliance Matrix: (Units=1/GPa)
#
#
# Indices 1 2 3 4 5 6 
#
# 1 0.010829 -0.002502 -0.006243 0.000000 0.000000 0.000000
# 2 -0.002502 0.015747 -0.009394 0.000000 0.000000 0.000000
# 3 -0.006243 -0.009394 0.022003 0.000000 0.000000 0.000000
# 4 0.000000 0.000000 0.000000 0.026753 0.000000 0.000000
# 5 0.000000 0.000000 0.000000 0.000000 0.020731 0.000000
# 6 0.000000 0.000000 0.000000 0.000000 0.000000 0.043470
#
#
# Mechanical properties :
#
#
# Convention : Reuss Voigt Hill
#
# Bulk Modulus (GPa) = 81.30134 84.22187 82.76160
# Shear Modulus (GPa) = 27.79167 31.96096 29.87632
#
# Velocity S-wave (km/s) = 3.89871 4.18094 4.04229
# Velocity P-wave (km/s) = 8.04564 8.32886 8.18847
#
# Compressibility (1/GPa) = 0.01229992
#
# Stress axis : x y z
#
# Youngs Moduli (GPa) = 92.34569 63.50611 45.44916
#
# Poissons Ratio (x) = 0.15886 0.28375
# Poissons Ratio (y) = 0.23101 0.42696
# Poissons Ratio (z) = 0.57653 0.59660
#
# Static dielectric constant tensor:
#      x y z
#    x 3.621810 0.000000 0.000000 
#    y 0.000000 3.482110 0.000000 
#    z 0.000000 0.000000 3.279970 
# 
# 
# High freq. dielectric constant tensor:
#      x y z
#    x 1.724830 0.000000 0.000000 
#    y 0.000000 1.724240 0.000000 
#    z 0.000000 0.000000 1.696060 
# 
# From -- ./inp_files/6333.got.cif
#   From: 2010.03.12/outbox.cif.g09.slc.cpg/sg53_4_cif.got.tgz:6333.got - 2010.04.16 14:36:59.
