data_PCOD8220722
_publ_section_title
;
Structure prediction by ZEFSAII (Michael W. Deem and Ramdas Pophale) SiO2 
 PCOD8220722
Probable space group: P M N A
;
_chemical_formula_sum "Si O2"
_cell_formula_units_Z 52
_cell_length_a 25.966082
_cell_length_b 5.137690
_cell_length_c 19.793803
_cell_angle_alpha 90.000000
_cell_angle_beta 90.000000
_cell_angle_gamma 90.000000
_cell_volume 2640.605746
_symmetry_space_group_name_H-M "P M N A"
_symmetry_group_IT_number 53
_symmetry_cell_setting 'orthorhombic'
loop_
_space_group_symop_operation_xyz
x,y,z
1/2-x,-y,1/2+z
x,-y,-z
1/2-x,y,1/2-z
-x,-y,-z
1/2+x,y,1/2-z
-x,y,z
1/2+x,-y,1/2+z
loop_
_atom_site_type_symbol
_atom_site_label
_atom_site_fract_x
_atom_site_fract_y
_atom_site_fract_z
Si Si1 0.558506 0.686355 0.318145
Si Si2 0.185270 0.000000 0.500000
Si Si3 0.653713 0.085531 0.145311
Si Si4 0.276317 0.315839 0.557776
Si Si5 0.217720 0.423300 0.682826
Si Si6 0.885359 0.761875 0.042412
Si Si7 0.059201 0.197747 0.267670
O O1 0.500000 0.610611 0.332909
O O2 0.586322 0.695089 0.388922
O O3 0.580199 0.461772 0.267900
O O4 0.564270 0.967499 0.285557
O O5 0.152032 0.886796 0.562849
O O6 0.222247 0.792488 0.466543
O O7 0.687426 0.306484 0.181510
O O8 0.594756 0.123429 0.168300
O O9 0.677755 0.811878 0.169440
O O10 0.297254 0.500000 0.500000
O O11 0.263305 0.452060 0.627995
O O12 0.327339 0.137267 0.564723
O O13 0.250000 0.376858 0.750000
O O14 0.888912 0.500000 0.000000
O O15 0.910692 0.000000 0.000000
O O16 0.000000 0.228849 0.293108
#
# Coordination Sequence:
#
# PCOD8220722 Si02
#       7
#     8   4   8   8   8   8   8
#     4  10  22  41  62  85 118 156 196 252 307 353
#     4  10  20  40  57  84 117 162 194 230 300 360
#     4  11  23  39  64  86 120 160 197 245 302 358
#     4  10  20  37  55  78 122 160 194 232 295 358
#     4  11  24  38  57  92 120 155 202 252 293 354
#     4  11  23  36  57  85 114 159 203 245 287 348
#     4  10  22  41  63  89 118 153 198 248 309 359
#
# _framework density 19.692449
#
# number of rings (size 3 to 8) (size 9 to 14) (size 15 to 20)
#    0.000    1.538    2.308    2.308    4.308    0.615 
#    0.000    0.385    0.000    0.000    0.000    6.462 
#    0.000    0.000    0.000    0.000    0.000    0.000 
#
# Total GULP energy -644260.640295 kJ/mol
# GULP energy per Si atom -12389.627698 kJ/mol
# Density = 1.964763 g / cm^3
# Si number density = 19.692449 Si / 1000 Ang^3
#
#
#
# Elastic Constant Matrix: (Units=GPa)
#
#
# Indices 1 2 3 4 5 6 
#
# 1 79.4677 15.8969 62.4615 0.0000 0.0000 0.0000
# 2 15.8969 93.6052 14.8569 0.0000 0.0000 0.0000
# 3 62.4615 14.8569 128.4356 0.0000 0.0000 0.0000
# 4 0.0000 0.0000 0.0000 27.0384 0.0000 0.0000
# 5 0.0000 0.0000 0.0000 0.0000 25.8718 0.0000
# 6 0.0000 0.0000 0.0000 0.0000 0.0000 26.4867
#
#
#
# Elastic Compliance Matrix: (Units=1/GPa)
#
#
# Indices 1 2 3 4 5 6 
#
# 1 0.020716 -0.001955 -0.009848 0.000000 0.000000 0.000000
# 2 -0.001955 0.011067 -0.000329 0.000000 0.000000 0.000000
# 3 -0.009848 -0.000329 0.012614 0.000000 0.000000 0.000000
# 4 0.000000 0.000000 0.000000 0.036984 0.000000 0.000000
# 5 0.000000 0.000000 0.000000 0.000000 0.038652 0.000000
# 6 0.000000 0.000000 0.000000 0.000000 0.000000 0.037755
#
#
# Mechanical properties :
#
#
# Convention : Reuss Voigt Hill
#
# Bulk Modulus (GPa) = 49.67460 54.21547 51.94503
# Shear Modulus (GPa) = 26.48806 29.76558 28.12682
#
# Velocity S-wave (km/s) = 3.67152 3.89205 3.78339
# Velocity P-wave (km/s) = 6.57673 6.91290 6.74691
#
# Compressibility (1/GPa) = 0.02013101
#
# Stress axis : x y z
#
# Youngs Moduli (GPa) = 48.27269 90.35486 79.27923
#
# Poissons Ratio (x) = 0.17664 0.78077
# Poissons Ratio (y) = 0.09437 0.02612
# Poissons Ratio (z) = 0.47541 0.02977
#
# Static dielectric constant tensor:
#      x y z
#    x 3.779840 0.000000 0.000000 
#    y 0.000000 3.665080 0.000000 
#    z 0.000000 0.000000 3.966640 
# 
# 
# High freq. dielectric constant tensor:
#      x y z
#    x 1.761280 0.000000 0.000000 
#    y 0.000000 1.773380 0.000000 
#    z 0.000000 0.000000 1.770050 
# 
# From -- ./inp_files/29683.got.cif
#   From: 2010.03.12/outbox.cif.g09.slc.cpg/sg53_15_cif.got.tgz:29683.got - 2010.04.16 14:36:59.
