data_PCOD8220731
_publ_section_title
;
Structure prediction by ZEFSAII (Michael W. Deem and Ramdas Pophale) SiO2 
 PCOD8220731
Probable space group: P M N A
;
_chemical_formula_sum "Si O2"
_cell_formula_units_Z 64
_cell_length_a 18.966803
_cell_length_b 6.360402
_cell_length_c 26.048890
_cell_angle_alpha 90.000000
_cell_angle_beta 90.000000
_cell_angle_gamma 90.000000
_cell_volume 3142.446703
_symmetry_space_group_name_H-M "P M N A"
_symmetry_group_IT_number 53
_symmetry_cell_setting 'orthorhombic'
loop_
_space_group_symop_operation_xyz
x,y,z
1/2-x,-y,1/2+z
x,-y,-z
1/2-x,y,1/2-z
-x,-y,-z
1/2+x,y,1/2-z
-x,y,z
1/2+x,-y,1/2+z
loop_
_atom_site_type_symbol
_atom_site_label
_atom_site_fract_x
_atom_site_fract_y
_atom_site_fract_z
Si Si1 0.420122 0.862514 0.950414
Si Si2 0.215223 0.601868 0.553102
Si Si3 0.421175 0.096731 0.844171
Si Si4 0.798487 0.091920 0.113707
Si Si5 0.080455 0.856164 0.152743
Si Si6 0.079732 0.831333 0.753313
Si Si7 0.784235 0.296473 0.648305
Si Si8 0.836261 0.529631 0.813092
O O1 0.500000 0.773334 0.953347
O O2 0.367003 0.666867 0.948156
O O3 0.410844 0.008806 0.901020
O O4 0.401539 0.000000 0.000000
O O5 0.239165 0.500000 0.500000
O O6 0.265227 0.807059 0.562044
O O7 0.226438 0.429756 0.596911
O O8 0.500000 0.187387 0.836007
O O9 0.405496 0.912530 0.803736
O O10 0.366209 0.287785 0.834928
O O11 0.817987 0.281809 0.149944
O O12 0.870546 0.955579 0.107284
O O13 0.739043 0.944094 0.138984
O O14 0.103353 0.615996 0.161727
O O15 0.000000 0.863686 0.133962
O O16 0.092562 0.981705 0.205899
O O17 0.132743 0.634010 0.761319
O O18 0.000000 0.747790 0.758825
O O19 0.735874 0.394369 0.694071
#
# Coordination Sequence:
#
# PCOD8220731 Si02
#       8
#     8   8   8   8   8   8   8   8
#     4  10  21  38  60  84 112 153 200 245 298 350
#     4  11  22  34  60  86 109 151 194 243 292 348
#     4  10  20  37  58  78 115 159 191 244 300 343
#     4   9  19  36  54  83 118 147 188 238 289 350
#     4   9  17  33  58  85 112 147 191 235 285 348
#     4   9  18  34  55  81 114 151 192 236 289 344
#     4  10  20  37  57  81 116 148 198 240 289 351
#     4   9  18  34  57  81 111 150 193 239 281 346
#
# _framework density 20.366295000000001
#
# number of rings (size 3 to 8) (size 9 to 14) (size 15 to 20)
#    0.000    2.375    1.250    1.125    0.000    1.250 
#    2.250    6.875    0.000    0.375    0.000    7.875 
#    0.000    0.000    0.000    0.000    0.000    0.375 
#
# Total GULP energy -793218.123140 kJ/mol
# GULP energy per Si atom -12394.033174 kJ/mol
# Density = 2.031994 g / cm^3
# Si number density = 20.366295 Si / 1000 Ang^3
#
#
#
# Elastic Constant Matrix: (Units=GPa)
#
#
# Indices 1 2 3 4 5 6 
#
# 1 145.8436 58.6133 55.0211 0.0000 0.0000 0.0000
# 2 58.6133 97.7885 34.6775 0.0000 0.0000 0.0000
# 3 55.0211 34.6775 80.5957 0.0000 0.0000 0.0000
# 4 0.0000 0.0000 0.0000 24.5433 0.0000 0.0000
# 5 0.0000 0.0000 0.0000 0.0000 22.2619 0.0000
# 6 0.0000 0.0000 0.0000 0.0000 0.0000 40.8058
#
#
#
# Elastic Compliance Matrix: (Units=1/GPa)
#
#
# Indices 1 2 3 4 5 6 
#
# 1 0.010689 -0.004507 -0.005358 0.000000 0.000000 0.000000
# 2 -0.004507 0.013968 -0.002933 0.000000 0.000000 0.000000
# 3 -0.005358 -0.002933 0.017328 0.000000 0.000000 0.000000
# 4 0.000000 0.000000 0.000000 0.040744 0.000000 0.000000
# 5 0.000000 0.000000 0.000000 0.000000 0.044920 0.000000
# 6 0.000000 0.000000 0.000000 0.000000 0.000000 0.024506
#
#
# Mechanical properties :
#
#
# Convention : Reuss Voigt Hill
#
# Bulk Modulus (GPa) = 61.01949 68.98350 65.00150
# Shear Modulus (GPa) = 27.29044 29.24992 28.27018
#
# Velocity S-wave (km/s) = 3.66455 3.79382 3.72975
# Velocity P-wave (km/s) = 6.92324 7.28943 7.10869
#
# Compressibility (1/GPa) = 0.01638821
#
# Stress axis : x y z
#
# Youngs Moduli (GPa) = 93.55025 71.59391 57.71160
#
# Poissons Ratio (x) = 0.32267 0.30923
# Poissons Ratio (y) = 0.42163 0.16927
# Poissons Ratio (z) = 0.50127 0.20998
#
# Static dielectric constant tensor:
#      x y z
#    x 4.217900 0.000000 0.000000 
#    y 0.000000 3.807640 0.000000 
#    z 0.000000 0.000000 3.537590 
# 
# 
# High freq. dielectric constant tensor:
#      x y z
#    x 1.811000 0.000000 0.000000 
#    y 0.000000 1.797790 0.000000 
#    z 0.000000 0.000000 1.764430 
# 
# From -- ./inp_files/37250.got.cif
#   From: 2010.03.12/outbox.cif.g09.slc.cpg/sg53_19_cif.got.tgz:37250.got - 2010.04.16 14:36:59.
