data_PCOD8220246
_publ_section_title
;
Structure prediction by ZEFSAII (Michael W. Deem and Ramdas Pophale) SiO2 
 PCOD8220246
Probable space group: P M N A
;
_chemical_formula_sum "Si O2"
_cell_formula_units_Z 48
_cell_length_a 8.605595
_cell_length_b 20.664322
_cell_length_c 14.100591
_cell_angle_alpha 90.000000
_cell_angle_beta 90.000000
_cell_angle_gamma 90.000000
_cell_volume 2507.490981
_symmetry_space_group_name_H-M "P M N A"
_symmetry_group_IT_number 53
_symmetry_cell_setting 'orthorhombic'
loop_
_space_group_symop_operation_xyz
x,y,z
1/2-x,-y,1/2+z
x,-y,-z
1/2-x,y,1/2-z
-x,-y,-z
1/2+x,y,1/2-z
-x,y,z
1/2+x,-y,1/2+z
loop_
_atom_site_type_symbol
_atom_site_label
_atom_site_fract_x
_atom_site_fract_y
_atom_site_fract_z
Si Si1 0.816929 0.388993 0.847504
Si Si2 0.814931 0.969911 0.354739
Si Si3 0.183875 0.909687 0.963467
Si Si4 0.815785 0.656442 0.957877
Si Si5 0.316961 0.781748 0.646607
Si Si6 0.315945 0.533824 0.651781
O O1 0.750000 0.360863 0.750000
O O2 0.752239 0.461563 0.869313
O O3 0.000000 0.392644 0.838353
O O4 0.766085 0.340298 0.931529
O O5 0.750000 0.954400 0.250000
O O6 0.753637 0.916929 0.430642
O O7 0.000000 0.968445 0.351590
O O8 0.757629 0.039760 0.389818
O O9 0.228233 0.839176 0.924828
O O10 0.000000 0.921338 0.967412
O O11 0.744137 0.716063 0.898518
O O12 0.754897 0.586464 0.923300
O O13 0.000000 0.660006 0.948113
O O14 0.250000 0.795029 0.750000
O O15 0.500000 0.776170 0.657290
O O16 0.250000 0.559647 0.750000
O O17 0.500000 0.532860 0.653362
#
# Coordination Sequence:
#
# PCOD8220246 Si02
#       6
#     8   8   8   8   8   8
#     4   9  17  30  48  68  92 123 162 206 250 295
#     4  11  21  35  57  83 109 138 172 212 256 298
#     4  10  20  35  54  79 109 140 174 210 252 301
#     4   9  17  31  49  69  95 129 166 200 241 296
#     4  10  21  35  53  75 102 135 167 203 247 298
#     4   9  16  27  46  70  94 123 159 201 248 295
#
# _framework density 19.142641999999999
#
# number of rings (size 3 to 8) (size 9 to 14) (size 15 to 20)
#    0.000    2.333    0.000    4.500    0.000    4.667 
#    0.000    2.500    0.000    6.000    0.000    0.000 
#    0.000    0.000    0.000    0.000    0.000    0.000 
#
# Total GULP energy -594945.233144 kJ/mol
# GULP energy per Si atom -12394.692357 kJ/mol
# Density = 1.909907 g / cm^3
# Si number density = 19.142642 Si / 1000 Ang^3
#
#
#
# Elastic Constant Matrix: (Units=GPa)
#
#
# Indices 1 2 3 4 5 6 
#
# 1 59.1316 26.0747 41.1321 0.0000 0.0000 0.0000
# 2 26.0747 74.1089 59.6803 0.0000 0.0000 0.0000
# 3 41.1321 59.6803 167.6157 0.0000 0.0000 0.0000
# 4 0.0000 0.0000 0.0000 24.9994 0.0000 0.0000
# 5 0.0000 0.0000 0.0000 0.0000 32.1391 0.0000
# 6 0.0000 0.0000 0.0000 0.0000 0.0000 17.0164
#
#
#
# Elastic Compliance Matrix: (Units=1/GPa)
#
#
# Indices 1 2 3 4 5 6 
#
# 1 0.021475 -0.004643 -0.003616 0.000000 0.000000 0.000000
# 2 -0.004643 0.019922 -0.005954 0.000000 0.000000 0.000000
# 3 -0.003616 -0.005954 0.008973 0.000000 0.000000 0.000000
# 4 0.000000 0.000000 0.000000 0.040001 0.000000 0.000000
# 5 0.000000 0.000000 0.000000 0.000000 0.031115 0.000000
# 6 0.000000 0.000000 0.000000 0.000000 0.000000 0.058767
#
#
# Mechanical properties :
#
#
# Convention : Reuss Voigt Hill
#
# Bulk Modulus (GPa) = 45.57330 61.62561 53.59946
# Shear Modulus (GPa) = 23.14878 26.42893 24.78885
#
# Velocity S-wave (km/s) = 3.48124 3.71972 3.60245
# Velocity P-wave (km/s) = 6.32595 7.12117 6.73531
#
# Compressibility (1/GPa) = 0.02194267
#
# Stress axis : x y z
#
# Youngs Moduli (GPa) = 46.56667 50.19563 111.44046
#
# Poissons Ratio (x) = 0.23307 0.40302
# Poissons Ratio (y) = 0.21622 0.66350
# Poissons Ratio (z) = 0.16841 0.29886
#
# Static dielectric constant tensor:
#      x y z
#    x 3.310360 0.000000 0.000000 
#    y 0.000000 3.593900 0.000000 
#    z 0.000000 0.000000 3.725350 
# 
# 
# High freq. dielectric constant tensor:
#      x y z
#    x 1.723560 0.000000 0.000000 
#    y 0.000000 1.729530 0.000000 
#    z 0.000000 0.000000 1.758380 
# 
# From -- ./inp_files/20327.got.cif
#   From: 2010.03.12/outbox.cif.g09.slc.cpg/sg53_11_cif.got.tgz:20327.got - 2010.04.16 14:36:59.
