data_PCOD8220827
_publ_section_title
;
Structure prediction by ZEFSAII (Michael W. Deem and Ramdas Pophale) SiO2 
 PCOD8220827
Probable space group: P M N A
;
_chemical_formula_sum "Si O2"
_cell_formula_units_Z 48
_cell_length_a 8.605689
_cell_length_b 14.803534
_cell_length_c 18.913913
_cell_angle_alpha 90.000000
_cell_angle_beta 90.000000
_cell_angle_gamma 90.000000
_cell_volume 2409.530565
_symmetry_space_group_name_H-M "P M N A"
_symmetry_group_IT_number 53
_symmetry_cell_setting 'orthorhombic'
loop_
_space_group_symop_operation_xyz
x,y,z
1/2-x,-y,1/2+z
x,-y,-z
1/2-x,y,1/2-z
-x,-y,-z
1/2+x,y,1/2-z
-x,y,z
1/2+x,-y,1/2+z
loop_
_atom_site_type_symbol
_atom_site_label
_atom_site_fract_x
_atom_site_fract_y
_atom_site_fract_z
Si Si1 0.819009 0.123553 0.042759
Si Si2 0.818195 0.048283 0.597830
Si Si3 0.179817 0.688118 0.568978
Si Si4 0.320175 0.356384 0.911074
Si Si5 0.681583 0.796385 0.322369
Si Si6 0.683689 0.467444 0.171732
O O1 0.780534 0.221269 0.074243
O O2 0.000000 0.116980 0.023770
O O3 0.773716 0.046649 0.099611
O O4 0.719166 0.105455 0.972611
O O5 0.763559 0.107277 0.664322
O O6 0.000000 0.028662 0.601957
O O7 0.203744 0.635258 0.495102
O O8 0.239686 0.622633 0.631298
O O9 0.000000 0.714067 0.578974
O O10 0.500000 0.337986 0.892227
O O11 0.217938 0.272591 0.885231
O O12 0.257616 0.446458 0.873004
O O13 0.750000 0.755441 0.250000
O O14 0.500000 0.811535 0.316309
O O15 0.750000 0.469711 0.250000
O O16 0.500000 0.469251 0.175660
#
# Coordination Sequence:
#
# PCOD8220827 Si02
#       6
#     8   8   8   8   8   8
#     4  11  21  35  58  89 119 149 191 243 295 347
#     4  11  21  37  59  84 116 156 196 238 291 350
#     4  10  20  37  61  87 117 155 202 247 297 356
#     4  10  20  37  61  87 116 153 199 249 300 355
#     4  12  24  38  57  86 123 160 199 246 301 359
#     4  10  22  39  59  85 117 158 200 245 298 357
#
# _framework density 19.920894000000001
#
# number of rings (size 3 to 8) (size 9 to 14) (size 15 to 20)
#    0.000    1.333    1.667    6.500    0.000    4.667 
#    0.000    0.833    0.000    5.000    0.000    0.000 
#    0.000    0.000    0.000    0.000    0.000    0.000 
#
# Total GULP energy -595413.577520 kJ/mol
# GULP energy per Si atom -12404.449532 kJ/mol
# Density = 1.987555 g / cm^3
# Si number density = 19.920894 Si / 1000 Ang^3
#
#
#
# Elastic Constant Matrix: (Units=GPa)
#
#
# Indices 1 2 3 4 5 6 
#
# 1 84.0600 30.8073 20.7792 0.0000 0.0000 0.0000
# 2 30.8073 135.5645 44.0353 0.0000 0.0000 0.0000
# 3 20.7792 44.0353 72.5442 0.0000 0.0000 0.0000
# 4 0.0000 0.0000 0.0000 28.1343 0.0000 0.0000
# 5 0.0000 0.0000 0.0000 0.0000 28.7673 0.0000
# 6 0.0000 0.0000 0.0000 0.0000 0.0000 22.7579
#
#
#
# Elastic Compliance Matrix: (Units=1/GPa)
#
#
# Indices 1 2 3 4 5 6 
#
# 1 0.013322 -0.002227 -0.002464 0.000000 0.000000 0.000000
# 2 -0.002227 0.009561 -0.005166 0.000000 0.000000 0.000000
# 3 -0.002464 -0.005166 0.017626 0.000000 0.000000 0.000000
# 4 0.000000 0.000000 0.000000 0.035544 0.000000 0.000000
# 5 0.000000 0.000000 0.000000 0.000000 0.034762 0.000000
# 6 0.000000 0.000000 0.000000 0.000000 0.000000 0.043941
#
#
# Mechanical properties :
#
#
# Convention : Reuss Voigt Hill
#
# Bulk Modulus (GPa) = 48.08800 53.71247 50.90024
# Shear Modulus (GPa) = 27.56356 29.03502 28.29929
#
# Velocity S-wave (km/s) = 3.72378 3.82188 3.77315
# Velocity P-wave (km/s) = 6.53304 6.81888 6.67749
#
# Compressibility (1/GPa) = 0.02079521
#
# Stress axis : x y z
#
# Youngs Moduli (GPa) = 75.06656 104.59644 56.73436
#
# Poissons Ratio (x) = 0.23293 0.13979
# Poissons Ratio (y) = 0.16717 0.29306
# Poissons Ratio (z) = 0.18496 0.54029
#
# Static dielectric constant tensor:
#      x y z
#    x 3.516440 0.000000 0.000000 
#    y 0.000000 3.800680 0.000000 
#    z 0.000000 0.000000 3.236230 
# 
# 
# High freq. dielectric constant tensor:
#      x y z
#    x 1.774430 0.000000 0.000000 
#    y 0.000000 1.786210 0.000000 
#    z 0.000000 0.000000 1.761710 
# 
# From -- ./inp_files/26222.got.cif
#   From: 2010.03.12/outbox.cif.g09.slc.cpg/sg53_14_cif.got.tgz:26222.got - 2010.04.16 14:36:59.
