data_PCOD8220878
_publ_section_title
;
Structure prediction by ZEFSAII (Michael W. Deem and Ramdas Pophale) SiO2 
 PCOD8220878
Probable space group: P M N A
;
_chemical_formula_sum "Si O2"
_cell_formula_units_Z 64
_cell_length_a 24.921399
_cell_length_b 14.173714
_cell_length_c 8.562472
_cell_angle_alpha 90.000000
_cell_angle_beta 90.000000
_cell_angle_gamma 90.000000
_cell_volume 3024.511555
_symmetry_space_group_name_H-M "P M N A"
_symmetry_group_IT_number 53
_symmetry_cell_setting 'orthorhombic'
loop_
_space_group_symop_operation_xyz
x,y,z
1/2-x,-y,1/2+z
x,-y,-z
1/2-x,y,1/2-z
-x,-y,-z
1/2+x,y,1/2-z
-x,y,z
1/2+x,-y,1/2+z
loop_
_atom_site_type_symbol
_atom_site_label
_atom_site_fract_x
_atom_site_fract_y
_atom_site_fract_z
Si Si1 0.635725 0.281663 0.597989
Si Si2 0.298004 0.054131 0.344884
Si Si3 0.853203 0.741136 0.441506
Si Si4 0.261535 0.732934 0.582019
Si Si5 0.106217 0.078925 0.378779
Si Si6 0.441489 0.793047 0.642622
Si Si7 0.938340 0.373383 0.379044
Si Si8 0.440476 0.547848 0.333144
O O1 0.649469 0.231062 0.759902
O O2 0.689204 0.317130 0.508117
O O3 0.603133 0.205507 0.493099
O O4 0.602309 0.370499 0.655270
O O5 0.250000 0.004317 0.250000
O O6 0.280346 0.159651 0.390531
O O7 0.347597 0.040146 0.230729
O O8 0.312752 0.000000 0.500000
O O9 0.792462 0.716285 0.485765
O O10 0.870406 0.834721 0.526856
O O11 0.895726 0.656882 0.486171
O O12 0.250000 0.685019 0.750000
O O13 0.060619 0.118182 0.261586
O O14 0.084087 0.000000 0.500000
O O15 0.500000 0.794121 0.563552
O O16 0.431696 0.695940 0.732918
O O17 0.925325 0.477226 0.310263
O O18 0.000000 0.368423 0.443164
O O19 0.441071 0.500000 0.500000
O O20 0.500000 0.588744 0.299315
#
# Coordination Sequence:
#
# PCOD8220878 Si02
#       8
#     8   8   8   8   8   8   8   8
#     4  12  23  37  63  93 126 166 212 264 315 385
#     4  11  22  37  63  92 119 154 207 267 314 367
#     4  11  24  40  62  92 132 169 209 258 322 390
#     4  11  22  42  62  86 123 174 208 252 319 383
#     4  11  23  40  61  92 126 163 209 265 325 377
#     4  10  20  39  63  89 122 168 214 256 313 383
#     4   9  19  39  67  94 126 164 205 261 321 374
#     4  10  20  37  68 101 125 157 210 270 316 363
#
# _framework density 21.160440999999999
#
# number of rings (size 3 to 8) (size 9 to 14) (size 15 to 20)
#    0.000    1.375    5.000    1.875    1.750    1.750 
#    0.000    1.250    5.500    2.625    0.000    0.000 
#    0.000    0.000    0.000    0.000    0.000    0.000 
#
# Total GULP energy -793177.756126 kJ/mol
# GULP energy per Si atom -12393.402439 kJ/mol
# Density = 2.111228 g / cm^3
# Si number density = 21.160441 Si / 1000 Ang^3
#
#
#
# Elastic Constant Matrix: (Units=GPa)
#
#
# Indices 1 2 3 4 5 6 
#
# 1 136.0208 29.6198 61.8335 0.0000 0.0000 0.0000
# 2 29.6198 66.2910 28.0163 0.0000 0.0000 0.0000
# 3 61.8335 28.0163 148.8078 0.0000 0.0000 0.0000
# 4 0.0000 0.0000 0.0000 38.0538 0.0000 0.0000
# 5 0.0000 0.0000 0.0000 0.0000 -11.1104 0.0000
# 6 0.0000 0.0000 0.0000 0.0000 0.0000 17.8540
#
#
#
# Elastic Compliance Matrix: (Units=1/GPa)
#
#
# Indices 1 2 3 4 5 6 
#
# 1 0.009521 -0.002805 -0.003428 0.000000 0.000000 0.000000
# 2 -0.002805 0.017216 -0.002076 0.000000 0.000000 0.000000
# 3 -0.003428 -0.002076 0.008535 0.000000 0.000000 0.000000
# 4 0.000000 0.000000 0.000000 0.026279 0.000000 0.000000
# 5 0.000000 0.000000 0.000000 0.000000 -0.090006 0.000000
# 6 0.000000 0.000000 0.000000 0.000000 0.000000 0.056010
#
#
# Mechanical properties :
#
#
# Convention : Reuss Voigt Hill
#
# Bulk Modulus (GPa) = 53.60754 65.56210 59.58482
# Shear Modulus (GPa) = 99.22435 24.40279 61.81357
#
# Velocity S-wave (km/s) = 6.85516 3.39960 5.41066
# Velocity P-wave (km/s) = 9.38331 6.81618 8.20082
#
# Compressibility (1/GPa) = 0.01865409
#
# Stress axis : x y z
#
# Youngs Moduli (GPa) = 105.03007 58.08667 117.16043
#
# Poissons Ratio (x) = 0.16295 0.40164
# Poissons Ratio (y) = 0.29465 0.24317
# Poissons Ratio (z) = 0.36005 0.12056
#
# Static dielectric constant tensor:
#      x y z
#    x 4.029120 0.000000 0.000000 
#    y 0.000000 3.635820 0.000000 
#    z 0.000000 0.000000 4.241080 
# 
# 
# High freq. dielectric constant tensor:
#      x y z
#    x 1.833540 0.000000 0.000000 
#    y 0.000000 1.797040 0.000000 
#    z 0.000000 0.000000 1.848530 
# 
# From -- ./inp_files/11929.got.cif
#   From: 2010.03.12/outbox.cif.g09.slc.cpg/sg53_6_cif.got.tgz:11929.got - 2010.04.16 14:36:59.
