data_PCOD8220835
_publ_section_title
;
Structure prediction by ZEFSAII (Michael W. Deem and Ramdas Pophale) SiO2 
 PCOD8220835
Probable space group: P M N A
;
_chemical_formula_sum "Si O2"
_cell_formula_units_Z 64
_cell_length_a 8.680106
_cell_length_b 23.777686
_cell_length_c 15.499963
_cell_angle_alpha 90.000000
_cell_angle_beta 90.000000
_cell_angle_gamma 90.000000
_cell_volume 3199.081305
_symmetry_space_group_name_H-M "P M N A"
_symmetry_group_IT_number 53
_symmetry_cell_setting 'orthorhombic'
loop_
_space_group_symop_operation_xyz
x,y,z
1/2-x,-y,1/2+z
x,-y,-z
1/2-x,y,1/2-z
-x,-y,-z
1/2+x,y,1/2-z
-x,y,z
1/2+x,-y,1/2+z
loop_
_atom_site_type_symbol
_atom_site_label
_atom_site_fract_x
_atom_site_fract_y
_atom_site_fract_z
Si Si1 0.317043 0.062936 0.904343
Si Si2 0.322412 0.371553 0.503236
Si Si3 0.182764 0.941160 0.598430
Si Si4 0.682690 0.819615 0.160879
Si Si5 0.182396 0.176045 0.338120
Si Si6 0.178437 0.240248 0.001390
Si Si7 0.682186 0.555081 0.659289
Si Si8 0.818485 0.566060 0.340428
O O1 0.500000 0.065476 0.905182
O O2 0.253625 0.116336 0.851381
O O3 0.260836 0.002362 0.865386
O O4 0.253738 0.067753 0.001713
O O5 0.500000 0.385773 0.523274
O O6 0.295624 0.306166 0.487894
O O7 0.267139 0.402768 0.416427
O O8 0.220903 0.390365 0.584291
O O9 0.241236 0.888936 0.655493
O O10 0.000000 0.940890 0.594661
O O11 0.750000 0.795971 0.250000
O O12 0.500000 0.817599 0.162929
O O13 0.740298 0.779616 0.085457
O O14 0.250000 0.201552 0.250000
O O15 0.244097 0.211181 0.417443
O O16 0.000000 0.180267 0.337493
O O17 0.000000 0.223975 0.997674
O O18 0.750000 0.577227 0.750000
O O19 0.500000 0.551069 0.668279
O O20 0.747625 0.494122 0.635447
O O21 0.750000 0.588512 0.250000
O O22 0.000000 0.560015 0.330435
#
# Coordination Sequence:
#
# PCOD8220835 Si02
#       8
#     8   8   8   8   8   8   8   8
#     4   8  14  28  53  82 111 144 184 230 288 349
#     4  10  23  41  61  85 116 155 197 242 291 338
#     4   8  14  28  53  82 111 145 183 231 287 348
#     4  11  22  38  60  86 114 151 193 239 294 353
#     4  11  22  38  60  86 115 152 194 239 293 351
#     4  11  24  43  62  83 114 153 199 249 294 342
#     4  10  20  37  61  89 123 157 190 233 283 337
#     4  11  22  37  61  92 125 158 192 233 282 338
#
# _framework density 20.005742999999999
#
# number of rings (size 3 to 8) (size 9 to 14) (size 15 to 20)
#    0.000    2.000    1.250    4.500    0.000    5.000 
#    0.000    1.250    0.000    3.000    0.000    0.000 
#    0.000    0.000    0.000    0.000    0.000    0.000 
#
# Total GULP energy -793492.000280 kJ/mol
# GULP energy per Si atom -12398.312504 kJ/mol
# Density = 1.996021 g / cm^3
# Si number density = 20.005743 Si / 1000 Ang^3
#
#
#
# Elastic Constant Matrix: (Units=GPa)
#
#
# Indices 1 2 3 4 5 6 
#
# 1 86.3218 33.5218 42.5733 0.0000 0.0000 0.0000
# 2 33.5218 75.6423 43.3616 0.0000 0.0000 0.0000
# 3 42.5733 43.3616 131.2354 0.0000 0.0000 0.0000
# 4 0.0000 0.0000 0.0000 0.3016 0.0000 0.0000
# 5 0.0000 0.0000 0.0000 0.0000 31.4198 0.0000
# 6 0.0000 0.0000 0.0000 0.0000 0.0000 23.1529
#
#
#
# Elastic Compliance Matrix: (Units=1/GPa)
#
#
# Indices 1 2 3 4 5 6 
#
# 1 0.015074 -0.004783 -0.003310 0.000000 0.000000 0.000000
# 2 -0.004783 0.017827 -0.004339 0.000000 0.000000 0.000000
# 3 -0.003310 -0.004339 0.010127 0.000000 0.000000 0.000000
# 4 0.000000 0.000000 0.000000 3.315944 0.000000 0.000000
# 5 0.000000 0.000000 0.000000 0.000000 0.031827 0.000000
# 6 0.000000 0.000000 0.000000 0.000000 0.000000 0.043191
#
#
# Mechanical properties :
#
#
# Convention : Reuss Voigt Hill
#
# Bulk Modulus (GPa) = 55.04938 59.12364 57.08651
# Shear Modulus (GPa) = 1.44304 22.55770 12.00037
#
# Velocity S-wave (km/s) = 0.85022 3.36156 2.45183
# Velocity P-wave (km/s) = 5.34232 6.68463 6.05081
#
# Compressibility (1/GPa) = 0.01816551
#
# Stress axis : x y z
#
# Youngs Moduli (GPa) = 66.33781 56.09526 98.74480
#
# Poissons Ratio (x) = 0.26831 0.32683
# Poissons Ratio (y) = 0.31730 0.42841
# Poissons Ratio (z) = 0.21957 0.24337
#
# Static dielectric constant tensor:
#      x y z
#    x 3.459500 0.000000 0.000000 
#    y 0.000000 3.846500 0.000000 
#    z 0.000000 0.000000 3.698480 
# 
# 
# High freq. dielectric constant tensor:
#      x y z
#    x 1.764840 0.000000 0.000000 
#    y 0.000000 1.782580 0.000000 
#    z 0.000000 0.000000 1.786110 
# 
# From -- ./inp_files/20955.got.cif
#   From: 2010.03.12/outbox.cif.g09.slc.cpg/sg53_11_cif.got.tgz:20955.got - 2010.04.16 14:36:59.
