data_PCOD8220313
_publ_section_title
;
Structure prediction by ZEFSAII (Michael W. Deem and Ramdas Pophale) SiO2 
 PCOD8220313
Probable space group: P M N A
;
_chemical_formula_sum "Si O2"
_cell_formula_units_Z 48
_cell_length_a 8.782294
_cell_length_b 30.900866
_cell_length_c 9.049250
_cell_angle_alpha 90.000000
_cell_angle_beta 90.000000
_cell_angle_gamma 90.000000
_cell_volume 2455.789900
_symmetry_space_group_name_H-M "P M N A"
_symmetry_group_IT_number 53
_symmetry_cell_setting 'orthorhombic'
loop_
_space_group_symop_operation_xyz
x,y,z
1/2-x,-y,1/2+z
x,-y,-z
1/2-x,y,1/2-z
-x,-y,-z
1/2+x,y,1/2-z
-x,y,z
1/2+x,-y,1/2+z
loop_
_atom_site_type_symbol
_atom_site_label
_atom_site_fract_x
_atom_site_fract_y
_atom_site_fract_z
Si Si1 0.820458 0.295754 0.589883
Si Si2 0.679773 0.620134 0.911038
Si Si3 0.175666 0.456714 0.907394
Si Si4 0.179900 0.958117 0.091085
Si Si5 0.179625 0.213214 0.409976
Si Si6 0.319448 0.870434 0.089247
O O1 0.750000 0.301601 0.750000
O O2 0.768282 0.335110 0.485927
O O3 0.760217 0.251663 0.514942
O O4 0.000000 0.294795 0.609478
O O5 0.750000 0.616724 0.750000
O O6 0.500000 0.616949 0.895885
O O7 0.737268 0.581512 0.011927
O O8 0.250000 0.465219 0.750000
O O9 0.000000 0.443685 0.888000
O O10 0.194919 0.500000 0.000000
O O11 0.250000 0.965278 0.250000
O O12 0.252776 0.914844 0.019871
O O13 0.000000 0.952163 0.100844
O O14 0.228140 0.000000 0.000000
O O15 0.250000 0.218427 0.250000
O O16 0.231616 0.167982 0.481297
O O17 0.000000 0.215852 0.393322
O O18 0.250000 0.861705 0.250000
O O19 0.500000 0.873793 0.104275
#
# Coordination Sequence:
#
# PCOD8220313 Si02
#       6
#     8   8   8   8   8   8
#     4  10  22  39  59  85 115 149 189 231 278 333
#     4  11  23  39  61  88 119 154 193 238 287 339
#     4  11  24  41  62  88 119 155 195 240 289 342
#     4  10  21  36  55  79 107 141 180 222 271 325
#     4  10  22  38  56  82 113 145 183 226 274 327
#     4  10  20  35  56  80 107 141 181 224 270 323
#
# _framework density 19.545646999999999
#
# number of rings (size 3 to 8) (size 9 to 14) (size 15 to 20)
#    0.000    1.667    0.000    5.000    0.000    9.333 
#    0.000    3.333    0.000    0.000    0.000    0.000 
#    0.000    0.000    0.000    0.000    0.000    0.000 
#
# Total GULP energy -595371.256258 kJ/mol
# GULP energy per Si atom -12403.567839 kJ/mol
# Density = 1.950116 g / cm^3
# Si number density = 19.545647 Si / 1000 Ang^3
#
#
#
# Elastic Constant Matrix: (Units=GPa)
#
#
# Indices 1 2 3 4 5 6 
#
# 1 67.1472 49.5067 41.1891 0.0000 0.0000 0.0000
# 2 49.5067 135.3609 51.9476 0.0000 0.0000 0.0000
# 3 41.1891 51.9476 120.1086 0.0000 0.0000 0.0000
# 4 0.0000 0.0000 0.0000 40.8709 0.0000 0.0000
# 5 0.0000 0.0000 0.0000 0.0000 32.5411 0.0000
# 6 0.0000 0.0000 0.0000 0.0000 0.0000 63.3310
#
#
#
# Elastic Compliance Matrix: (Units=1/GPa)
#
#
# Indices 1 2 3 4 5 6 
#
# 1 0.022663 -0.006362 -0.005020 0.000000 0.000000 0.000000
# 2 -0.006362 0.010644 -0.002422 0.000000 0.000000 0.000000
# 3 -0.005020 -0.002422 0.011095 0.000000 0.000000 0.000000
# 4 0.000000 0.000000 0.000000 0.024467 0.000000 0.000000
# 5 0.000000 0.000000 0.000000 0.000000 0.030730 0.000000
# 6 0.000000 0.000000 0.000000 0.000000 0.000000 0.015790
#
#
# Mechanical properties :
#
#
# Convention : Reuss Voigt Hill
#
# Bulk Modulus (GPa) = 59.54701 67.54485 63.54593
# Shear Modulus (GPa) = 33.64850 39.34682 36.49766
#
# Velocity S-wave (km/s) = 4.15364 4.49160 4.32592
# Velocity P-wave (km/s) = 7.31679 7.84422 7.58509
#
# Compressibility (1/GPa) = 0.01679345
#
# Stress axis : x y z
#
# Youngs Moduli (GPa) = 44.12528 93.95040 90.13215
#
# Poissons Ratio (x) = 0.59772 0.45248
# Poissons Ratio (y) = 0.28073 0.21828
# Poissons Ratio (z) = 0.22152 0.22753
#
# Static dielectric constant tensor:
#      x y z
#    x 3.630740 0.000000 0.000000 
#    y 0.000000 4.027700 0.000000 
#    z 0.000000 0.000000 3.548990 
# 
# 
# High freq. dielectric constant tensor:
#      x y z
#    x 1.768010 0.000000 0.000000 
#    y 0.000000 1.783520 0.000000 
#    z 0.000000 0.000000 1.767060 
# 
# From -- ./inp_files/6630.got.cif
#   From: 2010.03.12/outbox.cif.g09.slc.cpg/sg53_4_cif.got.tgz:6630.got - 2010.04.16 14:36:59.
