data_PCOD8220814
_publ_section_title
;
Structure prediction by ZEFSAII (Michael W. Deem and Ramdas Pophale) SiO2 
 PCOD8220814
Probable space group: P M N A
;
_chemical_formula_sum "Si O2"
_cell_formula_units_Z 64
_cell_length_a 8.990221
_cell_length_b 11.832399
_cell_length_c 30.619465
_cell_angle_alpha 90.000000
_cell_angle_beta 90.000000
_cell_angle_gamma 90.000000
_cell_volume 3257.172595
_symmetry_space_group_name_H-M "P M N A"
_symmetry_group_IT_number 53
_symmetry_cell_setting 'orthorhombic'
loop_
_space_group_symop_operation_xyz
x,y,z
1/2-x,-y,1/2+z
x,-y,-z
1/2-x,y,1/2-z
-x,-y,-z
1/2+x,y,1/2-z
-x,y,z
1/2+x,-y,1/2+z
loop_
_atom_site_type_symbol
_atom_site_label
_atom_site_fract_x
_atom_site_fract_y
_atom_site_fract_z
Si Si1 0.823912 0.884314 0.877097
Si Si2 0.169646 0.286221 0.546014
Si Si3 0.327011 0.503883 0.575839
Si Si4 0.324898 0.740487 0.705469
Si Si5 0.670579 0.266322 0.052729
Si Si6 0.674381 0.728852 0.207053
Si Si7 0.326096 0.123413 0.876067
Si Si8 0.827462 0.491287 0.822533
O O1 0.767651 0.818707 0.834043
O O2 0.758857 0.826429 0.920071
O O3 0.000000 0.878815 0.880630
O O4 0.770978 0.011887 0.874428
O O5 0.276121 0.394170 0.549313
O O6 0.185276 0.232607 0.498068
O O7 0.218213 0.191042 0.580427
O O8 0.000000 0.324975 0.555430
O O9 0.500000 0.527025 0.567146
O O10 0.235072 0.609609 0.559091
O O11 0.293349 0.484511 0.626415
O O12 0.250000 0.783075 0.750000
O O13 0.500000 0.751193 0.710790
O O14 0.276569 0.612636 0.695272
O O15 0.500000 0.265925 0.067964
O O16 0.750000 0.782961 0.250000
O O17 0.500000 0.727801 0.214036
O O18 0.721086 0.801927 0.165359
O O19 0.729269 0.600771 0.201919
O O20 0.500000 0.092344 0.875355
O O21 0.000000 0.467938 0.812741
#
# Coordination Sequence:
#
# PCOD8220814 Si02
#       8
#     8   8   8   8   8   8   8   8
#     4  11  24  43  63  86 120 156 200 254 303 354
#     4  10  22  41  62  89 123 158 202 247 292 357
#     4  11  21  36  61  92 127 159 193 244 301 356
#     4  10  22  40  60  87 120 154 192 241 294 352
#     4  11  23  39  63  90 121 161 200 244 297 356
#     4  11  23  39  62  90 122 158 199 246 296 356
#     4  10  23  43  63  85 116 157 205 249 297 355
#     4  10  20  37  60  88 123 157 193 239 297 356
#
# _framework density 19.648942000000002
#
# number of rings (size 3 to 8) (size 9 to 14) (size 15 to 20)
#    0.000    1.500    2.500    2.250    0.000    8.000 
#    0.000    5.000    0.000    0.000    0.000    0.000 
#    0.000    0.000    0.000    0.000    0.000    0.000 
#
# Total GULP energy -793985.213718 kJ/mol
# GULP energy per Si atom -12406.018964 kJ/mol
# Density = 1.960422 g / cm^3
# Si number density = 19.648942 Si / 1000 Ang^3
#
#
#
# Elastic Constant Matrix: (Units=GPa)
#
#
# Indices 1 2 3 4 5 6 
#
# 1 74.9237 51.0686 59.8617 0.0000 0.0000 0.0000
# 2 51.0686 121.0759 69.4202 0.0000 0.0000 0.0000
# 3 59.8617 69.4202 120.4543 0.0000 0.0000 0.0000
# 4 0.0000 0.0000 0.0000 13.2859 0.0000 0.0000
# 5 0.0000 0.0000 0.0000 0.0000 34.3750 0.0000
# 6 0.0000 0.0000 0.0000 0.0000 0.0000 34.4761
#
#
#
# Elastic Compliance Matrix: (Units=1/GPa)
#
#
# Indices 1 2 3 4 5 6 
#
# 1 0.023930 -0.004891 -0.009074 0.000000 0.000000 0.000000
# 2 -0.004891 0.013335 -0.005255 0.000000 0.000000 0.000000
# 3 -0.009074 -0.005255 0.015840 0.000000 0.000000 0.000000
# 4 0.000000 0.000000 0.000000 0.075268 0.000000 0.000000
# 5 0.000000 0.000000 0.000000 0.000000 0.029091 0.000000
# 6 0.000000 0.000000 0.000000 0.000000 0.000000 0.029006
#
#
# Mechanical properties :
#
#
# Convention : Reuss Voigt Hill
#
# Bulk Modulus (GPa) = 68.18396 75.23943 71.71169
# Shear Modulus (GPa) = 21.75838 25.50097 23.62968
#
# Velocity S-wave (km/s) = 3.33131 3.60645 3.47160
# Velocity P-wave (km/s) = 7.04083 7.46438 7.25569
#
# Compressibility (1/GPa) = 0.01466621
#
# Stress axis : x y z
#
# Youngs Moduli (GPa) = 41.78803 74.99048 63.13305
#
# Poissons Ratio (x) = 0.36678 0.57285
# Poissons Ratio (y) = 0.20439 0.33174
# Poissons Ratio (z) = 0.37917 0.39404
#
# Static dielectric constant tensor:
#      x y z
#    x 3.544840 0.000000 0.000000 
#    y 0.000000 3.503860 0.000000 
#    z 0.000000 0.000000 3.872580 
# 
# 
# High freq. dielectric constant tensor:
#      x y z
#    x 1.767060 0.000000 0.000000 
#    y 0.000000 1.759560 0.000000 
#    z 0.000000 0.000000 1.784400 
# 
# From -- ./inp_files/38157.got.cif
#   From: 2010.03.12/outbox.cif.g09.slc.cpg/sg53_20_cif.got.tgz:38157.got - 2010.04.16 14:36:59.
