data_PCOD8220786
_publ_section_title
;
Structure prediction by ZEFSAII (Michael W. Deem and Ramdas Pophale) SiO2 
 PCOD8220786
Probable space group: P M N A
;
_chemical_formula_sum "Si O2"
_cell_formula_units_Z 56
_cell_length_a 8.747206
_cell_length_b 16.231442
_cell_length_c 19.374835
_cell_angle_alpha 90.000000
_cell_angle_beta 90.000000
_cell_angle_gamma 90.000000
_cell_volume 2750.834556
_symmetry_space_group_name_H-M "P M N A"
_symmetry_group_IT_number 53
_symmetry_cell_setting 'orthorhombic'
loop_
_space_group_symop_operation_xyz
x,y,z
1/2-x,-y,1/2+z
x,-y,-z
1/2-x,y,1/2-z
-x,-y,-z
1/2+x,y,1/2-z
-x,y,z
1/2+x,-y,1/2+z
loop_
_atom_site_type_symbol
_atom_site_label
_atom_site_fract_x
_atom_site_fract_y
_atom_site_fract_z
Si Si1 0.818520 0.505139 0.322339
Si Si2 0.179459 0.691077 0.321206
Si Si3 0.819184 0.573781 0.950997
Si Si4 0.822547 0.830138 0.422996
Si Si5 0.319806 0.003484 0.577736
Si Si6 0.821429 0.254583 0.438263
Si Si7 0.681768 0.854131 0.673334
O O1 0.750000 0.477576 0.250000
O O2 0.767282 0.598604 0.339362
O O3 0.736301 0.444548 0.374481
O O4 0.000000 0.493291 0.324339
O O5 0.250000 0.722538 0.250000
O O6 0.236554 0.750220 0.381938
O O7 0.000000 0.692968 0.312125
O O8 0.744646 0.661065 0.970397
O O9 0.000000 0.581786 0.955511
O O10 0.758540 0.500000 0.000000
O O11 0.729764 0.907757 0.393291
O O12 0.791127 0.815513 0.504122
O O13 0.000000 0.845907 0.408534
O O14 0.500000 0.995504 0.574287
O O15 0.249831 0.000000 0.500000
O O16 0.257492 0.933072 0.629518
O O17 0.738351 0.227310 0.367469
O O18 0.000000 0.266432 0.423479
O O19 0.750000 0.856673 0.750000
O O20 0.500000 0.852314 0.679010
#
# Coordination Sequence:
#
# PCOD8220786 Si02
#       7
#     8   8   8   8   8   8   8
#     4  10  20  37  60  83 115 155 198 246 299 359
#     4   9  19  35  54  82 117 153 192 239 292 347
#     4  11  24  40  60  89 123 158 202 252 303 360
#     4  10  21  36  59  88 119 153 196 242 291 352
#     4  10  21  39  62  87 118 156 197 243 296 352
#     4  11  23  40  63  90 119 157 201 249 305 359
#     4  11  24  43  65  91 125 161 203 252 304 363
#
# _framework density 20.357458999999999
#
# number of rings (size 3 to 8) (size 9 to 14) (size 15 to 20)
#    0.000    1.714    1.429    2.571    0.000    6.571 
#    0.000    5.714    0.000    0.000    0.000    0.000 
#    0.000    0.000    0.000    0.000    0.000    0.000 
#
# Total GULP energy -694479.142386 kJ/mol
# GULP energy per Si atom -12401.413257 kJ/mol
# Density = 2.031112 g / cm^3
# Si number density = 20.357459 Si / 1000 Ang^3
#
#
#
# Elastic Constant Matrix: (Units=GPa)
#
#
# Indices 1 2 3 4 5 6 
#
# 1 54.1300 29.6655 29.5240 0.0000 0.0000 0.0000
# 2 29.6655 98.2995 33.7206 0.0000 0.0000 0.0000
# 3 29.5240 33.7206 93.6441 0.0000 0.0000 0.0000
# 4 0.0000 0.0000 0.0000 68.5210 0.0000 0.0000
# 5 0.0000 0.0000 0.0000 0.0000 31.8188 0.0000
# 6 0.0000 0.0000 0.0000 0.0000 0.0000 35.8381
#
#
#
# Elastic Compliance Matrix: (Units=1/GPa)
#
#
# Indices 1 2 3 4 5 6 
#
# 1 0.024620 -0.005439 -0.005804 0.000000 0.000000 0.000000
# 2 -0.005439 0.012808 -0.002897 0.000000 0.000000 0.000000
# 3 -0.005804 -0.002897 0.013552 0.000000 0.000000 0.000000
# 4 0.000000 0.000000 0.000000 0.014594 0.000000 0.000000
# 5 0.000000 0.000000 0.000000 0.000000 0.031428 0.000000
# 6 0.000000 0.000000 0.000000 0.000000 0.000000 0.027903
#
#
# Mechanical properties :
#
#
# Convention : Reuss Voigt Hill
#
# Bulk Modulus (GPa) = 44.05256 47.98818 46.02037
# Shear Modulus (GPa) = 31.10359 37.44648 34.27503
#
# Velocity S-wave (km/s) = 3.91304 4.29353 4.10769
# Velocity P-wave (km/s) = 6.48863 6.94285 6.71958
#
# Compressibility (1/GPa) = 0.02270015
#
# Stress axis : x y z
#
# Youngs Moduli (GPa) = 40.61666 78.07381 73.79089
#
# Poissons Ratio (x) = 0.42466 0.42826
# Poissons Ratio (y) = 0.22092 0.21380
# Poissons Ratio (z) = 0.23573 0.22621
#
# Static dielectric constant tensor:
#      x y z
#    x 3.549240 0.000000 0.000000 
#    y 0.000000 3.797440 0.000000 
#    z 0.000000 0.000000 3.604240 
# 
# 
# High freq. dielectric constant tensor:
#      x y z
#    x 1.790920 0.000000 0.000000 
#    y 0.000000 1.801640 0.000000 
#    z 0.000000 0.000000 1.796610 
# 
# From -- ./inp_files/30723.got.cif
#   From: 2010.03.12/outbox.cif.g09.slc.cpg/sg53_16_cif.got.tgz:30723.got - 2010.04.16 14:36:59.
