data_PCOD8220079
_publ_section_title
;
Structure prediction by ZEFSAII (Michael W. Deem and Ramdas Pophale) SiO2 
 PCOD8220079
Probable space group: P M N A
;
_chemical_formula_sum "Si O2"
_cell_formula_units_Z 40
_cell_length_a 8.835306
_cell_length_b 26.022299
_cell_length_c 9.113537
_cell_angle_alpha 90.000000
_cell_angle_beta 90.000000
_cell_angle_gamma 90.000000
_cell_volume 2095.338627
_symmetry_space_group_name_H-M "P M N A"
_symmetry_group_IT_number 53
_symmetry_cell_setting 'orthorhombic'
loop_
_space_group_symop_operation_xyz
x,y,z
1/2-x,-y,1/2+z
x,-y,-z
1/2-x,y,1/2-z
-x,-y,-z
1/2+x,y,1/2-z
-x,y,z
1/2+x,-y,1/2+z
loop_
_atom_site_type_symbol
_atom_site_label
_atom_site_fract_x
_atom_site_fract_y
_atom_site_fract_z
Si Si1 0.821774 0.640855 0.909384
Si Si2 0.823303 0.046605 0.593212
Si Si3 0.322949 0.158496 0.908772
Si Si4 0.177958 0.740871 0.090164
Si Si5 0.324878 0.550963 0.093762
O O1 0.750000 0.636894 0.750000
O O2 0.000000 0.633646 0.894124
O O3 0.777829 0.695012 0.981832
O O4 0.758253 0.597062 0.013478
O O5 0.750000 0.044710 0.750000
O O6 0.793216 0.102552 0.516029
O O7 0.000000 0.037760 0.615202
O O8 0.751935 0.000000 0.500000
O O9 0.250000 0.155670 0.750000
O O10 0.500000 0.170024 0.896305
O O11 0.242565 0.206957 0.987747
O O12 0.250000 0.731298 0.250000
O O13 0.000000 0.745765 0.111122
O O14 0.250000 0.541055 0.250000
O O15 0.500000 0.565345 0.114792
O O16 0.303609 0.500000 0.000000
#
# Coordination Sequence:
#
# PCOD8220079 Si02
#       5
#     8   8   8   8   8
#     4  11  24  40  59  83 113 149 186 226 273 324
#     4   9  18  32  49  72 101 132 170 214 260 313
#     4   9  16  28  49  73  99 133 171 214 262 312
#     4  10  20  34  54  80 106 135 175 221 267 317
#     4  11  24  41  63  90 119 151 187 228 272 320
#
# _framework density 19.089994000000001
#
# number of rings (size 3 to 8) (size 9 to 14) (size 15 to 20)
#    0.000    2.000    0.000    4.800    0.000    9.200 
#    0.000    1.000    0.000    4.800    0.000    0.000 
#    0.000    0.000    0.000    0.000    0.000    0.000 
#
# Total GULP energy -495802.874994 kJ/mol
# GULP energy per Si atom -12395.071875 kJ/mol
# Density = 1.904654 g / cm^3
# Si number density = 19.089994 Si / 1000 Ang^3
#
#
#
# Elastic Constant Matrix: (Units=GPa)
#
#
# Indices 1 2 3 4 5 6 
#
# 1 87.1261 61.9182 38.7925 0.0000 0.0000 0.0000
# 2 61.9182 150.8534 47.8949 0.0000 0.0000 0.0000
# 3 38.7925 47.8949 89.9125 0.0000 0.0000 0.0000
# 4 0.0000 0.0000 0.0000 19.2815 0.0000 0.0000
# 5 0.0000 0.0000 0.0000 0.0000 19.1431 0.0000
# 6 0.0000 0.0000 0.0000 0.0000 0.0000 36.2563
#
#
#
# Elastic Compliance Matrix: (Units=1/GPa)
#
#
# Indices 1 2 3 4 5 6 
#
# 1 0.017602 -0.005794 -0.004508 0.000000 0.000000 0.000000
# 2 -0.005794 0.009885 -0.002766 0.000000 0.000000 0.000000
# 3 -0.004508 -0.002766 0.014540 0.000000 0.000000 0.000000
# 4 0.000000 0.000000 0.000000 0.051863 0.000000 0.000000
# 5 0.000000 0.000000 0.000000 0.000000 0.052238 0.000000
# 6 0.000000 0.000000 0.000000 0.000000 0.000000 0.027581
#
#
# Mechanical properties :
#
#
# Convention : Reuss Voigt Hill
#
# Bulk Modulus (GPa) = 62.92460 69.45590 66.19025
# Shear Modulus (GPa) = 24.37317 26.88861 25.63089
#
# Velocity S-wave (km/s) = 3.57704 3.75709 3.66817
# Velocity P-wave (km/s) = 7.07771 7.43528 7.25870
#
# Compressibility (1/GPa) = 0.01589204
#
# Stress axis : x y z
#
# Youngs Moduli (GPa) = 56.81104 101.16214 68.77370
#
# Poissons Ratio (x) = 0.58608 0.31005
# Poissons Ratio (y) = 0.32914 0.19023
# Poissons Ratio (z) = 0.25612 0.27982
#
# Static dielectric constant tensor:
#      x y z
#    x 3.650570 0.000000 0.000000 
#    y 0.000000 4.406870 0.000000 
#    z 0.000000 0.000000 3.215780 
# 
# 
# High freq. dielectric constant tensor:
#      x y z
#    x 1.756070 0.000000 0.000000 
#    y 0.000000 1.772750 0.000000 
#    z 0.000000 0.000000 1.710700 
# 
# From -- ./inp_files/6299.got.cif
#   From: 2010.03.12/outbox.cif.g09.slc.cpg/sg53_4_cif.got.tgz:6299.got - 2010.04.16 14:36:59.
