data_PCOD8220182
_publ_section_title
;
Structure prediction by ZEFSAII (Michael W. Deem and Ramdas Pophale) SiO2 
 PCOD8220182
Probable space group: P M N A
;
_chemical_formula_sum "Si O2"
_cell_formula_units_Z 40
_cell_length_a 16.907576
_cell_length_b 22.526804
_cell_length_c 5.049240
_cell_angle_alpha 90.000000
_cell_angle_beta 90.000000
_cell_angle_gamma 90.000000
_cell_volume 1923.122472
_symmetry_space_group_name_H-M "P M N A"
_symmetry_group_IT_number 53
_symmetry_cell_setting 'orthorhombic'
loop_
_space_group_symop_operation_xyz
x,y,z
1/2-x,-y,1/2+z
x,-y,-z
1/2-x,y,1/2-z
-x,-y,-z
1/2+x,y,1/2-z
-x,y,z
1/2+x,-y,1/2+z
loop_
_atom_site_type_symbol
_atom_site_label
_atom_site_fract_x
_atom_site_fract_y
_atom_site_fract_z
Si Si1 0.094135 0.433926 0.465007
Si Si2 0.303639 0.751562 0.506224
Si Si3 0.093675 0.638459 0.035318
Si Si4 0.591438 0.937606 0.125065
Si Si5 0.163336 0.882896 0.858159
O O1 0.129615 0.500000 0.500000
O O2 0.125482 0.403995 0.197382
O O3 0.000000 0.437800 0.465741
O O4 0.124743 0.392216 0.699264
O O5 0.250000 0.755230 0.250000
O O6 0.373235 0.704496 0.476621
O O7 0.343880 0.815068 0.551666
O O8 0.250000 0.731863 0.750000
O O9 0.000000 0.644247 0.024187
O O10 0.500000 0.938637 0.210056
O O11 0.641512 0.924124 0.390456
O O12 0.604291 0.889859 0.890977
O O13 0.619276 0.000000 0.000000
O O14 0.250000 0.899707 0.750000
#
# Coordination Sequence:
#
# PCOD8220182 Si02
#       5
#     8   8   8   8   8
#     4   9  17  31  53  82 114 144 181 235 289 337
#     4  11  23  41  60  81 117 157 191 238 297 345
#     4  10  20  34  57  86 109 142 194 238 280 343
#     4  11  24  42  65  94 128 160 193 245 310 359
#     4  11  23  42  64  90 121 162 210 246 289 357
#
# _framework density 20.799506999999998
#
# number of rings (size 3 to 8) (size 9 to 14) (size 15 to 20)
#    0.000    1.600    0.000    6.000    0.000    7.200 
#    0.000    3.000    0.000   12.000    0.000    0.000 
#    0.000    0.000    0.000    0.000    0.000    0.000 
#
# Total GULP energy -496083.993849 kJ/mol
# GULP energy per Si atom -12402.099846 kJ/mol
# Density = 2.075217 g / cm^3
# Si number density = 20.799507 Si / 1000 Ang^3
#
#
#
# Elastic Constant Matrix: (Units=GPa)
#
#
# Indices 1 2 3 4 5 6 
#
# 1 49.5689 54.3461 30.4355 0.0000 0.0000 0.0000
# 2 54.3461 119.8972 32.7670 0.0000 0.0000 0.0000
# 3 30.4355 32.7670 122.2675 0.0000 0.0000 0.0000
# 4 0.0000 0.0000 0.0000 41.4892 0.0000 0.0000
# 5 0.0000 0.0000 0.0000 0.0000 28.9899 0.0000
# 6 0.0000 0.0000 0.0000 0.0000 0.0000 29.0517
#
#
#
# Elastic Compliance Matrix: (Units=1/GPa)
#
#
# Indices 1 2 3 4 5 6 
#
# 1 0.043875 -0.018238 -0.006034 0.000000 0.000000 0.000000
# 2 -0.018238 0.016581 0.000096 0.000000 0.000000 0.000000
# 3 -0.006034 0.000096 0.009655 0.000000 0.000000 0.000000
# 4 0.000000 0.000000 0.000000 0.024103 0.000000 0.000000
# 5 0.000000 0.000000 0.000000 0.000000 0.034495 0.000000
# 6 0.000000 0.000000 0.000000 0.000000 0.000000 0.034421
#
#
# Mechanical properties :
#
#
# Convention : Reuss Voigt Hill
#
# Bulk Modulus (GPa) = 45.95736 58.53674 52.24705
# Shear Modulus (GPa) = 22.85886 31.51850 27.18868
#
# Velocity S-wave (km/s) = 3.31873 3.89697 3.61942
# Velocity P-wave (km/s) = 6.06866 6.96081 6.52999
#
# Compressibility (1/GPa) = 0.02175930
#
# Stress axis : x y z
#
# Youngs Moduli (GPa) = 22.79226 60.30995 103.57400
#
# Poissons Ratio (x) = 1.09994 0.62494
# Poissons Ratio (y) = 0.41569 -0.00998
# Poissons Ratio (z) = 0.13752 -0.00581
#
# Static dielectric constant tensor:
#      x y z
#    x 3.439830 0.000000 0.000000 
#    y 0.000000 3.902220 0.000000 
#    z 0.000000 0.000000 4.090410 
# 
# 
# High freq. dielectric constant tensor:
#      x y z
#    x 1.786820 0.000000 0.000000 
#    y 0.000000 1.823840 0.000000 
#    z 0.000000 0.000000 1.839650 
# 
# From -- ./inp_files/1383.got.cif
#   From: 2010.03.12/outbox.cif.g09.slc.cpg/sg53_1_cif.got.tgz:1383.got - 2010.04.16 14:36:59.
