data_PCOD8220625
_publ_section_title
;
Structure prediction by ZEFSAII (Michael W. Deem and Ramdas Pophale) SiO2 
 PCOD8220625
Probable space group: P M N A
;
_chemical_formula_sum "Si O2"
_cell_formula_units_Z 52
_cell_length_a 27.880459
_cell_length_b 11.417562
_cell_length_c 8.852708
_cell_angle_alpha 90.000000
_cell_angle_beta 90.000000
_cell_angle_gamma 90.000000
_cell_volume 2818.054822
_symmetry_space_group_name_H-M "P M N A"
_symmetry_group_IT_number 53
_symmetry_cell_setting 'orthorhombic'
loop_
_space_group_symop_operation_xyz
x,y,z
1/2-x,-y,1/2+z
x,-y,-z
1/2-x,y,1/2-z
-x,-y,-z
1/2+x,y,1/2-z
-x,y,z
1/2+x,-y,1/2+z
loop_
_atom_site_type_symbol
_atom_site_label
_atom_site_fract_x
_atom_site_fract_y
_atom_site_fract_z
Si Si1 0.444953 0.670747 0.100592
Si Si2 0.138178 0.370235 0.041444
Si Si3 0.718166 0.897856 0.116587
Si Si4 0.944137 0.417937 0.273490
Si Si5 0.285091 0.803700 0.612250
Si Si6 0.646943 0.000000 0.500000
Si Si7 0.125304 0.811223 0.220026
O O1 0.500000 0.701563 0.118858
O O2 0.432649 0.554037 0.195564
O O3 0.417241 0.783601 0.164227
O O4 0.432096 0.654098 0.924910
O O5 0.089122 0.369837 0.139178
O O6 0.182396 0.312100 0.131999
O O7 0.154128 0.500000 0.000000
O O8 0.131153 0.299836 0.887554
O O9 0.750000 0.955276 0.250000
O O10 0.672261 0.831545 0.180195
O O11 0.752029 0.800033 0.037641
O O12 0.703242 0.000000 0.000000
O O13 0.000000 0.401985 0.227613
O O14 0.250000 0.815229 0.750000
O O15 0.319992 0.916142 0.601909
O O16 0.614112 0.925150 0.384091
#
# Coordination Sequence:
#
# PCOD8220625 Si02
#       7
#     8   8   8   8   8   4   8
#     4   9  19  38  61  88 118 150 196 243 291 351
#     4  11  22  38  55  87 125 150 189 240 295 358
#     4  12  21  38  61  86 113 151 203 250 288 333
#     4   9  19  37  62  87 114 153 196 240 287 349
#     4  11  23  39  57  84 113 157 199 244 287 341
#     4  10  20  36  59  82 118 142 207 244 276 338
#     4  11  22  37  60  89 117 154 194 245 293 342
#
# _framework density 18.452444
#
# number of rings (size 3 to 8) (size 9 to 14) (size 15 to 20)
#    0.000    1.538    5.385    2.308    2.154    0.923 
#    2.769    0.385    0.000    1.385    0.000    0.000 
#    0.000    0.000    0.000    0.000    0.000    0.000 
#
# Total GULP energy -644595.972333 kJ/mol
# GULP energy per Si atom -12396.076391 kJ/mol
# Density = 1.841045 g / cm^3
# Si number density = 18.452444 Si / 1000 Ang^3
#
#
#
# Elastic Constant Matrix: (Units=GPa)
#
#
# Indices 1 2 3 4 5 6 
#
# 1 108.4839 66.1428 66.2587 0.0000 0.0000 0.0000
# 2 66.1428 119.3377 58.0165 0.0000 0.0000 0.0000
# 3 66.2587 58.0165 109.5470 0.0000 0.0000 0.0000
# 4 0.0000 0.0000 0.0000 13.5769 0.0000 0.0000
# 5 0.0000 0.0000 0.0000 0.0000 32.9971 0.0000
# 6 0.0000 0.0000 0.0000 0.0000 0.0000 39.5968
#
#
#
# Elastic Compliance Matrix: (Units=1/GPa)
#
#
# Indices 1 2 3 4 5 6 
#
# 1 0.017383 -0.006092 -0.007288 0.000000 0.000000 0.000000
# 2 -0.006092 0.013420 -0.003423 0.000000 0.000000 0.000000
# 3 -0.007288 -0.003423 0.015349 0.000000 0.000000 0.000000
# 4 0.000000 0.000000 0.000000 0.073654 0.000000 0.000000
# 5 0.000000 0.000000 0.000000 0.000000 0.030306 0.000000
# 6 0.000000 0.000000 0.000000 0.000000 0.000000 0.025255
#
#
# Mechanical properties :
#
#
# Convention : Reuss Voigt Hill
#
# Bulk Modulus (GPa) = 79.69576 79.80053 79.74815
# Shear Modulus (GPa) = 23.45718 27.03086 25.24402
#
# Velocity S-wave (km/s) = 3.56929 3.83154 3.70274
# Velocity P-wave (km/s) = 7.76338 7.93188 7.84808
#
# Compressibility (1/GPa) = 0.01254772
#
# Stress axis : x y z
#
# Youngs Moduli (GPa) = 57.52636 74.51671 65.14943
#
# Poissons Ratio (x) = 0.45392 0.47481
# Poissons Ratio (y) = 0.35043 0.22299
# Poissons Ratio (z) = 0.41926 0.25505
#
# Static dielectric constant tensor:
#      x y z
#    x 3.520950 0.000000 0.000000 
#    y 0.000000 3.415430 0.000000 
#    z 0.000000 0.000000 3.104740 
# 
# 
# High freq. dielectric constant tensor:
#      x y z
#    x 1.704910 0.000000 0.000000 
#    y 0.000000 1.701630 0.000000 
#    z 0.000000 0.000000 1.729710 
# 
# From -- ./inp_files/13174.got.cif
#   From: 2010.03.12/outbox.cif.g09.slc.cpg/sg53_7_cif.got.tgz:13174.got - 2010.04.16 14:36:59.
