data_PCOD8220616
_publ_section_title
;
Structure prediction by ZEFSAII (Michael W. Deem and Ramdas Pophale) SiO2 
 PCOD8220616
Probable space group: P M N A
;
_chemical_formula_sum "Si O2"
_cell_formula_units_Z 40
_cell_length_a 19.343231
_cell_length_b 12.601060
_cell_length_c 8.300904
_cell_angle_alpha 90.000000
_cell_angle_beta 90.000000
_cell_angle_gamma 90.000000
_cell_volume 2023.305625
_symmetry_space_group_name_H-M "P M N A"
_symmetry_group_IT_number 53
_symmetry_cell_setting 'orthorhombic'
loop_
_space_group_symop_operation_xyz
x,y,z
1/2-x,-y,1/2+z
x,-y,-z
1/2-x,y,1/2-z
-x,-y,-z
1/2+x,y,1/2-z
-x,y,z
1/2+x,-y,1/2+z
loop_
_atom_site_type_symbol
_atom_site_label
_atom_site_fract_x
_atom_site_fract_y
_atom_site_fract_z
Si Si1 0.923035 0.797453 0.756611
Si Si2 0.322965 0.237866 0.687307
Si Si3 0.579376 0.884670 0.076404
Si Si4 0.080242 0.379041 0.991954
Si Si5 0.698241 0.898981 0.604252
O O1 0.913854 0.794137 0.563030
O O2 0.879073 0.896821 0.824345
O O3 0.000000 0.830342 0.803673
O O4 0.904515 0.683916 0.839656
O O5 0.250000 0.282215 0.750000
O O6 0.362064 0.144810 0.790332
O O7 0.378328 0.330615 0.659504
O O8 0.296811 0.198785 0.514938
O O9 0.500000 0.884032 0.144904
O O10 0.596402 0.000000 0.000000
O O11 0.000000 0.372070 0.946700
O O12 0.104991 0.500000 0.000000
O O13 0.750000 0.882896 0.750000
O O14 0.716778 0.000000 0.500000
#
# Coordination Sequence:
#
# PCOD8220616 Si02
#       5
#     8   8   8   8   8
#     4   9  19  35  56  82 109 140 183 234 283 330
#     4  11  22  35  54  82 116 148 185 231 284 344
#     4  10  20  36  58  85 118 152 188 231 279 336
#     4   9  19  39  62  80 104 145 195 242 287 335
#     4  11  22  35  53  77 111 152 189 223 269 333
#
# _framework density 19.769628999999998
#
# number of rings (size 3 to 8) (size 9 to 14) (size 15 to 20)
#    0.000    2.000    0.000    3.600    0.000    2.800 
#    0.000    7.000    0.000    4.800    0.000    0.000 
#    0.000    0.000    0.000    0.000    0.000    0.000 
#
# Total GULP energy -495522.120901 kJ/mol
# GULP energy per Si atom -12388.053023 kJ/mol
# Density = 1.972463 g / cm^3
# Si number density = 19.769629 Si / 1000 Ang^3
#
#
#
# Elastic Constant Matrix: (Units=GPa)
#
#
# Indices 1 2 3 4 5 6 
#
# 1 115.3903 55.6729 60.0808 0.0000 0.0000 0.0000
# 2 55.6729 101.6116 43.5559 0.0000 0.0000 0.0000
# 3 60.0808 43.5559 106.5398 0.0000 0.0000 0.0000
# 4 0.0000 0.0000 0.0000 22.7170 0.0000 0.0000
# 5 0.0000 0.0000 0.0000 0.0000 29.5718 0.0000
# 6 0.0000 0.0000 0.0000 0.0000 0.0000 26.6523
#
#
#
# Elastic Compliance Matrix: (Units=1/GPa)
#
#
# Indices 1 2 3 4 5 6 
#
# 1 0.014294 -0.005306 -0.005891 0.000000 0.000000 0.000000
# 2 -0.005306 0.013902 -0.002691 0.000000 0.000000 0.000000
# 3 -0.005891 -0.002691 0.013809 0.000000 0.000000 0.000000
# 4 0.000000 0.000000 0.000000 0.044020 0.000000 0.000000
# 5 0.000000 0.000000 0.000000 0.000000 0.033816 0.000000
# 6 0.000000 0.000000 0.000000 0.000000 0.000000 0.037520
#
#
# Mechanical properties :
#
#
# Convention : Reuss Voigt Hill
#
# Bulk Modulus (GPa) = 70.28825 71.35121 70.81973
# Shear Modulus (GPa) = 26.33227 26.73703 26.53465
#
# Velocity S-wave (km/s) = 3.65356 3.68153 3.66757
# Velocity P-wave (km/s) = 7.30950 7.36486 7.33723
#
# Compressibility (1/GPa) = 0.01422713
#
# Stress axis : x y z
#
# Youngs Moduli (GPa) = 69.95999 71.93070 72.41794
#
# Poissons Ratio (x) = 0.38168 0.42664
# Poissons Ratio (y) = 0.37122 0.19489
# Poissons Ratio (z) = 0.41216 0.19358
#
# Static dielectric constant tensor:
#      x y z
#    x 3.867340 0.000000 0.000000 
#    y 0.000000 3.810900 0.000000 
#    z 0.000000 0.000000 3.672590 
# 
# 
# High freq. dielectric constant tensor:
#      x y z
#    x 1.787640 0.000000 0.000000 
#    y 0.000000 1.735490 0.000000 
#    z 0.000000 0.000000 1.773120 
# 
# From -- ./inp_files/9620.got.cif
#   From: 2010.03.12/outbox.cif.g09.slc.cpg/sg53_5_cif.got.tgz:9620.got - 2010.04.16 14:36:59.
