data_PCOD8220190
_publ_section_title
;
Structure prediction by ZEFSAII (Michael W. Deem and Ramdas Pophale) SiO2 
 PCOD8220190
Probable space group: P M N A
;
_chemical_formula_sum "Si O2"
_cell_formula_units_Z 24
_cell_length_a 10.712397
_cell_length_b 7.547331
_cell_length_c 14.658627
_cell_angle_alpha 90.000000
_cell_angle_beta 90.000000
_cell_angle_gamma 90.000000
_cell_volume 1185.150080
_symmetry_space_group_name_H-M "P M N A"
_symmetry_group_IT_number 53
_symmetry_cell_setting 'orthorhombic'
loop_
_space_group_symop_operation_xyz
x,y,z
1/2-x,-y,1/2+z
x,-y,-z
1/2-x,y,1/2-z
-x,-y,-z
1/2+x,y,1/2-z
-x,y,z
1/2+x,-y,1/2+z
loop_
_atom_site_type_symbol
_atom_site_label
_atom_site_fract_x
_atom_site_fract_y
_atom_site_fract_z
Si Si1 0.361414 0.565914 0.810346
Si Si2 0.855221 0.142604 0.930633
Si Si3 0.746652 0.500000 0.000000
Si Si4 0.750000 0.771247 0.250000
O O1 0.250000 0.660550 0.750000
O O2 0.500000 0.645016 0.788966
O O3 0.363269 0.357477 0.782844
O O4 0.336697 0.581882 0.918719
O O5 0.833910 0.344839 0.961047
O O6 0.792449 0.104350 0.832875
O O7 0.000000 0.105417 0.920853
O O8 0.795468 0.000000 0.000000
#
# Coordination Sequence:
#
# PCOD8220190 Si02
#       4
#     8   8   4   4
#     4   9  18  32  56  83 112 151 189 232 286 341
#     4  10  20  36  58  83 114 153 193 236 286 344
#     4  10  20  34  58  84 113 144 193 236 289 342
#     4   8  18  32  56  78 116 144 192 234 288 332
#
# _framework density 20.250599999999999
#
# number of rings (size 3 to 8) (size 9 to 14) (size 15 to 20)
#    1.000    1.667    0.000    2.000    0.000    1.333 
#    3.000    0.000    0.000   34.000    0.000    0.000 
#    0.000    0.000    0.000    0.000    0.000    0.000 
#
# Total GULP energy -297336.168807 kJ/mol
# GULP energy per Si atom -12389.007034 kJ/mol
# Density = 2.020451 g / cm^3
# Si number density = 20.250600 Si / 1000 Ang^3
#
#
#
# Elastic Constant Matrix: (Units=GPa)
#
#
# Indices 1 2 3 4 5 6 
#
# 1 118.0752 5.7319 53.3189 0.0000 0.0000 0.0000
# 2 5.7319 52.8548 26.5812 0.0000 0.0000 0.0000
# 3 53.3189 26.5812 176.3469 0.0000 0.0000 0.0000
# 4 0.0000 0.0000 0.0000 32.5005 0.0000 0.0000
# 5 0.0000 0.0000 0.0000 0.0000 19.6268 0.0000
# 6 0.0000 0.0000 0.0000 0.0000 0.0000 10.4343
#
#
#
# Elastic Compliance Matrix: (Units=1/GPa)
#
#
# Indices 1 2 3 4 5 6 
#
# 1 0.009819 0.000463 -0.003039 0.000000 0.000000 0.000000
# 2 0.000463 0.020493 -0.003229 0.000000 0.000000 0.000000
# 3 -0.003039 -0.003229 0.007076 0.000000 0.000000 0.000000
# 4 0.000000 0.000000 0.000000 0.030769 0.000000 0.000000
# 5 0.000000 0.000000 0.000000 0.000000 0.050951 0.000000
# 6 0.000000 0.000000 0.000000 0.000000 0.000000 0.095838
#
#
# Mechanical properties :
#
#
# Convention : Reuss Voigt Hill
#
# Bulk Modulus (GPa) = 38.79037 57.61567 48.20302
# Shear Modulus (GPa) = 21.26326 29.95532 25.60929
#
# Velocity S-wave (km/s) = 3.24390 3.85025 3.56001
# Velocity P-wave (km/s) = 5.76431 6.94831 6.38382
#
# Compressibility (1/GPa) = 0.02577960
#
# Stress axis : x y z
#
# Youngs Moduli (GPa) = 101.84538 48.79608 141.32089
#
# Poissons Ratio (x) = -0.02261 0.42941
# Poissons Ratio (y) = -0.04719 0.45634
# Poissons Ratio (z) = 0.30946 0.15757
#
# Static dielectric constant tensor:
#      x y z
#    x 3.336630 0.000000 0.000000 
#    y 0.000000 3.187480 0.000000 
#    z 0.000000 0.000000 3.979170 
# 
# 
# High freq. dielectric constant tensor:
#      x y z
#    x 1.771680 0.000000 0.000000 
#    y 0.000000 1.740930 0.000000 
#    z 0.000000 0.000000 1.812600 
# 
# From -- ./inp_files/19369.got.cif
#   From: 2010.03.12/outbox.cif.g09.slc.cpg/sg53_10_cif.got.tgz:19369.got - 2010.04.16 14:36:59.
