data_PCOD8220888
_publ_section_title
;
Structure prediction by ZEFSAII (Michael W. Deem and Ramdas Pophale) SiO2 
 PCOD8220888
Probable space group: P M N A
;
_chemical_formula_sum "Si O2"
_cell_formula_units_Z 48
_cell_length_a 9.146884
_cell_length_b 29.225431
_cell_length_c 9.175960
_cell_angle_alpha 90.000000
_cell_angle_beta 90.000000
_cell_angle_gamma 90.000000
_cell_volume 2452.932558
_symmetry_space_group_name_H-M "P M N A"
_symmetry_group_IT_number 53
_symmetry_cell_setting 'orthorhombic'
loop_
_space_group_symop_operation_xyz
x,y,z
1/2-x,-y,1/2+z
x,-y,-z
1/2-x,y,1/2-z
-x,-y,-z
1/2+x,y,1/2-z
-x,y,z
1/2+x,-y,1/2+z
loop_
_atom_site_type_symbol
_atom_site_label
_atom_site_fract_x
_atom_site_fract_y
_atom_site_fract_z
Si Si1 0.500000 0.546097 0.586695
Si Si2 0.175160 0.300275 0.896977
Si Si3 0.821764 0.795651 0.403232
Si Si4 0.744210 0.612849 0.579657
Si Si5 0.500000 0.450136 0.070816
Si Si6 0.672701 0.130181 0.402071
Si Si7 0.831068 0.041579 0.902743
O O1 0.500000 0.500000 0.500000
O O2 0.629568 0.576142 0.530348
O O3 0.500000 0.538055 0.758955
O O4 0.250000 0.318413 0.750000
O O5 0.259106 0.254156 0.942916
O O6 0.000000 0.292097 0.880141
O O7 0.212223 0.337559 0.016688
O O8 0.750000 0.811684 0.250000
O O9 0.762890 0.827817 0.530849
O O10 0.000000 0.795986 0.394659
O O11 0.750000 0.621808 0.750000
O O12 0.878159 0.584732 0.518029
O O13 0.500000 0.500000 0.000000
O O14 0.750000 0.117852 0.250000
O O15 0.500000 0.141692 0.381192
O O16 0.693903 0.087903 0.509488
O O17 0.750000 0.044570 0.750000
O O18 0.000000 0.032781 0.867590
O O19 0.768090 0.000000 0.000000
#
# Coordination Sequence:
#
# PCOD8220888 Si02
#       7
#     4   8   8   8   4   8   8
#     4  10  20  38  58  82 116 150 190 236 289 342
#     4  11  23  40  62  90 120 154 198 247 298 357
#     4  11  23  41  64  90 122 159 202 253 308 368
#     4  10  22  39  59  84 117 154 190 237 293 351
#     4  10  22  36  58  86 114 150 194 238 287 352
#     4  11  23  40  62  91 127 165 211 261 311 371
#     4  10  22  39  61  91 126 167 213 262 316 372
#
# _framework density 19.568414000000001
#
# number of rings (size 3 to 8) (size 9 to 14) (size 15 to 20)
#    0.000    1.500    0.833    5.000    2.333    5.000 
#    0.000    1.667    0.000    0.000    0.000    0.000 
#    0.000    0.000    0.000    0.000    0.000    0.000 
#
# Total GULP energy -594680.038004 kJ/mol
# GULP energy per Si atom -12389.167458 kJ/mol
# Density = 1.952388 g / cm^3
# Si number density = 19.568414 Si / 1000 Ang^3
#
#
#
# Elastic Constant Matrix: (Units=GPa)
#
#
# Indices 1 2 3 4 5 6 
#
# 1 178.0522 58.6654 59.3962 0.0000 0.0000 0.0000
# 2 58.6654 101.4959 59.3516 0.0000 0.0000 0.0000
# 3 59.3962 59.3516 101.6619 0.0000 0.0000 0.0000
# 4 0.0000 0.0000 0.0000 43.0206 0.0000 0.0000
# 5 0.0000 0.0000 0.0000 0.0000 33.2849 0.0000
# 6 0.0000 0.0000 0.0000 0.0000 0.0000 32.0408
#
#
#
# Elastic Compliance Matrix: (Units=1/GPa)
#
#
# Indices 1 2 3 4 5 6 
#
# 1 0.007422 -0.002663 -0.002781 0.000000 0.000000 0.000000
# 2 -0.002663 0.015916 -0.007736 0.000000 0.000000 0.000000
# 3 -0.002781 -0.007736 0.015978 0.000000 0.000000 0.000000
# 4 0.000000 0.000000 0.000000 0.023245 0.000000 0.000000
# 5 0.000000 0.000000 0.000000 0.000000 0.030044 0.000000
# 6 0.000000 0.000000 0.000000 0.000000 0.000000 0.031210
#
#
# Mechanical properties :
#
#
# Convention : Reuss Voigt Hill
#
# Bulk Modulus (GPa) = 77.19382 81.78182 79.48782
# Shear Modulus (GPa) = 32.36410 35.25572 33.80991
#
# Velocity S-wave (km/s) = 4.07122 4.24921 4.16117
# Velocity P-wave (km/s) = 7.85071 8.12144 7.98722
#
# Compressibility (1/GPa) = 0.01295440
#
# Stress axis : x y z
#
# Youngs Moduli (GPa) = 134.74075 62.83118 62.58756
#
# Poissons Ratio (x) = 0.16735 0.17407
# Poissons Ratio (y) = 0.35887 0.48416
# Poissons Ratio (z) = 0.37474 0.48604
#
# Static dielectric constant tensor:
#      x y z
#    x 3.932870 0.000000 0.000000 
#    y 0.000000 3.629770 0.000000 
#    z 0.000000 0.000000 3.483950 
# 
# 
# High freq. dielectric constant tensor:
#      x y z
#    x 1.783900 0.000000 0.000000 
#    y 0.000000 1.777930 0.000000 
#    z 0.000000 0.000000 1.759220 
# 
# From -- ./inp_files/6857.got.cif
#   From: 2010.03.12/outbox.cif.g09.slc.cpg/sg53_4_cif.got.tgz:6857.got - 2010.04.16 14:36:59.
