data_PCOD8220817
_publ_section_title
;
Structure prediction by ZEFSAII (Michael W. Deem and Ramdas Pophale) SiO2 
 PCOD8220817
Probable space group: P M N A
;
_chemical_formula_sum "Si O2"
_cell_formula_units_Z 56
_cell_length_a 9.022582
_cell_length_b 21.145998
_cell_length_c 15.455128
_cell_angle_alpha 90.000000
_cell_angle_beta 90.000000
_cell_angle_gamma 90.000000
_cell_volume 2948.707068
_symmetry_space_group_name_H-M "P M N A"
_symmetry_group_IT_number 53
_symmetry_cell_setting 'orthorhombic'
loop_
_space_group_symop_operation_xyz
x,y,z
1/2-x,-y,1/2+z
x,-y,-z
1/2-x,y,1/2-z
-x,-y,-z
1/2+x,y,1/2-z
-x,y,z
1/2+x,-y,1/2+z
loop_
_atom_site_type_symbol
_atom_site_label
_atom_site_fract_x
_atom_site_fract_y
_atom_site_fract_z
Si Si1 0.826830 0.363331 0.161190
Si Si2 0.174116 0.075492 0.337528
Si Si3 0.328234 0.496813 0.599494
Si Si4 0.174699 0.294465 0.496728
Si Si5 0.174245 0.930336 0.337587
Si Si6 0.175607 0.149981 0.502548
Si Si7 0.325354 0.625327 0.163362
O O1 0.750000 0.342318 0.250000
O O2 0.795168 0.436761 0.144332
O O3 0.760232 0.322599 0.084122
O O4 0.000000 0.348932 0.167543
O O5 0.250000 0.099535 0.250000
O O6 0.238028 0.118159 0.415223
O O7 0.000000 0.084270 0.326242
O O8 0.215565 0.002918 0.357555
O O9 0.278335 0.500000 0.500000
O O10 0.500000 0.477081 0.606721
O O11 0.228762 0.445976 0.648421
O O12 0.226068 0.222358 0.508036
O O13 0.222981 0.331196 0.583146
O O14 0.000000 0.300569 0.479879
O O15 0.250000 0.906510 0.250000
O O16 0.239166 0.887696 0.415011
O O17 0.000000 0.921362 0.326830
O O18 0.000000 0.143452 0.502627
O O19 0.250000 0.652918 0.250000
O O20 0.500000 0.625115 0.176723
#
# Coordination Sequence:
#
# PCOD8220817 Si02
#       7
#     8   8   8   8   8   8   8
#     4  11  23  39  60  83 110 142 178 222 271 324
#     4   9  17  31  53  79 106 137 174 219 266 314
#     4  10  20  37  61  86 111 138 173 222 276 324
#     4  10  22  39  56  78 108 145 186 226 267 317
#     4   9  17  31  53  80 107 137 175 218 266 314
#     4   9  18  34  55  76 104 142 182 218 259 316
#     4  11  23  37  57  82 110 144 182 224 272 325
#
# _framework density 18.991374
#
# number of rings (size 3 to 8) (size 9 to 14) (size 15 to 20)
#    0.000    2.143    1.429    1.714    0.000    6.000 
#    0.000    3.571    0.000    3.429    0.000    0.000 
#    0.000    0.000    0.000    0.000    0.000    0.000 
#
# Total GULP energy -694603.104976 kJ/mol
# GULP energy per Si atom -12403.626875 kJ/mol
# Density = 1.894815 g / cm^3
# Si number density = 18.991374 Si / 1000 Ang^3
#
#
#
# Elastic Constant Matrix: (Units=GPa)
#
#
# Indices 1 2 3 4 5 6 
#
# 1 39.0800 30.1785 43.9464 0.0000 0.0000 0.0000
# 2 30.1785 108.5817 72.5411 0.0000 0.0000 0.0000
# 3 43.9464 72.5411 173.2846 0.0000 0.0000 0.0000
# 4 0.0000 0.0000 0.0000 -2.1503 0.0000 0.0000
# 5 0.0000 0.0000 0.0000 0.0000 35.5242 0.0000
# 6 0.0000 0.0000 0.0000 0.0000 0.0000 15.5522
#
#
#
# Elastic Compliance Matrix: (Units=1/GPa)
#
#
# Indices 1 2 3 4 5 6 
#
# 1 0.038226 -0.005758 -0.007284 0.000000 0.000000 0.000000
# 2 -0.005758 0.013653 -0.004255 0.000000 0.000000 0.000000
# 3 -0.007284 -0.004255 0.009399 0.000000 0.000000 0.000000
# 4 0.000000 0.000000 0.000000 -0.465049 0.000000 0.000000
# 5 0.000000 0.000000 0.000000 0.000000 0.028150 0.000000
# 6 0.000000 0.000000 0.000000 0.000000 0.000000 0.064300
#
#
# Mechanical properties :
#
#
# Convention : Reuss Voigt Hill
#
# Bulk Modulus (GPa) = 37.47563 68.25314 52.86439
# Shear Modulus (GPa) = -18.66839 21.40392 1.36776
#
# Velocity S-wave (km/s) = -3.13867 3.36077 0.84957
# Velocity P-wave (km/s) = 2.57697 7.14680 5.37204
#
# Compressibility (1/GPa) = 0.02668400
#
# Stress axis : x y z
#
# Youngs Moduli (GPa) = 26.16018 73.24549 106.38964
#
# Poissons Ratio (x) = 0.42175 0.77494
# Poissons Ratio (y) = 0.15063 0.45270
# Poissons Ratio (z) = 0.19055 0.31167
#
# Static dielectric constant tensor:
#      x y z
#    x 3.280160 0.000000 0.000000 
#    y 0.000000 3.503220 0.000000 
#    z 0.000000 0.000000 3.727880 
# 
# 
# High freq. dielectric constant tensor:
#      x y z
#    x 1.719230 0.000000 0.000000 
#    y 0.000000 1.733990 0.000000 
#    z 0.000000 0.000000 1.756320 
# 
# From -- ./inp_files/20444.got.cif
#   From: 2010.03.12/outbox.cif.g09.slc.cpg/sg53_11_cif.got.tgz:20444.got - 2010.04.16 14:36:59.
