data_PCOD8220732
_publ_section_title
;
Structure prediction by ZEFSAII (Michael W. Deem and Ramdas Pophale) SiO2 
 PCOD8220732
Probable space group: P M N A
;
_chemical_formula_sum "Si O2"
_cell_formula_units_Z 48
_cell_length_a 9.948824
_cell_length_b 27.450347
_cell_length_c 8.792803
_cell_angle_alpha 90.000000
_cell_angle_beta 90.000000
_cell_angle_gamma 90.000000
_cell_volume 2401.302814
_symmetry_space_group_name_H-M "P M N A"
_symmetry_group_IT_number 53
_symmetry_cell_setting 'orthorhombic'
loop_
_space_group_symop_operation_xyz
x,y,z
1/2-x,-y,1/2+z
x,-y,-z
1/2-x,y,1/2-z
-x,-y,-z
1/2+x,y,1/2-z
-x,y,z
1/2+x,-y,1/2+z
loop_
_atom_site_type_symbol
_atom_site_label
_atom_site_fract_x
_atom_site_fract_y
_atom_site_fract_z
Si Si1 0.000000 0.302819 0.371798
Si Si2 0.000000 0.404247 0.525447
Si Si3 0.500000 0.380402 0.623234
Si Si4 0.844552 0.953646 0.604425
Si Si5 0.500000 0.720953 0.524408
Si Si6 0.230376 0.230602 0.424784
Si Si7 0.346272 0.863625 0.105792
Si Si8 0.769478 0.451012 0.925787
O O1 0.000000 0.359007 0.412999
O O2 0.867435 0.276939 0.436703
O O3 0.000000 0.301642 0.190957
O O4 0.870036 0.437200 0.492471
O O5 0.000000 0.385050 0.696525
O O6 0.500000 0.323044 0.594101
O O7 0.630012 0.405906 0.550019
O O8 0.750000 0.956890 0.750000
O O9 0.804045 0.906161 0.509072
O O10 0.000000 0.951523 0.657393
O O11 0.816929 0.000000 0.500000
O O12 0.370850 0.754906 0.497408
O O13 0.250000 0.214180 0.250000
O O14 0.166131 0.186928 0.517639
O O15 0.250000 0.865405 0.250000
O O16 0.500000 0.870432 0.160741
O O17 0.750000 0.462438 0.750000
O O18 0.828745 0.500000 0.000000
#
# Coordination Sequence:
#
# PCOD8220732 Si02
#       8
#     4   4   4   8   4   8   8   8
#     4  10  20  37  57  82 112 149 188 240 287 344
#     4  10  21  35  55  76 110 143 179 222 285 342
#     4  10  21  37  53  80 108 141 179 230 279 344
#     4  10  22  41  65  94 129 167 210 260 312 365
#     4  10  22  35  59  86 110 145 198 232 291 350
#     4  10  21  39  59  83 116 154 194 247 296 354
#     4  11  24  40  60  90 124 161 206 254 302 361
#     4  10  21  36  54  78 106 140 179 224 278 337
#
# _framework density 19.989148
#
# number of rings (size 3 to 8) (size 9 to 14) (size 15 to 20)
#    0.000    1.833    0.833    2.500    1.167    3.667 
#    0.000    0.000    0.000    0.000    0.000    0.000 
#    0.000    0.000    0.000    0.000    0.000    0.000 
#
# Total GULP energy -595439.138441 kJ/mol
# GULP energy per Si atom -12404.982051 kJ/mol
# Density = 1.994365 g / cm^3
# Si number density = 19.989148 Si / 1000 Ang^3
#
#
#
# Elastic Constant Matrix: (Units=GPa)
#
#
# Indices 1 2 3 4 5 6 
#
# 1 96.4687 7.4994 31.1272 0.0000 0.0000 0.0000
# 2 7.4994 86.7785 31.3091 0.0000 0.0000 0.0000
# 3 31.1272 31.3091 67.1723 0.0000 0.0000 0.0000
# 4 0.0000 0.0000 0.0000 31.9202 0.0000 0.0000
# 5 0.0000 0.0000 0.0000 0.0000 27.2488 0.0000
# 6 0.0000 0.0000 0.0000 0.0000 0.0000 23.2108
#
#
#
# Elastic Compliance Matrix: (Units=1/GPa)
#
#
# Indices 1 2 3 4 5 6 
#
# 1 0.012290 0.001193 -0.006252 0.000000 0.000000 0.000000
# 2 0.001193 0.013969 -0.007064 0.000000 0.000000 0.000000
# 3 -0.006252 -0.007064 0.021077 0.000000 0.000000 0.000000
# 4 0.000000 0.000000 0.000000 0.031328 0.000000 0.000000
# 5 0.000000 0.000000 0.000000 0.000000 0.036699 0.000000
# 6 0.000000 0.000000 0.000000 0.000000 0.000000 0.043083
#
#
# Mechanical properties :
#
#
# Convention : Reuss Voigt Hill
#
# Bulk Modulus (GPa) = 43.30552 43.36563 43.33558
# Shear Modulus (GPa) = 26.26213 28.50820 27.38517
#
# Velocity S-wave (km/s) = 3.62860 3.78058 3.70537
# Velocity P-wave (km/s) = 6.26635 6.38739 6.32716
#
# Compressibility (1/GPa) = 0.02309175
#
# Stress axis : x y z
#
# Youngs Moduli (GPa) = 81.36399 71.58649 47.44606
#
# Poissons Ratio (x) = -0.08543 0.29661
# Poissons Ratio (y) = -0.09710 0.33516
# Poissons Ratio (z) = 0.50865 0.50569
#
# Static dielectric constant tensor:
#      x y z
#    x 3.880180 0.000000 0.000000 
#    y 0.000000 3.605210 0.000000 
#    z 0.000000 0.000000 3.430370 
# 
# 
# High freq. dielectric constant tensor:
#      x y z
#    x 1.794680 0.000000 0.000000 
#    y 0.000000 1.788730 0.000000 
#    z 0.000000 0.000000 1.768550 
# 
# From -- ./inp_files/6869.got.cif
#   From: 2010.03.12/outbox.cif.g09.slc.cpg/sg53_4_cif.got.tgz:6869.got - 2010.04.16 14:36:59.
