data_PCOD8220550
_publ_section_title
;
Structure prediction by ZEFSAII (Michael W. Deem and Ramdas Pophale) SiO2 
 PCOD8220550
Probable space group: P M N A
;
_chemical_formula_sum "Si O2"
_cell_formula_units_Z 64
_cell_length_a 16.009638
_cell_length_b 21.978537
_cell_length_c 8.919084
_cell_angle_alpha 90.000000
_cell_angle_beta 90.000000
_cell_angle_gamma 90.000000
_cell_volume 3138.344005
_symmetry_space_group_name_H-M "P M N A"
_symmetry_group_IT_number 53
_symmetry_cell_setting 'orthorhombic'
loop_
_space_group_symop_operation_xyz
x,y,z
1/2-x,-y,1/2+z
x,-y,-z
1/2-x,y,1/2-z
-x,-y,-z
1/2+x,y,1/2-z
-x,y,z
1/2+x,-y,1/2+z
loop_
_atom_site_type_symbol
_atom_site_label
_atom_site_fract_x
_atom_site_fract_y
_atom_site_fract_z
Si Si1 0.093230 0.566788 0.565918
Si Si2 0.221881 0.939233 0.418581
Si Si3 0.842575 0.155357 0.000405
Si Si4 0.407720 0.844232 0.186748
Si Si5 0.249970 0.377161 0.584953
Si Si6 0.197753 0.245887 0.541590
Si Si7 0.595400 0.753398 0.742615
Si Si8 0.906287 0.380207 0.114240
O O1 0.107063 0.500000 0.500000
O O2 0.164298 0.607936 0.497626
O O3 0.102528 0.573765 0.745148
O O4 0.000000 0.590068 0.520667
O O5 0.250000 0.954084 0.250000
O O6 0.297657 0.910607 0.521029
O O7 0.144669 0.893013 0.408226
O O8 0.191033 0.000000 0.500000
O O9 0.885532 0.185804 0.145379
O O10 0.908713 0.147487 0.866190
O O11 0.768653 0.196455 0.939833
O O12 0.500000 0.851910 0.124552
O O13 0.377004 0.775412 0.150047
O O14 0.250000 0.407082 0.750000
O O15 0.245074 0.305227 0.597950
O O16 0.334187 0.399885 0.502219
O O17 0.162871 0.250520 0.373325
O O18 0.500000 0.757741 0.801425
O O19 0.607477 0.690863 0.651388
O O20 0.000000 0.388404 0.045517
#
# Coordination Sequence:
#
# PCOD8220550 Si02
#       8
#     8   8   8   8   8   8   8   8
#     4  10  23  44  68  93 125 167 217 271 322 377
#     4   9  20  37  58  82 113 158 209 253 308 371
#     4  10  20  36  57  82 118 156 199 247 306 373
#     4  10  21  37  56  82 120 158 198 255 313 371
#     4  12  24  38  62  93 130 170 214 260 319 386
#     4  11  21  35  53  85 120 155 197 251 304 376
#     4  11  21  34  57  88 119 155 199 253 316 373
#     4  10  22  41  64  93 128 170 214 264 327 388
#
# _framework density 20.392921000000001
#
# number of rings (size 3 to 8) (size 9 to 14) (size 15 to 20)
#    0.000    1.625    2.500    3.375    0.000    4.250 
#    0.000    0.000    0.000   13.500    0.000    0.000 
#    0.000    0.000    0.000    0.000    0.000    0.000 
#
# Total GULP energy -793080.803500 kJ/mol
# GULP energy per Si atom -12391.887555 kJ/mol
# Density = 2.034651 g / cm^3
# Si number density = 20.392921 Si / 1000 Ang^3
#
#
#
# Elastic Constant Matrix: (Units=GPa)
#
#
# Indices 1 2 3 4 5 6 
#
# 1 119.5290 23.3997 39.9135 0.0000 0.0000 0.0000
# 2 23.3997 63.4654 22.9059 0.0000 0.0000 0.0000
# 3 39.9135 22.9059 80.7125 0.0000 0.0000 0.0000
# 4 0.0000 0.0000 0.0000 28.6389 0.0000 0.0000
# 5 0.0000 0.0000 0.0000 0.0000 14.1177 0.0000
# 6 0.0000 0.0000 0.0000 0.0000 0.0000 13.3573
#
#
#
# Elastic Compliance Matrix: (Units=1/GPa)
#
#
# Indices 1 2 3 4 5 6 
#
# 1 0.010285 -0.002180 -0.004467 0.000000 0.000000 0.000000
# 2 -0.002180 0.018017 -0.004035 0.000000 0.000000 0.000000
# 3 -0.004467 -0.004035 0.015744 0.000000 0.000000 0.000000
# 4 0.000000 0.000000 0.000000 0.034918 0.000000 0.000000
# 5 0.000000 0.000000 0.000000 0.000000 0.070833 0.000000
# 6 0.000000 0.000000 0.000000 0.000000 0.000000 0.074866
#
#
# Mechanical properties :
#
#
# Convention : Reuss Voigt Hill
#
# Bulk Modulus (GPa) = 44.08982 48.46055 46.27518
# Shear Modulus (GPa) = 19.71717 23.05528 21.38623
#
# Velocity S-wave (km/s) = 3.11282 3.36602 3.24189
# Velocity P-wave (km/s) = 5.88104 6.23873 6.06252
#
# Compressibility (1/GPa) = 0.02268097
#
# Stress axis : x y z
#
# Youngs Moduli (GPa) = 97.23269 55.50430 63.51629
#
# Poissons Ratio (x) = 0.12098 0.28375
# Poissons Ratio (y) = 0.21193 0.25630
# Poissons Ratio (z) = 0.43437 0.22397
#
# Static dielectric constant tensor:
#      x y z
#    x 3.849060 0.000000 0.000000 
#    y 0.000000 3.798460 0.000000 
#    z 0.000000 0.000000 3.579210 
# 
# 
# High freq. dielectric constant tensor:
#      x y z
#    x 1.808470 0.000000 0.000000 
#    y 0.000000 1.780950 0.000000 
#    z 0.000000 0.000000 1.786810 
# 
# From -- ./inp_files/8920.got.cif
#   From: 2010.03.12/outbox.cif.g09.slc.cpg/sg53_5_cif.got.tgz:8920.got - 2010.04.16 14:36:59.
