data_PCOD8220005
_publ_section_title
;
Structure prediction by ZEFSAII (Michael W. Deem and Ramdas Pophale) SiO2 
 PCOD8220005
Probable space group: P M N A
;
_chemical_formula_sum "Si O2"
_cell_formula_units_Z 52
_cell_length_a 14.725444
_cell_length_b 20.221618
_cell_length_c 8.620481
_cell_angle_alpha 90.000000
_cell_angle_beta 90.000000
_cell_angle_gamma 90.000000
_cell_volume 2566.940484
_symmetry_space_group_name_H-M "P M N A"
_symmetry_group_IT_number 53
_symmetry_cell_setting 'orthorhombic'
loop_
_space_group_symop_operation_xyz
x,y,z
1/2-x,-y,1/2+z
x,-y,-z
1/2-x,y,1/2-z
-x,-y,-z
1/2+x,y,1/2-z
-x,y,z
1/2+x,-y,1/2+z
loop_
_atom_site_type_symbol
_atom_site_label
_atom_site_fract_x
_atom_site_fract_y
_atom_site_fract_z
Si Si1 0.750000 0.861466 0.750000
Si Si2 0.231666 0.431913 0.569048
Si Si3 0.598914 0.641105 0.484472
Si Si4 0.101843 0.680037 0.372419
Si Si5 0.100163 0.787278 0.944781
Si Si6 0.898930 0.075982 0.464959
Si Si7 0.647785 0.820492 0.215110
O O1 0.685990 0.818674 0.639406
O O2 0.681722 0.905448 0.849362
O O3 0.192854 0.500000 0.500000
O O4 0.250000 0.441114 0.750000
O O5 0.324588 0.413182 0.477584
O O6 0.161073 0.372895 0.532109
O O7 0.500000 0.610786 0.524637
O O8 0.604920 0.658942 0.304672
O O9 0.614359 0.708903 0.577275
O O10 0.143584 0.753665 0.389888
O O11 0.000000 0.679775 0.439822
O O12 0.000000 0.806429 0.875784
O O13 0.095164 0.808997 0.124582
O O14 0.896501 0.119240 0.621778
O O15 0.000000 0.085415 0.391453
O O16 0.881964 0.000000 0.500000
O O17 0.750000 0.839980 0.250000
#
# Coordination Sequence:
#
# PCOD8220005 Si02
#       7
#     4   8   8   8   8   8   8
#     4  12  24  38  62  90 126 162 192 244 314 368
#     4  10  20  34  52  78 111 150 188 234 284 347
#     4   8  16  33  55  79 107 142 190 240 287 341
#     4   9  17  31  57  85 109 142 189 243 290 338
#     4  10  20  37  62  92 119 151 200 256 303 351
#     4  11  26  44  61  88 127 165 202 249 301 358
#     4  11  19  38  67  91 112 151 210 255 292 351
#
# _framework density 20.257580000000001
#
# number of rings (size 3 to 8) (size 9 to 14) (size 15 to 20)
#    0.000    2.000    1.538    5.077    1.077    0.615 
#    1.385    0.000    0.000    3.692    0.000    0.000 
#    0.000    0.000    0.000    0.000    0.000    0.000 
#
# Total GULP energy -644548.535916 kJ/mol
# GULP energy per Si atom -12395.164152 kJ/mol
# Density = 2.021147 g / cm^3
# Si number density = 20.257580 Si / 1000 Ang^3
#
#
#
# Elastic Constant Matrix: (Units=GPa)
#
#
# Indices 1 2 3 4 5 6 
#
# 1 161.5997 60.7303 34.5507 0.0000 0.0000 0.0000
# 2 60.7303 138.7960 38.1001 0.0000 0.0000 0.0000
# 3 34.5507 38.1001 47.9958 0.0000 0.0000 0.0000
# 4 0.0000 0.0000 0.0000 17.4454 0.0000 0.0000
# 5 0.0000 0.0000 0.0000 0.0000 -19.3912 0.0000
# 6 0.0000 0.0000 0.0000 0.0000 0.0000 22.4516
#
#
#
# Elastic Compliance Matrix: (Units=1/GPa)
#
#
# Indices 1 2 3 4 5 6 
#
# 1 0.007904 -0.002425 -0.003765 0.000000 0.000000 0.000000
# 2 -0.002425 0.009956 -0.006158 0.000000 0.000000 0.000000
# 3 -0.003765 -0.006158 0.028434 0.000000 0.000000 0.000000
# 4 0.000000 0.000000 0.000000 0.057322 0.000000 0.000000
# 5 0.000000 0.000000 0.000000 0.000000 -0.051570 0.000000
# 6 0.000000 0.000000 0.000000 0.000000 0.000000 0.044540
#
#
# Mechanical properties :
#
#
# Convention : Reuss Voigt Hill
#
# Bulk Modulus (GPa) = 46.29941 68.35041 57.32491
# Shear Modulus (GPa) = 38.91595 18.43518 28.67557
#
# Velocity S-wave (km/s) = 4.38774 3.01996 3.76646
# Velocity P-wave (km/s) = 6.96955 6.78042 6.87564
#
# Compressibility (1/GPa) = 0.02159855
#
# Stress axis : x y z
#
# Youngs Moduli (GPa) = 126.51041 100.43950 35.16956
#
# Poissons Ratio (x) = 0.24357 0.13242
# Poissons Ratio (y) = 0.30680 0.21657
# Poissons Ratio (z) = 0.47633 0.61848
#
# Static dielectric constant tensor:
#      x y z
#    x 4.072120 0.000000 0.000000 
#    y 0.000000 3.648690 0.000000 
#    z 0.000000 0.000000 3.307180 
# 
# 
# High freq. dielectric constant tensor:
#      x y z
#    x 1.816040 0.000000 0.000000 
#    y 0.000000 1.784790 0.000000 
#    z 0.000000 0.000000 1.750570 
# 
# From -- ./inp_files/8810.got.cif
#   From: 2010.03.12/outbox.cif.g09.slc.cpg/sg53_5_cif.got.tgz:8810.got - 2010.04.16 14:36:59.
