data_PCOD8220663
_publ_section_title
;
Structure prediction by ZEFSAII (Michael W. Deem and Ramdas Pophale) SiO2 
 PCOD8220663
Probable space group: P M N A
;
_chemical_formula_sum "Si O2"
_cell_formula_units_Z 56
_cell_length_a 8.566969
_cell_length_b 16.371186
_cell_length_c 19.743448
_cell_angle_alpha 90.000000
_cell_angle_beta 90.000000
_cell_angle_gamma 90.000000
_cell_volume 2769.047071
_symmetry_space_group_name_H-M "P M N A"
_symmetry_group_IT_number 53
_symmetry_cell_setting 'orthorhombic'
loop_
_space_group_symop_operation_xyz
x,y,z
1/2-x,-y,1/2+z
x,-y,-z
1/2-x,y,1/2-z
-x,-y,-z
1/2+x,y,1/2-z
-x,y,z
1/2+x,-y,1/2+z
loop_
_atom_site_type_symbol
_atom_site_label
_atom_site_fract_x
_atom_site_fract_y
_atom_site_fract_z
Si Si1 0.682200 0.325608 0.572965
Si Si2 0.817699 0.062824 0.054244
Si Si3 0.184035 0.368655 0.174213
Si Si4 0.682347 0.493927 0.922580
Si Si5 0.321459 0.981321 0.179566
Si Si6 0.314836 0.244617 0.436140
Si Si7 0.321348 0.789197 0.178977
O O1 0.500000 0.346690 0.574077
O O2 0.779718 0.402122 0.601151
O O3 0.739971 0.302964 0.497350
O O4 0.716865 0.248851 0.620296
O O5 0.788738 0.026234 0.127213
O O6 0.742179 0.153976 0.052821
O O7 0.000000 0.069881 0.038867
O O8 0.739880 0.000000 0.000000
O O9 0.250000 0.370789 0.250000
O O10 0.233398 0.446171 0.129601
O O11 0.240786 0.286539 0.134435
O O12 0.000000 0.370170 0.180545
O O13 0.500000 0.512573 0.919196
O O14 0.745949 0.500000 0.000000
O O15 0.250000 0.009293 0.250000
O O16 0.500000 0.010483 0.173067
O O17 0.307169 0.885283 0.169257
O O18 0.500000 0.236876 0.436449
O O19 0.250000 0.760647 0.250000
O O20 0.500000 0.759737 0.174454
#
# Coordination Sequence:
#
# PCOD8220663 Si02
#       7
#     8   8   8   8   8   8   8
#     4  11  21  37  63  90 118 155 197 239 293 355
#     4  10  20  36  59  87 121 157 200 249 298 355
#     4  11  23  42  64  89 123 160 205 252 302 358
#     4  11  23  40  63  91 122 155 196 242 296 356
#     4  10  21  37  57  81 113 154 198 245 298 356
#     4   9  20  37  59  87 119 158 199 243 298 356
#     4  10  21  37  56  83 118 154 195 245 299 353
#
# _framework density 20.223565000000001
#
# number of rings (size 3 to 8) (size 9 to 14) (size 15 to 20)
#    0.000    1.714    1.429    3.000    0.000    4.857 
#    0.000    7.143    0.000    0.000    0.000    0.000 
#    0.000    0.000    0.000    0.000    0.000    0.000 
#
# Total GULP energy -694396.422857 kJ/mol
# GULP energy per Si atom -12399.936122 kJ/mol
# Density = 2.017753 g / cm^3
# Si number density = 20.223565 Si / 1000 Ang^3
#
#
#
# Elastic Constant Matrix: (Units=GPa)
#
#
# Indices 1 2 3 4 5 6 
#
# 1 46.2324 25.1072 24.7524 0.0000 0.0000 0.0000
# 2 25.1072 107.2389 79.1300 0.0000 0.0000 0.0000
# 3 24.7524 79.1300 139.7898 0.0000 0.0000 0.0000
# 4 0.0000 0.0000 0.0000 25.9467 0.0000 0.0000
# 5 0.0000 0.0000 0.0000 0.0000 29.9053 0.0000
# 6 0.0000 0.0000 0.0000 0.0000 0.0000 20.5492
#
#
#
# Elastic Compliance Matrix: (Units=1/GPa)
#
#
# Indices 1 2 3 4 5 6 
#
# 1 0.025077 -0.004456 -0.001918 0.000000 0.000000 0.000000
# 2 -0.004456 0.016806 -0.008724 0.000000 0.000000 0.000000
# 3 -0.001918 -0.008724 0.012432 0.000000 0.000000 0.000000
# 4 0.000000 0.000000 0.000000 0.038541 0.000000 0.000000
# 5 0.000000 0.000000 0.000000 0.000000 0.033439 0.000000
# 6 0.000000 0.000000 0.000000 0.000000 0.000000 0.048664
#
#
# Mechanical properties :
#
#
# Convention : Reuss Voigt Hill
#
# Bulk Modulus (GPa) = 41.46278 61.24893 51.35585
# Shear Modulus (GPa) = 23.45309 26.23168 24.84238
#
# Velocity S-wave (km/s) = 3.40912 3.60541 3.50864
# Velocity P-wave (km/s) = 6.00357 6.90534 6.47018
#
# Compressibility (1/GPa) = 0.02411802
#
# Stress axis : x y z
#
# Youngs Moduli (GPa) = 39.87793 59.50426 80.44021
#
# Poissons Ratio (x) = 0.26514 0.15429
# Poissons Ratio (y) = 0.17769 0.70176
# Poissons Ratio (z) = 0.07649 0.51912
#
# Static dielectric constant tensor:
#      x y z
#    x 3.499460 0.000000 0.000000 
#    y 0.000000 3.833400 0.000000 
#    z 0.000000 0.000000 3.710560 
# 
# 
# High freq. dielectric constant tensor:
#      x y z
#    x 1.777120 0.000000 0.000000 
#    y 0.000000 1.796230 0.000000 
#    z 0.000000 0.000000 1.796030 
# 
# From -- ./inp_files/30764.got.cif
#   From: 2010.03.12/outbox.cif.g09.slc.cpg/sg53_16_cif.got.tgz:30764.got - 2010.04.16 14:36:59.
