data_PCOD8220890
_publ_section_title
;
Structure prediction by ZEFSAII (Michael W. Deem and Ramdas Pophale) SiO2 
 PCOD8220890
Probable space group: P M N A
;
_chemical_formula_sum "Si O2"
_cell_formula_units_Z 32
_cell_length_a 7.670968
_cell_length_b 13.771303
_cell_length_c 15.337321
_cell_angle_alpha 90.000000
_cell_angle_beta 90.000000
_cell_angle_gamma 90.000000
_cell_volume 1620.222698
_symmetry_space_group_name_H-M "P M N A"
_symmetry_group_IT_number 53
_symmetry_cell_setting 'orthorhombic'
loop_
_space_group_symop_operation_xyz
x,y,z
1/2-x,-y,1/2+z
x,-y,-z
1/2-x,y,1/2-z
-x,-y,-z
1/2+x,y,1/2-z
-x,y,z
1/2+x,-y,1/2+z
loop_
_atom_site_type_symbol
_atom_site_label
_atom_site_fract_x
_atom_site_fract_y
_atom_site_fract_z
Si Si1 0.206867 0.249104 0.154812
Si Si2 0.694975 0.105099 0.491219
Si Si3 0.500000 0.392907 0.106589
Si Si4 0.689902 0.787105 0.152624
Si Si5 0.500000 0.612080 0.100070
O O1 0.250000 0.205486 0.250000
O O2 0.280325 0.172106 0.083655
O O3 0.322479 0.346012 0.143771
O O4 0.000000 0.272329 0.143174
O O5 0.500000 0.084824 0.458669
O O6 0.685494 0.161574 0.583149
O O7 0.790613 0.000000 0.500000
O O8 0.500000 0.504371 0.138995
O O9 0.500000 0.387805 0.003393
O O10 0.750000 0.806470 0.250000
O O11 0.500000 0.836135 0.140080
O O12 0.672452 0.670933 0.133566
#
# Coordination Sequence:
#
# PCOD8220890 Si02
#       5
#     8   8   4   8   4
#     4  11  22  39  63  88 125 162 198 253 303 354
#     4  10  22  40  61  87 118 155 203 250 300 361
#     4  11  20  44  62  91 124 155 211 246 299 367
#     4  10  20  38  58  86 118 159 192 242 299 350
#     4   9  22  38  64  85 122 159 195 254 295 353
#
# _framework density 19.750371000000001
#
# number of rings (size 3 to 8) (size 9 to 14) (size 15 to 20)
#    0.750    1.000    3.750    0.750    0.000    2.500 
#    0.000    6.250    0.000    0.000    0.000    0.000 
#    0.000    0.000    0.000    0.000    0.000    0.000 
#
# Total GULP energy -396504.660005 kJ/mol
# GULP energy per Si atom -12390.770625 kJ/mol
# Density = 1.970542 g / cm^3
# Si number density = 19.750371 Si / 1000 Ang^3
#
#
#
# Elastic Constant Matrix: (Units=GPa)
#
#
# Indices 1 2 3 4 5 6 
#
# 1 77.5194 29.7321 8.6483 0.0000 0.0000 0.0000
# 2 29.7321 155.1443 61.7656 0.0000 0.0000 0.0000
# 3 8.6483 61.7656 148.1791 0.0000 0.0000 0.0000
# 4 0.0000 0.0000 0.0000 12.4091 0.0000 0.0000
# 5 0.0000 0.0000 0.0000 0.0000 22.5412 0.0000
# 6 0.0000 0.0000 0.0000 0.0000 0.0000 19.4920
#
#
#
# Elastic Compliance Matrix: (Units=1/GPa)
#
#
# Indices 1 2 3 4 5 6 
#
# 1 0.013939 -0.002815 0.000360 0.000000 0.000000 0.000000
# 2 -0.002815 0.008296 -0.003294 0.000000 0.000000 0.000000
# 3 0.000360 -0.003294 0.008101 0.000000 0.000000 0.000000
# 4 0.000000 0.000000 0.000000 0.080586 0.000000 0.000000
# 5 0.000000 0.000000 0.000000 0.000000 0.044363 0.000000
# 6 0.000000 0.000000 0.000000 0.000000 0.000000 0.051303
#
#
# Mechanical properties :
#
#
# Convention : Reuss Voigt Hill
#
# Bulk Modulus (GPa) = 53.08223 64.57054 58.82639
# Shear Modulus (GPa) = 22.28504 29.60159 25.94332
#
# Velocity S-wave (km/s) = 3.36271 3.87562 3.62824
# Velocity P-wave (km/s) = 6.48167 7.26578 6.88490
#
# Compressibility (1/GPa) = 0.01883870
#
# Stress axis : x y z
#
# Youngs Moduli (GPa) = 71.73926 120.53483 123.44758
#
# Poissons Ratio (x) = 0.33925 -0.04440
# Poissons Ratio (y) = 0.20191 0.40663
# Poissons Ratio (z) = -0.02580 0.39703
#
# Static dielectric constant tensor:
#      x y z
#    x 3.490490 0.000000 0.000000 
#    y 0.000000 3.747980 0.000000 
#    z 0.000000 0.000000 3.586380 
# 
# 
# High freq. dielectric constant tensor:
#      x y z
#    x 1.756960 0.000000 0.000000 
#    y 0.000000 1.758360 0.000000 
#    z 0.000000 0.000000 1.780640 
# 
# From -- ./inp_files/19656.got.cif
#   From: 2010.03.12/outbox.cif.g09.slc.cpg/sg53_10_cif.got.tgz:19656.got - 2010.04.16 14:36:59.
