data_PCOD8220001
_publ_section_title
;
Structure prediction by ZEFSAII (Michael W. Deem and Ramdas Pophale) SiO2 
 PCOD8220001
Probable space group: P M N A
;
_chemical_formula_sum "Si O2"
_cell_formula_units_Z 40
_cell_length_a 8.553683
_cell_length_b 15.599640
_cell_length_c 14.032612
_cell_angle_alpha 90.000000
_cell_angle_beta 90.000000
_cell_angle_gamma 90.000000
_cell_volume 1872.432818
_symmetry_space_group_name_H-M "P M N A"
_symmetry_group_IT_number 53
_symmetry_cell_setting 'orthorhombic'
loop_
_space_group_symop_operation_xyz
x,y,z
1/2-x,-y,1/2+z
x,-y,-z
1/2-x,y,1/2-z
-x,-y,-z
1/2+x,y,1/2-z
-x,y,z
1/2+x,-y,1/2+z
loop_
_atom_site_type_symbol
_atom_site_label
_atom_site_fract_x
_atom_site_fract_y
_atom_site_fract_z
Si Si1 0.184632 0.141695 0.345481
Si Si2 0.319965 0.203289 0.540739
Si Si3 0.671213 0.039646 0.895938
Si Si4 0.814835 0.539818 0.854949
Si Si5 0.683162 0.380901 0.960184
O O1 0.250000 0.187067 0.250000
O O2 0.276209 0.182288 0.432702
O O3 0.000000 0.156644 0.359610
O O4 0.227097 0.040476 0.332583
O O5 0.500000 0.227465 0.548158
O O6 0.286005 0.121397 0.608873
O O7 0.219630 0.284758 0.574474
O O8 0.500000 0.072619 0.864535
O O9 0.660966 0.000000 0.000000
O O10 0.750000 0.560351 0.750000
O O11 0.769347 0.444115 0.887052
O O12 0.000000 0.549982 0.854491
O O13 0.742787 0.606402 0.931318
O O14 0.500000 0.399714 0.955552
#
# Coordination Sequence:
#
# PCOD8220001 Si02
#       5
#     8   8   8   8   8
#     4  10  20  34  52  76 107 142 181 226 276 329
#     4  11  21  34  54  80 108 141 182 227 275 328
#     4   8  16  32  51  71  99 136 174 213 261 315
#     4  11  22  40  63  89 118 150 188 231 283 343
#     4  11  22  39  61  87 117 152 192 235 285 339
#
# _framework density 21.362582
#
# number of rings (size 3 to 8) (size 9 to 14) (size 15 to 20)
#    0.000    1.800    0.000    8.400    0.000    5.200 
#    0.000    5.000    0.000    2.400    0.000    0.000 
#    0.000    0.000    0.000    0.000    0.000    0.000 
#
# Total GULP energy -495860.219050 kJ/mol
# GULP energy per Si atom -12396.505476 kJ/mol
# Density = 2.131396 g / cm^3
# Si number density = 21.362582 Si / 1000 Ang^3
#
#
#
# Elastic Constant Matrix: (Units=GPa)
#
#
# Indices 1 2 3 4 5 6 
#
# 1 92.3531 10.2841 5.5148 0.0000 0.0000 0.0000
# 2 10.2841 74.7891 -23.8804 0.0000 0.0000 0.0000
# 3 5.5148 -23.8804 39.1035 0.0000 0.0000 0.0000
# 4 0.0000 0.0000 0.0000 10.4027 0.0000 0.0000
# 5 0.0000 0.0000 0.0000 0.0000 18.5718 0.0000
# 6 0.0000 0.0000 0.0000 0.0000 0.0000 30.1470
#
#
#
# Elastic Compliance Matrix: (Units=1/GPa)
#
#
# Indices 1 2 3 4 5 6 
#
# 1 0.011302 -0.002563 -0.003159 0.000000 0.000000 0.000000
# 2 -0.002563 0.017191 0.010860 0.000000 0.000000 0.000000
# 3 -0.003159 0.010860 0.032651 0.000000 0.000000 0.000000
# 4 0.000000 0.000000 0.000000 0.096129 0.000000 0.000000
# 5 0.000000 0.000000 0.000000 0.000000 0.053845 0.000000
# 6 0.000000 0.000000 0.000000 0.000000 0.000000 0.033171
#
#
# Mechanical properties :
#
#
# Convention : Reuss Voigt Hill
#
# Bulk Modulus (GPa) = 14.00172 21.12030 17.56101
# Shear Modulus (GPa) = 19.39347 26.11278 22.75312
#
# Velocity S-wave (km/s) = 3.01628 3.50002 3.26712
# Velocity P-wave (km/s) = 4.32425 5.12265 4.74029
#
# Compressibility (1/GPa) = 0.07141981
#
# Stress axis : x y z
#
# Youngs Moduli (GPa) = 88.47974 58.17023 30.62715
#
# Poissons Ratio (x) = 0.14908 0.09675
# Poissons Ratio (y) = 0.22676 -0.33261
# Poissons Ratio (z) = 0.27951 -0.63172
#
# Static dielectric constant tensor:
#      x y z
#    x 3.825190 0.000000 0.000000 
#    y 0.000000 3.965760 0.000000 
#    z 0.000000 0.000000 4.076930 
# 
# 
# High freq. dielectric constant tensor:
#      x y z
#    x 1.845580 0.000000 0.000000 
#    y 0.000000 1.836980 0.000000 
#    z 0.000000 0.000000 1.820820 
# 
# From -- ./inp_files/19863.got.cif
#   From: 2010.03.12/outbox.cif.g09.slc.cpg/sg53_10_cif.got.tgz:19863.got - 2010.04.16 14:36:59.
