data_PCOD8220512
_publ_section_title
;
Structure prediction by ZEFSAII (Michael W. Deem and Ramdas Pophale) SiO2 
 PCOD8220512
Probable space group: P M N A
;
_chemical_formula_sum "Si O2"
_cell_formula_units_Z 64
_cell_length_a 8.659436
_cell_length_b 14.189793
_cell_length_c 28.266594
_cell_angle_alpha 90.000000
_cell_angle_beta 90.000000
_cell_angle_gamma 90.000000
_cell_volume 3473.274820
_symmetry_space_group_name_H-M "P M N A"
_symmetry_group_IT_number 53
_symmetry_cell_setting 'orthorhombic'
loop_
_space_group_symop_operation_xyz
x,y,z
1/2-x,-y,1/2+z
x,-y,-z
1/2-x,y,1/2-z
-x,-y,-z
1/2+x,y,1/2-z
-x,y,z
1/2+x,-y,1/2+z
loop_
_atom_site_type_symbol
_atom_site_label
_atom_site_fract_x
_atom_site_fract_y
_atom_site_fract_z
Si Si1 0.682704 0.602124 0.627241
Si Si2 0.317302 0.747301 0.054856
Si Si3 0.316227 0.387757 0.629790
Si Si4 0.816872 0.759771 0.301644
Si Si5 0.819227 0.736601 0.553487
Si Si6 0.319838 0.891332 0.616873
Si Si7 0.820617 0.754881 0.800945
Si Si8 0.317397 0.893567 0.377725
O O1 0.500000 0.608236 0.625397
O O2 0.739811 0.495486 0.633013
O O3 0.742921 0.646709 0.578573
O O4 0.746103 0.662969 0.671726
O O5 0.500000 0.759307 0.061280
O O6 0.260387 0.655666 0.083074
O O7 0.232376 0.839923 0.074721
O O8 0.266984 0.735166 0.000856
O O9 0.500000 0.378222 0.626572
O O10 0.256248 0.334899 0.676463
O O11 0.750000 0.775837 0.250000
O O12 0.770323 0.849664 0.332954
O O13 0.000000 0.749469 0.299957
O O14 0.769214 0.835786 0.575976
O O15 0.000000 0.725526 0.558516
O O16 0.500000 0.882176 0.605415
O O17 0.281827 0.847182 0.668110
O O18 0.264225 0.998769 0.617128
O O19 0.750000 0.767660 0.750000
O O20 0.000000 0.741591 0.793515
O O21 0.500000 0.884214 0.369638
#
# Coordination Sequence:
#
# PCOD8220512 Si02
#       8
#     8   8   8   8   8   8   8   8
#     4   9  20  37  55  76 106 138 173 218 265 310
#     4  10  21  36  52  77 110 140 171 217 268 313
#     4  10  20  36  57  80 104 137 179 220 264 317
#     4  11  22  37  56  79 109 143 177 219 264 312
#     4  10  21  35  54  78 106 140 178 215 259 315
#     4   9  20  37  55  76 106 138 173 218 265 310
#     4   9  18  34  52  74 103 133 165 207 254 304
#     4  10  20  36  57  80 104 137 179 220 264 317
#
# _framework density 18.426414999999999
#
# number of rings (size 3 to 8) (size 9 to 14) (size 15 to 20)
#    0.000    2.250    0.000    4.875    0.000    8.000 
#    0.000    7.500    0.000    0.000    0.000    0.000 
#    0.000    0.000    0.000    0.000    0.000    0.000 
#
# Total GULP energy -793685.106488 kJ/mol
# GULP energy per Si atom -12401.329789 kJ/mol
# Density = 1.838448 g / cm^3
# Si number density = 18.426415 Si / 1000 Ang^3
#
#
#
# Elastic Constant Matrix: (Units=GPa)
#
#
# Indices 1 2 3 4 5 6 
#
# 1 31.4312 12.1487 14.9007 0.0000 0.0000 0.0000
# 2 12.1487 90.7031 -10.6152 0.0000 0.0000 0.0000
# 3 14.9007 -10.6152 67.5442 0.0000 0.0000 0.0000
# 4 0.0000 0.0000 0.0000 11.0545 0.0000 0.0000
# 5 0.0000 0.0000 0.0000 0.0000 35.0681 0.0000
# 6 0.0000 0.0000 0.0000 0.0000 0.0000 19.6924
#
#
#
# Elastic Compliance Matrix: (Units=1/GPa)
#
#
# Indices 1 2 3 4 5 6 
#
# 1 0.038781 -0.006312 -0.009547 0.000000 0.000000 0.000000
# 2 -0.006312 0.012259 0.003319 0.000000 0.000000 0.000000
# 3 -0.009547 0.003319 0.017433 0.000000 0.000000 0.000000
# 4 0.000000 0.000000 0.000000 0.090461 0.000000 0.000000
# 5 0.000000 0.000000 0.000000 0.000000 0.028516 0.000000
# 6 0.000000 0.000000 0.000000 0.000000 0.000000 0.050781
#
#
# Mechanical properties :
#
#
# Convention : Reuss Voigt Hill
#
# Bulk Modulus (GPa) = 23.04526 24.72744 23.88635
# Shear Modulus (GPa) = 18.00016 24.71261 21.35639
#
# Velocity S-wave (km/s) = 3.12888 3.66615 3.40812
# Velocity P-wave (km/s) = 5.05836 5.60085 5.33650
#
# Compressibility (1/GPa) = 0.04339287
#
# Stress axis : x y z
#
# Youngs Moduli (GPa) = 25.78571 81.57413 57.36270
#
# Poissons Ratio (x) = 0.51487 0.54766
# Poissons Ratio (y) = 0.16275 -0.19039
# Poissons Ratio (z) = 0.24618 -0.27074
#
# Static dielectric constant tensor:
#      x y z
#    x 3.404370 0.000000 0.000000 
#    y 0.000000 3.601690 0.000000 
#    z 0.000000 0.000000 3.682490 
# 
# 
# High freq. dielectric constant tensor:
#      x y z
#    x 1.720340 0.000000 0.000000 
#    y 0.000000 1.719020 0.000000 
#    z 0.000000 0.000000 1.717360 
# 
# From -- ./inp_files/38393.got.cif
#   From: 2010.03.12/outbox.cif.g09.slc.cpg/sg53_20_cif.got.tgz:38393.got - 2010.04.16 14:36:59.
