data_PCOD8220548
_publ_section_title
;
Structure prediction by ZEFSAII (Michael W. Deem and Ramdas Pophale) SiO2 
 PCOD8220548
Probable space group: P M N A
;
_chemical_formula_sum "Si O2"
_cell_formula_units_Z 40
_cell_length_a 7.804943
_cell_length_b 10.464082
_cell_length_c 25.512414
_cell_angle_alpha 90.000000
_cell_angle_beta 90.000000
_cell_angle_gamma 90.000000
_cell_volume 2083.638742
_symmetry_space_group_name_H-M "P M N A"
_symmetry_group_IT_number 53
_symmetry_cell_setting 'orthorhombic'
loop_
_space_group_symop_operation_xyz
x,y,z
1/2-x,-y,1/2+z
x,-y,-z
1/2-x,y,1/2-z
-x,-y,-z
1/2+x,y,1/2-z
-x,y,z
1/2+x,-y,1/2+z
loop_
_atom_site_type_symbol
_atom_site_label
_atom_site_fract_x
_atom_site_fract_y
_atom_site_fract_z
Si Si1 0.296597 0.329889 0.192332
Si Si2 0.000000 0.795656 0.965420
Si Si3 0.000000 0.408775 0.121656
Si Si4 0.687540 0.142474 0.898228
Si Si5 0.299913 0.959822 0.806899
Si Si6 0.743272 0.000000 0.000000
Si Si7 0.500000 0.681804 0.425845
O O1 0.250000 0.379802 0.250000
O O2 0.500000 0.347280 0.179906
O O3 0.177313 0.413346 0.154170
O O4 0.229156 0.183964 0.187026
O O5 0.000000 0.720247 0.911700
O O6 0.158976 0.889882 0.968933
O O7 0.000000 0.692703 0.011834
O O8 0.000000 0.533464 0.086140
O O9 0.500000 0.197189 0.880580
O O10 0.767874 0.049206 0.853763
O O11 0.827422 0.253202 0.903636
O O12 0.644512 0.069151 0.952811
O O13 0.250000 0.017166 0.750000
O O14 0.500000 0.950687 0.811694
#
# Coordination Sequence:
#
# PCOD8220548 Si02
#       7
#     8   4   4   8   8   4   4
#     4  10  20  36  57  87 112 138 183 233 288 338
#     4   9  19  36  58  88 115 143 190 235 281 345
#     4  12  22  37  62  77 113 163 188 233 274 324
#     4  10  20  36  57  82 116 146 185 234 284 338
#     4   9  19  32  54  85 111 139 174 228 294 347
#     4   9  17  34  60  91 113 142 181 235 302 351
#     4  10  24  39  54  79 111 157 201 226 269 320
#
# _framework density 19.197184
#
# number of rings (size 3 to 8) (size 9 to 14) (size 15 to 20)
#    0.000    2.200    1.000    2.400    2.800    0.800 
#    0.000    5.000    0.000    6.000    0.000    0.000 
#    0.000    0.000    0.000    0.000    0.000    0.000 
#
# Total GULP energy -495559.693008 kJ/mol
# GULP energy per Si atom -12388.992325 kJ/mol
# Density = 1.915349 g / cm^3
# Si number density = 19.197184 Si / 1000 Ang^3
#
#
#
# Elastic Constant Matrix: (Units=GPa)
#
#
# Indices 1 2 3 4 5 6 
#
# 1 107.8735 29.7292 22.3632 0.0000 0.0000 0.0000
# 2 29.7292 68.7509 24.9971 0.0000 0.0000 0.0000
# 3 22.3632 24.9971 75.6760 0.0000 0.0000 0.0000
# 4 0.0000 0.0000 0.0000 27.9624 0.0000 0.0000
# 5 0.0000 0.0000 0.0000 0.0000 16.6878 0.0000
# 6 0.0000 0.0000 0.0000 0.0000 0.0000 -18.1597
#
#
#
# Elastic Compliance Matrix: (Units=1/GPa)
#
#
# Indices 1 2 3 4 5 6 
#
# 1 0.010751 -0.003971 -0.001866 0.000000 0.000000 0.000000
# 2 -0.003971 0.017997 -0.004771 0.000000 0.000000 0.000000
# 3 -0.001866 -0.004771 0.015342 0.000000 0.000000 0.000000
# 4 0.000000 0.000000 0.000000 0.035762 0.000000 0.000000
# 5 0.000000 0.000000 0.000000 0.000000 0.059924 0.000000
# 6 0.000000 0.000000 0.000000 0.000000 0.000000 -0.055067
#
#
# Mechanical properties :
#
#
# Convention : Reuss Voigt Hill
#
# Bulk Modulus (GPa) = 43.71649 45.16437 44.44043
# Shear Modulus (GPa) = 44.03378 16.97883 30.50630
#
# Velocity S-wave (km/s) = 4.79452 2.97719 3.99068
# Velocity P-wave (km/s) = 7.31243 5.94944 6.66586
#
# Compressibility (1/GPa) = 0.02287467
#
# Stress axis : x y z
#
# Youngs Moduli (GPa) = 93.01330 55.56457 65.18237
#
# Poissons Ratio (x) = 0.22063 0.12160
# Poissons Ratio (y) = 0.36933 0.31101
# Poissons Ratio (z) = 0.17352 0.26512
#
# Static dielectric constant tensor:
#      x y z
#    x 3.281900 0.000000 0.000000 
#    y 0.000000 3.240430 0.000000 
#    z 0.000000 0.000000 3.556280 
# 
# 
# High freq. dielectric constant tensor:
#      x y z
#    x 1.753900 0.000000 0.000000 
#    y 0.000000 1.712360 0.000000 
#    z 0.000000 0.000000 1.755730 
# 
# From -- ./inp_files/36100.got.cif
#   From: 2010.03.12/outbox.cif.g09.slc.cpg/sg53_19_cif.got.tgz:36100.got - 2010.04.16 14:36:59.
