data_PCOD8220132
_publ_section_title
;
Structure prediction by ZEFSAII (Michael W. Deem and Ramdas Pophale) SiO2 
 PCOD8220132
Probable space group: P M N A
;
_chemical_formula_sum "Si O2"
_cell_formula_units_Z 40
_cell_length_a 8.844326
_cell_length_b 13.608101
_cell_length_c 17.735298
_cell_angle_alpha 90.000000
_cell_angle_beta 90.000000
_cell_angle_gamma 90.000000
_cell_volume 2134.522595
_symmetry_space_group_name_H-M "P M N A"
_symmetry_group_IT_number 53
_symmetry_cell_setting 'orthorhombic'
loop_
_space_group_symop_operation_xyz
x,y,z
1/2-x,-y,1/2+z
x,-y,-z
1/2-x,y,1/2-z
-x,-y,-z
1/2+x,y,1/2-z
-x,y,z
1/2+x,-y,1/2+z
loop_
_atom_site_type_symbol
_atom_site_label
_atom_site_fract_x
_atom_site_fract_y
_atom_site_fract_z
Si Si1 0.822426 0.423827 0.831223
Si Si2 0.327869 0.394029 0.098751
Si Si3 0.323894 0.188337 0.171119
Si Si4 0.176008 0.714143 0.445124
Si Si5 0.325003 0.110408 0.474284
O O1 0.750000 0.437286 0.750000
O O2 0.785985 0.519397 0.881038
O O3 0.756191 0.326801 0.870613
O O4 0.000000 0.412154 0.822697
O O5 0.500000 0.431828 0.108031
O O6 0.296311 0.302896 0.153969
O O7 0.297175 0.362264 0.013062
O O8 0.250000 0.160089 0.250000
O O9 0.500000 0.163302 0.172839
O O10 0.248049 0.121394 0.107707
O O11 0.245700 0.819417 0.464892
O O12 0.000000 0.728944 0.428895
O O13 0.500000 0.139226 0.469513
O O14 0.299119 0.000000 0.500000
#
# Coordination Sequence:
#
# PCOD8220132 Si02
#       5
#     8   8   8   8   8
#     4  12  24  36  53  78 111 149 186 224 267 317
#     4   9  19  35  55  80 110 144 180 219 266 319
#     4  10  20  34  55  83 114 145 179 225 275 322
#     4  10  21  38  59  81 108 142 181 225 271 323
#     4  10  21  38  60  84 110 141 180 225 273 328
#
# _framework density 18.739553999999998
#
# number of rings (size 3 to 8) (size 9 to 14) (size 15 to 20)
#    0.000    1.800    0.000    6.000    0.000   10.400 
#    0.000    1.000    0.000    4.800    0.000    0.000 
#    0.000    0.000    0.000    0.000    0.000    0.000 
#
# Total GULP energy -496218.217854 kJ/mol
# GULP energy per Si atom -12405.455446 kJ/mol
# Density = 1.869690 g / cm^3
# Si number density = 18.739554 Si / 1000 Ang^3
#
#
#
# Elastic Constant Matrix: (Units=GPa)
#
#
# Indices 1 2 3 4 5 6 
#
# 1 153.0823 61.6465 42.5219 0.0000 0.0000 0.0000
# 2 61.6465 81.1443 33.4063 0.0000 0.0000 0.0000
# 3 42.5219 33.4063 54.1228 0.0000 0.0000 0.0000
# 4 0.0000 0.0000 0.0000 16.7547 0.0000 0.0000
# 5 0.0000 0.0000 0.0000 0.0000 35.8663 0.0000
# 6 0.0000 0.0000 0.0000 0.0000 0.0000 30.0807
#
#
#
# Elastic Compliance Matrix: (Units=1/GPa)
#
#
# Indices 1 2 3 4 5 6 
#
# 1 0.010104 -0.005910 -0.004291 0.000000 0.000000 0.000000
# 2 -0.005910 0.019979 -0.007688 0.000000 0.000000 0.000000
# 3 -0.004291 -0.007688 0.026593 0.000000 0.000000 0.000000
# 4 0.000000 0.000000 0.000000 0.059685 0.000000 0.000000
# 5 0.000000 0.000000 0.000000 0.000000 0.027881 0.000000
# 6 0.000000 0.000000 0.000000 0.000000 0.000000 0.033244
#
#
# Mechanical properties :
#
#
# Convention : Reuss Voigt Hill
#
# Bulk Modulus (GPa) = 47.85125 62.61099 55.23112
# Shear Modulus (GPa) = 22.70356 26.59198 24.64777
#
# Velocity S-wave (km/s) = 3.48448 3.77109 3.63061
# Velocity P-wave (km/s) = 6.46368 7.24190 6.86383
#
# Compressibility (1/GPa) = 0.02089810
#
# Stress axis : x y z
#
# Youngs Moduli (GPa) = 98.96916 50.05309 37.60385
#
# Poissons Ratio (x) = 0.29581 0.16134
# Poissons Ratio (y) = 0.58489 0.28911
# Poissons Ratio (z) = 0.42464 0.38483
#
# Static dielectric constant tensor:
#      x y z
#    x 3.562360 0.000000 0.000000 
#    y 0.000000 3.269030 0.000000 
#    z 0.000000 0.000000 3.516490 
# 
# 
# High freq. dielectric constant tensor:
#      x y z
#    x 1.742460 0.000000 0.000000 
#    y 0.000000 1.714430 0.000000 
#    z 0.000000 0.000000 1.729920 
# 
# From -- ./inp_files/19858.got.cif
#   From: 2010.03.12/outbox.cif.g09.slc.cpg/sg53_10_cif.got.tgz:19858.got - 2010.04.16 14:36:59.
