data_PCOD8220956
_publ_section_title
;
Structure prediction by ZEFSAII (Michael W. Deem and Ramdas Pophale) SiO2 
 PCOD8220956
Probable space group: P M N A
;
_chemical_formula_sum "Si O2"
_cell_formula_units_Z 64
_cell_length_a 14.782351
_cell_length_b 11.753929
_cell_length_c 17.763030
_cell_angle_alpha 90.000000
_cell_angle_beta 90.000000
_cell_angle_gamma 90.000000
_cell_volume 3086.338970
_symmetry_space_group_name_H-M "P M N A"
_symmetry_group_IT_number 53
_symmetry_cell_setting 'orthorhombic'
loop_
_space_group_symop_operation_xyz
x,y,z
1/2-x,-y,1/2+z
x,-y,-z
1/2-x,y,1/2-z
-x,-y,-z
1/2+x,y,1/2-z
-x,y,z
1/2+x,-y,1/2+z
loop_
_atom_site_type_symbol
_atom_site_label
_atom_site_fract_x
_atom_site_fract_y
_atom_site_fract_z
Si Si1 0.844840 0.405147 0.288148
Si Si2 0.398235 0.116296 0.545289
Si Si3 0.100353 0.573344 0.167380
Si Si4 0.289364 0.789455 0.027654
Si Si5 0.104689 0.821742 0.210361
Si Si6 0.898475 0.198006 0.380042
Si Si7 0.106306 0.061094 0.640685
Si Si8 0.773323 0.449966 0.580935
O O1 0.750000 0.377308 0.250000
O O2 0.906417 0.475718 0.230429
O O3 0.890094 0.285804 0.310640
O O4 0.836161 0.484394 0.360957
O O5 0.500000 0.168916 0.534642
O O6 0.318659 0.195853 0.513323
O O7 0.377952 0.102846 0.634963
O O8 0.392467 0.000000 0.500000
O O9 0.140066 0.692303 0.200645
O O10 0.167531 0.535470 0.101365
O O11 0.000000 0.592441 0.133636
O O12 0.337195 0.896424 0.068092
O O13 0.304730 0.681037 0.080923
O O14 0.330530 0.766941 0.945899
O O15 0.148498 0.880574 0.284050
O O16 0.000000 0.817118 0.228936
O O17 0.000000 0.202195 0.412413
O O18 0.876084 0.072669 0.349620
O O19 0.000000 0.087268 0.627573
O O20 0.790531 0.500000 0.500000
#
# Coordination Sequence:
#
# PCOD8220956 Si02
#       8
#     8   8   8   8   8   8   8   8
#     4  10  22  41  61  87 122 162 203 254 310 374
#     4  10  21  38  59  88 127 162 202 258 313 368
#     4  10  20  38  65  89 117 159 206 257 308 363
#     4  12  22  39  64  90 121 165 207 249 314 372
#     4   9  18  36  59  88 120 153 202 257 306 361
#     4  11  23  42  64  89 127 165 202 253 311 376
#     4  10  22  39  61  92 124 157 204 257 308 373
#     4  11  22  39  60  87 123 157 203 257 307 364
#
# _framework density 20.736542
#
# number of rings (size 3 to 8) (size 9 to 14) (size 15 to 20)
#    0.000    1.625    2.500    2.625    0.000    1.750 
#    4.500    2.500    0.000    0.000    0.000    0.000 
#    0.000    0.000    0.000    0.000    0.000    0.000 
#
# Total GULP energy -793475.251803 kJ/mol
# GULP energy per Si atom -12398.050809 kJ/mol
# Density = 2.068934 g / cm^3
# Si number density = 20.736542 Si / 1000 Ang^3
#
#
#
# Elastic Constant Matrix: (Units=GPa)
#
#
# Indices 1 2 3 4 5 6 
#
# 1 67.9193 15.4356 7.3219 0.0000 0.0000 0.0000
# 2 15.4356 111.2445 19.6516 0.0000 0.0000 0.0000
# 3 7.3219 19.6516 65.3843 0.0000 0.0000 0.0000
# 4 0.0000 0.0000 0.0000 33.7052 0.0000 0.0000
# 5 0.0000 0.0000 0.0000 0.0000 16.2983 0.0000
# 6 0.0000 0.0000 0.0000 0.0000 0.0000 24.7596
#
#
#
# Elastic Compliance Matrix: (Units=1/GPa)
#
#
# Indices 1 2 3 4 5 6 
#
# 1 0.015282 -0.001920 -0.001134 0.000000 0.000000 0.000000
# 2 -0.001920 0.009734 -0.002711 0.000000 0.000000 0.000000
# 3 -0.001134 -0.002711 0.016236 0.000000 0.000000 0.000000
# 4 0.000000 0.000000 0.000000 0.029669 0.000000 0.000000
# 5 0.000000 0.000000 0.000000 0.000000 0.061356 0.000000
# 6 0.000000 0.000000 0.000000 0.000000 0.000000 0.040388
#
#
# Mechanical properties :
#
#
# Convention : Reuss Voigt Hill
#
# Bulk Modulus (GPa) = 33.64473 36.59626 35.12049
# Shear Modulus (GPa) = 25.75948 28.42857 27.09402
#
# Velocity S-wave (km/s) = 3.52835 3.70664 3.61859
# Velocity P-wave (km/s) = 5.73228 6.00045 5.86790
#
# Compressibility (1/GPa) = 0.02972234
#
# Stress axis : x y z
#
# Youngs Moduli (GPa) = 65.43651 102.72759 61.59176
#
# Poissons Ratio (x) = 0.19724 0.06986
# Poissons Ratio (y) = 0.12564 0.16696
# Poissons Ratio (z) = 0.07422 0.27847
#
# Static dielectric constant tensor:
#      x y z
#    x 3.746360 0.000000 0.000000 
#    y 0.000000 3.832600 0.000000 
#    z 0.000000 0.000000 3.730190 
# 
# 
# High freq. dielectric constant tensor:
#      x y z
#    x 1.811020 0.000000 0.000000 
#    y 0.000000 1.810230 0.000000 
#    z 0.000000 0.000000 1.805870 
# 
# From -- ./inp_files/28569.got.cif
#   From: 2010.03.12/outbox.cif.g09.slc.cpg/sg53_15_cif.got.tgz:28569.got - 2010.04.16 14:36:59.
