data_PCOD8220214
_publ_section_title
;
Structure prediction by ZEFSAII (Michael W. Deem and Ramdas Pophale) SiO2 
 PCOD8220214
Probable space group: P M N A
;
_chemical_formula_sum "Si O2"
_cell_formula_units_Z 64
_cell_length_a 9.021642
_cell_length_b 20.699911
_cell_length_c 18.001865
_cell_angle_alpha 90.000000
_cell_angle_beta 90.000000
_cell_angle_gamma 90.000000
_cell_volume 3361.797640
_symmetry_space_group_name_H-M "P M N A"
_symmetry_group_IT_number 53
_symmetry_cell_setting 'orthorhombic'
loop_
_space_group_symop_operation_xyz
x,y,z
1/2-x,-y,1/2+z
x,-y,-z
1/2-x,y,1/2-z
-x,-y,-z
1/2+x,y,1/2-z
-x,y,z
1/2+x,-y,1/2+z
loop_
_atom_site_type_symbol
_atom_site_label
_atom_site_fract_x
_atom_site_fract_y
_atom_site_fract_z
Si Si1 0.825158 0.850839 0.329656
Si Si2 0.828411 0.370648 0.174985
Si Si3 0.324256 0.609999 0.170704
Si Si4 0.675436 0.742662 0.908864
Si Si5 0.673212 0.870598 0.828945
Si Si6 0.329330 0.497601 0.414911
Si Si7 0.328440 0.009793 0.827401
Si Si8 0.824279 0.732161 0.424661
O O1 0.750000 0.843038 0.250000
O O2 0.760973 0.795981 0.384084
O O3 0.000000 0.841563 0.318208
O O4 0.788640 0.921711 0.367260
O O5 0.750000 0.394616 0.250000
O O6 0.754497 0.304866 0.148038
O O7 0.806027 0.424865 0.112575
O O8 0.000000 0.357857 0.191729
O O9 0.250000 0.619451 0.250000
O O10 0.500000 0.608810 0.180893
O O11 0.273405 0.543557 0.133861
O O12 0.270443 0.668691 0.118665
O O13 0.500000 0.731341 0.904021
O O14 0.721382 0.815496 0.886708
O O15 0.737481 0.729900 0.991569
O O16 0.750000 0.860269 0.750000
O O17 0.500000 0.865537 0.812916
O O18 0.713485 0.941172 0.866577
O O19 0.276799 0.500000 0.500000
O O20 0.500000 0.519715 0.406649
O O21 0.250000 0.010235 0.750000
O O22 0.500000 0.009874 0.809553
O O23 0.000000 0.735831 0.427349
#
# Coordination Sequence:
#
# PCOD8220214 Si02
#       8
#     8   8   8   8   8   8   8   8
#     4   9  16  29  49  71  98 131 168 209 252 300
#     4  11  23  38  57  80 105 134 170 210 250 295
#     4  11  22  36  56  80 106 137 175 215 255 303
#     4  10  20  35  53  73 102 136 170 210 256 306
#     4   9  17  29  47  71  97 127 165 208 252 298
#     4  10  22  40  60  83 111 139 168 207 254 303
#     4   8  14  25  43  68  95 125 163 205 249 296
#     4   9  19  34  51  74 103 135 169 209 258 306
#
# _framework density 19.037434999999999
#
# number of rings (size 3 to 8) (size 9 to 14) (size 15 to 20)
#    0.000    2.375    0.000    2.625    0.000    3.750 
#    0.000    2.500    0.000    3.750    0.000    0.000 
#    0.000   11.000    0.000    0.000    0.000    0.000 
#
# Total GULP energy -793229.760705 kJ/mol
# GULP energy per Si atom -12394.215011 kJ/mol
# Density = 1.899410 g / cm^3
# Si number density = 19.037435 Si / 1000 Ang^3
#
#
#
# Elastic Constant Matrix: (Units=GPa)
#
#
# Indices 1 2 3 4 5 6 
#
# 1 42.9116 29.2069 22.4290 0.0000 0.0000 0.0000
# 2 29.2069 113.5708 23.6589 0.0000 0.0000 0.0000
# 3 22.4290 23.6589 85.0688 0.0000 0.0000 0.0000
# 4 0.0000 0.0000 0.0000 23.6833 0.0000 0.0000
# 5 0.0000 0.0000 0.0000 0.0000 15.4861 0.0000
# 6 0.0000 0.0000 0.0000 0.0000 0.0000 21.2697
#
#
#
# Elastic Compliance Matrix: (Units=1/GPa)
#
#
# Indices 1 2 3 4 5 6 
#
# 1 0.031185 -0.006695 -0.006360 0.000000 0.000000 0.000000
# 2 -0.006695 0.010784 -0.001234 0.000000 0.000000 0.000000
# 3 -0.006360 -0.001234 0.013775 0.000000 0.000000 0.000000
# 4 0.000000 0.000000 0.000000 0.042224 0.000000 0.000000
# 5 0.000000 0.000000 0.000000 0.000000 0.064574 0.000000
# 6 0.000000 0.000000 0.000000 0.000000 0.000000 0.047015
#
#
# Mechanical properties :
#
#
# Convention : Reuss Voigt Hill
#
# Bulk Modulus (GPa) = 36.81085 43.57122 40.19103
# Shear Modulus (GPa) = 20.22732 23.17156 21.69944
#
# Velocity S-wave (km/s) = 3.26314 3.49256 3.37980
# Velocity P-wave (km/s) = 5.79443 6.26106 6.03226
#
# Compressibility (1/GPa) = 0.02716591
#
# Stress axis : x y z
#
# Youngs Moduli (GPa) = 32.06692 92.73125 72.59368
#
# Poissons Ratio (x) = 0.62082 0.46171
# Poissons Ratio (y) = 0.21468 0.08958
# Poissons Ratio (z) = 0.20395 0.11443
#
# Static dielectric constant tensor:
#      x y z
#    x 3.330310 0.000000 0.000000 
#    y 0.000000 4.044160 0.000000 
#    z 0.000000 0.000000 3.410990 
# 
# 
# High freq. dielectric constant tensor:
#      x y z
#    x 1.724010 0.000000 0.000000 
#    y 0.000000 1.765710 0.000000 
#    z 0.000000 0.000000 1.723020 
# 
# From -- ./inp_files/26785.got.cif
#   From: 2010.03.12/outbox.cif.g09.slc.cpg/sg53_14_cif.got.tgz:26785.got - 2010.04.16 14:36:59.
