data_PCOD8220017
_publ_section_title
;
Structure prediction by ZEFSAII (Michael W. Deem and Ramdas Pophale) SiO2 
 PCOD8220017
Probable space group: P M N A
;
_chemical_formula_sum "Si O2"
_cell_formula_units_Z 48
_cell_length_a 8.781121
_cell_length_b 30.660374
_cell_length_c 9.355864
_cell_angle_alpha 90.000000
_cell_angle_beta 90.000000
_cell_angle_gamma 90.000000
_cell_volume 2518.902224
_symmetry_space_group_name_H-M "P M N A"
_symmetry_group_IT_number 53
_symmetry_cell_setting 'orthorhombic'
loop_
_space_group_symop_operation_xyz
x,y,z
1/2-x,-y,1/2+z
x,-y,-z
1/2-x,y,1/2-z
-x,-y,-z
1/2+x,y,1/2-z
-x,y,z
1/2+x,-y,1/2+z
loop_
_atom_site_type_symbol
_atom_site_label
_atom_site_fract_x
_atom_site_fract_y
_atom_site_fract_z
Si Si1 0.679531 0.293631 0.101949
Si Si2 0.680797 0.628692 0.095184
Si Si3 0.320264 0.540961 0.404530
Si Si4 0.177780 0.957605 0.905187
Si Si5 0.178761 0.195999 0.399270
Si Si6 0.320216 0.882539 0.093889
O O1 0.750000 0.308699 0.250000
O O2 0.500000 0.294772 0.116427
O O3 0.735455 0.244810 0.060641
O O4 0.737558 0.328413 0.987110
O O5 0.750000 0.633480 0.250000
O O6 0.500000 0.625279 0.100853
O O7 0.748183 0.584566 0.024268
O O8 0.274455 0.500000 0.500000
O O9 0.250000 0.532790 0.250000
O O10 0.500000 0.547032 0.391145
O O11 0.250000 0.965018 0.750000
O O12 0.000000 0.947471 0.887047
O O13 0.257465 0.917852 0.984433
O O14 0.207080 0.000000 0.000000
O O15 0.250000 0.179886 0.250000
O O16 0.226466 0.164511 0.529334
O O17 0.000000 0.194732 0.375386
O O18 0.250000 0.888207 0.250000
O O19 0.500000 0.888236 0.107406
#
# Coordination Sequence:
#
# PCOD8220017 Si02
#       6
#     8   8   8   8   8   8
#     4   9  19  35  54  78 107 139 177 219 264 315
#     4  10  20  34  53  76 104 137 172 213 260 311
#     4  10  21  36  54  76 102 134 172 213 259 312
#     4  11  24  41  62  87 116 150 187 229 277 328
#     4   9  19  36  56  79 108 142 180 222 268 319
#     4  11  23  38  58  84 115 149 187 231 276 326
#
# _framework density 19.055921000000001
#
# number of rings (size 3 to 8) (size 9 to 14) (size 15 to 20)
#    0.000    2.000    0.000    4.000    0.000    9.333 
#    0.000    3.333    0.000    0.000    0.000    0.000 
#    0.000    0.000    0.000    0.000    0.000    0.000 
#
# Total GULP energy -595209.408200 kJ/mol
# GULP energy per Si atom -12400.196004 kJ/mol
# Density = 1.901255 g / cm^3
# Si number density = 19.055921 Si / 1000 Ang^3
#
#
#
# Elastic Constant Matrix: (Units=GPa)
#
#
# Indices 1 2 3 4 5 6 
#
# 1 76.4996 57.4786 49.2403 0.0000 0.0000 0.0000
# 2 57.4786 137.7411 75.2409 0.0000 0.0000 0.0000
# 3 49.2403 75.2409 116.9568 0.0000 0.0000 0.0000
# 4 0.0000 0.0000 0.0000 41.9530 0.0000 0.0000
# 5 0.0000 0.0000 0.0000 0.0000 32.4184 0.0000
# 6 0.0000 0.0000 0.0000 0.0000 0.0000 12.1209
#
#
#
# Elastic Compliance Matrix: (Units=1/GPa)
#
#
# Indices 1 2 3 4 5 6 
#
# 1 0.020697 -0.005977 -0.004868 0.000000 0.000000 0.000000
# 2 -0.005977 0.012920 -0.005795 0.000000 0.000000 0.000000
# 3 -0.004868 -0.005795 0.014328 0.000000 0.000000 0.000000
# 4 0.000000 0.000000 0.000000 0.023836 0.000000 0.000000
# 5 0.000000 0.000000 0.000000 0.000000 0.030847 0.000000
# 6 0.000000 0.000000 0.000000 0.000000 0.000000 0.082502
#
#
# Mechanical properties :
#
#
# Convention : Reuss Voigt Hill
#
# Bulk Modulus (GPa) = 68.19856 77.23524 72.71690
# Shear Modulus (GPa) = 22.39161 27.24765 24.81963
#
# Velocity S-wave (km/s) = 3.43162 3.78548 3.61288
# Velocity P-wave (km/s) = 7.18106 7.72821 7.45966
#
# Compressibility (1/GPa) = 0.01466307
#
# Stress axis : x y z
#
# Youngs Moduli (GPa) = 48.31721 77.40008 69.79405
#
# Poissons Ratio (x) = 0.46265 0.33977
# Poissons Ratio (y) = 0.28881 0.40447
# Poissons Ratio (z) = 0.23522 0.44854
#
# Static dielectric constant tensor:
#      x y z
#    x 3.565830 0.000000 0.000000 
#    y 0.000000 4.065680 0.000000 
#    z 0.000000 0.000000 3.470040 
# 
# 
# High freq. dielectric constant tensor:
#      x y z
#    x 1.748660 0.000000 0.000000 
#    y 0.000000 1.759460 0.000000 
#    z 0.000000 0.000000 1.737380 
# 
# From -- ./inp_files/6707.got.cif
#   From: 2010.03.12/outbox.cif.g09.slc.cpg/sg53_4_cif.got.tgz:6707.got - 2010.04.16 14:36:59.
