data_PCOD8220748
_publ_section_title
;
Structure prediction by ZEFSAII (Michael W. Deem and Ramdas Pophale) SiO2 
 PCOD8220748
Probable space group: P M N A
;
_chemical_formula_sum "Si O2"
_cell_formula_units_Z 64
_cell_length_a 17.863861
_cell_length_b 20.680300
_cell_length_c 8.752872
_cell_angle_alpha 90.000000
_cell_angle_beta 90.000000
_cell_angle_gamma 90.000000
_cell_volume 3233.573544
_symmetry_space_group_name_H-M "P M N A"
_symmetry_group_IT_number 53
_symmetry_cell_setting 'orthorhombic'
loop_
_space_group_symop_operation_xyz
x,y,z
1/2-x,-y,1/2+z
x,-y,-z
1/2-x,y,1/2-z
-x,-y,-z
1/2+x,y,1/2-z
-x,y,z
1/2+x,-y,1/2+z
loop_
_atom_site_type_symbol
_atom_site_label
_atom_site_fract_x
_atom_site_fract_y
_atom_site_fract_z
Si Si1 0.912490 0.866504 0.848733
Si Si2 0.583047 0.488679 0.821423
Si Si3 0.835184 0.370268 0.800651
Si Si4 0.911376 0.738014 0.691429
Si Si5 0.412900 0.879043 0.299414
Si Si6 0.910993 0.612738 0.879965
Si Si7 0.669393 0.993715 0.680786
Si Si8 0.588650 0.747182 0.150300
O O1 0.878408 0.802597 0.769321
O O2 0.876479 0.929902 0.773159
O O3 0.000000 0.872002 0.818364
O O4 0.894004 0.860810 0.026977
O O5 0.500000 0.468930 0.765584
O O6 0.638168 0.429414 0.801523
O O7 0.608501 0.551203 0.725217
O O8 0.582575 0.500000 0.000000
O O9 0.750000 0.359610 0.750000
O O10 0.877843 0.303827 0.768012
O O11 0.855533 0.389445 0.974933
O O12 0.886397 0.675571 0.785289
O O13 0.880616 0.732411 0.519065
O O14 0.000000 0.742821 0.686982
O O15 0.500000 0.893844 0.278482
O O16 0.386021 0.819444 0.195336
O O17 0.369308 0.943105 0.246428
O O18 0.000000 0.614298 0.923648
O O19 0.750000 0.985923 0.750000
O O20 0.672601 0.000000 0.500000
O O21 0.500000 0.740913 0.162280
#
# Coordination Sequence:
#
# PCOD8220748 Si02
#       8
#     8   8   8   8   8   8   8   8
#     4   9  17  33  56  80 105 136 181 229 274 327
#     4  10  21  39  64  90 115 147 189 238 287 334
#     4  12  25  38  55  83 118 155 191 229 276 332
#     4   9  18  34  59  87 109 136 180 236 287 331
#     4   9  18  34  58  82 104 138 183 232 278 324
#     4  10  20  38  64  88 112 147 192 235 278 333
#     4  10  21  35  52  76 109 146 181 220 270 330
#     4  10  20  37  59  82 110 143 185 235 284 332
#
# _framework density 19.792344
#
# number of rings (size 3 to 8) (size 9 to 14) (size 15 to 20)
#    0.000    2.125    0.000    3.375    0.000    9.000 
#    0.000    4.375    0.000    3.750    0.000    0.000 
#    0.000    0.000    0.000    0.000    0.000    0.000 
#
# Total GULP energy -793549.818075 kJ/mol
# GULP energy per Si atom -12399.215907 kJ/mol
# Density = 1.974730 g / cm^3
# Si number density = 19.792344 Si / 1000 Ang^3
#
#
#
# Elastic Constant Matrix: (Units=GPa)
#
#
# Indices 1 2 3 4 5 6 
#
# 1 53.9767 47.3081 33.7778 0.0000 0.0000 0.0000
# 2 47.3081 118.7027 24.2778 0.0000 0.0000 0.0000
# 3 33.7778 24.2778 72.3112 0.0000 0.0000 0.0000
# 4 0.0000 0.0000 0.0000 31.2758 0.0000 0.0000
# 5 0.0000 0.0000 0.0000 0.0000 33.7708 0.0000
# 6 0.0000 0.0000 0.0000 0.0000 0.0000 7.8624
#
#
#
# Elastic Compliance Matrix: (Units=1/GPa)
#
#
# Indices 1 2 3 4 5 6 
#
# 1 0.037741 -0.012279 -0.013507 0.000000 0.000000 0.000000
# 2 -0.012279 0.013040 0.001357 0.000000 0.000000 0.000000
# 3 -0.013507 0.001357 0.019683 0.000000 0.000000 0.000000
# 4 0.000000 0.000000 0.000000 0.031974 0.000000 0.000000
# 5 0.000000 0.000000 0.000000 0.000000 0.029611 0.000000
# 6 0.000000 0.000000 0.000000 0.000000 0.000000 0.127188
#
#
# Mechanical properties :
#
#
# Convention : Reuss Voigt Hill
#
# Bulk Modulus (GPa) = 46.28051 50.63533 48.45792
# Shear Modulus (GPa) = 15.85816 23.89027 19.87421
#
# Velocity S-wave (km/s) = 2.83367 3.47803 3.17225
# Velocity P-wave (km/s) = 5.84295 6.46279 6.16067
#
# Compressibility (1/GPa) = 0.02160737
#
# Stress axis : x y z
#
# Youngs Moduli (GPa) = 26.49669 76.68491 50.80627
#
# Poissons Ratio (x) = 0.94159 0.68623
# Poissons Ratio (y) = 0.32535 -0.06897
# Poissons Ratio (z) = 0.35788 -0.10409
#
# Static dielectric constant tensor:
#      x y z
#    x 3.349640 0.000000 0.000000 
#    y 0.000000 3.874950 0.000000 
#    z 0.000000 0.000000 3.648060 
# 
# 
# High freq. dielectric constant tensor:
#      x y z
#    x 1.739760 0.000000 0.000000 
#    y 0.000000 1.792750 0.000000 
#    z 0.000000 0.000000 1.773420 
# 
# From -- ./inp_files/10200.got.cif
#   From: 2010.03.12/outbox.cif.g09.slc.cpg/sg53_6_cif.got.tgz:10200.got - 2010.04.16 14:36:59.
