data_PCOD8220652
_publ_section_title
;
Structure prediction by ZEFSAII (Michael W. Deem and Ramdas Pophale) SiO2 
 PCOD8220652
Probable space group: P M N A
;
_chemical_formula_sum "Si O2"
_cell_formula_units_Z 60
_cell_length_a 9.102803
_cell_length_b 19.249571
_cell_length_c 16.625846
_cell_angle_alpha 90.000000
_cell_angle_beta 90.000000
_cell_angle_gamma 90.000000
_cell_volume 2913.264741
_symmetry_space_group_name_H-M "P M N A"
_symmetry_group_IT_number 53
_symmetry_cell_setting 'orthorhombic'
loop_
_space_group_symop_operation_xyz
x,y,z
1/2-x,-y,1/2+z
x,-y,-z
1/2-x,y,1/2-z
-x,-y,-z
1/2+x,y,1/2-z
-x,y,z
1/2+x,-y,1/2+z
loop_
_atom_site_type_symbol
_atom_site_label
_atom_site_fract_x
_atom_site_fract_y
_atom_site_fract_z
Si Si1 0.164449 0.380800 0.127572
Si Si2 0.750000 0.732653 0.750000
Si Si3 0.172139 0.645508 0.047836
Si Si4 0.828832 0.528800 0.172939
Si Si5 0.328254 0.982359 0.906633
Si Si6 0.663675 0.170838 0.110498
Si Si7 0.325474 0.220029 0.942341
Si Si8 0.323972 0.108796 0.667511
O O1 0.157556 0.317948 0.192034
O O2 0.239432 0.451101 0.161004
O O3 0.000000 0.402570 0.105281
O O4 0.237850 0.360530 0.042779
O O5 0.840376 0.784262 0.692473
O O6 0.204856 0.574238 0.094294
O O7 0.263106 0.707054 0.090775
O O8 0.000000 0.664476 0.049603
O O9 0.750000 0.562661 0.250000
O O10 0.000000 0.526539 0.192422
O O11 0.500000 0.992447 0.883399
O O12 0.226861 0.030906 0.851946
O O13 0.263727 0.905565 0.884053
O O14 0.303385 0.000000 0.000000
O O15 0.500000 0.151970 0.084967
O O16 0.725884 0.215476 0.036165
O O17 0.500000 0.215327 0.927837
O O18 0.241750 0.157493 0.900782
O O19 0.250000 0.133664 0.750000
O O20 0.500000 0.113995 0.671924
#
# Coordination Sequence:
#
# PCOD8220652 Si02
#       8
#     8   4   8   8   8   8   8   8
#     4  10  20  36  59  86 122 167 207 251 310 380
#     4  12  20  36  60  94 126 162 204 258 314 378
#     4  10  21  39  61  89 122 162 210 260 314 380
#     4  10  21  38  61  87 121 160 207 259 315 376
#     4  10  20  41  67  90 126 172 210 254 315 378
#     4  10  22  38  59  90 127 166 205 251 316 378
#     4  11  22  42  66  90 124 167 208 257 322 381
#     4  12  26  44  66  96 127 166 219 269 319 376
#
# _framework density 20.595451000000001
#
# number of rings (size 3 to 8) (size 9 to 14) (size 15 to 20)
#    0.000    1.467    3.333    2.400    0.933    2.933 
#    0.000    2.667    0.000    1.600    0.000    0.000 
#    0.000    0.000    0.000    0.000    0.000    0.000 
#
# Total GULP energy -743638.353291 kJ/mol
# GULP energy per Si atom -12393.972555 kJ/mol
# Density = 2.054858 g / cm^3
# Si number density = 20.595451 Si / 1000 Ang^3
#
#
#
# Elastic Constant Matrix: (Units=GPa)
#
#
# Indices 1 2 3 4 5 6 
#
# 1 87.6671 39.8623 35.6164 0.0000 0.0000 0.0000
# 2 39.8623 150.7239 53.5595 0.0000 0.0000 0.0000
# 3 35.6164 53.5595 118.8569 0.0000 0.0000 0.0000
# 4 0.0000 0.0000 0.0000 36.5556 0.0000 0.0000
# 5 0.0000 0.0000 0.0000 0.0000 26.2272 0.0000
# 6 0.0000 0.0000 0.0000 0.0000 0.0000 30.4555
#
#
#
# Elastic Compliance Matrix: (Units=1/GPa)
#
#
# Indices 1 2 3 4 5 6 
#
# 1 0.013790 -0.002594 -0.002963 0.000000 0.000000 0.000000
# 2 -0.002594 0.008388 -0.003002 0.000000 0.000000 0.000000
# 3 -0.002963 -0.003002 0.010654 0.000000 0.000000 0.000000
# 4 0.000000 0.000000 0.000000 0.027356 0.000000 0.000000
# 5 0.000000 0.000000 0.000000 0.000000 0.038128 0.000000
# 6 0.000000 0.000000 0.000000 0.000000 0.000000 0.032835
#
#
# Mechanical properties :
#
#
# Convention : Reuss Voigt Hill
#
# Bulk Modulus (GPa) = 63.64300 68.36938 66.00619
# Shear Modulus (GPa) = 32.57159 33.86165 33.21662
#
# Velocity S-wave (km/s) = 3.98111 4.05919 4.02034
# Velocity P-wave (km/s) = 7.21810 7.43221 7.32594
#
# Compressibility (1/GPa) = 0.01571265
#
# Stress axis : x y z
#
# Youngs Moduli (GPa) = 72.51490 119.22398 93.85814
#
# Poissons Ratio (x) = 0.30928 0.27814
# Poissons Ratio (y) = 0.18811 0.28179
# Poissons Ratio (z) = 0.21489 0.35794
#
# Static dielectric constant tensor:
#      x y z
#    x 3.377180 0.000000 0.000000 
#    y 0.000000 3.864400 0.000000 
#    z 0.000000 0.000000 3.756100 
# 
# 
# High freq. dielectric constant tensor:
#      x y z
#    x 1.775140 0.000000 0.000000 
#    y 0.000000 1.822250 0.000000 
#    z 0.000000 0.000000 1.810270 
# 
# From -- ./inp_files/26565.got.cif
#   From: 2010.03.12/outbox.cif.g09.slc.cpg/sg53_14_cif.got.tgz:26565.got - 2010.04.16 14:36:59.
