data_PCOD8220686
_publ_section_title
;
Structure prediction by ZEFSAII (Michael W. Deem and Ramdas Pophale) SiO2 
 PCOD8220686
Probable space group: P M N A
;
_chemical_formula_sum "Si O2"
_cell_formula_units_Z 24
_cell_length_a 7.895050
_cell_length_b 8.895309
_cell_length_c 16.002324
_cell_angle_alpha 90.000000
_cell_angle_beta 90.000000
_cell_angle_gamma 90.000000
_cell_volume 1123.825761
_symmetry_space_group_name_H-M "P M N A"
_symmetry_group_IT_number 53
_symmetry_cell_setting 'orthorhombic'
loop_
_space_group_symop_operation_xyz
x,y,z
1/2-x,-y,1/2+z
x,-y,-z
1/2-x,y,1/2-z
-x,-y,-z
1/2+x,y,1/2-z
-x,y,z
1/2+x,-y,1/2+z
loop_
_atom_site_type_symbol
_atom_site_label
_atom_site_fract_x
_atom_site_fract_y
_atom_site_fract_z
Si Si1 0.195499 0.880006 0.840969
Si Si2 0.000000 0.416732 0.590541
Si Si3 0.000000 0.936753 0.408902
Si Si4 0.818711 0.562067 0.906489
O O1 0.250000 0.819784 0.750000
O O2 0.217121 0.741359 0.905499
O O3 0.000000 0.939328 0.842313
O O4 0.326279 0.012410 0.863874
O O5 0.000000 0.500000 0.500000
O O6 0.000000 0.240504 0.584767
O O7 0.167305 0.473435 0.640242
O O8 0.000000 0.000000 0.500000
O O9 0.000000 0.531852 0.861572
O O10 0.828897 0.500000 0.000000
#
# Coordination Sequence:
#
# PCOD8220686 Si02
#       4
#     8   4   4   8
#     4  11  23  42  70  96 136 182 225 280 345 399
#     4  10  20  36  60  90 128 161 208 268 320 386
#     4  12  24  40  68 100 132 173 225 276 333 406
#     4   9  18  35  61  93 126 166 217 266 318 390
#
# _framework density 21.355622
#
# number of rings (size 3 to 8) (size 9 to 14) (size 15 to 20)
#    0.000    1.667    1.667    5.000    0.000    2.000 
#    0.000    1.667    0.000    0.000    0.000    0.000 
#    0.000    0.000    0.000    0.000    0.000    0.000 
#
# Total GULP energy -297318.245426 kJ/mol
# GULP energy per Si atom -12388.260226 kJ/mol
# Density = 2.130702 g / cm^3
# Si number density = 21.355622 Si / 1000 Ang^3
#
#
#
# Elastic Constant Matrix: (Units=GPa)
#
#
# Indices 1 2 3 4 5 6 
#
# 1 249.7570 100.9487 17.9094 0.0000 0.0000 0.0000
# 2 100.9487 165.1814 23.9197 0.0000 0.0000 0.0000
# 3 17.9094 23.9197 51.4486 0.0000 0.0000 0.0000
# 4 0.0000 0.0000 0.0000 22.2546 0.0000 0.0000
# 5 0.0000 0.0000 0.0000 0.0000 18.4757 0.0000
# 6 0.0000 0.0000 0.0000 0.0000 0.0000 17.8532
#
#
#
# Elastic Compliance Matrix: (Units=1/GPa)
#
#
# Indices 1 2 3 4 5 6 
#
# 1 0.005324 -0.003201 -0.000365 0.000000 0.000000 0.000000
# 2 -0.003201 0.008415 -0.002798 0.000000 0.000000 0.000000
# 3 -0.000365 -0.002798 0.020865 0.000000 0.000000 0.000000
# 4 0.000000 0.000000 0.000000 0.044935 0.000000 0.000000
# 5 0.000000 0.000000 0.000000 0.000000 0.054125 0.000000
# 6 0.000000 0.000000 0.000000 0.000000 0.000000 0.056012
#
#
# Mechanical properties :
#
#
# Convention : Reuss Voigt Hill
#
# Bulk Modulus (GPa) = 45.71269 83.54918 64.63093
# Shear Modulus (GPa) = 23.84402 33.29064 28.56733
#
# Velocity S-wave (km/s) = 3.34506 3.95254 3.66142
# Velocity P-wave (km/s) = 6.03085 7.74841 6.94295
#
# Compressibility (1/GPa) = 0.02187576
#
# Stress axis : x y z
#
# Youngs Moduli (GPa) = 187.83761 118.83231 47.92721
#
# Poissons Ratio (x) = 0.38034 0.01750
# Poissons Ratio (y) = 0.60121 0.13411
# Poissons Ratio (z) = 0.06859 0.33253
#
# Static dielectric constant tensor:
#      x y z
#    x 6.999370 0.000000 0.000000 
#    y 0.000000 3.615460 0.000000 
#    z 0.000000 0.000000 3.579050 
# 
# 
# High freq. dielectric constant tensor:
#      x y z
#    x 1.885090 0.000000 0.000000 
#    y 0.000000 1.823040 0.000000 
#    z 0.000000 0.000000 1.796700 
# 
# From -- ./inp_files/19336.got.cif
#   From: 2010.03.12/outbox.cif.g09.slc.cpg/sg53_10_cif.got.tgz:19336.got - 2010.04.16 14:36:59.
