data_PCOD8220667
_publ_section_title
;
Structure prediction by ZEFSAII (Michael W. Deem and Ramdas Pophale) SiO2 
 PCOD8220667
Probable space group: P M N A
;
_chemical_formula_sum "Si O2"
_cell_formula_units_Z 48
_cell_length_a 9.186385
_cell_length_b 28.875095
_cell_length_c 9.224344
_cell_angle_alpha 90.000000
_cell_angle_beta 90.000000
_cell_angle_gamma 90.000000
_cell_volume 2446.828639
_symmetry_space_group_name_H-M "P M N A"
_symmetry_group_IT_number 53
_symmetry_cell_setting 'orthorhombic'
loop_
_space_group_symop_operation_xyz
x,y,z
1/2-x,-y,1/2+z
x,-y,-z
1/2-x,y,1/2-z
-x,-y,-z
1/2+x,y,1/2-z
-x,y,z
1/2+x,-y,1/2+z
loop_
_atom_site_type_symbol
_atom_site_label
_atom_site_fract_x
_atom_site_fract_y
_atom_site_fract_z
Si Si1 0.500000 0.451459 0.420706
Si Si2 0.331969 0.298113 0.899767
Si Si3 0.829517 0.786809 0.608533
Si Si4 0.751137 0.615108 0.580862
Si Si5 0.500000 0.452482 0.083936
Si Si6 0.677252 0.116979 0.400964
Si Si7 0.669474 0.044437 0.899152
O O1 0.500000 0.500000 0.500000
O O2 0.624207 0.417498 0.469872
O O3 0.500000 0.464477 0.252674
O O4 0.250000 0.293174 0.750000
O O5 0.500000 0.311250 0.875306
O O6 0.317439 0.249303 0.979322
O O7 0.253881 0.337334 0.993912
O O8 0.750000 0.765379 0.750000
O O9 0.737331 0.831923 0.563886
O O10 0.000000 0.798788 0.641183
O O11 0.750000 0.628533 0.750000
O O12 0.873549 0.580265 0.534738
O O13 0.500000 0.500000 0.000000
O O14 0.750000 0.099974 0.250000
O O15 0.500000 0.115708 0.393156
O O16 0.736882 0.085268 0.529350
O O17 0.750000 0.031946 0.750000
O O18 0.500000 0.058981 0.874417
O O19 0.677324 0.000000 0.000000
#
# Coordination Sequence:
#
# PCOD8220667 Si02
#       7
#     4   8   8   8   4   8   8
#     4  10  22  36  58  90 114 148 194 234 287 348
#     4  11  25  41  60  88 120 154 195 246 300 353
#     4  10  21  40  64  91 122 159 203 250 302 365
#     4  10  21  40  60  85 115 153 195 235 289 348
#     4  10  20  36  60  82 118 154 186 238 283 342
#     4  11  22  39  64  94 127 165 210 258 310 369
#     4  11  24  41  63  92 127 169 215 264 318 374
#
# _framework density 19.617229999999999
#
# number of rings (size 3 to 8) (size 9 to 14) (size 15 to 20)
#    0.000    1.500    0.833    5.000    1.167    6.000 
#    0.000    1.667    0.000    0.000    0.000    0.000 
#    0.000    0.000    0.000    0.000    0.000    0.000 
#
# Total GULP energy -594800.324477 kJ/mol
# GULP energy per Si atom -12391.673427 kJ/mol
# Density = 1.957258 g / cm^3
# Si number density = 19.617230 Si / 1000 Ang^3
#
#
#
# Elastic Constant Matrix: (Units=GPa)
#
#
# Indices 1 2 3 4 5 6 
#
# 1 183.1619 60.1879 61.2844 0.0000 0.0000 0.0000
# 2 60.1879 94.7849 58.3792 0.0000 0.0000 0.0000
# 3 61.2844 58.3792 107.3029 0.0000 0.0000 0.0000
# 4 0.0000 0.0000 0.0000 41.0659 0.0000 0.0000
# 5 0.0000 0.0000 0.0000 0.0000 35.0947 0.0000
# 6 0.0000 0.0000 0.0000 0.0000 0.0000 34.9405
#
#
#
# Elastic Compliance Matrix: (Units=1/GPa)
#
#
# Indices 1 2 3 4 5 6 
#
# 1 0.007314 -0.003115 -0.002482 0.000000 0.000000 0.000000
# 2 -0.003115 0.017194 -0.007575 0.000000 0.000000 0.000000
# 3 -0.002482 -0.007575 0.014859 0.000000 0.000000 0.000000
# 4 0.000000 0.000000 0.000000 0.024351 0.000000 0.000000
# 5 0.000000 0.000000 0.000000 0.000000 0.028494 0.000000
# 6 0.000000 0.000000 0.000000 0.000000 0.000000 0.028620
#
#
# Mechanical properties :
#
#
# Convention : Reuss Voigt Hill
#
# Bulk Modulus (GPa) = 76.80125 82.77254 79.78690
# Shear Modulus (GPa) = 32.99923 35.91344 34.45633
#
# Velocity S-wave (km/s) = 4.10586 4.28332 4.19553
# Velocity P-wave (km/s) = 7.85572 8.16994 8.01437
#
# Compressibility (1/GPa) = 0.01302062
#
# Stress axis : x y z
#
# Youngs Moduli (GPa) = 136.72505 58.15884 67.30121
#
# Poissons Ratio (x) = 0.18119 0.16706
# Poissons Ratio (y) = 0.42596 0.50983
# Poissons Ratio (z) = 0.33939 0.44058
#
# Static dielectric constant tensor:
#      x y z
#    x 3.952300 0.000000 0.000000 
#    y 0.000000 3.521800 0.000000 
#    z 0.000000 0.000000 3.268610 
# 
# 
# High freq. dielectric constant tensor:
#      x y z
#    x 1.788580 0.000000 0.000000 
#    y 0.000000 1.775880 0.000000 
#    z 0.000000 0.000000 1.759630 
# 
# From -- ./inp_files/6858.got.cif
#   From: 2010.03.12/outbox.cif.g09.slc.cpg/sg53_4_cif.got.tgz:6858.got - 2010.04.16 14:36:59.
