data_PCOD8220825
_publ_section_title
;
Structure prediction by ZEFSAII (Michael W. Deem and Ramdas Pophale) SiO2 
 PCOD8220825
Probable space group: P M N A
;
_chemical_formula_sum "Si O2"
_cell_formula_units_Z 48
_cell_length_a 8.970773
_cell_length_b 11.265067
_cell_length_c 23.241504
_cell_angle_alpha 90.000000
_cell_angle_beta 90.000000
_cell_angle_gamma 90.000000
_cell_volume 2348.701769
_symmetry_space_group_name_H-M "P M N A"
_symmetry_group_IT_number 53
_symmetry_cell_setting 'orthorhombic'
loop_
_space_group_symop_operation_xyz
x,y,z
1/2-x,-y,1/2+z
x,-y,-z
1/2-x,y,1/2-z
-x,-y,-z
1/2+x,y,1/2-z
-x,y,z
1/2+x,-y,1/2+z
loop_
_atom_site_type_symbol
_atom_site_label
_atom_site_fract_x
_atom_site_fract_y
_atom_site_fract_z
Si Si1 0.330748 0.812534 0.911956
Si Si2 0.333664 0.188307 0.693971
Si Si3 0.328662 0.722537 0.031746
Si Si4 0.675490 0.637494 0.812273
Si Si5 0.677643 0.583811 0.374142
Si Si6 0.330775 0.054203 0.582440
O O1 0.500000 0.860396 0.911976
O O2 0.293555 0.754934 0.850091
O O3 0.222283 0.920611 0.926692
O O4 0.311063 0.713623 0.962406
O O5 0.250000 0.146277 0.750000
O O6 0.500000 0.217073 0.712887
O O7 0.267686 0.307722 0.665962
O O8 0.323336 0.079361 0.650253
O O9 0.500000 0.709587 0.050689
O O10 0.235710 0.616051 0.061629
O O11 0.271687 0.853271 0.048817
O O12 0.750000 0.652685 0.750000
O O13 0.500000 0.613641 0.804377
O O14 0.747998 0.531535 0.848014
O O15 0.500000 0.569924 0.376465
O O16 0.500000 0.067468 0.559690
#
# Coordination Sequence:
#
# PCOD8220825 Si02
#       6
#     8   8   8   8   8   8
#     4  10  23  40  58  82 114 153 193 232 280 342
#     4   9  19  33  51  78 109 141 181 230 281 333
#     4  10  20  37  61  87 115 148 187 233 287 343
#     4  11  24  42  61  83 114 153 195 236 281 335
#     4  10  21  38  59  86 116 146 187 237 290 343
#     4  10  21  36  55  83 117 150 188 237 289 340
#
# _framework density 20.436821999999999
#
# number of rings (size 3 to 8) (size 9 to 14) (size 15 to 20)
#    0.000    2.000    0.000    4.000    0.000   11.333 
#    0.000    6.667    0.000    0.000    0.000    0.000 
#    0.000    0.000    0.000    0.000    0.000    0.000 
#
# Total GULP energy -595142.935624 kJ/mol
# GULP energy per Si atom -12398.811159 kJ/mol
# Density = 2.039031 g / cm^3
# Si number density = 20.436822 Si / 1000 Ang^3
#
#
#
# Elastic Constant Matrix: (Units=GPa)
#
#
# Indices 1 2 3 4 5 6 
#
# 1 98.3180 20.1018 42.1970 0.0000 0.0000 0.0000
# 2 20.1018 44.6446 22.5147 0.0000 0.0000 0.0000
# 3 42.1970 22.5147 92.9421 0.0000 0.0000 0.0000
# 4 0.0000 0.0000 0.0000 21.1963 0.0000 0.0000
# 5 0.0000 0.0000 0.0000 0.0000 34.5702 0.0000
# 6 0.0000 0.0000 0.0000 0.0000 0.0000 217.0011
#
#
#
# Elastic Compliance Matrix: (Units=1/GPa)
#
#
# Indices 1 2 3 4 5 6 
#
# 1 0.013043 -0.003288 -0.005125 0.000000 0.000000 0.000000
# 2 -0.003288 0.026345 -0.004889 0.000000 0.000000 0.000000
# 3 -0.005125 -0.004889 0.014271 0.000000 0.000000 0.000000
# 4 0.000000 0.000000 0.000000 0.047178 0.000000 0.000000
# 5 0.000000 0.000000 0.000000 0.000000 0.028927 0.000000
# 6 0.000000 0.000000 0.000000 0.000000 0.000000 0.004608
#
#
# Mechanical properties :
#
#
# Convention : Reuss Voigt Hill
#
# Bulk Modulus (GPa) = 36.96303 45.05911 41.01107
# Shear Modulus (GPa) = 29.41264 64.62626 47.01945
#
# Velocity S-wave (km/s) = 3.79779 5.62949 4.80179
# Velocity P-wave (km/s) = 6.11201 8.02189 7.13118
#
# Compressibility (1/GPa) = 0.02705406
#
# Stress axis : x y z
#
# Youngs Moduli (GPa) = 76.66933 37.95748 70.07380
#
# Poissons Ratio (x) = 0.12481 0.35914
# Poissons Ratio (y) = 0.25210 0.34260
# Poissons Ratio (z) = 0.39295 0.18558
#
# Static dielectric constant tensor:
#      x y z
#    x 3.787650 0.000000 0.000000 
#    y 0.000000 3.447280 0.000000 
#    z 0.000000 0.000000 3.914000 
# 
# 
# High freq. dielectric constant tensor:
#      x y z
#    x 1.806650 0.000000 0.000000 
#    y 0.000000 1.782940 0.000000 
#    z 0.000000 0.000000 1.810010 
# 
# From -- ./inp_files/33914.got.cif
#   From: 2010.03.12/outbox.cif.g09.slc.cpg/sg53_17_cif.got.tgz:33914.got - 2010.04.16 14:36:59.
