data_PCOD8220829
_publ_section_title
;
Structure prediction by ZEFSAII (Michael W. Deem and Ramdas Pophale) SiO2 
 PCOD8220829
Probable space group: P M N A
;
_chemical_formula_sum "Si O2"
_cell_formula_units_Z 64
_cell_length_a 8.818485
_cell_length_b 12.451373
_cell_length_c 28.740750
_cell_angle_alpha 90.000000
_cell_angle_beta 90.000000
_cell_angle_gamma 90.000000
_cell_volume 3155.798903
_symmetry_space_group_name_H-M "P M N A"
_symmetry_group_IT_number 53
_symmetry_cell_setting 'orthorhombic'
loop_
_space_group_symop_operation_xyz
x,y,z
1/2-x,-y,1/2+z
x,-y,-z
1/2-x,y,1/2-z
-x,-y,-z
1/2+x,y,1/2-z
-x,y,z
1/2+x,-y,1/2+z
loop_
_atom_site_type_symbol
_atom_site_label
_atom_site_fract_x
_atom_site_fract_y
_atom_site_fract_z
Si Si1 0.677409 0.501022 0.798796
Si Si2 0.322493 0.098715 0.864540
Si Si3 0.179046 0.926702 0.800425
Si Si4 0.320774 0.342178 0.877062
Si Si5 0.176956 0.278489 0.345497
Si Si6 0.827392 0.737317 0.938403
Si Si7 0.821304 0.383681 0.519409
Si Si8 0.327201 0.986583 0.552230
O O1 0.750000 0.469191 0.750000
O O2 0.500000 0.480607 0.794799
O O3 0.746691 0.424768 0.839097
O O4 0.713190 0.624670 0.810436
O O5 0.500000 0.082374 0.855635
O O6 0.274031 0.222793 0.861621
O O7 0.230659 0.036065 0.825007
O O8 0.281928 0.056576 0.915649
O O9 0.250000 0.918756 0.750000
O O10 0.228706 0.824727 0.830392
O O11 0.000000 0.926595 0.795980
O O12 0.500000 0.354875 0.879467
O O13 0.256802 0.371002 0.928256
O O14 0.228817 0.315322 0.396977
O O15 0.000000 0.249791 0.346046
O O16 0.817073 0.864344 0.932068
O O17 0.000000 0.697066 0.934823
O O18 0.759735 0.705450 0.988069
O O19 0.777216 0.500000 0.500000
O O20 0.000000 0.363002 0.517190
O O21 0.500000 0.028960 0.556595
O O22 0.267199 0.000000 0.500000
#
# Coordination Sequence:
#
# PCOD8220829 Si02
#       8
#     8   8   8   8   8   8   8   8
#     4  10  22  41  64  90 120 154 197 250 310 368
#     4  11  22  38  61  88 120 160 207 253 301 363
#     4  12  25  42  63  89 123 160 203 257 315 372
#     4   9  20  39  61  88 123 161 204 253 301 360
#     4  11  22  39  64  92 123 161 203 252 309 372
#     4  11  22  35  56  87 124 162 199 252 306 362
#     4  10  20  37  61  87 119 164 211 255 306 365
#     4  10  21  37  56  82 120 163 202 248 306 358
#
# _framework density 20.280125999999999
#
# number of rings (size 3 to 8) (size 9 to 14) (size 15 to 20)
#    0.000    1.500    1.250    4.125    0.000    5.500 
#    0.000    3.750    0.000    0.000    0.000    0.000 
#    0.000    0.000    0.000    0.000    0.000    0.000 
#
# Total GULP energy -793920.639742 kJ/mol
# GULP energy per Si atom -12405.009996 kJ/mol
# Density = 2.023397 g / cm^3
# Si number density = 20.280126 Si / 1000 Ang^3
#
#
#
# Elastic Constant Matrix: (Units=GPa)
#
#
# Indices 1 2 3 4 5 6 
#
# 1 83.7471 45.3933 40.2086 0.0000 0.0000 0.0000
# 2 45.3933 96.5930 48.1155 0.0000 0.0000 0.0000
# 3 40.2086 48.1155 154.8457 0.0000 0.0000 0.0000
# 4 0.0000 0.0000 0.0000 33.1567 0.0000 0.0000
# 5 0.0000 0.0000 0.0000 0.0000 34.6134 0.0000
# 6 0.0000 0.0000 0.0000 0.0000 0.0000 14.7816
#
#
#
# Elastic Compliance Matrix: (Units=1/GPa)
#
#
# Indices 1 2 3 4 5 6 
#
# 1 0.016653 -0.006711 -0.002239 0.000000 0.000000 0.000000
# 2 -0.006711 0.014953 -0.002904 0.000000 0.000000 0.000000
# 3 -0.002239 -0.002904 0.007942 0.000000 0.000000 0.000000
# 4 0.000000 0.000000 0.000000 0.030160 0.000000 0.000000
# 5 0.000000 0.000000 0.000000 0.000000 0.028891 0.000000
# 6 0.000000 0.000000 0.000000 0.000000 0.000000 0.067652
#
#
# Mechanical properties :
#
#
# Convention : Reuss Voigt Hill
#
# Bulk Modulus (GPa) = 63.12878 66.95784 65.04331
# Shear Modulus (GPa) = 25.60992 29.94157 27.77575
#
# Velocity S-wave (km/s) = 3.55746 3.84656 3.70483
# Velocity P-wave (km/s) = 6.93325 7.26748 7.10233
#
# Compressibility (1/GPa) = 0.01584064
#
# Stress axis : x y z
#
# Youngs Moduli (GPa) = 60.04882 66.87707 125.91680
#
# Poissons Ratio (x) = 0.44879 0.28194
# Poissons Ratio (y) = 0.40297 0.36563
# Poissons Ratio (z) = 0.13445 0.19420
#
# Static dielectric constant tensor:
#      x y z
#    x 3.535250 0.000000 0.000000 
#    y 0.000000 3.711420 0.000000 
#    z 0.000000 0.000000 3.906240 
# 
# 
# High freq. dielectric constant tensor:
#      x y z
#    x 1.779480 0.000000 0.000000 
#    y 0.000000 1.795680 0.000000 
#    z 0.000000 0.000000 1.807670 
# 
# From -- ./inp_files/38246.got.cif
#   From: 2010.03.12/outbox.cif.g09.slc.cpg/sg53_20_cif.got.tgz:38246.got - 2010.04.16 14:36:59.
