data_PCOD8220584
_publ_section_title
;
Structure prediction by ZEFSAII (Michael W. Deem and Ramdas Pophale) SiO2 
 PCOD8220584
Probable space group: P M N A
;
_chemical_formula_sum "Si O2"
_cell_formula_units_Z 64
_cell_length_a 8.847210
_cell_length_b 16.624807
_cell_length_c 21.631549
_cell_angle_alpha 90.000000
_cell_angle_beta 90.000000
_cell_angle_gamma 90.000000
_cell_volume 3181.636555
_symmetry_space_group_name_H-M "P M N A"
_symmetry_group_IT_number 53
_symmetry_cell_setting 'orthorhombic'
loop_
_space_group_symop_operation_xyz
x,y,z
1/2-x,-y,1/2+z
x,-y,-z
1/2-x,y,1/2-z
-x,-y,-z
1/2+x,y,1/2-z
-x,y,z
1/2+x,-y,1/2+z
loop_
_atom_site_type_symbol
_atom_site_label
_atom_site_fract_x
_atom_site_fract_y
_atom_site_fract_z
Si Si1 0.829478 0.802930 0.307428
Si Si2 0.172126 0.716907 0.433884
Si Si3 0.674237 0.951007 0.361371
Si Si4 0.679142 0.267870 0.185840
Si Si5 0.321817 0.467319 0.932816
Si Si6 0.675220 0.890478 0.886948
Si Si7 0.681443 0.561492 0.682401
Si Si8 0.173703 0.136637 0.988628
O O1 0.750000 0.758657 0.250000
O O2 0.810384 0.742910 0.363600
O O3 0.753843 0.889451 0.315877
O O4 0.000000 0.820184 0.290579
O O5 0.223708 0.625534 0.436950
O O6 0.281542 0.771004 0.475477
O O7 0.000000 0.728236 0.457525
O O8 0.500000 0.951994 0.344986
O O9 0.704682 0.921328 0.431095
O O10 0.738856 0.039941 0.349434
O O11 0.750000 0.238734 0.250000
O O12 0.500000 0.283021 0.192255
O O13 0.717771 0.198134 0.137180
O O14 0.760001 0.349749 0.164346
O O15 0.500000 0.480781 0.921797
O O16 0.234340 0.504876 0.874163
O O17 0.271160 0.500000 0.000000
O O18 0.500000 0.907900 0.879443
O O19 0.722263 0.897747 0.957824
O O20 0.750000 0.536098 0.750000
O O21 0.500000 0.559882 0.687268
O O22 0.000000 0.134088 0.009544
#
# Coordination Sequence:
#
# PCOD8220584 Si02
#       8
#     8   8   8   8   8   8   8   8
#     4  10  20  36  58  82 112 149 193 237 286 345
#     4   9  20  38  58  84 116 154 193 234 289 350
#     4  10  21  37  55  80 114 149 190 238 289 340
#     4  10  22  40  60  83 112 147 191 238 289 346
#     4  10  22  40  63  92 128 163 200 250 307 364
#     4  11  23  36  56  83 112 150 192 236 289 347
#     4  11  23  41  65  90 121 160 204 249 301 363
#     4  10  21  36  56  82 114 151 191 238 288 341
#
# _framework density 20.115432999999999
#
# number of rings (size 3 to 8) (size 9 to 14) (size 15 to 20)
#    0.000    1.875    0.000    4.125    1.750    7.250 
#    0.000    2.500    0.000    0.000    0.000    0.000 
#    0.000    0.000    0.000    0.000    0.000    0.000 
#
# Total GULP energy -793583.601408 kJ/mol
# GULP energy per Si atom -12399.743772 kJ/mol
# Density = 2.006965 g / cm^3
# Si number density = 20.115433 Si / 1000 Ang^3
#
#
#
# Elastic Constant Matrix: (Units=GPa)
#
#
# Indices 1 2 3 4 5 6 
#
# 1 93.4998 41.5302 36.7562 0.0000 0.0000 0.0000
# 2 41.5302 104.7736 24.2262 0.0000 0.0000 0.0000
# 3 36.7562 24.2262 67.4731 0.0000 0.0000 0.0000
# 4 0.0000 0.0000 0.0000 9.2904 0.0000 0.0000
# 5 0.0000 0.0000 0.0000 0.0000 32.2311 0.0000
# 6 0.0000 0.0000 0.0000 0.0000 0.0000 15.9182
#
#
#
# Elastic Compliance Matrix: (Units=1/GPa)
#
#
# Indices 1 2 3 4 5 6 
#
# 1 0.015356 -0.004529 -0.006739 0.000000 0.000000 0.000000
# 2 -0.004529 0.011744 -0.001750 0.000000 0.000000 0.000000
# 3 -0.006739 -0.001750 0.019120 0.000000 0.000000 0.000000
# 4 0.000000 0.000000 0.000000 0.107639 0.000000 0.000000
# 5 0.000000 0.000000 0.000000 0.000000 0.031026 0.000000
# 6 0.000000 0.000000 0.000000 0.000000 0.000000 0.062821
#
#
# Mechanical properties :
#
#
# Convention : Reuss Voigt Hill
#
# Bulk Modulus (GPa) = 49.54148 52.30796 50.92472
# Shear Modulus (GPa) = 17.82726 22.37018 20.09872
#
# Velocity S-wave (km/s) = 2.98022 3.33842 3.16439
# Velocity P-wave (km/s) = 6.04354 6.39691 6.22273
#
# Compressibility (1/GPa) = 0.02018510
#
# Stress axis : x y z
#
# Youngs Moduli (GPa) = 65.12126 85.14989 52.30075
#
# Poissons Ratio (x) = 0.38560 0.35247
# Poissons Ratio (y) = 0.29490 0.09151
# Poissons Ratio (z) = 0.43887 0.14899
#
# Static dielectric constant tensor:
#      x y z
#    x 3.728660 0.000000 0.000000 
#    y 0.000000 3.695500 0.000000 
#    z 0.000000 0.000000 3.646080 
# 
# 
# High freq. dielectric constant tensor:
#      x y z
#    x 1.791560 0.000000 0.000000 
#    y 0.000000 1.788190 0.000000 
#    z 0.000000 0.000000 1.787000 
# 
# From -- ./inp_files/34223.got.cif
#   From: 2010.03.12/outbox.cif.g09.slc.cpg/sg53_18_cif.got.tgz:34223.got - 2010.04.16 14:36:59.
