data_PCOD8220875
_publ_section_title
;
Structure prediction by ZEFSAII (Michael W. Deem and Ramdas Pophale) SiO2 
 PCOD8220875
Probable space group: P M N A
;
_chemical_formula_sum "Si O2"
_cell_formula_units_Z 56
_cell_length_a 18.200010
_cell_length_b 13.724049
_cell_length_c 11.183336
_cell_angle_alpha 90.000000
_cell_angle_beta 90.000000
_cell_angle_gamma 90.000000
_cell_volume 2793.349388
_symmetry_space_group_name_H-M "P M N A"
_symmetry_group_IT_number 53
_symmetry_cell_setting 'orthorhombic'
loop_
_space_group_symop_operation_xyz
x,y,z
1/2-x,-y,1/2+z
x,-y,-z
1/2-x,y,1/2-z
-x,-y,-z
1/2+x,y,1/2-z
-x,y,z
1/2+x,-y,1/2+z
loop_
_atom_site_type_symbol
_atom_site_label
_atom_site_fract_x
_atom_site_fract_y
_atom_site_fract_z
Si Si1 0.413848 0.644441 0.337453
Si Si2 0.330645 0.213564 0.806038
Si Si3 0.582433 0.972958 0.137444
Si Si4 0.179329 0.306397 0.444821
Si Si5 0.084598 0.819375 0.734148
Si Si6 0.167783 0.526619 0.722422
Si Si7 0.652031 0.688058 0.586403
O O1 0.500000 0.634878 0.349243
O O2 0.389855 0.749982 0.290320
O O3 0.385516 0.564537 0.241720
O O4 0.378282 0.636018 0.468071
O O5 0.250000 0.212884 0.750000
O O6 0.354217 0.105123 0.838778
O O7 0.336226 0.289298 0.916143
O O8 0.500000 0.932322 0.162583
O O9 0.598149 0.065119 0.223133
O O10 0.589004 0.000000 0.000000
O O11 0.131147 0.232955 0.368095
O O12 0.164092 0.420350 0.408561
O O13 0.263982 0.279784 0.422924
O O14 0.107252 0.783474 0.867810
O O15 0.000000 0.793933 0.709890
O O16 0.250000 0.489597 0.750000
O O17 0.141244 0.608377 0.812727
#
# Coordination Sequence:
#
# PCOD8220875 Si02
#       7
#     8   8   8   8   8   8   8
#     4  12  25  40  60  91 130 165 205 256 314 378
#     4  12  24  41  62  90 124 167 210 259 319 377
#     4  10  21  40  64  91 121 161 209 261 319 375
#     4  10  21  40  64  90 122 161 215 261 308 370
#     4  10  20  37  65  94 125 160 205 264 320 372
#     4   9  21  39  63  88 118 161 206 257 302 366
#     4  10  21  40  63  93 124 167 208 252 309 381
#
# _framework density 20.047616999999999
#
# number of rings (size 3 to 8) (size 9 to 14) (size 15 to 20)
#    0.000    1.571    2.857    3.000    0.000    5.714 
#    0.000    1.429    0.000    2.571    0.000    0.000 
#    0.000    0.000    0.000    0.000    0.000    0.000 
#
# Total GULP energy -694240.499310 kJ/mol
# GULP energy per Si atom -12397.151773 kJ/mol
# Density = 2.000199 g / cm^3
# Si number density = 20.047617 Si / 1000 Ang^3
#
#
#
# Elastic Constant Matrix: (Units=GPa)
#
#
# Indices 1 2 3 4 5 6 
#
# 1 133.9649 55.5699 50.1181 0.0000 0.0000 0.0000
# 2 55.5699 71.7282 38.2677 0.0000 0.0000 0.0000
# 3 50.1181 38.2677 75.5335 0.0000 0.0000 0.0000
# 4 0.0000 0.0000 0.0000 17.8224 0.0000 0.0000
# 5 0.0000 0.0000 0.0000 0.0000 28.3674 0.0000
# 6 0.0000 0.0000 0.0000 0.0000 0.0000 31.8149
#
#
#
# Elastic Compliance Matrix: (Units=1/GPa)
#
#
# Indices 1 2 3 4 5 6 
#
# 1 0.012003 -0.006921 -0.004458 0.000000 0.000000 0.000000
# 2 -0.006921 0.023096 -0.007109 0.000000 0.000000 0.000000
# 3 -0.004458 -0.007109 0.019799 0.000000 0.000000 0.000000
# 4 0.000000 0.000000 0.000000 0.056109 0.000000 0.000000
# 5 0.000000 0.000000 0.000000 0.000000 0.035252 0.000000
# 6 0.000000 0.000000 0.000000 0.000000 0.000000 0.031432
#
#
# Mechanical properties :
#
#
# Convention : Reuss Voigt Hill
#
# Bulk Modulus (GPa) = 55.79683 63.23757 59.51720
# Shear Modulus (GPa) = 22.66121 24.75232 23.70676
#
# Velocity S-wave (km/s) = 3.36574 3.51761 3.44251
# Velocity P-wave (km/s) = 6.55720 6.93616 6.74934
#
# Compressibility (1/GPa) = 0.01792217
#
# Stress axis : x y z
#
# Youngs Moduli (GPa) = 83.31024 43.29742 50.50784
#
# Poissons Ratio (x) = 0.29966 0.22517
# Poissons Ratio (y) = 0.57658 0.35906
# Poissons Ratio (z) = 0.37141 0.30780
#
# Static dielectric constant tensor:
#      x y z
#    x 3.661450 0.000000 0.000000 
#    y 0.000000 3.744230 0.000000 
#    z 0.000000 0.000000 3.954310 
# 
# 
# High freq. dielectric constant tensor:
#      x y z
#    x 1.785640 0.000000 0.000000 
#    y 0.000000 1.778610 0.000000 
#    z 0.000000 0.000000 1.784330 
# 
# From -- ./inp_files/16072.got.cif
#   From: 2010.03.12/outbox.cif.g09.slc.cpg/sg53_9_cif.got.tgz:16072.got - 2010.04.16 14:36:59.
