data_PCOD8220337
_publ_section_title
;
Structure prediction by ZEFSAII (Michael W. Deem and Ramdas Pophale) SiO2 
 PCOD8220337
Probable space group: P M N A
;
_chemical_formula_sum "Si O2"
_cell_formula_units_Z 36
_cell_length_a 20.121334
_cell_length_b 16.981564
_cell_length_c 5.243869
_cell_angle_alpha 90.000000
_cell_angle_beta 90.000000
_cell_angle_gamma 90.000000
_cell_volume 1791.786624
_symmetry_space_group_name_H-M "P M N A"
_symmetry_group_IT_number 53
_symmetry_cell_setting 'orthorhombic'
loop_
_space_group_symop_operation_xyz
x,y,z
1/2-x,-y,1/2+z
x,-y,-z
1/2-x,y,1/2-z
-x,-y,-z
1/2+x,y,1/2-z
-x,y,z
1/2+x,-y,1/2+z
loop_
_atom_site_type_symbol
_atom_site_label
_atom_site_fract_x
_atom_site_fract_y
_atom_site_fract_z
Si Si1 0.750000 0.798777 0.250000
Si Si2 0.183246 0.920660 0.615265
Si Si3 0.077495 0.451573 0.747183
Si Si4 0.119347 0.721580 0.192800
Si Si5 0.074718 0.194292 0.288055
O O1 0.793325 0.853022 0.429198
O O2 0.695397 0.743433 0.384085
O O3 0.250000 0.951046 0.750000
O O4 0.124755 0.878934 0.779320
O O5 0.151066 0.000000 0.500000
O O6 0.101319 0.500000 0.500000
O O7 0.118018 0.371022 0.758206
O O8 0.000000 0.430804 0.725965
O O9 0.093913 0.500000 0.000000
O O10 0.092898 0.764515 0.445862
O O11 0.075902 0.744089 0.945551
O O12 0.000000 0.160852 0.310339
#
# Coordination Sequence:
#
# PCOD8220337 Si02
#       5
#     4   8   8   8   8
#     4  10  22  38  60  86 114 160 206 244 294 362
#     4  11  21  38  62  86 120 161 207 250 302 365
#     4  10  20  35  56  83 115 153 195 240 297 359
#     4  11  22  39  62  87 122 157 201 249 299 360
#     4  11  23  38  61  91 122 158 202 254 306 355
#
# _framework density 20.091678999999999
#
# number of rings (size 3 to 8) (size 9 to 14) (size 15 to 20)
#    0.000    1.333    3.333    3.333    0.000    2.222 
#    0.000    1.111    0.000    4.667    0.000    0.000 
#    0.000    0.000    0.000    0.000    0.000    0.000 
#
# Total GULP energy -446190.751181 kJ/mol
# GULP energy per Si atom -12394.187533 kJ/mol
# Density = 2.004595 g / cm^3
# Si number density = 20.091679 Si / 1000 Ang^3
#
#
#
# Elastic Constant Matrix: (Units=GPa)
#
#
# Indices 1 2 3 4 5 6 
#
# 1 107.7314 60.3117 26.3063 0.0000 0.0000 0.0000
# 2 60.3117 143.0983 38.7329 0.0000 0.0000 0.0000
# 3 26.3063 38.7329 120.1405 0.0000 0.0000 0.0000
# 4 0.0000 0.0000 0.0000 31.2062 0.0000 0.0000
# 5 0.0000 0.0000 0.0000 0.0000 7.7319 0.0000
# 6 0.0000 0.0000 0.0000 0.0000 0.0000 24.9503
#
#
#
# Elastic Compliance Matrix: (Units=1/GPa)
#
#
# Indices 1 2 3 4 5 6 
#
# 1 0.012285 -0.004875 -0.001118 0.000000 0.000000 0.000000
# 2 -0.004875 0.009591 -0.002025 0.000000 0.000000 0.000000
# 3 -0.001118 -0.002025 0.009221 0.000000 0.000000 0.000000
# 4 0.000000 0.000000 0.000000 0.032045 0.000000 0.000000
# 5 0.000000 0.000000 0.000000 0.000000 0.129335 0.000000
# 6 0.000000 0.000000 0.000000 0.000000 0.000000 0.040080
#
#
# Mechanical properties :
#
#
# Convention : Reuss Voigt Hill
#
# Bulk Modulus (GPa) = 66.39638 69.07469 67.73553
# Shear Modulus (GPa) = 19.71520 29.15230 24.43375
#
# Velocity S-wave (km/s) = 3.13591 3.81328 3.49106
# Velocity P-wave (km/s) = 6.79929 7.33775 7.07364
#
# Compressibility (1/GPa) = 0.01506106
#
# Stress axis : x y z
#
# Youngs Moduli (GPa) = 81.40325 104.26615 108.44606
#
# Poissons Ratio (x) = 0.50829 0.12127
# Poissons Ratio (y) = 0.39683 0.21956
# Poissons Ratio (z) = 0.09103 0.21110
#
# Static dielectric constant tensor:
#      x y z
#    x 4.087220 0.000000 0.000000 
#    y 0.000000 3.837620 0.000000 
#    z 0.000000 0.000000 3.548920 
# 
# 
# High freq. dielectric constant tensor:
#      x y z
#    x 1.779940 0.000000 0.000000 
#    y 0.000000 1.784970 0.000000 
#    z 0.000000 0.000000 1.785170 
# 
# From -- ./inp_files/2755.got.cif
#   From: 2010.03.12/outbox.cif.g09.slc.cpg/sg53_2_cif.got.tgz:2755.got - 2010.04.16 14:36:59.
