data_PCOD8220044
_publ_section_title
;
Structure prediction by ZEFSAII (Michael W. Deem and Ramdas Pophale) SiO2 
 PCOD8220044
Probable space group: P M N A
;
_chemical_formula_sum "Si O2"
_cell_formula_units_Z 64
_cell_length_a 9.344398
_cell_length_b 14.512224
_cell_length_c 24.740822
_cell_angle_alpha 90.000000
_cell_angle_beta 90.000000
_cell_angle_gamma 90.000000
_cell_volume 3355.053314
_symmetry_space_group_name_H-M "P M N A"
_symmetry_group_IT_number 53
_symmetry_cell_setting 'orthorhombic'
loop_
_space_group_symop_operation_xyz
x,y,z
1/2-x,-y,1/2+z
x,-y,-z
1/2-x,y,1/2-z
-x,-y,-z
1/2+x,y,1/2-z
-x,y,z
1/2+x,-y,1/2+z
loop_
_atom_site_type_symbol
_atom_site_label
_atom_site_fract_x
_atom_site_fract_y
_atom_site_fract_z
Si Si1 0.667916 0.179587 0.801777
Si Si2 0.166591 0.720674 0.410760
Si Si3 0.671182 0.792360 0.696578
Si Si4 0.333070 0.487560 0.938437
Si Si5 0.339385 0.353336 0.394510
Si Si6 0.160926 0.936126 0.548110
Si Si7 0.839201 0.778757 0.988756
Si Si8 0.337500 0.975233 0.832090
O O1 0.750000 0.220217 0.750000
O O2 0.500000 0.190006 0.792498
O O3 0.716482 0.240581 0.852987
O O4 0.711801 0.072506 0.807740
O O5 0.203145 0.613170 0.415771
O O6 0.251268 0.775905 0.456240
O O7 0.000000 0.739905 0.420688
O O8 0.750000 0.753750 0.750000
O O9 0.500000 0.797315 0.703840
O O10 0.715417 0.723026 0.648295
O O11 0.729677 0.895390 0.686105
O O12 0.500000 0.509737 0.937120
O O13 0.259489 0.556659 0.895721
O O14 0.276159 0.500000 0.000000
O O15 0.500000 0.382789 0.378521
O O16 0.336105 0.316121 0.455857
O O17 0.268318 0.851112 0.552139
O O18 0.167845 0.991509 0.603754
O O19 0.000000 0.900632 0.536406
O O20 0.216125 0.000000 0.500000
O O21 0.000000 0.808817 0.002707
O O22 0.500000 0.949214 0.814230
#
# Coordination Sequence:
#
# PCOD8220044 Si02
#       8
#     8   8   8   8   8   8   8   8
#     4  10  22  40  60  82 113 150 191 238 284 333
#     4  10  21  39  60  85 117 150 189 239 287 342
#     4  11  23  40  59  83 115 152 194 238 285 336
#     4  10  20  35  60  90 114 147 192 234 280 338
#     4  10  22  38  56  82 119 152 181 230 290 340
#     4  10  20  34  53  79 114 155 194 232 282 342
#     4  11  21  34  54  84 118 151 185 229 287 343
#     4  10  20  35  57  84 111 148 193 234 281 333
#
# _framework density 19.075704999999999
#
# number of rings (size 3 to 8) (size 9 to 14) (size 15 to 20)
#    0.000    1.750    2.500    1.875    0.000    6.500 
#    0.000    1.875    0.000    3.000    0.000    0.000 
#    0.000    0.000    0.000    0.000    0.000    0.000 
#
# Total GULP energy -793641.123672 kJ/mol
# GULP energy per Si atom -12400.642557 kJ/mol
# Density = 1.903229 g / cm^3
# Si number density = 19.075705 Si / 1000 Ang^3
#
#
#
# Elastic Constant Matrix: (Units=GPa)
#
#
# Indices 1 2 3 4 5 6 
#
# 1 68.4455 40.3291 42.1324 0.0000 0.0000 0.0000
# 2 40.3291 84.2434 42.1636 0.0000 0.0000 0.0000
# 3 42.1324 42.1636 122.4140 0.0000 0.0000 0.0000
# 4 0.0000 0.0000 0.0000 23.1195 0.0000 0.0000
# 5 0.0000 0.0000 0.0000 0.0000 31.0878 0.0000
# 6 0.0000 0.0000 0.0000 0.0000 0.0000 26.8156
#
#
#
# Elastic Compliance Matrix: (Units=1/GPa)
#
#
# Indices 1 2 3 4 5 6 
#
# 1 0.022530 -0.008343 -0.004881 0.000000 0.000000 0.000000
# 2 -0.008343 0.017432 -0.003133 0.000000 0.000000 0.000000
# 3 -0.004881 -0.003133 0.010928 0.000000 0.000000 0.000000
# 4 0.000000 0.000000 0.000000 0.043253 0.000000 0.000000
# 5 0.000000 0.000000 0.000000 0.000000 0.032167 0.000000
# 6 0.000000 0.000000 0.000000 0.000000 0.000000 0.037292
#
#
# Mechanical properties :
#
#
# Convention : Reuss Voigt Hill
#
# Bulk Modulus (GPa) = 55.01349 58.26146 56.63747
# Shear Modulus (GPa) = 24.70658 26.23645 25.47152
#
# Velocity S-wave (km/s) = 3.60277 3.71264 3.65812
# Velocity P-wave (km/s) = 6.79771 6.99906 6.89912
#
# Compressibility (1/GPa) = 0.01817736
#
# Stress axis : x y z
#
# Youngs Moduli (GPa) = 44.38432 57.36493 91.50829
#
# Poissons Ratio (x) = 0.47859 0.44665
# Poissons Ratio (y) = 0.37029 0.28668
# Poissons Ratio (z) = 0.21664 0.17971
#
# Static dielectric constant tensor:
#      x y z
#    x 3.441220 0.000000 0.000000 
#    y 0.000000 3.372020 0.000000 
#    z 0.000000 0.000000 3.547060 
# 
# 
# High freq. dielectric constant tensor:
#      x y z
#    x 1.738300 0.000000 0.000000 
#    y 0.000000 1.731560 0.000000 
#    z 0.000000 0.000000 1.743380 
# 
# From -- ./inp_files/34189.got.cif
#   From: 2010.03.12/outbox.cif.g09.slc.cpg/sg53_18_cif.got.tgz:34189.got - 2010.04.16 14:36:59.
