data_PCOD8220589
_publ_section_title
;
Structure prediction by ZEFSAII (Michael W. Deem and Ramdas Pophale) SiO2 
 PCOD8220589
Probable space group: P M N A
;
_chemical_formula_sum "Si O2"
_cell_formula_units_Z 56
_cell_length_a 8.498422
_cell_length_b 15.284509
_cell_length_c 21.009927
_cell_angle_alpha 90.000000
_cell_angle_beta 90.000000
_cell_angle_gamma 90.000000
_cell_volume 2729.067818
_symmetry_space_group_name_H-M "P M N A"
_symmetry_group_IT_number 53
_symmetry_cell_setting 'orthorhombic'
loop_
_space_group_symop_operation_xyz
x,y,z
1/2-x,-y,1/2+z
x,-y,-z
1/2-x,y,1/2-z
-x,-y,-z
1/2+x,y,1/2-z
-x,y,z
1/2+x,-y,1/2+z
loop_
_atom_site_type_symbol
_atom_site_label
_atom_site_fract_x
_atom_site_fract_y
_atom_site_fract_z
Si Si1 0.818216 0.295784 0.886832
Si Si2 0.813629 0.548698 0.316870
Si Si3 0.187024 0.041190 0.185208
Si Si4 0.316390 0.080424 0.456600
Si Si5 0.315925 0.149849 0.814716
Si Si6 0.686471 0.446148 0.060221
Si Si7 0.319361 0.265795 0.014326
O O1 0.760649 0.355937 0.828738
O O2 0.783434 0.194673 0.870622
O O3 0.000000 0.310059 0.902664
O O4 0.711458 0.316004 0.947975
O O5 0.750000 0.511610 0.250000
O O6 0.752128 0.486274 0.373568
O O7 0.000000 0.555224 0.314828
O O8 0.250000 0.091225 0.250000
O O9 0.237304 0.084305 0.117837
O O10 0.000000 0.027743 0.190186
O O11 0.281377 0.951689 0.183856
O O12 0.500000 0.065364 0.458854
O O13 0.278330 0.176279 0.483335
O O14 0.241981 0.000000 0.500000
O O15 0.250000 0.191791 0.750000
O O16 0.500000 0.168729 0.822717
O O17 0.500000 0.452838 0.055225
O O18 0.733458 0.342551 0.063185
O O19 0.759766 0.500000 0.000000
O O20 0.500000 0.239511 0.022735
#
# Coordination Sequence:
#
# PCOD8220589 Si02
#       7
#     8   8   8   8   8   8   8
#     4  12  23  36  54  82 119 155 194 242 301 363
#     4  11  22  39  61  87 121 157 199 247 303 359
#     4  10  20  36  58  82 114 157 201 249 308 363
#     4  10  22  40  60  86 123 162 200 253 313 363
#     4  11  21  34  53  79 112 151 196 243 297 362
#     4   9  18  38  64  87 117 156 196 241 296 356
#     4  11  22  38  63  91 115 153 203 250 302 361
#
# _framework density 20.519829000000001
#
# number of rings (size 3 to 8) (size 9 to 14) (size 15 to 20)
#    0.000    1.429    1.429    6.000    0.000    2.571 
#    0.000    4.286    0.000    3.429    0.000    0.000 
#    0.000    0.000    0.000    0.000    0.000    0.000 
#
# Total GULP energy -693972.735132 kJ/mol
# GULP energy per Si atom -12392.370270 kJ/mol
# Density = 2.047312 g / cm^3
# Si number density = 20.519829 Si / 1000 Ang^3
#
#
#
# Elastic Constant Matrix: (Units=GPa)
#
#
# Indices 1 2 3 4 5 6 
#
# 1 46.1393 14.4735 19.9893 0.0000 0.0000 0.0000
# 2 14.4735 88.2507 45.2407 0.0000 0.0000 0.0000
# 3 19.9893 45.2407 141.9061 0.0000 0.0000 0.0000
# 4 0.0000 0.0000 0.0000 50.3041 0.0000 0.0000
# 5 0.0000 0.0000 0.0000 0.0000 31.9453 0.0000
# 6 0.0000 0.0000 0.0000 0.0000 0.0000 13.4234
#
#
#
# Elastic Compliance Matrix: (Units=1/GPa)
#
#
# Indices 1 2 3 4 5 6 
#
# 1 0.023566 -0.002586 -0.002495 0.000000 0.000000 0.000000
# 2 -0.002586 0.013829 -0.004044 0.000000 0.000000 0.000000
# 3 -0.002495 -0.004044 0.008688 0.000000 0.000000 0.000000
# 4 0.000000 0.000000 0.000000 0.019879 0.000000 0.000000
# 5 0.000000 0.000000 0.000000 0.000000 0.031303 0.000000
# 6 0.000000 0.000000 0.000000 0.000000 0.000000 0.074497
#
#
# Mechanical properties :
#
#
# Convention : Reuss Voigt Hill
#
# Bulk Modulus (GPa) = 35.93061 48.41146 42.17104
# Shear Modulus (GPa) = 25.08913 32.24075 28.66494
#
# Velocity S-wave (km/s) = 3.50047 3.96814 3.74162
# Velocity P-wave (km/s) = 5.82116 6.68121 6.26596
#
# Compressibility (1/GPa) = 0.02783142
#
# Stress axis : x y z
#
# Youngs Moduli (GPa) = 42.43470 72.31295 115.10388
#
# Poissons Ratio (x) = 0.18698 0.28720
# Poissons Ratio (y) = 0.10972 0.46554
# Poissons Ratio (z) = 0.10588 0.29247
#
# Static dielectric constant tensor:
#      x y z
#    x 3.453320 0.000000 0.000000 
#    y 0.000000 3.556000 0.000000 
#    z 0.000000 0.000000 3.476430 
# 
# 
# High freq. dielectric constant tensor:
#      x y z
#    x 1.789740 0.000000 0.000000 
#    y 0.000000 1.786300 0.000000 
#    z 0.000000 0.000000 1.812370 
# 
# From -- ./inp_files/30808.got.cif
#   From: 2010.03.12/outbox.cif.g09.slc.cpg/sg53_16_cif.got.tgz:30808.got - 2010.04.16 14:36:59.
