data_PCOD8220850
_publ_section_title
;
Structure prediction by ZEFSAII (Michael W. Deem and Ramdas Pophale) SiO2 
 PCOD8220850
Probable space group: P M N A
;
_chemical_formula_sum "Si O2"
_cell_formula_units_Z 48
_cell_length_a 15.990361
_cell_length_b 8.710508
_cell_length_c 15.935239
_cell_angle_alpha 90.000000
_cell_angle_beta 90.000000
_cell_angle_gamma 90.000000
_cell_volume 2219.526497
_symmetry_space_group_name_H-M "P M N A"
_symmetry_group_IT_number 53
_symmetry_cell_setting 'orthorhombic'
loop_
_space_group_symop_operation_xyz
x,y,z
1/2-x,-y,1/2+z
x,-y,-z
1/2-x,y,1/2-z
-x,-y,-z
1/2+x,y,1/2-z
-x,y,z
1/2+x,-y,1/2+z
loop_
_atom_site_type_symbol
_atom_site_label
_atom_site_fract_x
_atom_site_fract_y
_atom_site_fract_z
Si Si1 0.402988 0.137117 0.319430
Si Si2 0.155050 0.325319 0.663081
Si Si3 0.157837 0.801141 0.169915
Si Si4 0.854454 0.181102 0.495433
Si Si5 0.905592 0.345825 0.334211
Si Si6 0.836193 0.180947 0.009652
O O1 0.500000 0.092285 0.311076
O O2 0.373109 0.245023 0.243718
O O3 0.387559 0.228596 0.407320
O O4 0.346885 0.984450 0.316719
O O5 0.245982 0.249944 0.667879
O O6 0.110184 0.280931 0.752215
O O7 0.108927 0.253528 0.581921
O O8 0.155753 0.509132 0.655410
O O9 0.121766 0.754231 0.077268
O O10 0.907162 0.243793 0.417782
O O11 0.759202 0.237090 0.481800
O O12 0.864904 0.000000 0.500000
O O13 0.000000 0.403829 0.317324
O O14 0.836890 0.000000 0.000000
#
# Coordination Sequence:
#
# PCOD8220850 Si02
#       6
#     8   8   8   8   8   8
#     4  10  21  38  61  89 120 156 202 253 303 358
#     4  10  21  38  58  86 123 158 197 245 305 367
#     4   9  19  37  60  88 117 154 201 244 294 356
#     4  10  20  37  62  89 117 155 206 254 295 355
#     4  11  25  41  58  86 124 163 200 249 312 366
#     4   8  17  33  57  88 116 144 188 244 295 345
#
# _framework density 21.626235000000001
#
# number of rings (size 3 to 8) (size 9 to 14) (size 15 to 20)
#    0.000    2.333    0.000    2.500    0.000   11.333 
#    0.000    2.500    0.000    2.000    0.000    0.000 
#    0.000    0.000    0.000    0.000    0.000    0.000 
#
# Total GULP energy -594826.120133 kJ/mol
# GULP energy per Si atom -12392.210836 kJ/mol
# Density = 2.157701 g / cm^3
# Si number density = 21.626235 Si / 1000 Ang^3
#
#
#
# Elastic Constant Matrix: (Units=GPa)
#
#
# Indices 1 2 3 4 5 6 
#
# 1 50.2264 34.1556 19.9917 0.0000 0.0000 0.0000
# 2 34.1556 129.2026 74.0245 0.0000 0.0000 0.0000
# 3 19.9917 74.0245 225.4450 0.0000 0.0000 0.0000
# 4 0.0000 0.0000 0.0000 27.4180 0.0000 0.0000
# 5 0.0000 0.0000 0.0000 0.0000 17.2950 0.0000
# 6 0.0000 0.0000 0.0000 0.0000 0.0000 21.4350
#
#
#
# Elastic Compliance Matrix: (Units=1/GPa)
#
#
# Indices 1 2 3 4 5 6 
#
# 1 0.024274 -0.006385 -0.000056 0.000000 0.000000 0.000000
# 2 -0.006385 0.011213 -0.003115 0.000000 0.000000 0.000000
# 3 -0.000056 -0.003115 0.005464 0.000000 0.000000 0.000000
# 4 0.000000 0.000000 0.000000 0.036472 0.000000 0.000000
# 5 0.000000 0.000000 0.000000 0.000000 0.057820 0.000000
# 6 0.000000 0.000000 0.000000 0.000000 0.000000 0.046653
#
#
# Mechanical properties :
#
#
# Convention : Reuss Voigt Hill
#
# Bulk Modulus (GPa) = 45.79283 73.46863 59.63073
# Shear Modulus (GPa) = 24.00527 31.67641 27.84084
#
# Velocity S-wave (km/s) = 3.33529 3.83132 3.59188
# Velocity P-wave (km/s) = 6.00440 7.32241 6.69592
#
# Compressibility (1/GPa) = 0.02183748
#
# Stress axis : x y z
#
# Youngs Moduli (GPa) = 41.19612 89.18523 183.02951
#
# Poissons Ratio (x) = 0.56944 0.01026
# Poissons Ratio (y) = 0.26303 0.57022
# Poissons Ratio (z) = 0.00231 0.27785
#
# Static dielectric constant tensor:
#      x y z
#    x 3.491660 0.000000 0.000000 
#    y 0.000000 3.564540 0.000000 
#    z 0.000000 0.000000 5.143850 
# 
# 
# High freq. dielectric constant tensor:
#      x y z
#    x 1.809730 0.000000 0.000000 
#    y 0.000000 1.824210 0.000000 
#    z 0.000000 0.000000 1.888550 
# 
# From -- ./inp_files/23665.got.cif
#   From: 2010.03.12/outbox.cif.g09.slc.cpg/sg53_12_cif.got.tgz:23665.got - 2010.04.16 14:36:59.
