data_PCOD8220570
_publ_section_title
;
Structure prediction by ZEFSAII (Michael W. Deem and Ramdas Pophale) SiO2 
 PCOD8220570
Probable space group: P M N A
;
_chemical_formula_sum "Si O2"
_cell_formula_units_Z 64
_cell_length_a 9.227491
_cell_length_b 17.991102
_cell_length_c 20.405907
_cell_angle_alpha 90.000000
_cell_angle_beta 90.000000
_cell_angle_gamma 90.000000
_cell_volume 3387.640366
_symmetry_space_group_name_H-M "P M N A"
_symmetry_group_IT_number 53
_symmetry_cell_setting 'orthorhombic'
loop_
_space_group_symop_operation_xyz
x,y,z
1/2-x,-y,1/2+z
x,-y,-z
1/2-x,y,1/2-z
-x,-y,-z
1/2+x,y,1/2-z
-x,y,z
1/2+x,-y,1/2+z
loop_
_atom_site_type_symbol
_atom_site_label
_atom_site_fract_x
_atom_site_fract_y
_atom_site_fract_z
Si Si1 0.169449 0.800420 0.814825
Si Si2 0.331793 0.715680 0.186231
Si Si3 0.169501 0.029257 0.185396
Si Si4 0.166871 0.291371 0.059385
Si Si5 0.171462 0.790918 0.447472
Si Si6 0.166796 0.058297 0.942571
Si Si7 0.666037 0.465909 0.430489
Si Si8 0.329656 0.544330 0.184661
O O1 0.250000 0.771550 0.750000
O O2 0.211968 0.885627 0.830174
O O3 0.221401 0.750766 0.875603
O O4 0.000000 0.791155 0.802107
O O5 0.250000 0.746398 0.250000
O O6 0.500000 0.724916 0.200552
O O7 0.281632 0.764211 0.124599
O O8 0.291356 0.630312 0.172139
O O9 0.250000 0.999926 0.250000
O O10 0.000000 0.021941 0.198006
O O11 0.219938 0.978768 0.124930
O O12 0.188226 0.378232 0.069085
O O13 0.000000 0.270737 0.044686
O O14 0.264286 0.266899 0.998898
O O15 0.234355 0.872117 0.459954
O O16 0.000000 0.792270 0.455873
O O17 0.000000 0.083880 0.937926
O O18 0.188203 0.000000 0.000000
O O19 0.711800 0.500000 0.500000
O O20 0.500000 0.487169 0.413884
O O21 0.772440 0.498474 0.376556
O O22 0.250000 0.515572 0.250000
O O23 0.500000 0.530825 0.192773
#
# Coordination Sequence:
#
# PCOD8220570 Si02
#       8
#     8   8   8   8   8   8   8   8
#     4   9  18  34  55  78 104 136 175 215 258 311
#     4   9  20  37  56  80 109 143 182 224 271 325
#     4   9  18  33  54  77 102 134 170 211 257 309
#     4  10  21  37  56  78 108 146 184 221 266 325
#     4  11  23  37  55  82 112 139 177 228 275 319
#     4  10  21  38  58  78 104 141 182 219 262 321
#     4  10  21  36  55  81 111 143 183 230 277 327
#     4  10  20  36  58  81 109 145 184 226 274 328
#
# _framework density 18.892205000000001
#
# number of rings (size 3 to 8) (size 9 to 14) (size 15 to 20)
#    0.000    2.250    0.000    2.250    0.000    6.500 
#    0.000    6.250    0.000    0.000    0.000    0.000 
#    0.000    0.000    0.000    0.000    0.000    0.000 
#
# Total GULP energy -793897.343296 kJ/mol
# GULP energy per Si atom -12404.645989 kJ/mol
# Density = 1.884921 g / cm^3
# Si number density = 18.892205 Si / 1000 Ang^3
#
#
#
# Elastic Constant Matrix: (Units=GPa)
#
#
# Indices 1 2 3 4 5 6 
#
# 1 69.6494 31.9792 53.9237 0.0000 0.0000 0.0000
# 2 31.9792 55.3203 29.3938 0.0000 0.0000 0.0000
# 3 53.9237 29.3938 112.4273 0.0000 0.0000 0.0000
# 4 0.0000 0.0000 0.0000 33.4819 0.0000 0.0000
# 5 0.0000 0.0000 0.0000 0.0000 39.3740 0.0000
# 6 0.0000 0.0000 0.0000 0.0000 0.0000 -42.2767
#
#
#
# Elastic Compliance Matrix: (Units=1/GPa)
#
#
# Indices 1 2 3 4 5 6 
#
# 1 0.026973 -0.010125 -0.010290 0.000000 0.000000 0.000000
# 2 -0.010125 0.024793 -0.001626 0.000000 0.000000 0.000000
# 3 -0.010290 -0.001626 0.014255 0.000000 0.000000 0.000000
# 4 0.000000 0.000000 0.000000 0.029867 0.000000 0.000000
# 5 0.000000 0.000000 0.000000 0.000000 0.025397 0.000000
# 6 0.000000 0.000000 0.000000 0.000000 0.000000 -0.023654
#
#
# Mechanical properties :
#
#
# Convention : Reuss Voigt Hill
#
# Bulk Modulus (GPa) = 45.57907 51.99892 48.78900
# Shear Modulus (GPa) = 33.55080 14.25585 23.90332
#
# Velocity S-wave (km/s) = 4.21872 2.74996 3.56089
# Velocity P-wave (km/s) = 6.92159 6.13733 6.54122
#
# Compressibility (1/GPa) = 0.02193990
#
# Stress axis : x y z
#
# Youngs Moduli (GPa) = 37.07380 40.33323 70.15007
#
# Poissons Ratio (x) = 0.40838 0.72185
# Poissons Ratio (y) = 0.37537 0.11406
# Poissons Ratio (z) = 0.38149 0.06558
#
# Static dielectric constant tensor:
#      x y z
#    x 3.413460 0.000000 0.000000 
#    y 0.000000 3.428340 0.000000 
#    z 0.000000 0.000000 3.633040 
# 
# 
# High freq. dielectric constant tensor:
#      x y z
#    x 1.729300 0.000000 0.000000 
#    y 0.000000 1.733410 0.000000 
#    z 0.000000 0.000000 1.746870 
# 
# From -- ./inp_files/26893.got.cif
#   From: 2010.03.12/outbox.cif.g09.slc.cpg/sg53_14_cif.got.tgz:26893.got - 2010.04.16 14:36:59.
