data_PCOD8220468
_publ_section_title
;
Structure prediction by ZEFSAII (Michael W. Deem and Ramdas Pophale) SiO2 
 PCOD8220468
Probable space group: P M N A
;
_chemical_formula_sum "Si O2"
_cell_formula_units_Z 48
_cell_length_a 9.898608
_cell_length_b 29.217935
_cell_length_c 8.970410
_cell_angle_alpha 90.000000
_cell_angle_beta 90.000000
_cell_angle_gamma 90.000000
_cell_volume 2594.394039
_symmetry_space_group_name_H-M "P M N A"
_symmetry_group_IT_number 53
_symmetry_cell_setting 'orthorhombic'
loop_
_space_group_symop_operation_xyz
x,y,z
1/2-x,-y,1/2+z
x,-y,-z
1/2-x,y,1/2-z
-x,-y,-z
1/2+x,y,1/2-z
-x,y,z
1/2+x,-y,1/2+z
loop_
_atom_site_type_symbol
_atom_site_label
_atom_site_fract_x
_atom_site_fract_y
_atom_site_fract_z
Si Si1 0.156529 0.957612 0.105313
Si Si2 0.844043 0.873411 0.892625
Si Si3 0.500000 0.449564 0.068364
Si Si4 0.000000 0.452184 0.078330
Si Si5 0.341939 0.310596 0.609828
Si Si6 0.154417 0.205741 0.887162
Si Si7 0.254355 0.607186 0.574785
O O1 0.250000 0.959382 0.250000
O O2 0.000000 0.959268 0.155906
O O3 0.188996 0.911866 0.014229
O O4 0.192735 0.000000 0.000000
O O5 0.750000 0.880173 0.750000
O O6 0.000000 0.876469 0.840797
O O7 0.811284 0.824804 0.969079
O O8 0.500000 0.457338 0.244533
O O9 0.376603 0.418508 0.012121
O O10 0.500000 0.500000 0.000000
O O11 0.126870 0.424795 0.017653
O O12 0.000000 0.500000 0.000000
O O13 0.250000 0.322561 0.750000
O O14 0.500000 0.321304 0.640827
O O15 0.322176 0.257947 0.562730
O O16 0.278842 0.341389 0.480125
O O17 0.250000 0.191950 0.750000
O O18 0.000000 0.197504 0.834923
O O19 0.250000 0.611302 0.750000
#
# Coordination Sequence:
#
# PCOD8220468 Si02
#       7
#     8   8   4   4   8   8   8
#     4  10  21  36  55  82 114 150 193 239 287 337
#     4  10  21  36  55  81 113 148 188 233 279 334
#     4  10  22  36  54  82 108 134 178 220 257 316
#     4  10  20  36  56  76 104 142 174 212 265 310
#     4  10  21  37  57  82 110 141 179 223 268 320
#     4   9  19  36  56  79 108 141 181 226 273 324
#     4  10  21  37  56  78 108 142 173 214 266 317
#
# _framework density 18.501429000000002
#
# number of rings (size 3 to 8) (size 9 to 14) (size 15 to 20)
#    0.000    2.167    0.833    1.500    1.167    3.667 
#    0.000    0.000    0.000    0.000    0.000    0.000 
#    0.000    0.000    0.000    0.000    0.000    0.000 
#
# Total GULP energy -595153.806970 kJ/mol
# GULP energy per Si atom -12399.037645 kJ/mol
# Density = 1.845932 g / cm^3
# Si number density = 18.501429 Si / 1000 Ang^3
#
#
#
# Elastic Constant Matrix: (Units=GPa)
#
#
# Indices 1 2 3 4 5 6 
#
# 1 140.8390 62.7730 70.1553 0.0000 0.0000 0.0000
# 2 62.7730 119.8861 58.2526 0.0000 0.0000 0.0000
# 3 70.1553 58.2526 89.7405 0.0000 0.0000 0.0000
# 4 0.0000 0.0000 0.0000 32.9853 0.0000 0.0000
# 5 0.0000 0.0000 0.0000 0.0000 141.8194 0.0000
# 6 0.0000 0.0000 0.0000 0.0000 0.0000 28.2175
#
#
#
# Elastic Compliance Matrix: (Units=1/GPa)
#
#
# Indices 1 2 3 4 5 6 
#
# 1 0.012139 -0.002549 -0.007835 0.000000 0.000000 0.000000
# 2 -0.002549 0.012720 -0.006264 0.000000 0.000000 0.000000
# 3 -0.007835 -0.006264 0.021335 0.000000 0.000000 0.000000
# 4 0.000000 0.000000 0.000000 0.030317 0.000000 0.000000
# 5 0.000000 0.000000 0.000000 0.000000 0.007051 0.000000
# 6 0.000000 0.000000 0.000000 0.000000 0.000000 0.035439
#
#
# Mechanical properties :
#
#
# Convention : Reuss Voigt Hill
#
# Bulk Modulus (GPa) = 77.53736 81.42528 79.48132
# Shear Modulus (GPa) = 31.92928 51.22342 41.57635
#
# Velocity S-wave (km/s) = 4.15875 5.26748 4.74560
# Velocity P-wave (km/s) = 8.06598 9.00560 8.54871
#
# Compressibility (1/GPa) = 0.01289701
#
# Stress axis : x y z
#
# Youngs Moduli (GPa) = 82.37594 78.61930 46.87207
#
# Poissons Ratio (x) = 0.20040 0.36727
# Poissons Ratio (y) = 0.20998 0.29360
# Poissons Ratio (z) = 0.64546 0.49246
#
# Static dielectric constant tensor:
#      x y z
#    x 3.645070 0.000000 0.000000 
#    y 0.000000 3.583910 0.000000 
#    z 0.000000 0.000000 3.246590 
# 
# 
# High freq. dielectric constant tensor:
#      x y z
#    x 1.729910 0.000000 0.000000 
#    y 0.000000 1.735730 0.000000 
#    z 0.000000 0.000000 1.701930 
# 
# From -- ./inp_files/6772.got.cif
#   From: 2010.03.12/outbox.cif.g09.slc.cpg/sg53_4_cif.got.tgz:6772.got - 2010.04.16 14:36:59.
