data_PCOD8220395
_publ_section_title
;
Structure prediction by ZEFSAII (Michael W. Deem and Ramdas Pophale) SiO2 
 PCOD8220395
Probable space group: P M N A
;
_chemical_formula_sum "Si O2"
_cell_formula_units_Z 64
_cell_length_a 26.353344
_cell_length_b 13.130687
_cell_length_c 9.575458
_cell_angle_alpha 90.000000
_cell_angle_beta 90.000000
_cell_angle_gamma 90.000000
_cell_volume 3313.467657
_symmetry_space_group_name_H-M "P M N A"
_symmetry_group_IT_number 53
_symmetry_cell_setting 'orthorhombic'
loop_
_space_group_symop_operation_xyz
x,y,z
1/2-x,-y,1/2+z
x,-y,-z
1/2-x,y,1/2-z
-x,-y,-z
1/2+x,y,1/2-z
-x,y,z
1/2+x,-y,1/2+z
loop_
_atom_site_type_symbol
_atom_site_label
_atom_site_fract_x
_atom_site_fract_y
_atom_site_fract_z
Si Si1 0.126598 0.868616 0.233995
Si Si2 0.359239 0.801134 0.692485
Si Si3 0.215295 0.112559 0.975824
Si Si4 0.611427 0.589947 0.591325
Si Si5 0.056329 0.694260 0.147565
Si Si6 0.442245 0.486283 0.843076
Si Si7 0.826026 0.123429 0.491217
Si Si8 0.557782 0.954386 0.653415
O O1 0.096153 0.785253 0.146390
O O2 0.136353 0.832565 0.390870
O O3 0.093946 0.972334 0.244160
O O4 0.182008 0.879879 0.164029
O O5 0.317368 0.862459 0.610115
O O6 0.353452 0.684730 0.637359
O O7 0.346506 0.821683 0.853056
O O8 0.416161 0.842701 0.657398
O O9 0.269674 0.169525 0.974502
O O10 0.234268 0.000000 0.000000
O O11 0.640246 0.500000 0.500000
O O12 0.566251 0.623661 0.486937
O O13 0.590221 0.554036 0.738768
O O14 0.060956 0.630552 0.291393
O O15 0.000000 0.741120 0.134796
O O16 0.500000 0.525718 0.839884
O O17 0.420307 0.500000 0.000000
O O18 0.829463 0.000000 0.500000
O O19 0.500000 0.947441 0.711682
O O20 0.557797 0.000000 0.500000
#
# Coordination Sequence:
#
# PCOD8220395 Si02
#       8
#     8   8   8   8   8   8   8   8
#     4  12  20  37  56  88 121 157 195 236 294 359
#     4  12  21  39  58  90 119 157 199 241 300 355
#     4  11  20  39  62  88 114 153 198 246 289 345
#     4  10  21  37  60  86 112 152 202 253 290 348
#     4  10  20  35  58  84 115 156 196 239 287 352
#     4   9  19  35  55  84 114 147 194 247 299 347
#     4  11  24  37  60  88 124 153 195 250 301 351
#     4  11  21  35  56  84 122 163 201 234 278 355
#
# _framework density 19.315111999999999
#
# number of rings (size 3 to 8) (size 9 to 14) (size 15 to 20)
#    0.000    1.250    5.000    1.500    1.750    5.500 
#    0.000    1.875    0.000    0.000   13.000    0.000 
#    0.000    0.000    0.000    0.000    0.000    0.000 
#
# Total GULP energy -793074.727953 kJ/mol
# GULP energy per Si atom -12391.792624 kJ/mol
# Density = 1.927115 g / cm^3
# Si number density = 19.315112 Si / 1000 Ang^3
#
#
#
# Elastic Constant Matrix: (Units=GPa)
#
#
# Indices 1 2 3 4 5 6 
#
# 1 101.1086 26.9815 32.2417 0.0000 0.0000 0.0000
# 2 26.9815 77.2997 29.1950 0.0000 0.0000 0.0000
# 3 32.2417 29.1950 128.5138 0.0000 0.0000 0.0000
# 4 0.0000 0.0000 0.0000 30.0863 0.0000 0.0000
# 5 0.0000 0.0000 0.0000 0.0000 -264.7836 0.0000
# 6 0.0000 0.0000 0.0000 0.0000 0.0000 22.6253
#
#
#
# Elastic Compliance Matrix: (Units=1/GPa)
#
#
# Indices 1 2 3 4 5 6 
#
# 1 0.011422 -0.003177 -0.002144 0.000000 0.000000 0.000000
# 2 -0.003177 0.015035 -0.002618 0.000000 0.000000 0.000000
# 3 -0.002144 -0.002618 0.008914 0.000000 0.000000 0.000000
# 4 0.000000 0.000000 0.000000 0.033238 0.000000 0.000000
# 5 0.000000 0.000000 0.000000 0.000000 -0.003777 0.000000
# 6 0.000000 0.000000 0.000000 0.000000 0.000000 0.044198
#
#
# Mechanical properties :
#
#
# Convention : Reuss Voigt Hill
#
# Bulk Modulus (GPa) = 51.30374 53.75097 52.52735
# Shear Modulus (GPa) = 38.05018 -27.84747 5.10135
#
# Velocity S-wave (km/s) = 4.44325 -3.80115 1.62692
# Velocity P-wave (km/s) = 7.27615 2.93664 5.54825
#
# Compressibility (1/GPa) = 0.01949176
#
# Stress axis : x y z
#
# Youngs Moduli (GPa) = 87.55192 66.51345 112.18406
#
# Poissons Ratio (x) = 0.21132 0.24050
# Poissons Ratio (y) = 0.27816 0.29374
# Poissons Ratio (z) = 0.18769 0.17416
#
# Static dielectric constant tensor:
#      x y z
#    x 3.460150 0.000000 0.000000 
#    y 0.000000 4.062410 0.000000 
#    z 0.000000 0.000000 3.606310 
# 
# 
# High freq. dielectric constant tensor:
#      x y z
#    x 1.737210 0.000000 0.000000 
#    y 0.000000 1.733560 0.000000 
#    z 0.000000 0.000000 1.761080 
# 
# From -- ./inp_files/13238.got.cif
#   From: 2010.03.12/outbox.cif.g09.slc.cpg/sg53_7_cif.got.tgz:13238.got - 2010.04.16 14:36:59.
