data_PCOD8220928
_publ_section_title
;
Structure prediction by ZEFSAII (Michael W. Deem and Ramdas Pophale) SiO2 
 PCOD8220928
Probable space group: P M N A
;
_chemical_formula_sum "Si O2"
_cell_formula_units_Z 48
_cell_length_a 9.170311
_cell_length_b 29.036717
_cell_length_c 9.116338
_cell_angle_alpha 90.000000
_cell_angle_beta 90.000000
_cell_angle_gamma 90.000000
_cell_volume 2427.459513
_symmetry_space_group_name_H-M "P M N A"
_symmetry_group_IT_number 53
_symmetry_cell_setting 'orthorhombic'
loop_
_space_group_symop_operation_xyz
x,y,z
1/2-x,-y,1/2+z
x,-y,-z
1/2-x,y,1/2-z
-x,-y,-z
1/2+x,y,1/2-z
-x,y,z
1/2+x,-y,1/2+z
loop_
_atom_site_type_symbol
_atom_site_label
_atom_site_fract_x
_atom_site_fract_y
_atom_site_fract_z
Si Si1 0.244168 0.100324 0.580854
Si Si2 0.000000 0.949167 0.930725
Si Si3 0.333811 0.539838 0.100997
Si Si4 0.829215 0.357463 0.594982
Si Si5 0.822781 0.281082 0.093928
Si Si6 0.324487 0.792927 0.100883
Si Si7 0.500000 0.048126 0.080041
O O1 0.250000 0.082694 0.750000
O O2 0.379845 0.084486 0.490560
O O3 0.217396 0.154387 0.577756
O O4 0.131667 0.076366 0.478019
O O5 0.000000 0.956068 0.756018
O O6 0.000000 0.000000 0.000000
O O7 0.250000 0.538946 0.250000
O O8 0.500000 0.527469 0.135848
O O9 0.321016 0.590722 0.029268
O O10 0.264775 0.500000 0.000000
O O11 0.750000 0.355603 0.750000
O O12 0.732624 0.325166 0.493686
O O13 0.000000 0.341594 0.606415
O O14 0.750000 0.286515 0.250000
O O15 0.000000 0.278792 0.098890
O O16 0.753022 0.234795 0.028146
O O17 0.250000 0.774526 0.250000
O O18 0.500000 0.785961 0.105080
O O19 0.500000 0.000000 0.000000
#
# Coordination Sequence:
#
# PCOD8220928 Si02
#       7
#     8   4   8   8   8   8   4
#     4  11  24  43  68  95 129 167 213 263 316 382
#     4  12  26  42  66  98 130 174 214 264 321 380
#     4   9  19  35  56  85 120 160 207 258 313 374
#     4  10  20  38  62  88 122 164 213 263 314 379
#     4  12  26  43  64  92 128 166 208 261 318 376
#     4  11  24  44  70  97 127 166 210 256 314 381
#     4  12  24  44  66  94 132 168 214 262 319 380
#
# _framework density 19.773758000000001
#
# number of rings (size 3 to 8) (size 9 to 14) (size 15 to 20)
#    0.000    1.167    0.833    5.500    4.667    3.000 
#    0.000    1.667    0.000    0.000    0.000    0.000 
#    0.000    0.000    0.000    0.000    0.000    0.000 
#
# Total GULP energy -594628.608998 kJ/mol
# GULP energy per Si atom -12388.096021 kJ/mol
# Density = 1.972875 g / cm^3
# Si number density = 19.773758 Si / 1000 Ang^3
#
#
#
# Elastic Constant Matrix: (Units=GPa)
#
#
# Indices 1 2 3 4 5 6 
#
# 1 171.9347 50.5198 54.7558 0.0000 0.0000 0.0000
# 2 50.5198 98.8298 58.2593 0.0000 0.0000 0.0000
# 3 54.7558 58.2593 139.7189 0.0000 0.0000 0.0000
# 4 0.0000 0.0000 0.0000 34.2497 0.0000 0.0000
# 5 0.0000 0.0000 0.0000 0.0000 37.0906 0.0000
# 6 0.0000 0.0000 0.0000 0.0000 0.0000 34.7926
#
#
#
# Elastic Compliance Matrix: (Units=1/GPa)
#
#
# Indices 1 2 3 4 5 6 
#
# 1 0.007133 -0.002650 -0.001691 0.000000 0.000000 0.000000
# 2 -0.002650 0.014400 -0.004966 0.000000 0.000000 0.000000
# 3 -0.001691 -0.004966 0.009891 0.000000 0.000000 0.000000
# 4 0.000000 0.000000 0.000000 0.029197 0.000000 0.000000
# 5 0.000000 0.000000 0.000000 0.000000 0.026961 0.000000
# 6 0.000000 0.000000 0.000000 0.000000 0.000000 0.028742
#
#
# Mechanical properties :
#
#
# Convention : Reuss Voigt Hill
#
# Bulk Modulus (GPa) = 78.05747 81.95036 80.00392
# Shear Modulus (GPa) = 35.91758 37.68981 36.80369
#
# Velocity S-wave (km/s) = 4.26658 4.37057 4.31889
# Velocity P-wave (km/s) = 7.98953 8.18555 8.08813
#
# Compressibility (1/GPa) = 0.01281107
#
# Stress axis : x y z
#
# Youngs Moduli (GPa) = 140.19081 69.44243 101.10648
#
# Poissons Ratio (x) = 0.18400 0.17093
# Poissons Ratio (y) = 0.37147 0.50211
# Poissons Ratio (z) = 0.23701 0.34486
#
# Static dielectric constant tensor:
#      x y z
#    x 3.872080 0.000000 0.000000 
#    y 0.000000 3.999320 0.000000 
#    z 0.000000 0.000000 2.147000 
# 
# 
# High freq. dielectric constant tensor:
#      x y z
#    x 1.794450 0.000000 0.000000 
#    y 0.000000 1.789340 0.000000 
#    z 0.000000 0.000000 1.772260 
# 
# From -- ./inp_files/6809.got.cif
#   From: 2010.03.12/outbox.cif.g09.slc.cpg/sg53_4_cif.got.tgz:6809.got - 2010.04.16 14:36:59.
