data_PCOD8220404
_publ_section_title
;
Structure prediction by ZEFSAII (Michael W. Deem and Ramdas Pophale) SiO2 
 PCOD8220404
Probable space group: P M N A
;
_chemical_formula_sum "Si O2"
_cell_formula_units_Z 48
_cell_length_a 13.716899
_cell_length_b 14.499751
_cell_length_c 12.686639
_cell_angle_alpha 90.000000
_cell_angle_beta 90.000000
_cell_angle_gamma 90.000000
_cell_volume 2523.266183
_symmetry_space_group_name_H-M "P M N A"
_symmetry_group_IT_number 53
_symmetry_cell_setting 'orthorhombic'
loop_
_space_group_symop_operation_xyz
x,y,z
1/2-x,-y,1/2+z
x,-y,-z
1/2-x,y,1/2-z
-x,-y,-z
1/2+x,y,1/2-z
-x,y,z
1/2+x,-y,1/2+z
loop_
_atom_site_type_symbol
_atom_site_label
_atom_site_fract_x
_atom_site_fract_y
_atom_site_fract_z
Si Si1 0.606256 0.894427 0.803497
Si Si2 0.389977 0.268639 0.481911
Si Si3 0.696688 0.434404 0.592816
Si Si4 0.609347 0.492475 0.811668
Si Si5 0.700286 0.079877 0.418140
Si Si6 0.637498 0.694200 0.750008
O O1 0.500000 0.937988 0.830342
O O2 0.684138 0.921318 0.892896
O O3 0.639892 0.932624 0.689581
O O4 0.588992 0.784089 0.800484
O O5 0.500000 0.251482 0.523697
O O6 0.328897 0.329474 0.564763
O O7 0.330458 0.174401 0.473634
O O8 0.397495 0.320667 0.369686
O O9 0.659863 0.500000 0.500000
O O10 0.636298 0.462177 0.694767
O O11 0.813406 0.446545 0.608581
O O12 0.500000 0.459690 0.841296
O O13 0.614192 0.603825 0.818668
O O14 0.674417 0.000000 0.500000
O O15 0.750000 0.717530 0.750000
#
# Coordination Sequence:
#
# PCOD8220404 Si02
#       6
#     8   8   8   8   8   8
#     4  10  20  35  58  86 118 146 182 237 294 341
#     4  11  21  35  58  83 110 146 189 234 283 336
#     4  11  22  36  54  81 115 149 190 233 275 337
#     4  11  22  35  54  80 117 157 194 233 281 334
#     4  10  21  38  60  87 115 144 189 239 287 339
#     4  11  16  33  55  83 112 142 183 238 288 323
#
# _framework density 19.022963000000001
#
# number of rings (size 3 to 8) (size 9 to 14) (size 15 to 20)
#    0.000    1.333    6.667    3.500    0.000    2.667 
#    0.000    4.167    0.000    2.000    0.000    0.000 
#    0.000    0.000    0.000    0.000    0.000    0.000 
#
# Total GULP energy -595076.182005 kJ/mol
# GULP energy per Si atom -12397.420458 kJ/mol
# Density = 1.897967 g / cm^3
# Si number density = 19.022963 Si / 1000 Ang^3
#
#
#
# Elastic Constant Matrix: (Units=GPa)
#
#
# Indices 1 2 3 4 5 6 
#
# 1 157.8809 38.4166 19.9884 0.0000 0.0000 0.0000
# 2 38.4166 88.5395 42.6552 0.0000 0.0000 0.0000
# 3 19.9884 42.6552 54.4815 0.0000 0.0000 0.0000
# 4 0.0000 0.0000 0.0000 28.0567 0.0000 0.0000
# 5 0.0000 0.0000 0.0000 0.0000 -4.9616 0.0000
# 6 0.0000 0.0000 0.0000 0.0000 0.0000 12.5964
#
#
#
# Elastic Compliance Matrix: (Units=1/GPa)
#
#
# Indices 1 2 3 4 5 6 
#
# 1 0.007085 -0.002925 -0.000309 0.000000 0.000000 0.000000
# 2 -0.002925 0.019342 -0.014070 0.000000 0.000000 0.000000
# 3 -0.000309 -0.014070 0.029484 0.000000 0.000000 0.000000
# 4 0.000000 0.000000 0.000000 0.035642 0.000000 0.000000
# 5 0.000000 0.000000 0.000000 0.000000 -0.201549 0.000000
# 6 0.000000 0.000000 0.000000 0.000000 0.000000 0.079388
#
#
# Mechanical properties :
#
#
# Convention : Reuss Voigt Hill
#
# Bulk Modulus (GPa) = 46.94375 55.89137 51.41756
# Shear Modulus (GPa) = 450.33399 20.46107 235.39753
#
# Velocity S-wave (km/s) = 15.40278 3.28319 11.13609
# Velocity P-wave (km/s) = 18.46777 6.61946 13.87220
#
# Compressibility (1/GPa) = 0.02130209
#
# Stress axis : x y z
#
# Youngs Moduli (GPa) = 141.14764 51.70038 33.91617
#
# Poissons Ratio (x) = 0.15123 0.01049
# Poissons Ratio (y) = 0.41287 0.47722
# Poissons Ratio (z) = 0.04364 0.72745
#
# Static dielectric constant tensor:
#      x y z
#    x 3.720860 0.000000 0.000000 
#    y 0.000000 3.280980 0.000000 
#    z 0.000000 0.000000 3.335890 
# 
# 
# High freq. dielectric constant tensor:
#      x y z
#    x 1.760110 0.000000 0.000000 
#    y 0.000000 1.715690 0.000000 
#    z 0.000000 0.000000 1.712080 
# 
# From -- ./inp_files/15942.got.cif
#   From: 2010.03.12/outbox.cif.g09.slc.cpg/sg53_8_cif.got.tgz:15942.got - 2010.04.16 14:36:59.
