data_PCOD8220239
_publ_section_title
;
Structure prediction by ZEFSAII (Michael W. Deem and Ramdas Pophale) SiO2 
 PCOD8220239
Probable space group: P M N A
;
_chemical_formula_sum "Si O2"
_cell_formula_units_Z 48
_cell_length_a 8.617229
_cell_length_b 30.860524
_cell_length_c 9.432140
_cell_angle_alpha 90.000000
_cell_angle_beta 90.000000
_cell_angle_gamma 90.000000
_cell_volume 2508.309763
_symmetry_space_group_name_H-M "P M N A"
_symmetry_group_IT_number 53
_symmetry_cell_setting 'orthorhombic'
loop_
_space_group_symop_operation_xyz
x,y,z
1/2-x,-y,1/2+z
x,-y,-z
1/2-x,y,1/2-z
-x,-y,-z
1/2+x,y,1/2-z
-x,y,z
1/2+x,-y,1/2+z
loop_
_atom_site_type_symbol
_atom_site_label
_atom_site_fract_x
_atom_site_fract_y
_atom_site_fract_z
Si Si1 0.682873 0.133599 0.402007
Si Si2 0.684017 0.622536 0.593252
Si Si3 0.316935 0.540258 0.407882
Si Si4 0.183547 0.962208 0.902390
Si Si5 0.315269 0.210696 0.598088
Si Si6 0.315876 0.302505 0.905302
O O1 0.750000 0.143915 0.250000
O O2 0.500000 0.135563 0.391816
O O3 0.735718 0.085742 0.455961
O O4 0.745529 0.171053 0.503635
O O5 0.750000 0.614667 0.750000
O O6 0.500000 0.627234 0.602530
O O7 0.734546 0.583143 0.491728
O O8 0.756829 0.665270 0.525582
O O9 0.252463 0.500000 0.500000
O O10 0.250000 0.540173 0.250000
O O11 0.500000 0.537164 0.392912
O O12 0.250000 0.971644 0.750000
O O13 0.000000 0.965275 0.896136
O O14 0.254078 0.000000 0.000000
O O15 0.250000 0.199162 0.750000
O O16 0.500000 0.215463 0.600630
O O17 0.241496 0.255455 0.543738
O O18 0.250000 0.314645 0.750000
O O19 0.500000 0.303728 0.895680
#
# Coordination Sequence:
#
# PCOD8220239 Si02
#       6
#     8   8   8   8   8   8
#     4   9  19  34  52  74 102 136 172 213 260 313
#     4  11  23  39  59  85 116 149 188 230 275 326
#     4  10  22  39  60  87 117 150 188 229 274 325
#     4   9  18  33  51  73 102 134 170 212 258 309
#     4  10  20  35  54  78 107 138 177 221 267 319
#     4  11  22  38  59  82 110 144 183 226 274 325
#
# _framework density 19.136391
#
# number of rings (size 3 to 8) (size 9 to 14) (size 15 to 20)
#    0.000    2.000    0.000    4.500    0.000    6.000 
#    0.000    1.667    0.000    0.000    0.000    0.000 
#    0.000    0.000    0.000    0.000    0.000    0.000 
#
# Total GULP energy -595151.969087 kJ/mol
# GULP energy per Si atom -12398.999356 kJ/mol
# Density = 1.909284 g / cm^3
# Si number density = 19.136391 Si / 1000 Ang^3
#
#
#
# Elastic Constant Matrix: (Units=GPa)
#
#
# Indices 1 2 3 4 5 6 
#
# 1 67.3413 47.5561 44.5078 0.0000 0.0000 0.0000
# 2 47.5561 177.2379 115.4737 0.0000 0.0000 0.0000
# 3 44.5078 115.4737 143.5792 0.0000 0.0000 0.0000
# 4 0.0000 0.0000 0.0000 53.7784 0.0000 0.0000
# 5 0.0000 0.0000 0.0000 0.0000 35.9291 0.0000
# 6 0.0000 0.0000 0.0000 0.0000 0.0000 -34.4397
#
#
#
# Elastic Compliance Matrix: (Units=1/GPa)
#
#
# Indices 1 2 3 4 5 6 
#
# 1 0.019266 -0.002686 -0.003812 0.000000 0.000000 0.000000
# 2 -0.002686 0.012227 -0.009001 0.000000 0.000000 0.000000
# 3 -0.003812 -0.009001 0.015386 0.000000 0.000000 0.000000
# 4 0.000000 0.000000 0.000000 0.018595 0.000000 0.000000
# 5 0.000000 0.000000 0.000000 0.000000 0.027833 0.000000
# 6 0.000000 0.000000 0.000000 0.000000 0.000000 -0.029036
#
#
# Mechanical properties :
#
#
# Convention : Reuss Voigt Hill
#
# Bulk Modulus (GPa) = 62.96960 89.24817 76.10888
# Shear Modulus (GPa) = 49.72059 23.09494 36.40777
#
# Velocity S-wave (km/s) = 5.10281 3.47776 4.36654
# Velocity P-wave (km/s) = 8.22771 7.92878 8.07963
#
# Compressibility (1/GPa) = 0.01588068
#
# Stress axis : x y z
#
# Youngs Moduli (GPa) = 51.90502 81.78494 64.99499
#
# Poissons Ratio (x) = 0.21964 0.24778
# Poissons Ratio (y) = 0.13940 0.58503
# Poissons Ratio (z) = 0.19788 0.73616
#
# Static dielectric constant tensor:
#      x y z
#    x 3.481800 0.000000 0.000000 
#    y 0.000000 3.978900 0.000000 
#    z 0.000000 0.000000 3.406110 
# 
# 
# High freq. dielectric constant tensor:
#      x y z
#    x 1.745240 0.000000 0.000000 
#    y 0.000000 1.763830 0.000000 
#    z 0.000000 0.000000 1.743680 
# 
# From -- ./inp_files/6638.got.cif
#   From: 2010.03.12/outbox.cif.g09.slc.cpg/sg53_4_cif.got.tgz:6638.got - 2010.04.16 14:36:59.
