data_PCOD8220645
_publ_section_title
;
Structure prediction by ZEFSAII (Michael W. Deem and Ramdas Pophale) SiO2 
 PCOD8220645
Probable space group: P M N A
;
_chemical_formula_sum "Si O2"
_cell_formula_units_Z 64
_cell_length_a 13.607875
_cell_length_b 10.318276
_cell_length_c 22.061158
_cell_angle_alpha 90.000000
_cell_angle_beta 90.000000
_cell_angle_gamma 90.000000
_cell_volume 3097.603004
_symmetry_space_group_name_H-M "P M N A"
_symmetry_group_IT_number 53
_symmetry_cell_setting 'orthorhombic'
loop_
_space_group_symop_operation_xyz
x,y,z
1/2-x,-y,1/2+z
x,-y,-z
1/2-x,y,1/2-z
-x,-y,-z
1/2+x,y,1/2-z
-x,y,z
1/2+x,-y,1/2+z
loop_
_atom_site_type_symbol
_atom_site_label
_atom_site_fract_x
_atom_site_fract_y
_atom_site_fract_z
Si Si1 0.111359 0.267489 0.008904
Si Si2 0.800451 0.365392 0.889797
Si Si3 0.885264 0.133326 0.213249
Si Si4 0.388452 0.378997 0.359637
Si Si5 0.308427 0.862928 0.973216
Si Si6 0.731660 0.880683 0.316890
Si Si7 0.384867 0.066304 0.151238
Si Si8 0.110902 0.377898 0.542094
O O1 0.137268 0.359907 0.952134
O O2 0.000000 0.211896 0.002577
O O3 0.121224 0.351791 0.069188
O O4 0.191707 0.152572 0.013638
O O5 0.833180 0.485427 0.847873
O O6 0.820432 0.230688 0.855339
O O7 0.684325 0.382674 0.901136
O O8 0.843238 0.262847 0.181060
O O9 0.862242 0.139326 0.285087
O O10 0.000000 0.119382 0.200035
O O11 0.836085 0.008288 0.182933
O O12 0.500000 0.398920 0.339364
O O13 0.333890 0.852282 0.902133
O O14 0.371910 0.752077 0.004362
O O15 0.342940 0.000000 0.000000
O O16 0.750000 0.825381 0.250000
O O17 0.836038 0.922919 0.346556
O O18 0.500000 0.049503 0.139453
O O19 0.133713 0.500000 0.500000
O O20 0.000000 0.381706 0.567040
#
# Coordination Sequence:
#
# PCOD8220645 Si02
#       8
#     8   8   8   8   8   8   8   8
#     4  10  21  36  56  85 121 156 187 229 293 360
#     4  11  21  36  59  85 115 151 193 235 288 348
#     4   9  20  39  62  85 113 152 195 240 292 348
#     4  10  20  36  59  86 114 148 192 239 286 341
#     4  11  22  36  59  91 118 146 191 243 291 343
#     4  10  22  39  57  83 116 151 190 233 288 349
#     4  10  20  37  61  85 112 151 197 242 289 342
#     4  10  22  39  57  80 114 151 186 231 289 347
#
# _framework density 20.661138000000001
#
# number of rings (size 3 to 8) (size 9 to 14) (size 15 to 20)
#    0.000    1.875    0.000    4.875    0.000    4.750 
#    0.000    5.625    0.000    1.500    0.000    0.000 
#    0.000    0.000    0.000    0.000    0.000    0.000 
#
# Total GULP energy -793588.320506 kJ/mol
# GULP energy per Si atom -12399.817508 kJ/mol
# Density = 2.061411 g / cm^3
# Si number density = 20.661138 Si / 1000 Ang^3
#
#
#
# Elastic Constant Matrix: (Units=GPa)
#
#
# Indices 1 2 3 4 5 6 
#
# 1 89.5338 49.4377 37.6200 0.0000 0.0000 0.0000
# 2 49.4377 158.4988 57.5173 0.0000 0.0000 0.0000
# 3 37.6200 57.5173 80.0778 0.0000 0.0000 0.0000
# 4 0.0000 0.0000 0.0000 22.9371 0.0000 0.0000
# 5 0.0000 0.0000 0.0000 0.0000 16.9809 0.0000
# 6 0.0000 0.0000 0.0000 0.0000 0.0000 16.5725
#
#
#
# Elastic Compliance Matrix: (Units=1/GPa)
#
#
# Indices 1 2 3 4 5 6 
#
# 1 0.014799 -0.002831 -0.004919 0.000000 0.000000 0.000000
# 2 -0.002831 0.009075 -0.005188 0.000000 0.000000 0.000000
# 3 -0.004919 -0.005188 0.018525 0.000000 0.000000 0.000000
# 4 0.000000 0.000000 0.000000 0.043597 0.000000 0.000000
# 5 0.000000 0.000000 0.000000 0.000000 0.058890 0.000000
# 6 0.000000 0.000000 0.000000 0.000000 0.000000 0.060341
#
#
# Mechanical properties :
#
#
# Convention : Reuss Voigt Hill
#
# Bulk Modulus (GPa) = 60.52277 68.58450 64.55364
# Shear Modulus (GPa) = 21.13167 23.53379 22.33273
#
# Velocity S-wave (km/s) = 3.20155 3.37862 3.29128
# Velocity P-wave (km/s) = 6.55921 6.96327 6.76426
#
# Compressibility (1/GPa) = 0.01652271
#
# Stress axis : x y z
#
# Youngs Moduli (GPa) = 67.57216 110.19317 53.97989
#
# Poissons Ratio (x) = 0.31195 0.26553
# Poissons Ratio (y) = 0.19129 0.28007
# Poissons Ratio (z) = 0.33240 0.57172
#
# Static dielectric constant tensor:
#      x y z
#    x 3.958700 0.000000 0.000000 
#    y 0.000000 3.605630 0.000000 
#    z 0.000000 0.000000 3.731150 
# 
# 
# High freq. dielectric constant tensor:
#      x y z
#    x 1.816560 0.000000 0.000000 
#    y 0.000000 1.798970 0.000000 
#    z 0.000000 0.000000 1.799890 
# 
# From -- ./inp_files/35341.got.cif
#   From: 2010.03.12/outbox.cif.g09.slc.cpg/sg53_18_cif.got.tgz:35341.got - 2010.04.16 14:36:59.
