data_PCOD8220828
_publ_section_title
;
Structure prediction by ZEFSAII (Michael W. Deem and Ramdas Pophale) SiO2 
 PCOD8220828
Probable space group: P M N A
;
_chemical_formula_sum "Si O2"
_cell_formula_units_Z 64
_cell_length_a 16.971127
_cell_length_b 14.707817
_cell_length_c 13.811954
_cell_angle_alpha 90.000000
_cell_angle_beta 90.000000
_cell_angle_gamma 90.000000
_cell_volume 3447.577394
_symmetry_space_group_name_H-M "P M N A"
_symmetry_group_IT_number 53
_symmetry_cell_setting 'orthorhombic'
loop_
_space_group_symop_operation_xyz
x,y,z
1/2-x,-y,1/2+z
x,-y,-z
1/2-x,y,1/2-z
-x,-y,-z
1/2+x,y,1/2-z
-x,y,z
1/2+x,-y,1/2+z
loop_
_atom_site_type_symbol
_atom_site_label
_atom_site_fract_x
_atom_site_fract_y
_atom_site_fract_z
Si Si1 0.592655 0.011098 0.890778
Si Si2 0.317552 0.681780 0.680576
Si Si3 0.909870 0.485798 0.107526
Si Si4 0.586331 0.906786 0.551349
Si Si5 0.342758 0.875304 0.746411
Si Si6 0.699253 0.760581 0.476653
Si Si7 0.819637 0.189150 0.678162
Si Si8 0.591398 0.321025 0.681130
O O1 0.500000 0.024129 0.885119
O O2 0.629360 0.099559 0.839801
O O3 0.618239 0.916214 0.842199
O O4 0.622673 0.000000 0.000000
O O5 0.250000 0.643213 0.750000
O O6 0.377282 0.601045 0.663208
O O7 0.360316 0.767436 0.733115
O O8 0.280086 0.714290 0.578739
O O9 0.899687 0.569650 0.182983
O O10 0.000000 0.463742 0.087937
O O11 0.870643 0.500000 0.000000
O O12 0.500000 0.856672 0.554367
O O13 0.616940 0.928690 0.658556
O O14 0.653656 0.854281 0.493457
O O15 0.572631 0.000000 0.500000
O O16 0.250000 0.892895 0.750000
O O17 0.782024 0.774813 0.421801
O O18 0.637784 0.701672 0.416314
O O19 0.750000 0.160081 0.750000
O O20 0.871105 0.271006 0.725335
O O21 0.500000 0.291877 0.672992
#
# Coordination Sequence:
#
# PCOD8220828 Si02
#       8
#     8   8   8   8   8   8   8   8
#     4  11  25  40  58  82 114 159 205 245 289 347
#     4  10  22  38  59  88 119 154 193 244 300 356
#     4  10  20  37  63  91 118 153 194 242 302 360
#     4  10  22  35  54  83 114 151 193 241 299 353
#     4  10  23  38  58  83 115 154 197 243 295 353
#     4  10  21  36  57  86 118 152 195 242 299 350
#     4  10  23  38  59  88 117 154 196 242 304 355
#     4  10  20  37  61  87 118 150 191 243 293 356
#
# _framework density 18.563759999999998
#
# number of rings (size 3 to 8) (size 9 to 14) (size 15 to 20)
#    0.000    1.875    1.250    1.500   10.500    4.000 
#    0.000    0.000    0.000    0.000    0.000    1.750 
#    0.000    0.000    0.000    0.000    0.000    0.000 
#
# Total GULP energy -793316.902785 kJ/mol
# GULP energy per Si atom -12395.576606 kJ/mol
# Density = 1.852151 g / cm^3
# Si number density = 18.563760 Si / 1000 Ang^3
#
#
#
# Elastic Constant Matrix: (Units=GPa)
#
#
# Indices 1 2 3 4 5 6 
#
# 1 86.0000 47.2395 48.0675 0.0000 0.0000 0.0000
# 2 47.2395 110.5782 65.1200 0.0000 0.0000 0.0000
# 3 48.0675 65.1200 105.3070 0.0000 0.0000 0.0000
# 4 0.0000 0.0000 0.0000 92.8221 0.0000 0.0000
# 5 0.0000 0.0000 0.0000 0.0000 -1.9566 0.0000
# 6 0.0000 0.0000 0.0000 0.0000 0.0000 126.5160
#
#
#
# Elastic Compliance Matrix: (Units=1/GPa)
#
#
# Indices 1 2 3 4 5 6 
#
# 1 0.016752 -0.004173 -0.005066 0.000000 0.000000 0.000000
# 2 -0.004173 0.015263 -0.007533 0.000000 0.000000 0.000000
# 3 -0.005066 -0.007533 0.016467 0.000000 0.000000 0.000000
# 4 0.000000 0.000000 0.000000 0.010773 0.000000 0.000000
# 5 0.000000 0.000000 0.000000 0.000000 -0.511089 0.000000
# 6 0.000000 0.000000 0.000000 0.000000 0.000000 0.007904
#
#
# Mechanical properties :
#
#
# Convention : Reuss Voigt Hill
#
# Bulk Modulus (GPa) = 66.94935 69.19324 68.07129
# Shear Modulus (GPa) = -12.33326 52.90684 20.28679
#
# Velocity S-wave (km/s) = -2.58034 5.34434 3.30936
# Velocity P-wave (km/s) = 5.22162 8.68544 7.16596
#
# Compressibility (1/GPa) = 0.01493666
#
# Stress axis : x y z
#
# Youngs Moduli (GPa) = 59.69605 65.51999 60.72862
#
# Poissons Ratio (x) = 0.27342 0.30763
# Poissons Ratio (y) = 0.24912 0.45748
# Poissons Ratio (z) = 0.30240 0.49358
#
# Static dielectric constant tensor:
#      x y z
#    x 3.464080 0.000000 0.000000 
#    y 0.000000 3.409250 0.000000 
#    z 0.000000 0.000000 3.670990 
# 
# 
# High freq. dielectric constant tensor:
#      x y z
#    x 1.719000 0.000000 0.000000 
#    y 0.000000 1.717960 0.000000 
#    z 0.000000 0.000000 1.722290 
# 
# From -- ./inp_files/17152.got.cif
#   From: 2010.03.12/outbox.cif.g09.slc.cpg/sg53_9_cif.got.tgz:17152.got - 2010.04.16 14:36:59.
