data_PCOD8220418
_publ_section_title
;
Structure prediction by ZEFSAII (Michael W. Deem and Ramdas Pophale) SiO2 
 PCOD8220418
Probable space group: P M N A
;
_chemical_formula_sum "Si O2"
_cell_formula_units_Z 56
_cell_length_a 13.794966
_cell_length_b 13.245929
_cell_length_c 14.985504
_cell_angle_alpha 90.000000
_cell_angle_beta 90.000000
_cell_angle_gamma 90.000000
_cell_volume 2738.258290
_symmetry_space_group_name_H-M "P M N A"
_symmetry_group_IT_number 53
_symmetry_cell_setting 'orthorhombic'
loop_
_space_group_symop_operation_xyz
x,y,z
1/2-x,-y,1/2+z
x,-y,-z
1/2-x,y,1/2-z
-x,-y,-z
1/2+x,y,1/2-z
-x,y,z
1/2+x,-y,1/2+z
loop_
_atom_site_type_symbol
_atom_site_label
_atom_site_fract_x
_atom_site_fract_y
_atom_site_fract_z
Si Si1 0.888178 0.443963 0.212008
Si Si2 0.145917 0.131745 0.208830
Si Si3 0.204496 0.255301 0.882763
Si Si4 0.612421 0.661064 0.216952
Si Si5 0.102849 0.273836 0.353007
Si Si6 0.802655 0.696773 0.922272
Si Si7 0.391462 0.946760 0.408330
O O1 0.854480 0.547798 0.257718
O O2 0.865948 0.361662 0.286090
O O3 0.826573 0.411409 0.124005
O O4 0.000000 0.449519 0.183462
O O5 0.250000 0.115247 0.250000
O O6 0.086086 0.173058 0.293724
O O7 0.140194 0.214141 0.128793
O O8 0.105689 0.026528 0.172902
O O9 0.313554 0.291051 0.855845
O O10 0.124180 0.278716 0.808520
O O11 0.194188 0.134588 0.893642
O O12 0.169695 0.309623 0.973841
O O13 0.500000 0.667187 0.183637
O O14 0.188794 0.271350 0.424211
O O15 0.000000 0.296695 0.401626
O O16 0.500000 0.899302 0.415017
O O17 0.362490 0.000000 0.500000
#
# Coordination Sequence:
#
# PCOD8220418 Si02
#       7
#     8   8   8   8   8   8   8
#     4   9  19  37  61  85 116 153 192 239 295 357
#     4   9  18  34  58  86 119 156 194 240 294 356
#     4  11  24  39  60  87 118 157 200 256 297 361
#     4  10  24  44  61  82 117 164 203 243 301 361
#     4   9  18  33  58  88 119 152 191 239 294 360
#     4  10  20  35  58  91 120 147 194 249 300 348
#     4  11  22  37  60  88 122 156 197 248 303 360
#
# _framework density 20.450956999999999
#
# number of rings (size 3 to 8) (size 9 to 14) (size 15 to 20)
#    0.000    2.143    1.429    2.143    6.000    2.857 
#    0.000    1.429    0.000    3.000    0.000    0.000 
#    0.000    0.000    0.000    0.000    0.000    0.000 
#
# Total GULP energy -693804.874369 kJ/mol
# GULP energy per Si atom -12389.372757 kJ/mol
# Density = 2.040441 g / cm^3
# Si number density = 20.450957 Si / 1000 Ang^3
#
#
#
# Elastic Constant Matrix: (Units=GPa)
#
#
# Indices 1 2 3 4 5 6 
#
# 1 93.3957 32.1249 18.6919 0.0000 0.0000 0.0000
# 2 32.1249 112.6361 27.5949 0.0000 0.0000 0.0000
# 3 18.6919 27.5949 62.8050 0.0000 0.0000 0.0000
# 4 0.0000 0.0000 0.0000 25.0902 0.0000 0.0000
# 5 0.0000 0.0000 0.0000 0.0000 9.1840 0.0000
# 6 0.0000 0.0000 0.0000 0.0000 0.0000 25.0123
#
#
#
# Elastic Compliance Matrix: (Units=1/GPa)
#
#
# Indices 1 2 3 4 5 6 
#
# 1 0.012174 -0.002896 -0.002351 0.000000 0.000000 0.000000
# 2 -0.002896 0.010638 -0.003812 0.000000 0.000000 0.000000
# 3 -0.002351 -0.003812 0.018297 0.000000 0.000000 0.000000
# 4 0.000000 0.000000 0.000000 0.039856 0.000000 0.000000
# 5 0.000000 0.000000 0.000000 0.000000 0.108885 0.000000
# 6 0.000000 0.000000 0.000000 0.000000 0.000000 0.039980
#
#
# Mechanical properties :
#
#
# Convention : Reuss Voigt Hill
#
# Bulk Modulus (GPa) = 43.49568 47.29559 45.39564
# Shear Modulus (GPa) = 19.56092 24.55232 22.05662
#
# Velocity S-wave (km/s) = 3.09606 3.46865 3.28763
# Velocity P-wave (km/s) = 5.83911 6.26247 6.05449
#
# Compressibility (1/GPa) = 0.02299079
#
# Stress axis : x y z
#
# Youngs Moduli (GPa) = 82.14382 94.00156 54.65420
#
# Poissons Ratio (x) = 0.27225 0.12847
# Poissons Ratio (y) = 0.23790 0.20835
# Poissons Ratio (z) = 0.19309 0.35835
#
# Static dielectric constant tensor:
#      x y z
#    x 3.567710 0.000000 0.000000 
#    y 0.000000 3.786480 0.000000 
#    z 0.000000 0.000000 3.504000 
# 
# 
# High freq. dielectric constant tensor:
#      x y z
#    x 1.805190 0.000000 0.000000 
#    y 0.000000 1.789430 0.000000 
#    z 0.000000 0.000000 1.777180 
# 
# From -- ./inp_files/22813.got.cif
#   From: 2010.03.12/outbox.cif.g09.slc.cpg/sg53_12_cif.got.tgz:22813.got - 2010.04.16 14:36:59.
