data_PCOD8220503
_publ_section_title
;
Structure prediction by ZEFSAII (Michael W. Deem and Ramdas Pophale) SiO2 
 PCOD8220503
Probable space group: P M N A
;
_chemical_formula_sum "Si O2"
_cell_formula_units_Z 56
_cell_length_a 9.398952
_cell_length_b 16.122713
_cell_length_c 19.241776
_cell_angle_alpha 90.000000
_cell_angle_beta 90.000000
_cell_angle_gamma 90.000000
_cell_volume 2915.833421
_symmetry_space_group_name_H-M "P M N A"
_symmetry_group_IT_number 53
_symmetry_cell_setting 'orthorhombic'
loop_
_space_group_symop_operation_xyz
x,y,z
1/2-x,-y,1/2+z
x,-y,-z
1/2-x,y,1/2-z
-x,-y,-z
1/2+x,y,1/2-z
-x,y,z
1/2+x,-y,1/2+z
loop_
_atom_site_type_symbol
_atom_site_label
_atom_site_fract_x
_atom_site_fract_y
_atom_site_fract_z
Si Si1 0.833219 0.173255 0.931031
Si Si2 0.166489 0.505947 0.182702
Si Si3 0.336754 0.696022 0.315544
Si Si4 0.663863 0.137104 0.178660
Si Si5 0.834962 0.983918 0.419437
Si Si6 0.161880 0.754988 0.552992
Si Si7 0.661538 0.563836 0.938653
O O1 0.798291 0.251629 0.882981
O O2 0.760779 0.093575 0.895543
O O3 0.000000 0.157266 0.939483
O O4 0.766890 0.191247 0.006053
O O5 0.250000 0.474757 0.250000
O O6 0.203527 0.601500 0.167119
O O7 0.222470 0.451352 0.119859
O O8 0.000000 0.490394 0.193150
O O9 0.250000 0.729986 0.250000
O O10 0.500000 0.704670 0.294530
O O11 0.750000 0.139639 0.250000
O O12 0.500000 0.129460 0.200054
O O13 0.691730 0.221070 0.133713
O O14 0.709582 0.060521 0.129402
O O15 0.000000 0.961838 0.409525
O O16 0.799739 0.000000 0.500000
O O17 0.184769 0.658156 0.537415
O O18 0.000000 0.781759 0.534616
O O19 0.500000 0.551077 0.911167
O O20 0.694221 0.500000 0.000000
#
# Coordination Sequence:
#
# PCOD8220503 Si02
#       7
#     8   8   8   8   8   8   8
#     4  11  22  35  57  88 117 143 186 238 284 332
#     4  10  20  36  57  78 109 150 191 234 286 345
#     4   9  20  36  53  79 113 149 187 232 284 340
#     4  10  22  40  61  84 113 150 190 233 279 339
#     4  10  20  39  62  81 109 149 190 225 277 345
#     4  10  21  39  59  81 114 156 193 229 284 348
#     4  10  21  36  57  86 116 147 193 246 291 342
#
# _framework density 19.205486000000001
#
# number of rings (size 3 to 8) (size 9 to 14) (size 15 to 20)
#    0.000    2.000    1.429    1.714    0.000    5.143 
#    0.000    4.286    0.000    0.000    0.000    0.000 
#    0.000    0.000    0.000    0.000    0.000    0.000 
#
# Total GULP energy -694503.472261 kJ/mol
# GULP energy per Si atom -12401.847719 kJ/mol
# Density = 1.916177 g / cm^3
# Si number density = 19.205486 Si / 1000 Ang^3
#
#
#
# Elastic Constant Matrix: (Units=GPa)
#
#
# Indices 1 2 3 4 5 6 
#
# 1 80.1362 38.1693 46.8818 0.0000 0.0000 0.0000
# 2 38.1693 84.8949 35.7365 0.0000 0.0000 0.0000
# 3 46.8818 35.7365 97.4930 0.0000 0.0000 0.0000
# 4 0.0000 0.0000 0.0000 26.4873 0.0000 0.0000
# 5 0.0000 0.0000 0.0000 0.0000 38.4959 0.0000
# 6 0.0000 0.0000 0.0000 0.0000 0.0000 28.8055
#
#
#
# Elastic Compliance Matrix: (Units=1/GPa)
#
#
# Indices 1 2 3 4 5 6 
#
# 1 0.019433 -0.005680 -0.007263 0.000000 0.000000 0.000000
# 2 -0.005680 0.015589 -0.002983 0.000000 0.000000 0.000000
# 3 -0.007263 -0.002983 0.014843 0.000000 0.000000 0.000000
# 4 0.000000 0.000000 0.000000 0.037754 0.000000 0.000000
# 5 0.000000 0.000000 0.000000 0.000000 0.025977 0.000000
# 6 0.000000 0.000000 0.000000 0.000000 0.000000 0.034716
#
#
# Mechanical properties :
#
#
# Convention : Reuss Voigt Hill
#
# Bulk Modulus (GPa) = 55.51354 56.01102 55.76228
# Shear Modulus (GPa) = 26.85766 28.20684 27.53225
#
# Velocity S-wave (km/s) = 3.74362 3.83650 3.79035
# Velocity P-wave (km/s) = 6.90319 6.98945 6.94646
#
# Compressibility (1/GPa) = 0.01801362
#
# Stress axis : x y z
#
# Youngs Moduli (GPa) = 51.45854 64.14946 67.37190
#
# Poissons Ratio (x) = 0.36437 0.48931
# Poissons Ratio (y) = 0.29228 0.20095
# Poissons Ratio (z) = 0.37374 0.19134
#
# Static dielectric constant tensor:
#      x y z
#    x 3.475670 0.000000 0.000000 
#    y 0.000000 3.617540 0.000000 
#    z 0.000000 0.000000 3.464420 
# 
# 
# High freq. dielectric constant tensor:
#      x y z
#    x 1.747120 0.000000 0.000000 
#    y 0.000000 1.751880 0.000000 
#    z 0.000000 0.000000 1.740910 
# 
# From -- ./inp_files/30722.got.cif
#   From: 2010.03.12/outbox.cif.g09.slc.cpg/sg53_16_cif.got.tgz:30722.got - 2010.04.16 14:36:59.
