data_PCOD8220576
_publ_section_title
;
Structure prediction by ZEFSAII (Michael W. Deem and Ramdas Pophale) SiO2 
 PCOD8220576
Probable space group: P M N A
;
_chemical_formula_sum "Si O2"
_cell_formula_units_Z 56
_cell_length_a 8.719810
_cell_length_b 23.474305
_cell_length_c 14.368716
_cell_angle_alpha 90.000000
_cell_angle_beta 90.000000
_cell_angle_gamma 90.000000
_cell_volume 2941.153736
_symmetry_space_group_name_H-M "P M N A"
_symmetry_group_IT_number 53
_symmetry_cell_setting 'orthorhombic'
loop_
_space_group_symop_operation_xyz
x,y,z
1/2-x,-y,1/2+z
x,-y,-z
1/2-x,y,1/2-z
-x,-y,-z
1/2+x,y,1/2-z
-x,y,z
1/2+x,-y,1/2+z
loop_
_atom_site_type_symbol
_atom_site_label
_atom_site_fract_x
_atom_site_fract_y
_atom_site_fract_z
Si Si1 0.319442 0.935441 0.989379
Si Si2 0.820694 0.642754 0.501044
Si Si3 0.176650 0.434662 0.850108
Si Si4 0.176763 0.437095 0.149724
Si Si5 0.680181 0.852143 0.648930
Si Si6 0.320000 0.234590 0.509871
Si Si7 0.819608 0.848773 0.351379
O O1 0.500000 0.931704 0.973621
O O2 0.240110 0.910429 0.897171
O O3 0.269886 0.901202 0.082133
O O4 0.262533 0.000000 0.000000
O O5 0.775706 0.608517 0.409669
O O6 0.776038 0.605382 0.589097
O O7 0.728864 0.701074 0.505177
O O8 0.000000 0.655834 0.501450
O O9 0.250000 0.432684 0.750000
O O10 0.188272 0.498752 0.890637
O O11 0.000000 0.414774 0.847926
O O12 0.250000 0.434676 0.250000
O O13 0.000000 0.417233 0.151884
O O14 0.750000 0.841831 0.750000
O O15 0.500000 0.856167 0.660194
O O16 0.730522 0.800131 0.582099
O O17 0.500000 0.230408 0.526010
O O18 0.239960 0.209596 0.602265
O O19 0.750000 0.858610 0.250000
O O20 0.000000 0.844583 0.340460
#
# Coordination Sequence:
#
# PCOD8220576 Si02
#       7
#     8   8   8   8   8   8   8
#     4   9  19  36  57  84 118 151 185 227 271 319
#     4  12  24  37  57  84 113 146 184 227 278 333
#     4  10  21  38  59  83 112 145 183 227 276 331
#     4  10  21  38  59  83 112 146 183 226 276 330
#     4  10  21  37  59  83 110 147 186 228 276 326
#     4  10  22  40  58  79 108 142 186 234 278 326
#     4  10  20  36  58  82 111 147 186 227 275 328
#
# _framework density 19.040147000000001
#
# number of rings (size 3 to 8) (size 9 to 14) (size 15 to 20)
#    0.000    1.857    0.000    3.857    0.000    7.714 
#    0.000    5.714    0.000    0.000    0.000    0.000 
#    0.000    0.000    0.000    0.000    0.000    0.000 
#
# Total GULP energy -694563.531832 kJ/mol
# GULP energy per Si atom -12402.920211 kJ/mol
# Density = 1.899681 g / cm^3
# Si number density = 19.040147 Si / 1000 Ang^3
#
#
#
# Elastic Constant Matrix: (Units=GPa)
#
#
# Indices 1 2 3 4 5 6 
#
# 1 61.5818 16.3734 35.9351 0.0000 0.0000 0.0000
# 2 16.3734 108.5348 47.1370 0.0000 0.0000 0.0000
# 3 35.9351 47.1370 119.0602 0.0000 0.0000 0.0000
# 4 0.0000 0.0000 0.0000 25.8786 0.0000 0.0000
# 5 0.0000 0.0000 0.0000 0.0000 36.7478 0.0000
# 6 0.0000 0.0000 0.0000 0.0000 0.0000 44.4393
#
#
#
# Elastic Compliance Matrix: (Units=1/GPa)
#
#
# Indices 1 2 3 4 5 6 
#
# 1 0.019730 -0.000471 -0.005768 0.000000 0.000000 0.000000
# 2 -0.000471 0.011138 -0.004267 0.000000 0.000000 0.000000
# 3 -0.005768 -0.004267 0.011830 0.000000 0.000000 0.000000
# 4 0.000000 0.000000 0.000000 0.038642 0.000000 0.000000
# 5 0.000000 0.000000 0.000000 0.000000 0.027213 0.000000
# 6 0.000000 0.000000 0.000000 0.000000 0.000000 0.022503
#
#
# Mechanical properties :
#
#
# Convention : Reuss Voigt Hill
#
# Bulk Modulus (GPa) = 46.11782 54.22973 50.17378
# Shear Modulus (GPa) = 31.38799 34.06190 32.72495
#
# Velocity S-wave (km/s) = 4.06460 4.23419 4.15026
# Velocity P-wave (km/s) = 6.80455 7.24210 7.02673
#
# Compressibility (1/GPa) = 0.02168359
#
# Stress axis : x y z
#
# Youngs Moduli (GPa) = 50.68454 89.78207 84.53328
#
# Poissons Ratio (x) = 0.04230 0.48762
# Poissons Ratio (y) = 0.02388 0.36074
# Poissons Ratio (z) = 0.29237 0.38314
#
# Static dielectric constant tensor:
#      x y z
#    x 3.574390 0.000000 0.000000 
#    y 0.000000 3.583110 0.000000 
#    z 0.000000 0.000000 3.517200 
# 
# 
# High freq. dielectric constant tensor:
#      x y z
#    x 1.753730 0.000000 0.000000 
#    y 0.000000 1.740270 0.000000 
#    z 0.000000 0.000000 1.746810 
# 
# From -- ./inp_files/20463.got.cif
#   From: 2010.03.12/outbox.cif.g09.slc.cpg/sg53_11_cif.got.tgz:20463.got - 2010.04.16 14:36:59.
