data_PCOD8220409
_publ_section_title
;
Structure prediction by ZEFSAII (Michael W. Deem and Ramdas Pophale) SiO2 
 PCOD8220409
Probable space group: P M N A
;
_chemical_formula_sum "Si O2"
_cell_formula_units_Z 48
_cell_length_a 14.858484
_cell_length_b 9.132487
_cell_length_c 17.100944
_cell_angle_alpha 90.000000
_cell_angle_beta 90.000000
_cell_angle_gamma 90.000000
_cell_volume 2320.511091
_symmetry_space_group_name_H-M "P M N A"
_symmetry_group_IT_number 53
_symmetry_cell_setting 'orthorhombic'
loop_
_space_group_symop_operation_xyz
x,y,z
1/2-x,-y,1/2+z
x,-y,-z
1/2-x,y,1/2-z
-x,-y,-z
1/2+x,y,1/2-z
-x,y,z
1/2+x,-y,1/2+z
loop_
_atom_site_type_symbol
_atom_site_label
_atom_site_fract_x
_atom_site_fract_y
_atom_site_fract_z
Si Si1 0.601508 0.307657 0.408329
Si Si2 0.397902 0.852994 0.049583
Si Si3 0.396884 0.826170 0.224597
Si Si4 0.172064 0.545755 0.197543
Si Si5 0.106957 0.025354 0.877799
Si Si6 0.216397 0.727276 0.047214
O O1 0.500000 0.313153 0.439287
O O2 0.609595 0.415774 0.334111
O O3 0.629465 0.144837 0.383480
O O4 0.665971 0.361024 0.478346
O O5 0.500000 0.784811 0.047586
O O6 0.361847 0.874738 0.138970
O O7 0.319494 0.748331 0.015991
O O8 0.398525 0.000000 0.000000
O O9 0.500000 0.863092 0.223499
O O10 0.381815 0.655602 0.245381
O O11 0.354703 0.926001 0.292808
O O12 0.250000 0.473455 0.250000
O O13 0.215636 0.635086 0.126265
O O14 0.000000 0.058088 0.888855
O O15 0.161756 0.118929 0.942333
#
# Coordination Sequence:
#
# PCOD8220409 Si02
#       6
#     8   8   8   8   8   8
#     4  11  23  39  61  93 129 161 199 253 317 372
#     4  10  20  35  58  87 117 155 208 259 304 355
#     4   9  18  36  61  84 113 155 204 252 300 363
#     4  11  22  39  57  85 119 163 208 246 295 371
#     4   9  19  35  59  92 124 154 194 253 316 369
#     4  11  21  38  62  89 121 158 206 253 307 366
#
# _framework density 20.685098
#
# number of rings (size 3 to 8) (size 9 to 14) (size 15 to 20)
#    0.000    1.833    1.667    3.000    0.000    4.000 
#    6.000    0.000    0.000    3.000    0.000    0.000 
#    0.000    0.000    0.000    0.000    0.000    0.000 
#
# Total GULP energy -594868.328282 kJ/mol
# GULP energy per Si atom -12393.090173 kJ/mol
# Density = 2.063802 g / cm^3
# Si number density = 20.685098 Si / 1000 Ang^3
#
#
#
# Elastic Constant Matrix: (Units=GPa)
#
#
# Indices 1 2 3 4 5 6 
#
# 1 95.8070 21.2874 27.8528 0.0000 0.0000 0.0000
# 2 21.2874 80.2480 35.7861 0.0000 0.0000 0.0000
# 3 27.8528 35.7861 108.3120 0.0000 0.0000 0.0000
# 4 0.0000 0.0000 0.0000 30.3593 0.0000 0.0000
# 5 0.0000 0.0000 0.0000 0.0000 32.4541 0.0000
# 6 0.0000 0.0000 0.0000 0.0000 0.0000 22.2442
#
#
#
# Elastic Compliance Matrix: (Units=1/GPa)
#
#
# Indices 1 2 3 4 5 6 
#
# 1 0.011559 -0.002042 -0.002298 0.000000 0.000000 0.000000
# 2 -0.002042 0.014975 -0.004423 0.000000 0.000000 0.000000
# 3 -0.002298 -0.004423 0.011285 0.000000 0.000000 0.000000
# 4 0.000000 0.000000 0.000000 0.032939 0.000000 0.000000
# 5 0.000000 0.000000 0.000000 0.000000 0.030813 0.000000
# 6 0.000000 0.000000 0.000000 0.000000 0.000000 0.044956
#
#
# Mechanical properties :
#
#
# Convention : Reuss Voigt Hill
#
# Bulk Modulus (GPa) = 49.27403 50.46887 49.87145
# Shear Modulus (GPa) = 29.27122 30.30755 29.78939
#
# Velocity S-wave (km/s) = 3.76585 3.83193 3.79903
# Velocity P-wave (km/s) = 6.54076 6.63550 6.58830
#
# Compressibility (1/GPa) = 0.02029466
#
# Stress axis : x y z
#
# Youngs Moduli (GPa) = 86.51018 66.77679 88.61463
#
# Poissons Ratio (x) = 0.13633 0.20364
# Poissons Ratio (y) = 0.17662 0.39193
# Poissons Ratio (z) = 0.19880 0.29534
#
# Static dielectric constant tensor:
#      x y z
#    x 3.840530 0.000000 0.000000 
#    y 0.000000 3.539630 0.000000 
#    z 0.000000 0.000000 4.241380 
# 
# 
# High freq. dielectric constant tensor:
#      x y z
#    x 1.812940 0.000000 0.000000 
#    y 0.000000 1.784810 0.000000 
#    z 0.000000 0.000000 1.813420 
# 
# From -- ./inp_files/28280.got.cif
#   From: 2010.03.12/outbox.cif.g09.slc.cpg/sg53_15_cif.got.tgz:28280.got - 2010.04.16 14:36:59.
