data_PCOD8220068
_publ_section_title
;
Structure prediction by ZEFSAII (Michael W. Deem and Ramdas Pophale) SiO2 
 PCOD8220068
Probable space group: P M N A
;
_chemical_formula_sum "Si O2"
_cell_formula_units_Z 64
_cell_length_a 9.034993
_cell_length_b 19.018496
_cell_length_c 19.644720
_cell_angle_alpha 90.000000
_cell_angle_beta 90.000000
_cell_angle_gamma 90.000000
_cell_volume 3375.591099
_symmetry_space_group_name_H-M "P M N A"
_symmetry_group_IT_number 53
_symmetry_cell_setting 'orthorhombic'
loop_
_space_group_symop_operation_xyz
x,y,z
1/2-x,-y,1/2+z
x,-y,-z
1/2-x,y,1/2-z
-x,-y,-z
1/2+x,y,1/2-z
-x,y,z
1/2+x,-y,1/2+z
loop_
_atom_site_type_symbol
_atom_site_label
_atom_site_fract_x
_atom_site_fract_y
_atom_site_fract_z
Si Si1 0.671425 0.780411 0.078475
Si Si2 0.829566 0.517518 0.182600
Si Si3 0.668870 0.562084 0.547369
Si Si4 0.328136 0.291905 0.058562
Si Si5 0.323488 0.339389 0.820457
Si Si6 0.676042 0.810800 0.823034
Si Si7 0.326573 0.071000 0.409544
Si Si8 0.827925 0.916002 0.064898
O O1 0.500000 0.791885 0.090297
O O2 0.728817 0.716317 0.123884
O O3 0.748674 0.851957 0.103110
O O4 0.710049 0.764173 0.000060
O O5 0.750000 0.487717 0.250000
O O6 0.818176 0.457920 0.126186
O O7 0.743697 0.586231 0.156246
O O8 0.000000 0.536776 0.198868
O O9 0.738292 0.500000 0.500000
O O10 0.500000 0.573140 0.524333
O O11 0.749125 0.635841 0.539688
O O12 0.500000 0.310060 0.059566
O O13 0.278787 0.255921 0.129617
O O14 0.250000 0.315911 0.750000
O O15 0.500000 0.345126 0.813949
O O16 0.750000 0.798806 0.750000
O O17 0.500000 0.816214 0.815022
O O18 0.733350 0.882861 0.856688
O O19 0.500000 0.088103 0.400237
O O20 0.273125 0.083491 0.486694
O O21 0.293488 0.988484 0.395327
O O22 0.000000 0.901254 0.065111
#
# Coordination Sequence:
#
# PCOD8220068 Si02
#       8
#     8   8   8   8   8   8   8   8
#     4  10  20  35  54  81 113 144 183 228 272 327
#     4  10  20  35  55  77 103 136 178 222 267 329
#     4  10  22  38  56  81 110 141 180 229 280 331
#     4  10  22  38  56  81 111 144 186 230 278 334
#     4  10  20  34  54  78 107 141 177 221 271 329
#     4  11  23  39  59  83 115 154 195 239 286 337
#     4   9  18  35  56  83 113 143 184 227 274 329
#     4   9  18  32  56  85 112 142 179 226 273 325
#
# _framework density 18.959641000000001
#
# number of rings (size 3 to 8) (size 9 to 14) (size 15 to 20)
#    0.000    2.125    1.250    3.375    0.000    4.750 
#    0.000    4.375    0.000    1.500    0.000    0.000 
#    0.000    0.000    0.000    0.000    0.000    0.000 
#
# Total GULP energy -793498.542207 kJ/mol
# GULP energy per Si atom -12398.414722 kJ/mol
# Density = 1.891649 g / cm^3
# Si number density = 18.959641 Si / 1000 Ang^3
#
#
#
# Elastic Constant Matrix: (Units=GPa)
#
#
# Indices 1 2 3 4 5 6 
#
# 1 68.7879 39.7417 23.7347 0.0000 0.0000 0.0000
# 2 39.7417 93.9820 18.8665 0.0000 0.0000 0.0000
# 3 23.7347 18.8665 51.9840 0.0000 0.0000 0.0000
# 4 0.0000 0.0000 0.0000 27.9229 0.0000 0.0000
# 5 0.0000 0.0000 0.0000 0.0000 7.4065 0.0000
# 6 0.0000 0.0000 0.0000 0.0000 0.0000 35.1994
#
#
#
# Elastic Compliance Matrix: (Units=1/GPa)
#
#
# Indices 1 2 3 4 5 6 
#
# 1 0.021353 -0.007628 -0.006981 0.000000 0.000000 0.000000
# 2 -0.007628 0.014202 -0.001671 0.000000 0.000000 0.000000
# 3 -0.006981 -0.001671 0.023031 0.000000 0.000000 0.000000
# 4 0.000000 0.000000 0.000000 0.035813 0.000000 0.000000
# 5 0.000000 0.000000 0.000000 0.000000 0.135016 0.000000
# 6 0.000000 0.000000 0.000000 0.000000 0.000000 0.028410
#
#
# Mechanical properties :
#
#
# Convention : Reuss Voigt Hill
#
# Bulk Modulus (GPa) = 38.42519 42.15995 40.29257
# Shear Modulus (GPa) = 16.71908 22.93316 19.82612
#
# Velocity S-wave (km/s) = 2.97277 3.48167 3.23724
# Velocity P-wave (km/s) = 5.66516 6.20062 5.93893
#
# Compressibility (1/GPa) = 0.02602459
#
# Stress axis : x y z
#
# Youngs Moduli (GPa) = 46.83129 70.41506 43.42057
#
# Poissons Ratio (x) = 0.53714 0.30312
# Poissons Ratio (y) = 0.35724 0.07257
# Poissons Ratio (z) = 0.32693 0.11769
#
# Static dielectric constant tensor:
#      x y z
#    x 3.420510 0.000000 0.000000 
#    y 0.000000 3.479010 0.000000 
#    z 0.000000 0.000000 3.534450 
# 
# 
# High freq. dielectric constant tensor:
#      x y z
#    x 1.735290 0.000000 0.000000 
#    y 0.000000 1.741790 0.000000 
#    z 0.000000 0.000000 1.728070 
# 
# From -- ./inp_files/31234.got.cif
#   From: 2010.03.12/outbox.cif.g09.slc.cpg/sg53_16_cif.got.tgz:31234.got - 2010.04.16 14:36:59.
