data_PCOD8220279
_publ_section_title
;
Structure prediction by ZEFSAII (Michael W. Deem and Ramdas Pophale) SiO2 
 PCOD8220279
Probable space group: P M N A
;
_chemical_formula_sum "Si O2"
_cell_formula_units_Z 64
_cell_length_a 8.873411
_cell_length_b 12.560990
_cell_length_c 29.355011
_cell_angle_alpha 90.000000
_cell_angle_beta 90.000000
_cell_angle_gamma 90.000000
_cell_volume 3271.875088
_symmetry_space_group_name_H-M "P M N A"
_symmetry_group_IT_number 53
_symmetry_cell_setting 'orthorhombic'
loop_
_space_group_symop_operation_xyz
x,y,z
1/2-x,-y,1/2+z
x,-y,-z
1/2-x,y,1/2-z
-x,-y,-z
1/2+x,y,1/2-z
-x,y,z
1/2+x,-y,1/2+z
loop_
_atom_site_type_symbol
_atom_site_label
_atom_site_fract_x
_atom_site_fract_y
_atom_site_fract_z
Si Si1 0.329333 0.019664 0.449956
Si Si2 0.822980 0.475013 0.048604
Si Si3 0.821688 0.048303 0.642478
Si Si4 0.331296 0.248697 0.415407
Si Si5 0.672148 0.183948 0.170779
Si Si6 0.180561 0.760769 0.199297
Si Si7 0.173382 0.624226 0.793023
Si Si8 0.822682 0.559982 0.141452
O O1 0.500000 0.974460 0.446828
O O2 0.234734 0.962481 0.409762
O O3 0.330611 0.146761 0.447512
O O4 0.258322 0.000000 0.500000
O O5 0.788305 0.351335 0.055747
O O6 0.758054 0.550374 0.089649
O O7 0.000000 0.497206 0.046317
O O8 0.745837 0.500000 0.000000
O O9 0.783339 0.940346 0.670353
O O10 0.000000 0.070587 0.641667
O O11 0.734591 0.139023 0.669816
O O12 0.500000 0.262684 0.393007
O O13 0.202057 0.233465 0.378526
O O14 0.500000 0.199948 0.184397
O O15 0.772818 0.252857 0.205054
O O16 0.250000 0.762065 0.250000
O O17 0.242499 0.657437 0.171409
O O18 0.000000 0.762398 0.203716
O O19 0.250000 0.567275 0.750000
O O20 0.217692 0.554830 0.836970
O O21 0.000000 0.622916 0.783133
O O22 0.000000 0.576519 0.140000
#
# Coordination Sequence:
#
# PCOD8220279 Si02
#       8
#     8   8   8   8   8   8   8   8
#     4   9  18  32  54  86 118 152 199 248 295 345
#     4   9  16  28  51  83 113 145 187 230 279 336
#     4  10  22  39  58  82 115 153 197 241 292 352
#     4   9  16  30  52  76 108 149 185 230 284 335
#     4  10  20  35  55  79 107 144 183 227 280 334
#     4  11  23  40  62  84 114 153 197 246 299 355
#     4  11  21  35  56  83 113 142 180 225 275 336
#     4   9  19  35  55  82 114 148 186 234 285 339
#
# _framework density 19.560649999999999
#
# number of rings (size 3 to 8) (size 9 to 14) (size 15 to 20)
#    0.000    2.250    1.250    1.875    0.000    3.250 
#    0.000    5.625    0.000    0.375    0.000    0.000 
#    0.000    0.000    0.000    0.000    0.000    0.000 
#
# Total GULP energy -793054.751646 kJ/mol
# GULP energy per Si atom -12391.480494 kJ/mol
# Density = 1.951613 g / cm^3
# Si number density = 19.560650 Si / 1000 Ang^3
#
#
#
# Elastic Constant Matrix: (Units=GPa)
#
#
# Indices 1 2 3 4 5 6 
#
# 1 58.3180 39.1577 37.9417 0.0000 0.0000 0.0000
# 2 39.1577 113.0447 61.2559 0.0000 0.0000 0.0000
# 3 37.9417 61.2559 148.9372 0.0000 0.0000 0.0000
# 4 0.0000 0.0000 0.0000 16.0714 0.0000 0.0000
# 5 0.0000 0.0000 0.0000 0.0000 26.1500 0.0000
# 6 0.0000 0.0000 0.0000 0.0000 0.0000 17.1966
#
#
#
# Elastic Compliance Matrix: (Units=1/GPa)
#
#
# Indices 1 2 3 4 5 6 
#
# 1 0.023619 -0.006332 -0.003413 0.000000 0.000000 0.000000
# 2 -0.006332 0.013081 -0.003767 0.000000 0.000000 0.000000
# 3 -0.003413 -0.003767 0.009133 0.000000 0.000000 0.000000
# 4 0.000000 0.000000 0.000000 0.062222 0.000000 0.000000
# 5 0.000000 0.000000 0.000000 0.000000 0.038241 0.000000
# 6 0.000000 0.000000 0.000000 0.000000 0.000000 0.058151
#
#
# Mechanical properties :
#
#
# Convention : Reuss Voigt Hill
#
# Bulk Modulus (GPa) = 53.16469 66.33450 59.74959
# Shear Modulus (GPa) = 21.03133 24.01325 22.52229
#
# Velocity S-wave (km/s) = 3.28256 3.50756 3.39692
# Velocity P-wave (km/s) = 6.45022 7.09858 6.78215
#
# Compressibility (1/GPa) = 0.01880948
#
# Stress axis : x y z
#
# Youngs Moduli (GPa) = 42.33790 76.44906 109.49535
#
# Poissons Ratio (x) = 0.48410 0.37367
# Poissons Ratio (y) = 0.26810 0.41244
# Poissons Ratio (z) = 0.14448 0.28796
#
# Static dielectric constant tensor:
#      x y z
#    x 3.356660 0.000000 0.000000 
#    y 0.000000 3.720600 0.000000 
#    z 0.000000 0.000000 3.930840 
# 
# 
# High freq. dielectric constant tensor:
#      x y z
#    x 1.732960 0.000000 0.000000 
#    y 0.000000 1.765710 0.000000 
#    z 0.000000 0.000000 1.768950 
# 
# From -- ./inp_files/38302.got.cif
#   From: 2010.03.12/outbox.cif.g09.slc.cpg/sg53_20_cif.got.tgz:38302.got - 2010.04.16 14:36:59.
