data_PCOD8220343
_publ_section_title
;
Structure prediction by ZEFSAII (Michael W. Deem and Ramdas Pophale) SiO2 
 PCOD8220343
Probable space group: P M N A
;
_chemical_formula_sum "Si O2"
_cell_formula_units_Z 40
_cell_length_a 18.601460
_cell_length_b 11.778647
_cell_length_c 9.778820
_cell_angle_alpha 90.000000
_cell_angle_beta 90.000000
_cell_angle_gamma 90.000000
_cell_volume 2142.539765
_symmetry_space_group_name_H-M "P M N A"
_symmetry_group_IT_number 53
_symmetry_cell_setting 'orthorhombic'
loop_
_space_group_symop_operation_xyz
x,y,z
1/2-x,-y,1/2+z
x,-y,-z
1/2-x,y,1/2-z
-x,-y,-z
1/2+x,y,1/2-z
-x,y,z
1/2+x,-y,1/2+z
loop_
_atom_site_type_symbol
_atom_site_label
_atom_site_fract_x
_atom_site_fract_y
_atom_site_fract_z
Si Si1 0.416471 0.127110 0.976128
Si Si2 0.081421 0.691311 0.696219
Si Si3 0.306941 0.513166 0.856746
Si Si4 0.666190 0.271677 0.754689
Si Si5 0.583835 0.365919 0.503364
O O1 0.500000 0.128881 0.935435
O O2 0.374439 0.180903 0.848350
O O3 0.403111 0.189404 0.121471
O O4 0.388198 0.000000 0.000000
O O5 0.129128 0.599858 0.618803
O O6 0.000000 0.652523 0.673702
O O7 0.099206 0.692968 0.857138
O O8 0.250000 0.561727 0.750000
O O9 0.342517 0.395484 0.817051
O O10 0.264770 0.500000 0.000000
O O11 0.750000 0.235864 0.750000
O O12 0.630482 0.286764 0.605083
O O13 0.606582 0.500000 0.500000
O O14 0.500000 0.357481 0.544687
#
# Coordination Sequence:
#
# PCOD8220343 Si02
#       5
#     8   8   8   8   8
#     4  10  22  43  65  83 111 156 211 259 293 334
#     4  10  21  36  58  87 115 149 194 242 294 350
#     4  11  23  35  55  86 123 159 185 234 295 368
#     4  11  23  36  57  88 124 153 192 239 298 365
#     4  10  20  35  56  86 122 154 186 233 294 361
#
# _framework density 18.669430999999999
#
# number of rings (size 3 to 8) (size 9 to 14) (size 15 to 20)
#    0.000    1.600    4.000    0.600    5.600    1.200 
#    0.000    4.000    0.000    4.800    0.000    0.000 
#    0.000    0.000    0.000    0.000    0.000    0.000 
#
# Total GULP energy -495819.944010 kJ/mol
# GULP energy per Si atom -12395.498600 kJ/mol
# Density = 1.862694 g / cm^3
# Si number density = 18.669431 Si / 1000 Ang^3
#
#
#
# Elastic Constant Matrix: (Units=GPa)
#
#
# Indices 1 2 3 4 5 6 
#
# 1 96.4643 52.9065 62.8935 0.0000 0.0000 0.0000
# 2 52.9065 115.1894 51.3559 0.0000 0.0000 0.0000
# 3 62.8935 51.3559 148.1433 0.0000 0.0000 0.0000
# 4 0.0000 0.0000 0.0000 29.8105 0.0000 0.0000
# 5 0.0000 0.0000 0.0000 0.0000 25.9780 0.0000
# 6 0.0000 0.0000 0.0000 0.0000 0.0000 29.5634
#
#
#
# Elastic Compliance Matrix: (Units=1/GPa)
#
#
# Indices 1 2 3 4 5 6 
#
# 1 0.016714 -0.005338 -0.005245 0.000000 0.000000 0.000000
# 2 -0.005338 0.011973 -0.001884 0.000000 0.000000 0.000000
# 3 -0.005245 -0.001884 0.009630 0.000000 0.000000 0.000000
# 4 0.000000 0.000000 0.000000 0.033545 0.000000 0.000000
# 5 0.000000 0.000000 0.000000 0.000000 0.038494 0.000000
# 6 0.000000 0.000000 0.000000 0.000000 0.000000 0.033826
#
#
# Mechanical properties :
#
#
# Convention : Reuss Voigt Hill
#
# Bulk Modulus (GPa) = 74.72769 77.12318 75.92543
# Shear Modulus (GPa) = 28.80522 29.91312 29.35917
#
# Velocity S-wave (km/s) = 3.93225 4.00716 3.96988
# Velocity P-wave (km/s) = 7.79297 7.92523 7.85938
#
# Compressibility (1/GPa) = 0.01338192
#
# Stress axis : x y z
#
# Youngs Moduli (GPa) = 59.82918 83.51874 103.83822
#
# Poissons Ratio (x) = 0.44585 0.54467
# Poissons Ratio (y) = 0.31938 0.19567
# Poissons Ratio (z) = 0.31383 0.15738
#
# Static dielectric constant tensor:
#      x y z
#    x 3.463840 0.000000 0.000000 
#    y 0.000000 3.259140 0.000000 
#    z 0.000000 0.000000 3.827140 
# 
# 
# High freq. dielectric constant tensor:
#      x y z
#    x 1.731190 0.000000 0.000000 
#    y 0.000000 1.692910 0.000000 
#    z 0.000000 0.000000 1.741570 
# 
# From -- ./inp_files/10753.got.cif
#   From: 2010.03.12/outbox.cif.g09.slc.cpg/sg53_6_cif.got.tgz:10753.got - 2010.04.16 14:36:59.
