data_PCOD8220648
_publ_section_title
;
Structure prediction by ZEFSAII (Michael W. Deem and Ramdas Pophale) SiO2 
 PCOD8220648
Probable space group: P M N A
;
_chemical_formula_sum "Si O2"
_cell_formula_units_Z 48
_cell_length_a 8.681051
_cell_length_b 15.260684
_cell_length_c 17.885167
_cell_angle_alpha 90.000000
_cell_angle_beta 90.000000
_cell_angle_gamma 90.000000
_cell_volume 2369.405034
_symmetry_space_group_name_H-M "P M N A"
_symmetry_group_IT_number 53
_symmetry_cell_setting 'orthorhombic'
loop_
_space_group_symop_operation_xyz
x,y,z
1/2-x,-y,1/2+z
x,-y,-z
1/2-x,y,1/2-z
-x,-y,-z
1/2+x,y,1/2-z
-x,y,z
1/2+x,-y,1/2+z
loop_
_atom_site_type_symbol
_atom_site_label
_atom_site_fract_x
_atom_site_fract_y
_atom_site_fract_z
Si Si1 0.176981 0.822143 0.410014
Si Si2 0.321653 0.000055 0.830016
Si Si3 0.679986 0.706833 0.832363
Si Si4 0.318631 0.856147 0.567606
Si Si5 0.322055 0.486806 0.169240
Si Si6 0.680319 0.340277 0.667713
O O1 0.198218 0.897773 0.348422
O O2 0.234607 0.858007 0.488614
O O3 0.275131 0.738662 0.386149
O O4 0.000000 0.793821 0.416923
O O5 0.250000 0.979548 0.750000
O O6 0.500000 0.971690 0.830423
O O7 0.229753 0.944129 0.890496
O O8 0.750000 0.715024 0.750000
O O9 0.500000 0.731470 0.828155
O O10 0.769453 0.770899 0.886697
O O11 0.701967 0.608942 0.867729
O O12 0.500000 0.855214 0.555044
O O13 0.250000 0.479399 0.250000
O O14 0.500000 0.510959 0.175648
O O15 0.238513 0.568738 0.128630
O O16 0.750000 0.327111 0.750000
O O17 0.500000 0.343486 0.676499
#
# Coordination Sequence:
#
# PCOD8220648 Si02
#       6
#     8   8   8   8   8   8
#     4  11  24  42  62  85 117 154 193 238 289 344
#     4  11  24  42  65  90 116 149 190 237 285 337
#     4  10  20  36  59  86 117 153 196 243 289 340
#     4  12  25  40  60  86 119 155 191 235 288 347
#     4   9  17  31  54  83 114 150 192 240 289 336
#     4  11  21  35  58  87 119 154 194 240 288 341
#
# _framework density 20.258251999999999
#
# number of rings (size 3 to 8) (size 9 to 14) (size 15 to 20)
#    0.000    1.333    0.000    7.500    0.000    8.000 
#    0.000    0.833    0.000    5.000    0.000    0.000 
#    0.000    0.000    0.000    0.000    0.000    0.000 
#
# Total GULP energy -595235.522299 kJ/mol
# GULP energy per Si atom -12400.740048 kJ/mol
# Density = 2.021214 g / cm^3
# Si number density = 20.258252 Si / 1000 Ang^3
#
#
#
# Elastic Constant Matrix: (Units=GPa)
#
#
# Indices 1 2 3 4 5 6 
#
# 1 113.2354 36.8277 8.6336 0.0000 0.0000 0.0000
# 2 36.8277 94.6989 5.2081 0.0000 0.0000 0.0000
# 3 8.6336 5.2081 56.4063 0.0000 0.0000 0.0000
# 4 0.0000 0.0000 0.0000 449.9354 0.0000 0.0000
# 5 0.0000 0.0000 0.0000 0.0000 32.9685 0.0000
# 6 0.0000 0.0000 0.0000 0.0000 0.0000 32.3630
#
#
#
# Elastic Compliance Matrix: (Units=1/GPa)
#
#
# Indices 1 2 3 4 5 6 
#
# 1 0.010190 -0.003897 -0.001200 0.000000 0.000000 0.000000
# 2 -0.003897 0.012104 -0.000521 0.000000 0.000000 0.000000
# 3 -0.001200 -0.000521 0.017960 0.000000 0.000000 0.000000
# 4 0.000000 0.000000 0.000000 0.002223 0.000000 0.000000
# 5 0.000000 0.000000 0.000000 0.000000 0.030332 0.000000
# 6 0.000000 0.000000 0.000000 0.000000 0.000000 0.030899
#
#
# Mechanical properties :
#
#
# Convention : Reuss Voigt Hill
#
# Bulk Modulus (GPa) = 34.46077 40.63105 37.54591
# Shear Modulus (GPa) = 40.12302 117.29812 78.71057
#
# Velocity S-wave (km/s) = 4.45519 7.61755 6.24003
# Velocity P-wave (km/s) = 6.59641 9.87267 8.39590
#
# Compressibility (1/GPa) = 0.02901850
#
# Stress axis : x y z
#
# Youngs Moduli (GPa) = 98.13527 82.61799 55.67843
#
# Poissons Ratio (x) = 0.32195 0.06681
# Poissons Ratio (y) = 0.38242 0.02901
# Poissons Ratio (z) = 0.11775 0.04305
#
# Static dielectric constant tensor:
#      x y z
#    x 3.848280 0.000000 0.000000 
#    y 0.000000 4.278990 0.000000 
#    z 0.000000 0.000000 3.508350 
# 
# 
# High freq. dielectric constant tensor:
#      x y z
#    x 1.811250 0.000000 0.000000 
#    y 0.000000 1.815250 0.000000 
#    z 0.000000 0.000000 1.764970 
# 
# From -- ./inp_files/26226.got.cif
#   From: 2010.03.12/outbox.cif.g09.slc.cpg/sg53_14_cif.got.tgz:26226.got - 2010.04.16 14:36:59.
