data_PCOD8220436
_publ_section_title
;
Structure prediction by ZEFSAII (Michael W. Deem and Ramdas Pophale) SiO2 
 PCOD8220436
Probable space group: P M N A
;
_chemical_formula_sum "Si O2"
_cell_formula_units_Z 64
_cell_length_a 8.662916
_cell_length_b 12.495115
_cell_length_c 28.471644
_cell_angle_alpha 90.000000
_cell_angle_beta 90.000000
_cell_angle_gamma 90.000000
_cell_volume 3081.888382
_symmetry_space_group_name_H-M "P M N A"
_symmetry_group_IT_number 53
_symmetry_cell_setting 'orthorhombic'
loop_
_space_group_symop_operation_xyz
x,y,z
1/2-x,-y,1/2+z
x,-y,-z
1/2-x,y,1/2-z
-x,-y,-z
1/2+x,y,1/2-z
-x,y,z
1/2+x,-y,1/2+z
loop_
_atom_site_type_symbol
_atom_site_label
_atom_site_fract_x
_atom_site_fract_y
_atom_site_fract_z
Si Si1 0.319595 0.997936 0.799124
Si Si2 0.181172 0.431520 0.300357
Si Si3 0.178136 0.604616 0.134916
Si Si4 0.816290 0.887280 0.018562
Si Si5 0.823507 0.212652 0.164794
Si Si6 0.320735 0.489816 0.053522
Si Si7 0.819847 0.151244 0.876194
Si Si8 0.677303 0.731501 0.562247
O O1 0.250000 0.038949 0.750000
O O2 0.500000 0.008752 0.794995
O O3 0.275481 0.874943 0.807916
O O4 0.263008 0.069681 0.841936
O O5 0.250000 0.457477 0.250000
O O6 0.211917 0.536061 0.331629
O O7 0.264733 0.329767 0.322327
O O8 0.000000 0.409637 0.297392
O O9 0.218303 0.575963 0.081222
O O10 0.212256 0.729548 0.142425
O O11 0.000000 0.577354 0.145263
O O12 0.754001 0.863034 0.070878
O O13 0.000000 0.889148 0.017900
O O14 0.758181 0.796021 0.982612
O O15 0.749958 0.000000 0.000000
O O16 0.809772 0.194742 0.108704
O O17 0.000000 0.201078 0.181404
O O18 0.500000 0.514579 0.061729
O O19 0.284064 0.370818 0.071182
O O20 0.270338 0.500000 0.000000
O O21 0.000000 0.123931 0.876007
O O22 0.500000 0.695200 0.554774
#
# Coordination Sequence:
#
# PCOD8220436 Si02
#       8
#     8   8   8   8   8   8   8   8
#     4  12  26  44  67  93 124 163 210 263 326 389
#     4  12  25  42  65  93 128 166 211 264 325 388
#     4  11  23  41  64  91 124 166 216 265 319 382
#     4   9  17  33  59  92 124 162 210 260 313 369
#     4  11  22  40  66  97 131 165 210 264 321 379
#     4  11  23  37  56  86 126 169 211 260 317 375
#     4  10  22  41  65  92 127 166 212 267 317 376
#     4  10  20  35  61  91 123 165 212 261 312 375
#
# _framework density 20.766487999999999
#
# number of rings (size 3 to 8) (size 9 to 14) (size 15 to 20)
#    0.000    1.250    1.250    5.250    0.000    6.000 
#    0.000    0.625    0.000    1.500    0.000    0.000 
#    0.000    0.000    0.000    0.000    0.000    0.000 
#
# Total GULP energy -793938.816935 kJ/mol
# GULP energy per Si atom -12405.294015 kJ/mol
# Density = 2.071922 g / cm^3
# Si number density = 20.766488 Si / 1000 Ang^3
#
#
#
# Elastic Constant Matrix: (Units=GPa)
#
#
# Indices 1 2 3 4 5 6 
#
# 1 54.2223 27.8828 30.8427 0.0000 0.0000 0.0000
# 2 27.8828 87.2312 28.4664 0.0000 0.0000 0.0000
# 3 30.8427 28.4664 120.2020 0.0000 0.0000 0.0000
# 4 0.0000 0.0000 0.0000 31.2749 0.0000 0.0000
# 5 0.0000 0.0000 0.0000 0.0000 31.3975 0.0000
# 6 0.0000 0.0000 0.0000 0.0000 0.0000 26.4122
#
#
#
# Elastic Compliance Matrix: (Units=1/GPa)
#
#
# Indices 1 2 3 4 5 6 
#
# 1 0.024362 -0.006229 -0.004776 0.000000 0.000000 0.000000
# 2 -0.006229 0.014016 -0.001721 0.000000 0.000000 0.000000
# 3 -0.004776 -0.001721 0.009952 0.000000 0.000000 0.000000
# 4 0.000000 0.000000 0.000000 0.031975 0.000000 0.000000
# 5 0.000000 0.000000 0.000000 0.000000 0.031850 0.000000
# 6 0.000000 0.000000 0.000000 0.000000 0.000000 0.037861
#
#
# Mechanical properties :
#
#
# Convention : Reuss Voigt Hill
#
# Bulk Modulus (GPa) = 43.70750 48.44881 46.07816
# Shear Modulus (GPa) = 27.30826 29.44782 28.37804
#
# Velocity S-wave (km/s) = 3.63025 3.76978 3.70067
# Velocity P-wave (km/s) = 6.21807 6.50609 6.36371
#
# Compressibility (1/GPa) = 0.02287937
#
# Stress axis : x y z
#
# Youngs Moduli (GPa) = 41.04710 71.34495 100.47802
#
# Poissons Ratio (x) = 0.44438 0.47989
# Poissons Ratio (y) = 0.25567 0.17294
# Poissons Ratio (z) = 0.19604 0.12280
#
# Static dielectric constant tensor:
#      x y z
#    x 3.587660 0.000000 0.000000 
#    y 0.000000 3.718100 0.000000 
#    z 0.000000 0.000000 4.098780 
# 
# 
# High freq. dielectric constant tensor:
#      x y z
#    x 1.799410 0.000000 0.000000 
#    y 0.000000 1.814930 0.000000 
#    z 0.000000 0.000000 1.829390 
# 
# From -- ./inp_files/38213.got.cif
#   From: 2010.03.12/outbox.cif.g09.slc.cpg/sg53_20_cif.got.tgz:38213.got - 2010.04.16 14:36:59.
