data_PCOD8220186
_publ_section_title
;
Structure prediction by ZEFSAII (Michael W. Deem and Ramdas Pophale) SiO2 
 PCOD8220186
Probable space group: P M N A
;
_chemical_formula_sum "Si O2"
_cell_formula_units_Z 64
_cell_length_a 18.035203
_cell_length_b 22.428248
_cell_length_c 7.953657
_cell_angle_alpha 90.000000
_cell_angle_beta 90.000000
_cell_angle_gamma 90.000000
_cell_volume 3217.238394
_symmetry_space_group_name_H-M "P M N A"
_symmetry_group_IT_number 53
_symmetry_cell_setting 'orthorhombic'
loop_
_space_group_symop_operation_xyz
x,y,z
1/2-x,-y,1/2+z
x,-y,-z
1/2-x,y,1/2-z
-x,-y,-z
1/2+x,y,1/2-z
-x,y,z
1/2+x,-y,1/2+z
loop_
_atom_site_type_symbol
_atom_site_label
_atom_site_fract_x
_atom_site_fract_y
_atom_site_fract_z
Si Si1 0.587148 0.351854 0.697475
Si Si2 0.911160 0.882815 0.355801
Si Si3 0.078190 0.004332 0.190300
Si Si4 0.911719 0.566818 0.507758
Si Si5 0.834450 0.765073 0.305731
Si Si6 0.335294 0.884103 0.790252
Si Si7 0.166582 0.246742 0.297693
Si Si8 0.086380 0.359790 0.178533
O O1 0.500000 0.338256 0.718641
O O2 0.632075 0.290466 0.705232
O O3 0.604036 0.380557 0.512985
O O4 0.615131 0.396928 0.842622
O O5 0.888063 0.941983 0.253771
O O6 0.883165 0.823613 0.258613
O O7 0.859624 0.888883 0.517901
O O8 0.000000 0.878396 0.390262
O O9 0.000000 0.016066 0.288919
O O10 0.129940 0.060998 0.195681
O O11 0.057492 0.000000 0.000000
O O12 0.879266 0.500000 0.500000
O O13 0.879212 0.596221 0.679649
O O14 0.000000 0.564952 0.510740
O O15 0.750000 0.775940 0.250000
O O16 0.841763 0.750781 0.502210
O O17 0.250000 0.891311 0.750000
O O18 0.358452 0.818099 0.726436
O O19 0.250000 0.262566 0.250000
O O20 0.113811 0.293119 0.207330
O O21 0.000000 0.358570 0.210245
#
# Coordination Sequence:
#
# PCOD8220186 Si02
#       8
#     8   8   8   8   8   8   8   8
#     4  10  20  35  57  87 120 155 199 245 300 367
#     4  10  22  40  62  85 117 162 208 252 305 373
#     4  10  22  38  56  80 113 154 197 246 301 360
#     4   9  18  34  57  86 120 154 195 247 295 352
#     4  11  22  36  58  87 118 155 196 251 310 362
#     4  10  22  37  57  84 113 149 198 252 306 362
#     4  10  21  37  55  81 114 150 192 240 295 358
#     4  10  20  34  57  87 116 153 196 242 296 353
#
# _framework density 19.892838000000001
#
# number of rings (size 3 to 8) (size 9 to 14) (size 15 to 20)
#    0.000    2.000    1.250    1.875    0.000    9.500 
#    0.000    5.000    0.000    0.750    0.000    0.000 
#    0.000    0.000    0.000    0.000    0.000    0.000 
#
# Total GULP energy -793049.359865 kJ/mol
# GULP energy per Si atom -12391.396248 kJ/mol
# Density = 1.984756 g / cm^3
# Si number density = 19.892838 Si / 1000 Ang^3
#
#
#
# Elastic Constant Matrix: (Units=GPa)
#
#
# Indices 1 2 3 4 5 6 
#
# 1 57.9399 51.6688 42.3747 0.0000 0.0000 0.0000
# 2 51.6688 155.9073 63.4124 0.0000 0.0000 0.0000
# 3 42.3747 63.4124 111.2462 0.0000 0.0000 0.0000
# 4 0.0000 0.0000 0.0000 20.2986 0.0000 0.0000
# 5 0.0000 0.0000 0.0000 0.0000 97.0243 0.0000
# 6 0.0000 0.0000 0.0000 0.0000 0.0000 -13.2694
#
#
#
# Elastic Compliance Matrix: (Units=1/GPa)
#
#
# Indices 1 2 3 4 5 6 
#
# 1 0.028187 -0.006476 -0.007045 0.000000 0.000000 0.000000
# 2 -0.006476 0.009838 -0.003141 0.000000 0.000000 0.000000
# 3 -0.007045 -0.003141 0.013463 0.000000 0.000000 0.000000
# 4 0.000000 0.000000 0.000000 0.049264 0.000000 0.000000
# 5 0.000000 0.000000 0.000000 0.000000 0.010307 0.000000
# 6 0.000000 0.000000 0.000000 0.000000 0.000000 -0.075362
#
#
# Mechanical properties :
#
#
# Convention : Reuss Voigt Hill
#
# Bulk Modulus (GPa) = 55.05556 71.11170 63.08363
# Shear Modulus (GPa) = 66.59951 31.98654 49.29303
#
# Velocity S-wave (km/s) = 5.79239 4.01427 4.98328
# Velocity P-wave (km/s) = 8.51304 7.57039 8.05552
#
# Compressibility (1/GPa) = 0.01816347
#
# Stress axis : x y z
#
# Youngs Moduli (GPa) = 35.47772 101.64957 74.27689
#
# Poissons Ratio (x) = 0.65825 0.52330
# Poissons Ratio (y) = 0.22974 0.23331
# Poissons Ratio (z) = 0.24995 0.31928
#
# Static dielectric constant tensor:
#      x y z
#    x 3.198610 0.000000 0.000000 
#    y 0.000000 4.083290 0.000000 
#    z 0.000000 0.000000 3.844220 
# 
# 
# High freq. dielectric constant tensor:
#      x y z
#    x 1.756490 0.000000 0.000000 
#    y 0.000000 1.782730 0.000000 
#    z 0.000000 0.000000 1.781710 
# 
# From -- ./inp_files/10223.got.cif
#   From: 2010.03.12/outbox.cif.g09.slc.cpg/sg53_6_cif.got.tgz:10223.got - 2010.04.16 14:36:59.
