data_PCOD8220982
_publ_section_title
;
Structure prediction by ZEFSAII (Michael W. Deem and Ramdas Pophale) SiO2 
 PCOD8220982
Probable space group: P M N A
;
_chemical_formula_sum "Si O2"
_cell_formula_units_Z 48
_cell_length_a 28.145731
_cell_length_b 9.388745
_cell_length_c 9.672265
_cell_angle_alpha 90.000000
_cell_angle_beta 90.000000
_cell_angle_gamma 90.000000
_cell_volume 2555.925925
_symmetry_space_group_name_H-M "P M N A"
_symmetry_group_IT_number 53
_symmetry_cell_setting 'orthorhombic'
loop_
_space_group_symop_operation_xyz
x,y,z
1/2-x,-y,1/2+z
x,-y,-z
1/2-x,y,1/2-z
-x,-y,-z
1/2+x,y,1/2-z
-x,y,z
1/2+x,-y,1/2+z
loop_
_atom_site_type_symbol
_atom_site_label
_atom_site_fract_x
_atom_site_fract_y
_atom_site_fract_z
Si Si1 0.363142 0.339985 0.978441
Si Si2 0.553125 0.859396 0.087988
Si Si3 0.695386 0.681609 0.751706
Si Si4 0.051621 0.859626 0.090734
Si Si5 0.149252 0.170557 0.012397
Si Si6 0.803432 0.645037 0.212589
O O1 0.410689 0.248627 0.983470
O O2 0.338671 0.308516 0.833129
O O3 0.380678 0.500000 0.000000
O O4 0.323535 0.306485 0.092943
O O5 0.500000 0.796116 0.073325
O O6 0.563769 0.893275 0.249154
O O7 0.558507 0.000000 0.000000
O O8 0.750000 0.732321 0.750000
O O9 0.661870 0.789705 0.668525
O O10 0.691129 0.523917 0.685124
O O11 0.096045 0.772928 0.026777
O O12 0.000000 0.779413 0.080395
O O13 0.047422 0.000000 0.000000
O O14 0.186060 0.258292 0.919628
O O15 0.153688 0.000000 0.000000
O O16 0.750000 0.681922 0.250000
#
# Coordination Sequence:
#
# PCOD8220982 Si02
#       6
#     8   8   8   8   8   8
#     4  10  21  36  57  85 112 147 189 238 282 321
#     4  10  21  37  60  85 111 149 189 230 284 343
#     4  10  22  39  59  81 113 154 195 229 271 340
#     4   9  19  36  57  82 114 148 185 225 280 344
#     4  11  22  35  57  89 114 148 183 235 290 323
#     4  10  20  39  61  80 109 154 195 228 278 343
#
# _framework density 18.779888
#
# number of rings (size 3 to 8) (size 9 to 14) (size 15 to 20)
#    0.000    2.000    1.667    1.500    4.667    3.667 
#    0.000    1.667    0.000    3.000    0.000    0.000 
#    0.000    0.000    0.000    0.000    0.000    0.000 
#
# Total GULP energy -594941.155616 kJ/mol
# GULP energy per Si atom -12394.607409 kJ/mol
# Density = 1.873714 g / cm^3
# Si number density = 18.779888 Si / 1000 Ang^3
#
#
#
# Elastic Constant Matrix: (Units=GPa)
#
#
# Indices 1 2 3 4 5 6 
#
# 1 142.1776 40.7031 26.1110 0.0000 0.0000 0.0000
# 2 40.7031 49.7191 18.0155 0.0000 0.0000 0.0000
# 3 26.1110 18.0155 61.9749 0.0000 0.0000 0.0000
# 4 0.0000 0.0000 0.0000 30.6781 0.0000 0.0000
# 5 0.0000 0.0000 0.0000 0.0000 28.2076 0.0000
# 6 0.0000 0.0000 0.0000 0.0000 0.0000 2404.8893
#
#
#
# Elastic Compliance Matrix: (Units=1/GPa)
#
#
# Indices 1 2 3 4 5 6 
#
# 1 0.009387 -0.006988 -0.001924 0.000000 0.000000 0.000000
# 2 -0.006988 0.027683 -0.005103 0.000000 0.000000 0.000000
# 3 -0.001924 -0.005103 0.018429 0.000000 0.000000 0.000000
# 4 0.000000 0.000000 0.000000 0.032597 0.000000 0.000000
# 5 0.000000 0.000000 0.000000 0.000000 0.035451 0.000000
# 6 0.000000 0.000000 0.000000 0.000000 0.000000 0.000416
#
#
# Mechanical properties :
#
#
# Convention : Reuss Voigt Hill
#
# Bulk Modulus (GPa) = 36.40301 47.05900 41.73100
# Shear Modulus (GPa) = 31.02711 504.02446 267.52579
#
# Velocity S-wave (km/s) = 4.06907 16.40024 11.94833
# Velocity P-wave (km/s) = 6.44225 19.58919 14.58148
#
# Compressibility (1/GPa) = 0.02747026
#
# Stress axis : x y z
#
# Youngs Moduli (GPa) = 106.52716 36.12350 54.26098
#
# Poissons Ratio (x) = 0.25243 0.10438
# Poissons Ratio (y) = 0.74441 0.27689
# Poissons Ratio (z) = 0.20492 0.18434
#
# Static dielectric constant tensor:
#      x y z
#    x 3.901320 0.000000 0.000000 
#    y 0.000000 3.203460 0.000000 
#    z 0.000000 0.000000 3.579660 
# 
# 
# High freq. dielectric constant tensor:
#      x y z
#    x 1.748440 0.000000 0.000000 
#    y 0.000000 1.697890 0.000000 
#    z 0.000000 0.000000 1.742740 
# 
# From -- ./inp_files/13009.got.cif
#   From: 2010.03.12/outbox.cif.g09.slc.cpg/sg53_7_cif.got.tgz:13009.got - 2010.04.16 14:36:59.
