data_PCOD8220547
_publ_section_title
;
Structure prediction by ZEFSAII (Michael W. Deem and Ramdas Pophale) SiO2 
 PCOD8220547
Probable space group: P M N A
;
_chemical_formula_sum "Si O2"
_cell_formula_units_Z 56
_cell_length_a 8.686950
_cell_length_b 22.287304
_cell_length_c 14.387545
_cell_angle_alpha 90.000000
_cell_angle_beta 90.000000
_cell_angle_gamma 90.000000
_cell_volume 2785.553819
_symmetry_space_group_name_H-M "P M N A"
_symmetry_group_IT_number 53
_symmetry_cell_setting 'orthorhombic'
loop_
_space_group_symop_operation_xyz
x,y,z
1/2-x,-y,1/2+z
x,-y,-z
1/2-x,y,1/2-z
-x,-y,-z
1/2+x,y,1/2-z
-x,y,z
1/2+x,-y,1/2+z
loop_
_atom_site_type_symbol
_atom_site_label
_atom_site_fract_x
_atom_site_fract_y
_atom_site_fract_z
Si Si1 0.677736 0.596522 0.843607
Si Si2 0.678394 0.635065 0.041461
Si Si3 0.680972 0.467786 0.654055
Si Si4 0.318618 0.247388 0.852288
Si Si5 0.822499 0.137404 0.958945
Si Si6 0.682683 0.033780 0.847424
Si Si7 0.678394 0.904645 0.656980
O O1 0.750000 0.625102 0.750000
O O2 0.500000 0.584077 0.824149
O O3 0.754336 0.533224 0.868506
O O4 0.702278 0.641728 0.930111
O O5 0.500000 0.624256 0.065473
O O6 0.774490 0.577556 0.072762
O O7 0.742066 0.694280 0.092394
O O8 0.750000 0.442288 0.750000
O O9 0.500000 0.472057 0.662669
O O10 0.250000 0.245674 0.750000
O O11 0.500000 0.248548 0.842906
O O12 0.272262 0.189758 0.911040
O O13 0.756735 0.073331 0.928374
O O14 0.000000 0.143123 0.929793
O O15 0.802829 0.140939 0.070800
O O16 0.750000 0.057760 0.750000
O O17 0.500000 0.040707 0.848724
O O18 0.729329 0.965332 0.864488
O O19 0.750000 0.874364 0.750000
O O20 0.500000 0.920976 0.673966
#
# Coordination Sequence:
#
# PCOD8220547 Si02
#       7
#     8   8   8   8   8   8   8
#     4  10  20  36  57  82 114 148 184 228 277 329
#     4  10  22  39  58  81 111 148 187 230 279 329
#     4  11  21  33  54  84 116 149 185 227 277 333
#     4  11  24  42  62  84 111 144 185 230 276 328
#     4  11  23  39  58  82 113 149 188 230 278 329
#     4  11  21  34  56  85 117 151 186 228 278 332
#     4  10  21  37  58  84 115 148 184 229 277 329
#
# _framework density 20.103722999999999
#
# number of rings (size 3 to 8) (size 9 to 14) (size 15 to 20)
#    0.000    1.429    0.000    7.714    0.000    9.143 
#    0.000    0.714    0.000    3.429    0.000    0.000 
#    0.000    0.000    0.000    0.000    0.000    0.000 
#
# Total GULP energy -694544.002367 kJ/mol
# GULP energy per Si atom -12402.571471 kJ/mol
# Density = 2.005797 g / cm^3
# Si number density = 20.103723 Si / 1000 Ang^3
#
#
#
# Elastic Constant Matrix: (Units=GPa)
#
#
# Indices 1 2 3 4 5 6 
#
# 1 93.9664 16.5913 40.2460 0.0000 0.0000 0.0000
# 2 16.5913 58.4142 50.1119 0.0000 0.0000 0.0000
# 3 40.2460 50.1119 141.7249 0.0000 0.0000 0.0000
# 4 0.0000 0.0000 0.0000 37.2366 0.0000 0.0000
# 5 0.0000 0.0000 0.0000 0.0000 34.6156 0.0000
# 6 0.0000 0.0000 0.0000 0.0000 0.0000 0.5503
#
#
#
# Elastic Compliance Matrix: (Units=1/GPa)
#
#
# Indices 1 2 3 4 5 6 
#
# 1 0.012136 -0.000704 -0.003197 0.000000 0.000000 0.000000
# 2 -0.000704 0.024614 -0.008503 0.000000 0.000000 0.000000
# 3 -0.003197 -0.008503 0.010970 0.000000 0.000000 0.000000
# 4 0.000000 0.000000 0.000000 0.026855 0.000000 0.000000
# 5 0.000000 0.000000 0.000000 0.000000 0.028889 0.000000
# 6 0.000000 0.000000 0.000000 0.000000 0.000000 1.817123
#
#
# Mechanical properties :
#
#
# Convention : Reuss Voigt Hill
#
# Bulk Modulus (GPa) = 43.64709 56.44488 50.04599
# Shear Modulus (GPa) = 2.56012 26.95761 14.75886
#
# Velocity S-wave (km/s) = 1.12970 3.66584 2.71243
# Velocity P-wave (km/s) = 4.84352 6.78643 5.89556
#
# Compressibility (1/GPa) = 0.02291103
#
# Stress axis : x y z
#
# Youngs Moduli (GPa) = 82.40068 40.62780 91.15393
#
# Poissons Ratio (x) = 0.02860 0.29145
# Poissons Ratio (y) = 0.05801 0.77509
# Poissons Ratio (z) = 0.26346 0.34546
#
# Static dielectric constant tensor:
#      x y z
#    x 3.746680 0.000000 0.000000 
#    y 0.000000 3.382400 0.000000 
#    z 0.000000 0.000000 3.998410 
# 
# 
# High freq. dielectric constant tensor:
#      x y z
#    x 1.798930 0.000000 0.000000 
#    y 0.000000 1.754090 0.000000 
#    z 0.000000 0.000000 1.803370 
# 
# From -- ./inp_files/20580.got.cif
#   From: 2010.03.12/outbox.cif.g09.slc.cpg/sg53_11_cif.got.tgz:20580.got - 2010.04.16 14:36:59.
