data_PCOD8220504
_publ_section_title
;
Structure prediction by ZEFSAII (Michael W. Deem and Ramdas Pophale) SiO2 
 PCOD8220504
Probable space group: P M N A
;
_chemical_formula_sum "Si O2"
_cell_formula_units_Z 48
_cell_length_a 8.978691
_cell_length_b 30.907835
_cell_length_c 9.575830
_cell_angle_alpha 90.000000
_cell_angle_beta 90.000000
_cell_angle_gamma 90.000000
_cell_volume 2657.406777
_symmetry_space_group_name_H-M "P M N A"
_symmetry_group_IT_number 53
_symmetry_cell_setting 'orthorhombic'
loop_
_space_group_symop_operation_xyz
x,y,z
1/2-x,-y,1/2+z
x,-y,-z
1/2-x,y,1/2-z
-x,-y,-z
1/2+x,y,1/2-z
-x,y,z
1/2+x,-y,1/2+z
loop_
_atom_site_type_symbol
_atom_site_label
_atom_site_fract_x
_atom_site_fract_y
_atom_site_fract_z
Si Si1 0.324458 0.893938 0.396916
Si Si2 0.674820 0.040515 0.100092
Si Si3 0.825040 0.723509 0.898718
Si Si4 0.173460 0.205505 0.891541
Si Si5 0.324547 0.462962 0.399738
Si Si6 0.827967 0.630420 0.895965
O O1 0.250000 0.907950 0.250000
O O2 0.500000 0.903987 0.387218
O O3 0.251341 0.918686 0.526307
O O4 0.290757 0.843956 0.430339
O O5 0.750000 0.031893 0.250000
O O6 0.500000 0.049415 0.121735
O O7 0.703694 0.000000 0.000000
O O8 0.750000 0.727348 0.750000
O O9 0.788492 0.676272 0.971824
O O10 0.000000 0.729490 0.877804
O O11 0.760535 0.762396 0.991904
O O12 0.250000 0.219463 0.750000
O O13 0.000000 0.212885 0.871264
O O14 0.258539 0.500000 0.500000
O O15 0.250000 0.467834 0.250000
O O16 0.500000 0.469237 0.379838
O O17 0.286808 0.415477 0.470080
O O18 0.750000 0.631085 0.750000
O O19 0.000000 0.629985 0.860920
#
# Coordination Sequence:
#
# PCOD8220504 Si02
#       6
#     8   8   8   8   8   8
#     4  10  20  36  57  79 105 137 173 210 250 297
#     4  11  24  40  59  83 110 140 173 210 252 296
#     4   9  17  30  48  70  94 121 158 200 240 283
#     4   9  19  34  51  73 101 133 165 199 242 291
#     4   9  17  29  45  65  89 118 153 192 236 285
#     4   8  14  26  44  63  86 118 153 191 234 281
#
# _framework density 18.062722000000001
#
# number of rings (size 3 to 8) (size 9 to 14) (size 15 to 20)
#    0.000    2.667    0.000    1.500    0.000    5.000 
#    0.000    2.500    0.000    0.000    0.000    0.000 
#    0.000    0.000    0.000    0.000    0.000    0.000 
#
# Total GULP energy -594688.804744 kJ/mol
# GULP energy per Si atom -12389.350099 kJ/mol
# Density = 1.802161 g / cm^3
# Si number density = 18.062722 Si / 1000 Ang^3
#
#
#
# Elastic Constant Matrix: (Units=GPa)
#
#
# Indices 1 2 3 4 5 6 
#
# 1 54.0418 47.3055 44.6673 0.0000 0.0000 0.0000
# 2 47.3055 139.7335 79.3068 0.0000 0.0000 0.0000
# 3 44.6673 79.3068 108.2371 0.0000 0.0000 0.0000
# 4 0.0000 0.0000 0.0000 30.3980 0.0000 0.0000
# 5 0.0000 0.0000 0.0000 0.0000 29.1856 0.0000
# 6 0.0000 0.0000 0.0000 0.0000 0.0000 25.6770
#
#
#
# Elastic Compliance Matrix: (Units=1/GPa)
#
#
# Indices 1 2 3 4 5 6 
#
# 1 0.030298 -0.005411 -0.008539 0.000000 0.000000 0.000000
# 2 -0.005411 0.013218 -0.007452 0.000000 0.000000 0.000000
# 3 -0.008539 -0.007452 0.018223 0.000000 0.000000 0.000000
# 4 0.000000 0.000000 0.000000 0.032897 0.000000 0.000000
# 5 0.000000 0.000000 0.000000 0.000000 0.034263 0.000000
# 6 0.000000 0.000000 0.000000 0.000000 0.000000 0.038945
#
#
# Mechanical properties :
#
#
# Convention : Reuss Voigt Hill
#
# Bulk Modulus (GPa) = 52.81042 71.61908 62.21475
# Shear Modulus (GPa) = 23.04579 25.76764 24.40672
#
# Velocity S-wave (km/s) = 3.57582 3.78109 3.67988
# Velocity P-wave (km/s) = 6.80803 7.66801 7.25079
#
# Compressibility (1/GPa) = 0.01893566
#
# Stress axis : x y z
#
# Youngs Moduli (GPa) = 33.00512 75.65674 54.87630
#
# Poissons Ratio (x) = 0.40937 0.46858
# Poissons Ratio (y) = 0.17859 0.40892
# Poissons Ratio (z) = 0.28183 0.56377
#
# Static dielectric constant tensor:
#      x y z
#    x 3.306490 0.000000 0.000000 
#    y 0.000000 4.088670 0.000000 
#    z 0.000000 0.000000 3.256930 
# 
# 
# High freq. dielectric constant tensor:
#      x y z
#    x 1.700820 0.000000 0.000000 
#    y 0.000000 1.725010 0.000000 
#    z 0.000000 0.000000 1.669130 
# 
# From -- ./inp_files/6607.got.cif
#   From: 2010.03.12/outbox.cif.g09.slc.cpg/sg53_4_cif.got.tgz:6607.got - 2010.04.16 14:36:59.
