data_PCOD8220227
_publ_section_title
;
Structure prediction by ZEFSAII (Michael W. Deem and Ramdas Pophale) SiO2 
 PCOD8220227
Probable space group: P M N A
;
_chemical_formula_sum "Si O2"
_cell_formula_units_Z 48
_cell_length_a 9.098043
_cell_length_b 30.411234
_cell_length_c 9.386042
_cell_angle_alpha 90.000000
_cell_angle_beta 90.000000
_cell_angle_gamma 90.000000
_cell_volume 2596.955580
_symmetry_space_group_name_H-M "P M N A"
_symmetry_group_IT_number 53
_symmetry_cell_setting 'orthorhombic'
loop_
_space_group_symop_operation_xyz
x,y,z
1/2-x,-y,1/2+z
x,-y,-z
1/2-x,y,1/2-z
-x,-y,-z
1/2+x,y,1/2-z
-x,y,z
1/2+x,-y,1/2+z
loop_
_atom_site_type_symbol
_atom_site_label
_atom_site_fract_x
_atom_site_fract_y
_atom_site_fract_z
Si Si1 0.327408 0.298782 0.604023
Si Si2 0.831209 0.462947 0.397280
Si Si3 0.673037 0.040812 0.597021
Si Si4 0.170506 0.198266 0.894955
Si Si5 0.172655 0.878035 0.901067
Si Si6 0.829493 0.634710 0.600842
O O1 0.250000 0.311296 0.750000
O O2 0.500000 0.307993 0.616872
O O3 0.293852 0.248363 0.562455
O O4 0.256031 0.329428 0.487884
O O5 0.762719 0.500000 0.500000
O O6 0.750000 0.466184 0.250000
O O7 0.814280 0.414238 0.466567
O O8 0.000000 0.473715 0.366265
O O9 0.750000 0.039272 0.750000
O O10 0.500000 0.039725 0.625360
O O11 0.721296 0.084130 0.510830
O O12 0.723752 0.000000 0.500000
O O13 0.250000 0.184052 0.750000
O O14 0.000000 0.191100 0.863702
O O15 0.221497 0.168025 0.026874
O O16 0.250000 0.884048 0.750000
O O17 0.000000 0.879926 0.871894
O O18 0.750000 0.634013 0.750000
O O19 0.000000 0.648187 0.616690
#
# Coordination Sequence:
#
# PCOD8220227 Si02
#       6
#     8   8   8   8   8   8
#     4  10  20  35  54  77 105 136 173 215 259 308
#     4   9  19  35  53  75 102 132 168 208 251 302
#     4  10  21  36  55  80 108 138 174 215 258 307
#     4   9  19  35  54  76 102 134 172 213 256 305
#     4  10  21  36  53  77 107 137 174 215 256 306
#     4  10  20  35  54  76 104 137 172 211 257 307
#
# _framework density 18.483180999999998
#
# number of rings (size 3 to 8) (size 9 to 14) (size 15 to 20)
#    0.000    2.333    0.000    2.000    0.000    4.667 
#    0.000    3.333    0.000    0.000    0.000    0.000 
#    0.000    0.000    0.000    0.000    0.000    0.000 
#
# Total GULP energy -595169.571588 kJ/mol
# GULP energy per Si atom -12399.366075 kJ/mol
# Density = 1.844111 g / cm^3
# Si number density = 18.483181 Si / 1000 Ang^3
#
#
#
# Elastic Constant Matrix: (Units=GPa)
#
#
# Indices 1 2 3 4 5 6 
#
# 1 72.6887 46.2500 51.9384 0.0000 0.0000 0.0000
# 2 46.2500 116.0868 74.5907 0.0000 0.0000 0.0000
# 3 51.9384 74.5907 127.9578 0.0000 0.0000 0.0000
# 4 0.0000 0.0000 0.0000 38.9335 0.0000 0.0000
# 5 0.0000 0.0000 0.0000 0.0000 39.6295 0.0000
# 6 0.0000 0.0000 0.0000 0.0000 0.0000 25.2592
#
#
#
# Elastic Compliance Matrix: (Units=1/GPa)
#
#
# Indices 1 2 3 4 5 6 
#
# 1 0.020793 -0.004575 -0.005773 0.000000 0.000000 0.000000
# 2 -0.004575 0.014779 -0.006759 0.000000 0.000000 0.000000
# 3 -0.005773 -0.006759 0.014098 0.000000 0.000000 0.000000
# 4 0.000000 0.000000 0.000000 0.025685 0.000000 0.000000
# 5 0.000000 0.000000 0.000000 0.000000 0.025234 0.000000
# 6 0.000000 0.000000 0.000000 0.000000 0.000000 0.039589
#
#
# Mechanical properties :
#
#
# Convention : Reuss Voigt Hill
#
# Bulk Modulus (GPa) = 64.69167 73.58796 69.13981
# Shear Modulus (GPa) = 27.84821 30.36140 29.10480
#
# Velocity S-wave (km/s) = 3.88581 4.05736 3.97251
# Velocity P-wave (km/s) = 7.43027 7.86444 7.65044
#
# Compressibility (1/GPa) = 0.01545794
#
# Stress axis : x y z
#
# Youngs Moduli (GPa) = 48.09257 67.66132 70.93049
#
# Poissons Ratio (x) = 0.30952 0.40951
# Poissons Ratio (y) = 0.22000 0.47939
# Poissons Ratio (z) = 0.27766 0.45730
#
# Static dielectric constant tensor:
#      x y z
#    x 3.410880 0.000000 0.000000 
#    y 0.000000 3.785210 0.000000 
#    z 0.000000 0.000000 0.806960 
# 
# 
# High freq. dielectric constant tensor:
#      x y z
#    x 1.717840 0.000000 0.000000 
#    y 0.000000 1.733170 0.000000 
#    z 0.000000 0.000000 1.712960 
# 
# From -- ./inp_files/6572.got.cif
#   From: 2010.03.12/outbox.cif.g09.slc.cpg/sg53_4_cif.got.tgz:6572.got - 2010.04.16 14:36:59.
