data_PCOD8220925
_publ_section_title
;
Structure prediction by ZEFSAII (Michael W. Deem and Ramdas Pophale) SiO2 
 PCOD8220925
Probable space group: P M N A
;
_chemical_formula_sum "Si O2"
_cell_formula_units_Z 32
_cell_length_a 18.538748
_cell_length_b 5.113241
_cell_length_c 14.684990
_cell_angle_alpha 90.000000
_cell_angle_beta 90.000000
_cell_angle_gamma 90.000000
_cell_volume 1392.035525
_symmetry_space_group_name_H-M "P M N A"
_symmetry_group_IT_number 53
_symmetry_cell_setting 'orthorhombic'
loop_
_space_group_symop_operation_xyz
x,y,z
1/2-x,-y,1/2+z
x,-y,-z
1/2-x,y,1/2-z
-x,-y,-z
1/2+x,y,1/2-z
-x,y,z
1/2+x,-y,1/2+z
loop_
_atom_site_type_symbol
_atom_site_label
_atom_site_fract_x
_atom_site_fract_y
_atom_site_fract_z
Si Si1 0.351026 0.577281 0.896455
Si Si2 0.125238 0.761351 0.060905
Si Si3 0.500000 0.254276 0.175422
Si Si4 0.000000 0.743225 0.203800
Si Si5 0.715229 0.076479 0.898700
O O1 0.431451 0.688211 0.888358
O O2 0.335073 0.296182 0.848319
O O3 0.297035 0.794043 0.850569
O O4 0.330076 0.500000 0.000000
O O5 0.203375 0.823531 0.102263
O O6 0.071655 0.751474 0.144600
O O7 0.126267 0.500000 0.000000
O O8 0.098062 0.000000 0.000000
O O9 0.500000 0.452866 0.257909
O O10 0.500000 0.961568 0.216508
O O11 0.686798 0.000000 0.000000
#
# Coordination Sequence:
#
# PCOD8220925 Si02
#       5
#     8   8   4   4   8
#     4  10  20  38  62  87 116 156 201 245 293 349
#     4  11  21  40  66  90 115 152 197 249 302 356
#     4  12  25  41  56  84 127 166 199 242 292 353
#     4  12  26  41  57  88 125 160 199 242 293 359
#     4   9  18  34  61  91 113 141 197 256 296 342
#
# _framework density 22.987921
#
# number of rings (size 3 to 8) (size 9 to 14) (size 15 to 20)
#    0.000    1.500    0.000    7.875    0.000    0.000 
#    0.000   12.500    0.000    0.000    0.000    0.000 
#    0.000    0.000    0.000    0.000    0.000    0.000 
#
# Total GULP energy -396423.126298 kJ/mol
# GULP energy per Si atom -12388.222697 kJ/mol
# Density = 2.293560 g / cm^3
# Si number density = 22.987921 Si / 1000 Ang^3
#
#
#
# Elastic Constant Matrix: (Units=GPa)
#
#
# Indices 1 2 3 4 5 6 
#
# 1 123.1247 63.2929 20.4207 0.0000 0.0000 0.0000
# 2 63.2929 192.2490 19.6365 0.0000 0.0000 0.0000
# 3 20.4207 19.6365 25.1071 0.0000 0.0000 0.0000
# 4 0.0000 0.0000 0.0000 33.6243 0.0000 0.0000
# 5 0.0000 0.0000 0.0000 0.0000 1034.2623 0.0000
# 6 0.0000 0.0000 0.0000 0.0000 0.0000 103.6165
#
#
#
# Elastic Compliance Matrix: (Units=1/GPa)
#
#
# Indices 1 2 3 4 5 6 
#
# 1 0.010655 -0.002850 -0.006437 0.000000 0.000000 0.000000
# 2 -0.002850 0.006416 -0.002699 0.000000 0.000000 0.000000
# 3 -0.006437 -0.002699 0.047176 0.000000 0.000000 0.000000
# 4 0.000000 0.000000 0.000000 0.029740 0.000000 0.000000
# 5 0.000000 0.000000 0.000000 0.000000 0.000967 0.000000
# 6 0.000000 0.000000 0.000000 0.000000 0.000000 0.009651
#
#
# Mechanical properties :
#
#
# Convention : Reuss Voigt Hill
#
# Bulk Modulus (GPa) = 24.83030 60.79789 42.81410
# Shear Modulus (GPa) = 35.21083 250.10931 142.66007
#
# Velocity S-wave (km/s) = 3.91795 10.44206 7.88628
# Velocity P-wave (km/s) = 5.59393 13.11058 10.07917
#
# Compressibility (1/GPa) = 0.04027337
#
# Stress axis : x y z
#
# Youngs Moduli (GPa) = 93.85618 155.86752 21.19726
#
# Poissons Ratio (x) = 0.44427 0.13644
# Poissons Ratio (y) = 0.26752 0.05722
# Poissons Ratio (z) = 0.60412 0.42076
#
# Static dielectric constant tensor:
#      x y z
#    x 4.037220 0.000000 0.000000 
#    y 0.000000 4.832210 0.000000 
#    z 0.000000 0.000000 3.642560 
# 
# 
# High freq. dielectric constant tensor:
#      x y z
#    x 1.912920 0.000000 0.000000 
#    y 0.000000 1.951580 0.000000 
#    z 0.000000 0.000000 1.862490 
# 
# From -- ./inp_files/23268.got.cif
#   From: 2010.03.12/outbox.cif.g09.slc.cpg/sg53_12_cif.got.tgz:23268.got - 2010.04.16 14:36:59.
