data_PCOD8220752
_publ_section_title
;
Structure prediction by ZEFSAII (Michael W. Deem and Ramdas Pophale) SiO2 
 PCOD8220752
Probable space group: P M N A
;
_chemical_formula_sum "Si O2"
_cell_formula_units_Z 48
_cell_length_a 8.701070
_cell_length_b 9.385952
_cell_length_c 30.745832
_cell_angle_alpha 90.000000
_cell_angle_beta 90.000000
_cell_angle_gamma 90.000000
_cell_volume 2510.945239
_symmetry_space_group_name_H-M "P M N A"
_symmetry_group_IT_number 53
_symmetry_cell_setting 'orthorhombic'
loop_
_space_group_symop_operation_xyz
x,y,z
1/2-x,-y,1/2+z
x,-y,-z
1/2-x,y,1/2-z
-x,-y,-z
1/2+x,y,1/2-z
-x,y,z
1/2+x,-y,1/2+z
loop_
_atom_site_type_symbol
_atom_site_label
_atom_site_fract_x
_atom_site_fract_y
_atom_site_fract_z
Si Si1 0.680924 0.847821 0.624603
Si Si2 0.682261 0.665022 0.950303
Si Si3 0.818869 0.656164 0.795187
Si Si4 0.318407 0.666829 0.295331
Si Si5 0.181474 0.656480 0.452151
Si Si6 0.818229 0.843162 0.373194
O O1 0.500000 0.877271 0.626855
O O2 0.721431 0.767405 0.580430
O O3 0.738879 0.754622 0.665483
O O4 0.773051 0.993449 0.625557
O O5 0.500000 0.686359 0.943135
O O6 0.735548 0.503295 0.940459
O O7 0.733339 0.703170 0.999588
O O8 0.750000 0.714277 0.750000
O O9 0.762263 0.494886 0.804406
O O10 0.000000 0.661225 0.790999
O O11 0.250000 0.721978 0.250000
O O12 0.500000 0.676983 0.293318
O O13 0.257325 0.769805 0.332101
O O14 0.247001 0.766652 0.416702
O O15 0.000000 0.655593 0.451782
O O16 0.000000 0.827224 0.370022
#
# Coordination Sequence:
#
# PCOD8220752 Si02
#       6
#     8   8   8   8   8   8
#     4  11  23  37  51  77 114 147 177 219 270 321
#     4   9  17  35  60  82 103 136 180 226 270 321
#     4   9  20  37  58  80 105 136 175 219 265 313
#     4  10  20  37  59  83 107 136 174 220 267 316
#     4   8  17  34  58  83 106 134 178 228 272 318
#     4  11  22  36  54  79 109 145 181 218 265 319
#
# _framework density 19.116308
#
# number of rings (size 3 to 8) (size 9 to 14) (size 15 to 20)
#    0.000    2.333    0.000    3.500    0.000    3.333 
#    0.000    9.167    0.000    0.000    0.000    0.000 
#    0.000    0.000    0.000    0.000    0.000    0.000 
#
# Total GULP energy -595244.424490 kJ/mol
# GULP energy per Si atom -12400.925510 kJ/mol
# Density = 1.907280 g / cm^3
# Si number density = 19.116308 Si / 1000 Ang^3
#
#
#
# Elastic Constant Matrix: (Units=GPa)
#
#
# Indices 1 2 3 4 5 6 
#
# 1 36.0855 15.1652 23.8668 0.0000 0.0000 0.0000
# 2 15.1652 106.3854 79.5559 0.0000 0.0000 0.0000
# 3 23.8668 79.5559 155.7159 0.0000 0.0000 0.0000
# 4 0.0000 0.0000 0.0000 9.9993 0.0000 0.0000
# 5 0.0000 0.0000 0.0000 0.0000 32.4555 0.0000
# 6 0.0000 0.0000 0.0000 0.0000 0.0000 28.9216
#
#
#
# Elastic Compliance Matrix: (Units=1/GPa)
#
#
# Indices 1 2 3 4 5 6 
#
# 1 0.030966 -0.001400 -0.004031 0.000000 0.000000 0.000000
# 2 -0.001400 0.015275 -0.007589 0.000000 0.000000 0.000000
# 3 -0.004031 -0.007589 0.010917 0.000000 0.000000 0.000000
# 4 0.000000 0.000000 0.000000 0.100007 0.000000 0.000000
# 5 0.000000 0.000000 0.000000 0.000000 0.030811 0.000000
# 6 0.000000 0.000000 0.000000 0.000000 0.000000 0.034576
#
#
# Mechanical properties :
#
#
# Convention : Reuss Voigt Hill
#
# Bulk Modulus (GPa) = 32.13585 59.48472 45.81029
# Shear Modulus (GPa) = 19.30752 26.24855 22.77803
#
# Velocity S-wave (km/s) = 3.18150 3.70955 3.45563
# Velocity P-wave (km/s) = 5.50846 7.03793 6.31964
#
# Compressibility (1/GPa) = 0.03111790
#
# Stress axis : x y z
#
# Youngs Moduli (GPa) = 32.29305 65.46770 91.59819
#
# Poissons Ratio (x) = 0.09164 0.36924
# Poissons Ratio (y) = 0.04520 0.69517
# Poissons Ratio (z) = 0.13018 0.49686
#
# Static dielectric constant tensor:
#      x y z
#    x 3.292700 0.000000 0.000000 
#    y 0.000000 3.627530 0.000000 
#    z 0.000000 0.000000 3.806250 
# 
# 
# High freq. dielectric constant tensor:
#      x y z
#    x 1.728550 0.000000 0.000000 
#    y 0.000000 1.741710 0.000000 
#    z 0.000000 0.000000 1.759010 
# 
# From -- ./inp_files/37689.got.cif
#   From: 2010.03.12/outbox.cif.g09.slc.cpg/sg53_19_cif.got.tgz:37689.got - 2010.04.16 14:36:59.
