data_PCOD8220432
_publ_section_title
;
Structure prediction by ZEFSAII (Michael W. Deem and Ramdas Pophale) SiO2 
 PCOD8220432
Probable space group: P M N A
;
_chemical_formula_sum "Si O2"
_cell_formula_units_Z 32
_cell_length_a 26.313338
_cell_length_b 8.461136
_cell_length_c 7.538797
_cell_angle_alpha 90.000000
_cell_angle_beta 90.000000
_cell_angle_gamma 90.000000
_cell_volume 1678.443278
_symmetry_space_group_name_H-M "P M N A"
_symmetry_group_IT_number 53
_symmetry_cell_setting 'orthorhombic'
loop_
_space_group_symop_operation_xyz
x,y,z
1/2-x,-y,1/2+z
x,-y,-z
1/2-x,y,1/2-z
-x,-y,-z
1/2+x,y,1/2-z
-x,y,z
1/2+x,-y,1/2+z
loop_
_atom_site_type_symbol
_atom_site_label
_atom_site_fract_x
_atom_site_fract_y
_atom_site_fract_z
Si Si1 0.305107 0.916466 0.181974
Si Si2 0.057895 0.801165 0.142160
Si Si3 0.894047 0.880202 0.791849
Si Si4 0.116739 0.323620 0.554584
O O1 0.250000 0.870988 0.250000
O O2 0.334825 0.753095 0.151246
O O3 0.338055 0.037799 0.304158
O O4 0.295053 0.000000 0.000000
O O5 0.071970 0.677514 0.298173
O O6 0.000000 0.771854 0.085265
O O7 0.064699 0.978530 0.219284
O O8 0.094356 0.778240 0.969035
O O9 0.900138 0.773818 0.618384
O O10 0.130725 0.500000 0.500000
#
# Coordination Sequence:
#
# PCOD8220432 Si02
#       4
#     8   8   8   8
#     4   9  19  34  60  82 101 140 188 233 282 327
#     4  10  20  35  61  84 106 150 193 232 276 313
#     4   9  19  36  56  83 108 137 185 242 273 318
#     4  10  22  38  52  79 123 149 176 225 281 340
#
# _framework density 19.065286
#
# number of rings (size 3 to 8) (size 9 to 14) (size 15 to 20)
#    0.000    2.500    0.000    3.750    7.000    4.500 
#    0.000    6.250    0.000    0.000    0.000    0.000 
#    0.000    0.000    0.000    0.000    0.000    0.000 
#
# Total GULP energy -396573.922123 kJ/mol
# GULP energy per Si atom -12392.935066 kJ/mol
# Density = 1.902189 g / cm^3
# Si number density = 19.065286 Si / 1000 Ang^3
#
#
#
# Elastic Constant Matrix: (Units=GPa)
#
#
# Indices 1 2 3 4 5 6 
#
# 1 132.0802 34.8387 70.7183 0.0000 0.0000 0.0000
# 2 34.8387 67.1524 42.9723 0.0000 0.0000 0.0000
# 3 70.7183 42.9723 131.5091 0.0000 0.0000 0.0000
# 4 0.0000 0.0000 0.0000 16.5187 0.0000 0.0000
# 5 0.0000 0.0000 0.0000 0.0000 32.7361 0.0000
# 6 0.0000 0.0000 0.0000 0.0000 0.0000 10.5837
#
#
#
# Elastic Compliance Matrix: (Units=1/GPa)
#
#
# Indices 1 2 3 4 5 6 
#
# 1 0.010934 -0.002415 -0.005090 0.000000 0.000000 0.000000
# 2 -0.002415 0.019362 -0.005028 0.000000 0.000000 0.000000
# 3 -0.005090 -0.005028 0.011984 0.000000 0.000000 0.000000
# 4 0.000000 0.000000 0.000000 0.060538 0.000000 0.000000
# 5 0.000000 0.000000 0.000000 0.000000 0.030547 0.000000
# 6 0.000000 0.000000 0.000000 0.000000 0.000000 0.094485
#
#
# Mechanical properties :
#
#
# Convention : Reuss Voigt Hill
#
# Bulk Modulus (GPa) = 58.09545 69.75557 63.92551
# Shear Modulus (GPa) = 19.33079 24.11519 21.72299
#
# Velocity S-wave (km/s) = 3.18767 3.56037 3.37916
# Velocity P-wave (km/s) = 6.63976 7.31907 6.98767
#
# Compressibility (1/GPa) = 0.01721305
#
# Stress axis : x y z
#
# Youngs Moduli (GPa) = 91.46086 51.64757 83.44185
#
# Poissons Ratio (x) = 0.12472 0.42475
# Poissons Ratio (y) = 0.22087 0.41956
# Poissons Ratio (z) = 0.46557 0.25969
#
# Static dielectric constant tensor:
#      x y z
#    x 4.234550 0.000000 0.000000 
#    y 0.000000 3.028380 0.000000 
#    z 0.000000 0.000000 3.978630 
# 
# 
# High freq. dielectric constant tensor:
#      x y z
#    x 1.731730 0.000000 0.000000 
#    y 0.000000 1.705240 0.000000 
#    z 0.000000 0.000000 1.760530 
# 
# From -- ./inp_files/12140.got.cif
#   From: 2010.03.12/outbox.cif.g09.slc.cpg/sg53_7_cif.got.tgz:12140.got - 2010.04.16 14:36:59.
