data_PCOD8220112
_publ_section_title
;
Structure prediction by ZEFSAII (Michael W. Deem and Ramdas Pophale) SiO2 
 PCOD8220112
Probable space group: P M N A
;
_chemical_formula_sum "Si O2"
_cell_formula_units_Z 64
_cell_length_a 9.306729
_cell_length_b 16.697139
_cell_length_c 22.013142
_cell_angle_alpha 90.000000
_cell_angle_beta 90.000000
_cell_angle_gamma 90.000000
_cell_volume 3420.748661
_symmetry_space_group_name_H-M "P M N A"
_symmetry_group_IT_number 53
_symmetry_cell_setting 'orthorhombic'
loop_
_space_group_symop_operation_xyz
x,y,z
1/2-x,-y,1/2+z
x,-y,-z
1/2-x,y,1/2-z
-x,-y,-z
1/2+x,y,1/2-z
-x,y,z
1/2+x,-y,1/2+z
loop_
_atom_site_type_symbol
_atom_site_label
_atom_site_fract_x
_atom_site_fract_y
_atom_site_fract_z
Si Si1 0.840530 0.303242 0.695064
Si Si2 0.835004 0.448922 0.619797
Si Si3 0.329258 0.360439 0.519378
Si Si4 0.165428 0.761930 0.691428
Si Si5 0.830709 0.945873 0.687267
Si Si6 0.329807 0.034163 0.935640
Si Si7 0.163610 0.215985 0.571533
Si Si8 0.664275 0.375061 0.099856
O O1 0.750000 0.268633 0.750000
O O2 0.785339 0.391573 0.674900
O O3 0.828366 0.239307 0.641675
O O4 0.000000 0.310420 0.720127
O O5 0.734777 0.428614 0.562805
O O6 0.822497 0.542124 0.638331
O O7 0.000000 0.425913 0.602455
O O8 0.500000 0.359633 0.524618
O O9 0.267569 0.272294 0.532952
O O10 0.279596 0.383955 0.452738
O O11 0.250000 0.733447 0.750000
O O12 0.202635 0.852837 0.673274
O O13 0.210257 0.702226 0.637931
O O14 0.000000 0.752146 0.707495
O O15 0.750000 0.972567 0.750000
O O16 0.000000 0.961476 0.697442
O O17 0.772523 0.991404 0.626520
O O18 0.500000 0.024414 0.935113
O O19 0.280155 0.125896 0.934193
O O20 0.268625 0.000000 0.000000
O O21 0.000000 0.224006 0.546994
O O22 0.500000 0.366008 0.075787
#
# Coordination Sequence:
#
# PCOD8220112 Si02
#       8
#     8   8   8   8   8   8   8   8
#     4   9  18  32  50  73 101 136 173 214 259 310
#     4   9  19  36  53  73 103 138 179 220 263 315
#     4  11  22  34  51  77 107 137 173 217 268 321
#     4   9  19  34  53  77 106 139 177 217 260 313
#     4   9  18  34  55  81 110 144 183 222 270 325
#     4   9  18  32  57  87 109 135 183 237 272 312
#     4   9  19  36  55  76 105 139 177 218 262 318
#     4  10  20  34  55  77 100 139 181 217 261 316
#
# _framework density 18.709354999999999
#
# number of rings (size 3 to 8) (size 9 to 14) (size 15 to 20)
#    0.000    2.625    0.000    2.250    1.750    5.500 
#    0.000    0.625    0.000    0.750    0.000    0.000 
#    0.000    0.000    0.000    0.000    0.000    0.000 
#
# Total GULP energy -793300.378046 kJ/mol
# GULP energy per Si atom -12395.318407 kJ/mol
# Density = 1.866677 g / cm^3
# Si number density = 18.709355 Si / 1000 Ang^3
#
#
#
# Elastic Constant Matrix: (Units=GPa)
#
#
# Indices 1 2 3 4 5 6 
#
# 1 58.0031 18.5006 27.3522 0.0000 0.0000 0.0000
# 2 18.5006 104.2126 34.6984 0.0000 0.0000 0.0000
# 3 27.3522 34.6984 87.2826 0.0000 0.0000 0.0000
# 4 0.0000 0.0000 0.0000 12.8312 0.0000 0.0000
# 5 0.0000 0.0000 0.0000 0.0000 30.4453 0.0000
# 6 0.0000 0.0000 0.0000 0.0000 0.0000 14.0915
#
#
#
# Elastic Compliance Matrix: (Units=1/GPa)
#
#
# Indices 1 2 3 4 5 6 
#
# 1 0.020497 -0.001729 -0.005736 0.000000 0.000000 0.000000
# 2 -0.001729 0.011206 -0.003913 0.000000 0.000000 0.000000
# 3 -0.005736 -0.003913 0.014810 0.000000 0.000000 0.000000
# 4 0.000000 0.000000 0.000000 0.077935 0.000000 0.000000
# 5 0.000000 0.000000 0.000000 0.000000 0.032846 0.000000
# 6 0.000000 0.000000 0.000000 0.000000 0.000000 0.070965
#
#
# Mechanical properties :
#
#
# Convention : Reuss Voigt Hill
#
# Bulk Modulus (GPa) = 42.09283 45.62231 43.85757
# Shear Modulus (GPa) = 19.31012 22.73677 21.02345
#
# Velocity S-wave (km/s) = 3.21613 3.48984 3.35578
# Velocity P-wave (km/s) = 6.02814 6.37780 6.20543
#
# Compressibility (1/GPa) = 0.02375702
#
# Stress axis : x y z
#
# Youngs Moduli (GPa) = 48.78826 89.24179 67.52191
#
# Poissons Ratio (x) = 0.15429 0.38729
# Poissons Ratio (y) = 0.08435 0.26420
# Poissons Ratio (z) = 0.27984 0.34919
#
# Static dielectric constant tensor:
#      x y z
#    x 3.474710 0.000000 0.000000 
#    y 0.000000 3.586910 0.000000 
#    z 0.000000 0.000000 3.398940 
# 
# 
# High freq. dielectric constant tensor:
#      x y z
#    x 1.700500 0.000000 0.000000 
#    y 0.000000 1.735230 0.000000 
#    z 0.000000 0.000000 1.718330 
# 
# From -- ./inp_files/31109.got.cif
#   From: 2010.03.12/outbox.cif.g09.slc.cpg/sg53_16_cif.got.tgz:31109.got - 2010.04.16 14:36:59.
