data_PCOD8220833
_publ_section_title
;
Structure prediction by ZEFSAII (Michael W. Deem and Ramdas Pophale) SiO2 
 PCOD8220833
Probable space group: P M N A
;
_chemical_formula_sum "Si O2"
_cell_formula_units_Z 48
_cell_length_a 8.892769
_cell_length_b 14.953114
_cell_length_c 19.034940
_cell_angle_alpha 90.000000
_cell_angle_beta 90.000000
_cell_angle_gamma 90.000000
_cell_volume 2531.163316
_symmetry_space_group_name_H-M "P M N A"
_symmetry_group_IT_number 53
_symmetry_cell_setting 'orthorhombic'
loop_
_space_group_symop_operation_xyz
x,y,z
1/2-x,-y,1/2+z
x,-y,-z
1/2-x,y,1/2-z
-x,-y,-z
1/2+x,y,1/2-z
-x,y,z
1/2+x,-y,1/2+z
loop_
_atom_site_type_symbol
_atom_site_label
_atom_site_fract_x
_atom_site_fract_y
_atom_site_fract_z
Si Si1 0.826908 0.022638 0.422497
Si Si2 0.673003 0.229939 0.076277
Si Si3 0.821978 0.629476 0.825708
Si Si4 0.324463 0.117484 0.675022
Si Si5 0.175054 0.272546 0.931261
Si Si6 0.323290 0.525944 0.424385
O O1 0.806226 0.126349 0.405391
O O2 0.000000 0.992238 0.418098
O O3 0.763131 0.000000 0.500000
O O4 0.733652 0.969849 0.364630
O O5 0.500000 0.259303 0.083772
O O6 0.774939 0.283939 0.130336
O O7 0.724463 0.247181 0.997215
O O8 0.750000 0.633760 0.750000
O O9 0.759607 0.540507 0.864844
O O10 0.000000 0.628866 0.817776
O O11 0.250000 0.127314 0.750000
O O12 0.500000 0.106226 0.686015
O O13 0.284053 0.206300 0.631605
O O14 0.216936 0.372172 0.905144
O O15 0.000000 0.266484 0.953027
O O16 0.251999 0.500000 0.500000
O O17 0.500000 0.510317 0.428700
#
# Coordination Sequence:
#
# PCOD8220833 Si02
#       6
#     8   8   8   8   8   8
#     4  10  21  39  62  87 118 154 193 242 297 351
#     4  11  22  37  61  90 118 153 195 243 295 349
#     4  11  23  40  61  86 121 157 195 243 294 350
#     4  11  24  39  60  88 122 157 196 244 294 350
#     4  10  20  37  61  89 117 155 200 240 289 350
#     4   9  17  34  61  87 114 153 194 236 287 345
#
# _framework density 18.963612000000001
#
# number of rings (size 3 to 8) (size 9 to 14) (size 15 to 20)
#    0.000    1.667    3.333    1.500    0.000    3.667 
#    0.000    2.500    0.000    0.000    0.000    0.000 
#    0.000    0.000    0.000    0.000    0.000    0.000 
#
# Total GULP energy -595365.308263 kJ/mol
# GULP energy per Si atom -12403.443922 kJ/mol
# Density = 1.892045 g / cm^3
# Si number density = 18.963612 Si / 1000 Ang^3
#
#
#
# Elastic Constant Matrix: (Units=GPa)
#
#
# Indices 1 2 3 4 5 6 
#
# 1 72.3768 48.6566 58.4914 0.0000 0.0000 0.0000
# 2 48.6566 130.9834 67.1464 0.0000 0.0000 0.0000
# 3 58.4914 67.1464 155.1521 0.0000 0.0000 0.0000
# 4 0.0000 0.0000 0.0000 24.9389 0.0000 0.0000
# 5 0.0000 0.0000 0.0000 0.0000 30.3223 0.0000
# 6 0.0000 0.0000 0.0000 0.0000 0.0000 -5.6143
#
#
#
# Elastic Compliance Matrix: (Units=1/GPa)
#
#
# Indices 1 2 3 4 5 6 
#
# 1 0.022232 -0.005092 -0.006178 0.000000 0.000000 0.000000
# 2 -0.005092 0.010977 -0.002831 0.000000 0.000000 0.000000
# 3 -0.006178 -0.002831 0.010000 0.000000 0.000000 0.000000
# 4 0.000000 0.000000 0.000000 0.040098 0.000000 0.000000
# 5 0.000000 0.000000 0.000000 0.000000 0.032979 0.000000
# 6 0.000000 0.000000 0.000000 0.000000 0.000000 -0.178118
#
#
# Mechanical properties :
#
#
# Convention : Reuss Voigt Hill
#
# Bulk Modulus (GPa) = 66.63263 78.56679 72.59971
# Shear Modulus (GPa) = -174.65734 22.21056 -76.22339
#
# Velocity S-wave (km/s) = -9.60735 3.42602 -6.34680
# Velocity P-wave (km/s) = 9.37310 7.56111 3.91692
#
# Compressibility (1/GPa) = 0.01500766
#
# Stress axis : x y z
#
# Youngs Moduli (GPa) = 44.97984 91.09674 100.00407
#
# Poissons Ratio (x) = 0.46383 0.61781
# Poissons Ratio (y) = 0.22902 0.28313
# Poissons Ratio (z) = 0.27788 0.25792
#
# Static dielectric constant tensor:
#      x y z
#    x 3.392650 0.000000 0.000000 
#    y 0.000000 2.138330 0.000000 
#    z 0.000000 0.000000 3.179090 
# 
# 
# High freq. dielectric constant tensor:
#      x y z
#    x 1.726380 0.000000 0.000000 
#    y 0.000000 1.753120 0.000000 
#    z 0.000000 0.000000 1.737420 
# 
# From -- ./inp_files/26155.got.cif
#   From: 2010.03.12/outbox.cif.g09.slc.cpg/sg53_14_cif.got.tgz:26155.got - 2010.04.16 14:36:59.
