data_PCOD8220115
_publ_section_title
;
Structure prediction by ZEFSAII (Michael W. Deem and Ramdas Pophale) SiO2 
 PCOD8220115
Probable space group: P M N A
;
_chemical_formula_sum "Si O2"
_cell_formula_units_Z 64
_cell_length_a 9.307087
_cell_length_b 24.059713
_cell_length_c 14.777347
_cell_angle_alpha 90.000000
_cell_angle_beta 90.000000
_cell_angle_gamma 90.000000
_cell_volume 3309.029871
_symmetry_space_group_name_H-M "P M N A"
_symmetry_group_IT_number 53
_symmetry_cell_setting 'orthorhombic'
loop_
_space_group_symop_operation_xyz
x,y,z
1/2-x,-y,1/2+z
x,-y,-z
1/2-x,y,1/2-z
-x,-y,-z
1/2+x,y,1/2-z
-x,y,z
1/2+x,-y,1/2+z
loop_
_atom_site_type_symbol
_atom_site_label
_atom_site_fract_x
_atom_site_fract_y
_atom_site_fract_z
Si Si1 0.666991 0.647735 0.655646
Si Si2 0.666258 0.082300 0.660628
Si Si3 0.667700 0.132286 0.480311
Si Si4 0.832075 0.256974 0.017343
Si Si5 0.334003 0.435558 0.499432
Si Si6 0.667188 0.955436 0.660000
Si Si7 0.841363 0.399819 0.668540
Si Si8 0.840066 0.728750 0.332928
O O1 0.750000 0.645674 0.750000
O O2 0.500000 0.653172 0.679272
O O3 0.717830 0.700447 0.595428
O O4 0.698654 0.591520 0.598589
O O5 0.750000 0.098755 0.750000
O O6 0.500000 0.092429 0.681331
O O7 0.727662 0.122224 0.581621
O O8 0.694342 0.018772 0.629650
O O9 0.500000 0.119371 0.485888
O O10 0.698618 0.194728 0.446463
O O11 0.735011 0.086872 0.413127
O O12 0.000000 0.266134 0.994205
O O13 0.742527 0.265287 0.926888
O O14 0.293089 0.500000 0.500000
O O15 0.500000 0.425957 0.525409
O O16 0.237975 0.405417 0.573332
O O17 0.750000 0.941009 0.750000
O O18 0.500000 0.943919 0.676752
O O19 0.750000 0.428308 0.750000
O O20 0.859709 0.335537 0.690306
O O21 0.000000 0.427825 0.664376
O O22 0.750000 0.756597 0.250000
O O23 0.000000 0.755840 0.339024
#
# Coordination Sequence:
#
# PCOD8220115 Si02
#       8
#     8   8   8   8   8   8   8   8
#     4  10  22  39  59  80 107 145 183 223 268 318
#     4   9  17  31  51  74 102 137 174 214 262 318
#     4   9  18  32  52  76 102 136 177 218 264 318
#     4  10  20  36  56  78 106 141 182 227 271 319
#     4  10  21  38  59  84 114 145 181 226 274 322
#     4   9  17  31  51  74 101 134 174 218 264 315
#     4  10  20  34  56  83 111 142 176 218 266 321
#     4  10  20  34  55  81 107 139 176 217 266 323
#
# _framework density 19.341016
#
# number of rings (size 3 to 8) (size 9 to 14) (size 15 to 20)
#    0.000    2.375    1.250    1.125    0.000    5.250 
#    0.000    4.375    0.000    3.000    0.000    0.000 
#    0.000    0.000    0.000    0.000    0.000    0.000 
#
# Total GULP energy -793444.344147 kJ/mol
# GULP energy per Si atom -12397.567877 kJ/mol
# Density = 1.929700 g / cm^3
# Si number density = 19.341016 Si / 1000 Ang^3
#
#
#
# Elastic Constant Matrix: (Units=GPa)
#
#
# Indices 1 2 3 4 5 6 
#
# 1 75.2948 16.1002 52.8718 0.0000 0.0000 0.0000
# 2 16.1002 83.9996 40.3843 0.0000 0.0000 0.0000
# 3 52.8718 40.3843 132.3768 0.0000 0.0000 0.0000
# 4 0.0000 0.0000 0.0000 15.2867 0.0000 0.0000
# 5 0.0000 0.0000 0.0000 0.0000 34.5358 0.0000
# 6 0.0000 0.0000 0.0000 0.0000 0.0000 16.7448
#
#
#
# Elastic Compliance Matrix: (Units=1/GPa)
#
#
# Indices 1 2 3 4 5 6 
#
# 1 0.018458 0.000008 -0.007374 0.000000 0.000000 0.000000
# 2 0.000008 0.013951 -0.004259 0.000000 0.000000 0.000000
# 3 -0.007374 -0.004259 0.011799 0.000000 0.000000 0.000000
# 4 0.000000 0.000000 0.000000 0.065416 0.000000 0.000000
# 5 0.000000 0.000000 0.000000 0.000000 0.028955 0.000000
# 6 0.000000 0.000000 0.000000 0.000000 0.000000 0.059720
#
#
# Mechanical properties :
#
#
# Convention : Reuss Voigt Hill
#
# Bulk Modulus (GPa) = 47.71938 56.70933 52.21435
# Shear Modulus (GPa) = 21.87832 25.46778 23.67305
#
# Velocity S-wave (km/s) = 3.36696 3.63268 3.50234
# Velocity P-wave (km/s) = 6.31201 6.85416 6.58866
#
# Compressibility (1/GPa) = 0.02095585
#
# Stress axis : x y z
#
# Youngs Moduli (GPa) = 54.17758 71.67946 84.75372
#
# Poissons Ratio (x) = -0.00054 0.62501
# Poissons Ratio (y) = -0.00041 0.36097
# Poissons Ratio (z) = 0.39953 0.30529
#
# Static dielectric constant tensor:
#      x y z
#    x 3.523880 0.000000 0.000000 
#    y 0.000000 3.591610 0.000000 
#    z 0.000000 0.000000 3.506490 
# 
# 
# High freq. dielectric constant tensor:
#      x y z
#    x 1.738240 0.000000 0.000000 
#    y 0.000000 1.746490 0.000000 
#    z 0.000000 0.000000 1.753520 
# 
# From -- ./inp_files/20810.got.cif
#   From: 2010.03.12/outbox.cif.g09.slc.cpg/sg53_11_cif.got.tgz:20810.got - 2010.04.16 14:36:59.
