data_PCOD8220380
_publ_section_title
;
Structure prediction by ZEFSAII (Michael W. Deem and Ramdas Pophale) SiO2 
 PCOD8220380
Probable space group: P M N A
;
_chemical_formula_sum "Si O2"
_cell_formula_units_Z 48
_cell_length_a 18.060322
_cell_length_b 9.737723
_cell_length_c 14.498215
_cell_angle_alpha 90.000000
_cell_angle_beta 90.000000
_cell_angle_gamma 90.000000
_cell_volume 2549.749066
_symmetry_space_group_name_H-M "P M N A"
_symmetry_group_IT_number 53
_symmetry_cell_setting 'orthorhombic'
loop_
_space_group_symop_operation_xyz
x,y,z
1/2-x,-y,1/2+z
x,-y,-z
1/2-x,y,1/2-z
-x,-y,-z
1/2+x,y,1/2-z
-x,y,z
1/2+x,-y,1/2+z
loop_
_atom_site_type_symbol
_atom_site_label
_atom_site_fract_x
_atom_site_fract_y
_atom_site_fract_z
Si Si1 0.914981 0.893246 0.800473
Si Si2 0.914702 0.199914 0.837338
Si Si3 0.168435 0.153958 0.018566
Si Si4 0.913471 0.676700 0.648045
Si Si5 0.669089 0.586466 0.215850
Si Si6 0.693790 0.344297 0.984643
O O1 0.865203 0.826888 0.880129
O O2 0.898233 0.816098 0.704818
O O3 0.000000 0.874141 0.830485
O O4 0.897140 0.054544 0.787811
O O5 0.865942 0.318038 0.793026
O O6 0.000000 0.240034 0.827029
O O7 0.894762 0.192568 0.945085
O O8 0.238962 0.249467 0.012429
O O9 0.196022 0.000000 0.000000
O O10 0.879502 0.549624 0.704074
O O11 0.876786 0.692283 0.547745
O O12 0.000000 0.649763 0.633102
O O13 0.750000 0.541228 0.250000
O O14 0.671546 0.675212 0.121795
O O15 0.719952 0.500000 0.000000
#
# Coordination Sequence:
#
# PCOD8220380 Si02
#       6
#     8   8   8   8   8   8
#     4   9  20  37  58  85 116 150 192 236 282 343
#     4  10  20  37  60  85 115 151 188 235 291 343
#     4  10  20  35  57  86 117 151 189 232 289 345
#     4  10  23  41  60  85 114 155 199 237 284 343
#     4  11  22  38  58  85 117 149 192 243 285 342
#     4  10  23  38  57  81 116 151 188 240 285 340
#
# _framework density 18.825382000000001
#
# number of rings (size 3 to 8) (size 9 to 14) (size 15 to 20)
#    0.000    2.000    1.667    1.000    4.667    7.000 
#    0.000    0.000    0.000    7.500    0.000    0.000 
#    0.000    0.000    0.000    0.000    0.000    0.000 
#
# Total GULP energy -595358.238209 kJ/mol
# GULP energy per Si atom -12403.296629 kJ/mol
# Density = 1.878253 g / cm^3
# Si number density = 18.825382 Si / 1000 Ang^3
#
#
#
# Elastic Constant Matrix: (Units=GPa)
#
#
# Indices 1 2 3 4 5 6 
#
# 1 103.6804 40.6839 28.3498 0.0000 0.0000 0.0000
# 2 40.6839 50.2954 16.9283 0.0000 0.0000 0.0000
# 3 28.3498 16.9283 74.7397 0.0000 0.0000 0.0000
# 4 0.0000 0.0000 0.0000 27.5500 0.0000 0.0000
# 5 0.0000 0.0000 0.0000 0.0000 32.1105 0.0000
# 6 0.0000 0.0000 0.0000 0.0000 0.0000 29.9543
#
#
#
# Elastic Compliance Matrix: (Units=1/GPa)
#
#
# Indices 1 2 3 4 5 6 
#
# 1 0.014780 -0.010899 -0.003138 0.000000 0.000000 0.000000
# 2 -0.010899 0.029561 -0.002561 0.000000 0.000000 0.000000
# 3 -0.003138 -0.002561 0.015150 0.000000 0.000000 0.000000
# 4 0.000000 0.000000 0.000000 0.036298 0.000000 0.000000
# 5 0.000000 0.000000 0.000000 0.000000 0.031142 0.000000
# 6 0.000000 0.000000 0.000000 0.000000 0.000000 0.033384
#
#
# Mechanical properties :
#
#
# Convention : Reuss Voigt Hill
#
# Bulk Modulus (GPa) = 38.03052 44.51551 41.27301
# Shear Modulus (GPa) = 24.71868 27.43985 26.07927
#
# Velocity S-wave (km/s) = 3.62753 3.82199 3.72603
# Velocity P-wave (km/s) = 6.14743 6.57075 6.36261
#
# Compressibility (1/GPa) = 0.02629467
#
# Stress axis : x y z
#
# Youngs Moduli (GPa) = 67.65994 33.82830 66.00668
#
# Poissons Ratio (x) = 0.36871 0.20710
# Poissons Ratio (y) = 0.73745 0.16906
# Poissons Ratio (z) = 0.21228 0.08664
#
# Static dielectric constant tensor:
#      x y z
#    x 3.433420 0.000000 0.000000 
#    y 0.000000 3.509150 0.000000 
#    z 0.000000 0.000000 3.568950 
# 
# 
# High freq. dielectric constant tensor:
#      x y z
#    x 1.736770 0.000000 0.000000 
#    y 0.000000 1.730860 0.000000 
#    z 0.000000 0.000000 1.736550 
# 
# From -- ./inp_files/16892.got.cif
#   From: 2010.03.12/outbox.cif.g09.slc.cpg/sg53_9_cif.got.tgz:16892.got - 2010.04.16 14:36:59.
