data_PCOD8220598
_publ_section_title
;
Structure prediction by ZEFSAII (Michael W. Deem and Ramdas Pophale) SiO2 
 PCOD8220598
Probable space group: P M N A
;
_chemical_formula_sum "Si O2"
_cell_formula_units_Z 64
_cell_length_a 8.979329
_cell_length_b 19.245099
_cell_length_c 18.882509
_cell_angle_alpha 90.000000
_cell_angle_beta 90.000000
_cell_angle_gamma 90.000000
_cell_volume 3263.050042
_symmetry_space_group_name_H-M "P M N A"
_symmetry_group_IT_number 53
_symmetry_cell_setting 'orthorhombic'
loop_
_space_group_symop_operation_xyz
x,y,z
1/2-x,-y,1/2+z
x,-y,-z
1/2-x,y,1/2-z
-x,-y,-z
1/2+x,y,1/2-z
-x,y,z
1/2+x,-y,1/2+z
loop_
_atom_site_type_symbol
_atom_site_label
_atom_site_fract_x
_atom_site_fract_y
_atom_site_fract_z
Si Si1 0.174947 0.351002 0.092747
Si Si2 0.826274 0.709827 0.457540
Si Si3 0.175531 0.466570 0.322933
Si Si4 0.325845 0.909484 0.579505
Si Si5 0.324540 0.042381 0.673774
Si Si6 0.673271 0.625106 0.178861
Si Si7 0.326222 0.215823 0.323560
Si Si8 0.674539 0.129078 0.940775
O O1 0.260330 0.421258 0.112879
O O2 0.216950 0.292377 0.150214
O O3 0.000000 0.365295 0.090736
O O4 0.227220 0.326648 0.016352
O O5 0.776798 0.675176 0.384068
O O6 0.787932 0.790710 0.454365
O O7 0.000000 0.696681 0.473669
O O8 0.250000 0.441370 0.250000
O O9 0.219564 0.546034 0.339251
O O10 0.000000 0.455294 0.316964
O O11 0.500000 0.907560 0.560791
O O12 0.271560 0.839437 0.618288
O O13 0.236986 0.916335 0.506049
O O14 0.285711 0.973312 0.629989
O O15 0.250000 0.036302 0.750000
O O16 0.500000 0.053033 0.683132
O O17 0.255800 0.107416 0.631684
O O18 0.750000 0.652059 0.250000
O O19 0.500000 0.629765 0.193040
O O20 0.250000 0.198959 0.250000
O O21 0.500000 0.206980 0.311420
O O22 0.500000 0.115585 0.932594
#
# Coordination Sequence:
#
# PCOD8220598 Si02
#       8
#     8   8   8   8   8   8   8   8
#     4  11  22  36  56  83 117 155 194 240 287 344
#     4  10  22  40  60  85 116 153 196 241 290 346
#     4  10  20  36  58  83 115 153 192 239 290 347
#     4  10  21  40  61  85 117 155 194 237 289 345
#     4  11  24  41  63  88 119 155 194 243 292 347
#     4   9  20  39  61  84 112 148 193 241 293 347
#     4  10  21  35  54  81 114 150 191 233 280 334
#     4  11  23  39  62  89 119 155 196 242 292 351
#
# _framework density 19.61355
#
# number of rings (size 3 to 8) (size 9 to 14) (size 15 to 20)
#    0.000    1.750    1.250    2.625    0.000    7.500 
#    0.000    3.750    0.000    0.000    0.000    0.000 
#    0.000    0.000    0.000    0.000    0.000    0.000 
#
# Total GULP energy -793961.141525 kJ/mol
# GULP energy per Si atom -12405.642836 kJ/mol
# Density = 1.956891 g / cm^3
# Si number density = 19.613550 Si / 1000 Ang^3
#
#
#
# Elastic Constant Matrix: (Units=GPa)
#
#
# Indices 1 2 3 4 5 6 
#
# 1 72.1913 36.2931 63.1625 0.0000 0.0000 0.0000
# 2 36.2931 63.3621 57.2448 0.0000 0.0000 0.0000
# 3 63.1625 57.2448 136.5870 0.0000 0.0000 0.0000
# 4 0.0000 0.0000 0.0000 34.8414 0.0000 0.0000
# 5 0.0000 0.0000 0.0000 0.0000 41.9482 0.0000
# 6 0.0000 0.0000 0.0000 0.0000 0.0000 28.1143
#
#
#
# Elastic Compliance Matrix: (Units=1/GPa)
#
#
# Indices 1 2 3 4 5 6 
#
# 1 0.024671 -0.006154 -0.008829 0.000000 0.000000 0.000000
# 2 -0.006154 0.026935 -0.008443 0.000000 0.000000 0.000000
# 3 -0.008829 -0.008443 0.014943 0.000000 0.000000 0.000000
# 4 0.000000 0.000000 0.000000 0.028701 0.000000 0.000000
# 5 0.000000 0.000000 0.000000 0.000000 0.023839 0.000000
# 6 0.000000 0.000000 0.000000 0.000000 0.000000 0.035569
#
#
# Mechanical properties :
#
#
# Convention : Reuss Voigt Hill
#
# Bulk Modulus (GPa) = 50.77179 65.06014 57.91596
# Shear Modulus (GPa) = 24.02952 28.67677 26.35315
#
# Velocity S-wave (km/s) = 3.50401 3.82788 3.66952
# Velocity P-wave (km/s) = 6.50485 7.26498 6.89539
#
# Compressibility (1/GPa) = 0.01969598
#
# Stress axis : x y z
#
# Youngs Moduli (GPa) = 40.53292 37.12627 66.92179
#
# Poissons Ratio (x) = 0.22849 0.59088
# Poissons Ratio (y) = 0.24946 0.56500
# Poissons Ratio (z) = 0.35788 0.31345
#
# Static dielectric constant tensor:
#      x y z
#    x 3.570300 0.000000 0.000000 
#    y 0.000000 3.715760 0.000000 
#    z 0.000000 0.000000 3.602440 
# 
# 
# High freq. dielectric constant tensor:
#      x y z
#    x 1.765500 0.000000 0.000000 
#    y 0.000000 1.770260 0.000000 
#    z 0.000000 0.000000 1.770070 
# 
# From -- ./inp_files/26913.got.cif
#   From: 2010.03.12/outbox.cif.g09.slc.cpg/sg53_14_cif.got.tgz:26913.got - 2010.04.16 14:36:59.
