data_PCOD8220791
_publ_section_title
;
Structure prediction by ZEFSAII (Michael W. Deem and Ramdas Pophale) SiO2 
 PCOD8220791
Probable space group: P M N A
;
_chemical_formula_sum "Si O2"
_cell_formula_units_Z 48
_cell_length_a 8.822247
_cell_length_b 9.809089
_cell_length_c 28.873037
_cell_angle_alpha 90.000000
_cell_angle_beta 90.000000
_cell_angle_gamma 90.000000
_cell_volume 2498.620824
_symmetry_space_group_name_H-M "P M N A"
_symmetry_group_IT_number 53
_symmetry_cell_setting 'orthorhombic'
loop_
_space_group_symop_operation_xyz
x,y,z
1/2-x,-y,1/2+z
x,-y,-z
1/2-x,y,1/2-z
-x,-y,-z
1/2+x,y,1/2-z
-x,y,z
1/2+x,-y,1/2+z
loop_
_atom_site_type_symbol
_atom_site_label
_atom_site_fract_x
_atom_site_fract_y
_atom_site_fract_z
Si Si1 0.172508 0.889219 0.463381
Si Si2 0.821442 0.716481 0.878607
Si Si3 0.326136 0.632309 0.973776
Si Si4 0.822341 0.777162 0.298064
Si Si5 0.679183 0.532707 0.799191
Si Si6 0.823630 0.031443 0.872475
O O1 0.188906 0.744799 0.487028
O O2 0.287301 0.897791 0.421053
O O3 0.000000 0.916602 0.446508
O O4 0.225590 0.000000 0.500000
O O5 0.773645 0.663850 0.929020
O O6 0.740464 0.630063 0.839062
O O7 0.000000 0.698602 0.873364
O O8 0.772201 0.873826 0.872949
O O9 0.500000 0.614446 0.957311
O O10 0.263760 0.500000 0.000000
O O11 0.750000 0.821006 0.250000
O O12 0.774004 0.622875 0.311790
O O13 0.770035 0.887268 0.334770
O O14 0.000000 0.786025 0.292623
O O15 0.750000 0.576004 0.750000
O O16 0.500000 0.549628 0.795576
O O17 0.000000 0.045936 0.861598
#
# Coordination Sequence:
#
# PCOD8220791 Si02
#       6
#     8   8   8   8   8   8
#     4  10  20  37  60  84 115 156 198 241 292 346
#     4  11  24  40  59  87 122 159 200 242 291 349
#     4  10  22  39  59  85 118 155 198 246 294 349
#     4  10  22  41  65  91 119 152 194 242 295 353
#     4  10  22  41  65  90 118 153 194 242 296 352
#     4  11  24  39  59  88 122 159 198 242 292 348
#
# _framework density 19.210598999999998
#
# number of rings (size 3 to 8) (size 9 to 14) (size 15 to 20)
#    0.000    1.667    1.667    2.000    2.333    6.000 
#    0.000    0.000    0.000    0.000    0.000    0.000 
#    0.000    0.000    0.000    0.000    0.000    0.000 
#
# Total GULP energy -595347.314453 kJ/mol
# GULP energy per Si atom -12403.069051 kJ/mol
# Density = 1.916688 g / cm^3
# Si number density = 19.210599 Si / 1000 Ang^3
#
#
#
# Elastic Constant Matrix: (Units=GPa)
#
#
# Indices 1 2 3 4 5 6 
#
# 1 63.3049 31.5128 42.8761 0.0000 0.0000 0.0000
# 2 31.5128 94.9548 66.8871 0.0000 0.0000 0.0000
# 3 42.8761 66.8871 122.1101 0.0000 0.0000 0.0000
# 4 0.0000 0.0000 0.0000 37.9980 0.0000 0.0000
# 5 0.0000 0.0000 0.0000 0.0000 43.4694 0.0000
# 6 0.0000 0.0000 0.0000 0.0000 0.0000 30.7500
#
#
#
# Elastic Compliance Matrix: (Units=1/GPa)
#
#
# Indices 1 2 3 4 5 6 
#
# 1 0.021211 -0.002920 -0.005849 0.000000 0.000000 0.000000
# 2 -0.002920 0.017550 -0.008588 0.000000 0.000000 0.000000
# 3 -0.005849 -0.008588 0.014947 0.000000 0.000000 0.000000
# 4 0.000000 0.000000 0.000000 0.026317 0.000000 0.000000
# 5 0.000000 0.000000 0.000000 0.000000 0.023005 0.000000
# 6 0.000000 0.000000 0.000000 0.000000 0.000000 0.032520
#
#
# Mechanical properties :
#
#
# Convention : Reuss Voigt Hill
#
# Bulk Modulus (GPa) = 52.64336 62.54689 57.59512
# Shear Modulus (GPa) = 28.31357 31.71640 30.01499
#
# Velocity S-wave (km/s) = 3.84324 4.06764 3.95703
# Velocity P-wave (km/s) = 6.86708 7.39528 7.13607
#
# Compressibility (1/GPa) = 0.01899575
#
# Stress axis : x y z
#
# Youngs Moduli (GPa) = 47.14511 56.98135 66.90310
#
# Poissons Ratio (x) = 0.16636 0.39129
# Poissons Ratio (y) = 0.13764 0.57455
# Poissons Ratio (z) = 0.27573 0.48935
#
# Static dielectric constant tensor:
#      x y z
#    x 3.572380 0.000000 0.000000 
#    y 0.000000 3.712150 0.000000 
#    z 0.000000 0.000000 3.386550 
# 
# 
# High freq. dielectric constant tensor:
#      x y z
#    x 1.751270 0.000000 0.000000 
#    y 0.000000 1.759240 0.000000 
#    z 0.000000 0.000000 1.754770 
# 
# From -- ./inp_files/37744.got.cif
#   From: 2010.03.12/outbox.cif.g09.slc.cpg/sg53_19_cif.got.tgz:37744.got - 2010.04.16 14:36:59.
