data_PCOD8220354
_publ_section_title
;
Structure prediction by ZEFSAII (Michael W. Deem and Ramdas Pophale) SiO2 
 PCOD8220354
Probable space group: P M N A
;
_chemical_formula_sum "Si O2"
_cell_formula_units_Z 56
_cell_length_a 8.777652
_cell_length_b 21.929305
_cell_length_c 15.184478
_cell_angle_alpha 90.000000
_cell_angle_beta 90.000000
_cell_angle_gamma 90.000000
_cell_volume 2922.826884
_symmetry_space_group_name_H-M "P M N A"
_symmetry_group_IT_number 53
_symmetry_cell_setting 'orthorhombic'
loop_
_space_group_symop_operation_xyz
x,y,z
1/2-x,-y,1/2+z
x,-y,-z
1/2-x,y,1/2-z
-x,-y,-z
1/2+x,y,1/2-z
-x,y,z
1/2+x,-y,1/2+z
loop_
_atom_site_type_symbol
_atom_site_label
_atom_site_fract_x
_atom_site_fract_y
_atom_site_fract_z
Si Si1 0.821195 0.062280 0.341795
Si Si2 0.319664 0.933592 0.343215
Si Si3 0.181003 0.283930 0.499424
Si Si4 0.320293 0.632490 0.154129
Si Si5 0.319480 0.631385 0.845891
Si Si6 0.177388 0.499263 0.656488
Si Si7 0.678348 0.145141 0.993207
O O1 0.750000 0.085239 0.250000
O O2 0.785086 0.112591 0.414776
O O3 0.000000 0.051493 0.329131
O O4 0.746334 0.998939 0.372311
O O5 0.250000 0.913102 0.250000
O O6 0.500000 0.938101 0.334607
O O7 0.275049 0.884261 0.415519
O O8 0.244739 0.316755 0.587305
O O9 0.245927 0.318207 0.413055
O O10 0.235558 0.214348 0.497756
O O11 0.000000 0.288431 0.498575
O O12 0.250000 0.643025 0.250000
O O13 0.500000 0.639280 0.165153
O O14 0.280170 0.565433 0.110366
O O15 0.250000 0.642845 0.750000
O O16 0.500000 0.637137 0.836981
O O17 0.272298 0.564112 0.886145
O O18 0.250000 0.494653 0.750000
O O19 0.000000 0.502358 0.670711
O O20 0.500000 0.140570 0.969919
#
# Coordination Sequence:
#
# PCOD8220354 Si02
#       7
#     8   8   8   8   8   8   8
#     4  10  20  35  57  82 108 137 170 211 257 304
#     4  11  22  37  59  84 108 134 168 211 256 304
#     4   9  19  34  51  72 100 136 174 207 246 299
#     4   9  17  31  50  71  97 129 166 211 257 301
#     4   9  17  31  50  72  99 131 167 209 256 302
#     4   8  14  25  45  71  95 122 161 208 256 301
#     4  10  21  37  54  75 107 143 175 210 255 304
#
# _framework density 19.159535000000002
#
# number of rings (size 3 to 8) (size 9 to 14) (size 15 to 20)
#    0.000    2.571    0.000    3.000    0.000    4.571 
#    0.000    6.429    0.000    0.000    0.000   10.000 
#    0.000    0.000    0.000    0.000    0.000    0.000 
#
# Total GULP energy -693905.050242 kJ/mol
# GULP energy per Si atom -12391.161611 kJ/mol
# Density = 1.911593 g / cm^3
# Si number density = 19.159535 Si / 1000 Ang^3
#
#
#
# Elastic Constant Matrix: (Units=GPa)
#
#
# Indices 1 2 3 4 5 6 
#
# 1 55.1250 48.1282 40.6233 0.0000 0.0000 0.0000
# 2 48.1282 175.2444 101.6136 0.0000 0.0000 0.0000
# 3 40.6233 101.6136 130.7357 0.0000 0.0000 0.0000
# 4 0.0000 0.0000 0.0000 7.9960 0.0000 0.0000
# 5 0.0000 0.0000 0.0000 0.0000 27.1716 0.0000
# 6 0.0000 0.0000 0.0000 0.0000 0.0000 18.3717
#
#
#
# Elastic Compliance Matrix: (Units=1/GPa)
#
#
# Indices 1 2 3 4 5 6 
#
# 1 0.025217 -0.004336 -0.004465 0.000000 0.000000 0.000000
# 2 -0.004336 0.011134 -0.007306 0.000000 0.000000 0.000000
# 3 -0.004465 -0.007306 0.014715 0.000000 0.000000 0.000000
# 4 0.000000 0.000000 0.000000 0.125062 0.000000 0.000000
# 5 0.000000 0.000000 0.000000 0.000000 0.036803 0.000000
# 6 0.000000 0.000000 0.000000 0.000000 0.000000 0.054431
#
#
# Mechanical properties :
#
#
# Convention : Reuss Voigt Hill
#
# Bulk Modulus (GPa) = 53.04920 82.42613 67.73766
# Shear Modulus (GPa) = 16.34728 22.09053 19.21891
#
# Velocity S-wave (km/s) = 2.92416 3.39924 3.17061
# Velocity P-wave (km/s) = 6.25693 7.64989 6.98820
#
# Compressibility (1/GPa) = 0.01885043
#
# Stress axis : x y z
#
# Youngs Moduli (GPa) = 39.65554 89.81820 67.95725
#
# Poissons Ratio (x) = 0.38948 0.30345
# Poissons Ratio (y) = 0.17196 0.49650
# Poissons Ratio (z) = 0.17707 0.65622
#
# Static dielectric constant tensor:
#      x y z
#    x 3.347660 0.000000 0.000000 
#    y 0.000000 3.943440 0.000000 
#    z 0.000000 0.000000 3.443700 
# 
# 
# High freq. dielectric constant tensor:
#      x y z
#    x 1.725090 0.000000 0.000000 
#    y 0.000000 1.755200 0.000000 
#    z 0.000000 0.000000 1.740600 
# 
# From -- ./inp_files/20631.got.cif
#   From: 2010.03.12/outbox.cif.g09.slc.cpg/sg53_11_cif.got.tgz:20631.got - 2010.04.16 14:36:59.
