data_PCOD8220212
_publ_section_title
;
Structure prediction by ZEFSAII (Michael W. Deem and Ramdas Pophale) SiO2 
 PCOD8220212
Probable space group: P M N A
;
_chemical_formula_sum "Si O2"
_cell_formula_units_Z 64
_cell_length_a 9.053752
_cell_length_b 16.780670
_cell_length_c 23.663219
_cell_angle_alpha 90.000000
_cell_angle_beta 90.000000
_cell_angle_gamma 90.000000
_cell_volume 3595.106118
_symmetry_space_group_name_H-M "P M N A"
_symmetry_group_IT_number 53
_symmetry_cell_setting 'orthorhombic'
loop_
_space_group_symop_operation_xyz
x,y,z
1/2-x,-y,1/2+z
x,-y,-z
1/2-x,y,1/2-z
-x,-y,-z
1/2+x,y,1/2-z
-x,y,z
1/2+x,-y,1/2+z
loop_
_atom_site_type_symbol
_atom_site_label
_atom_site_fract_x
_atom_site_fract_y
_atom_site_fract_z
Si Si1 0.174868 0.776410 0.380193
Si Si2 0.668841 0.534595 0.086257
Si Si3 0.331820 0.371572 0.409987
Si Si4 0.669289 0.680096 0.469036
Si Si5 0.173082 0.100911 0.309976
Si Si6 0.824888 0.745701 0.810914
Si Si7 0.166453 0.631084 0.305949
Si Si8 0.671633 0.074641 0.809832
O O1 0.250473 0.756030 0.440160
O O2 0.230490 0.710674 0.335169
O O3 0.226649 0.862277 0.356822
O O4 0.000000 0.770999 0.389548
O O5 0.500000 0.538692 0.065562
O O6 0.726910 0.445909 0.079078
O O7 0.760633 0.595859 0.048550
O O8 0.681568 0.556846 0.152045
O O9 0.500000 0.402237 0.405265
O O10 0.315731 0.311579 0.463219
O O11 0.285594 0.326506 0.352697
O O12 0.500000 0.680169 0.449537
O O13 0.250000 0.096245 0.250000
O O14 0.255879 0.174413 0.340658
O O15 0.000000 0.120274 0.304523
O O16 0.199104 0.013291 0.337123
O O17 0.750000 0.729244 0.750000
O O18 0.000000 0.756168 0.803476
O O19 0.250000 0.607116 0.250000
O O20 0.000000 0.648133 0.288206
O O21 0.750000 0.088038 0.750000
O O22 0.500000 0.088141 0.797083
#
# Coordination Sequence:
#
# PCOD8220212 Si02
#       8
#     8   8   8   8   8   8   8   8
#     4   9  18  32  47  69 100 130 162 201 240 278
#     4  10  21  35  51  73  98 125 160 202 244 285
#     4  10  22  37  53  73  96 123 158 201 244 286
#     4  10  20  35  53  72  95 125 162 201 241 285
#     4   9  16  28  47  72 100 130 162 196 237 284
#     4  10  20  35  53  74 101 129 157 195 243 291
#     4   9  18  30  44  65  95 128 159 190 229 279
#     4   9  17  28  46  73 104 133 163 200 239 283
#
# _framework density 17.801978999999999
#
# number of rings (size 3 to 8) (size 9 to 14) (size 15 to 20)
#    0.000    2.500    0.000    3.750    0.000    7.500 
#    0.000    2.500    0.000    0.750    0.000    5.250 
#    0.000    0.000    0.000    0.000    0.000    0.000 
#
# Total GULP energy -793261.700598 kJ/mol
# GULP energy per Si atom -12394.714072 kJ/mol
# Density = 1.776146 g / cm^3
# Si number density = 17.801979 Si / 1000 Ang^3
#
#
#
# Elastic Constant Matrix: (Units=GPa)
#
#
# Indices 1 2 3 4 5 6 
#
# 1 80.0933 31.1811 33.2483 0.0000 0.0000 0.0000
# 2 31.1811 80.7149 26.7397 0.0000 0.0000 0.0000
# 3 33.2483 26.7397 76.5233 0.0000 0.0000 0.0000
# 4 0.0000 0.0000 0.0000 18.4364 0.0000 0.0000
# 5 0.0000 0.0000 0.0000 0.0000 24.0656 0.0000
# 6 0.0000 0.0000 0.0000 0.0000 0.0000 90.3664
#
#
#
# Elastic Compliance Matrix: (Units=1/GPa)
#
#
# Indices 1 2 3 4 5 6 
#
# 1 0.016588 -0.004547 -0.005618 0.000000 0.000000 0.000000
# 2 -0.004547 0.015258 -0.003356 0.000000 0.000000 0.000000
# 3 -0.005618 -0.003356 0.016682 0.000000 0.000000 0.000000
# 4 0.000000 0.000000 0.000000 0.054240 0.000000 0.000000
# 5 0.000000 0.000000 0.000000 0.000000 0.041553 0.000000
# 6 0.000000 0.000000 0.000000 0.000000 0.000000 0.011066
#
#
# Mechanical properties :
#
#
# Convention : Reuss Voigt Hill
#
# Bulk Modulus (GPa) = 46.54449 46.62997 46.58723
# Shear Modulus (GPa) = 26.37260 36.31783 31.34522
#
# Velocity S-wave (km/s) = 3.85313 4.52165 4.20071
# Velocity P-wave (km/s) = 6.78217 7.31512 7.05368
#
# Compressibility (1/GPa) = 0.02148482
#
# Stress axis : x y z
#
# Youngs Moduli (GPa) = 60.28506 65.54133 59.94586
#
# Poissons Ratio (x) = 0.29800 0.33680
# Poissons Ratio (y) = 0.27410 0.20118
# Poissons Ratio (z) = 0.33871 0.21995
#
# Static dielectric constant tensor:
#      x y z
#    x 3.401900 0.000000 0.000000 
#    y 0.000000 3.664840 0.000000 
#    z 0.000000 0.000000 3.168100 
# 
# 
# High freq. dielectric constant tensor:
#      x y z
#    x 1.696740 0.000000 0.000000 
#    y 0.000000 1.685090 0.000000 
#    z 0.000000 0.000000 1.665790 
# 
# From -- ./inp_files/31252.got.cif
#   From: 2010.03.12/outbox.cif.g09.slc.cpg/sg53_16_cif.got.tgz:31252.got - 2010.04.16 14:36:59.
