data_PCOD8220153
_publ_section_title
;
Structure prediction by ZEFSAII (Michael W. Deem and Ramdas Pophale) SiO2 
 PCOD8220153
Probable space group: P M N A
;
_chemical_formula_sum "Si O2"
_cell_formula_units_Z 64
_cell_length_a 17.699003
_cell_length_b 21.010167
_cell_length_c 8.677182
_cell_angle_alpha 90.000000
_cell_angle_beta 90.000000
_cell_angle_gamma 90.000000
_cell_volume 3226.688297
_symmetry_space_group_name_H-M "P M N A"
_symmetry_group_IT_number 53
_symmetry_cell_setting 'orthorhombic'
loop_
_space_group_symop_operation_xyz
x,y,z
1/2-x,-y,1/2+z
x,-y,-z
1/2-x,y,1/2-z
-x,-y,-z
1/2+x,y,1/2-z
-x,y,z
1/2+x,-y,1/2+z
loop_
_atom_site_type_symbol
_atom_site_label
_atom_site_fract_x
_atom_site_fract_y
_atom_site_fract_z
Si Si1 0.669302 0.030501 0.789996
Si Si2 0.351951 0.859011 0.452229
Si Si3 0.586633 0.515858 0.333686
Si Si4 0.417014 0.906265 0.739998
Si Si5 0.664019 0.243743 0.775904
Si Si6 0.810323 0.555401 0.613942
Si Si7 0.088857 0.630088 0.378820
Si Si8 0.186815 0.864979 0.517806
O O1 0.750000 0.997815 0.750000
O O2 0.660037 0.092238 0.684992
O O3 0.667937 0.061894 0.960892
O O4 0.604265 0.980399 0.754647
O O5 0.418571 0.883019 0.562583
O O6 0.367286 0.788841 0.381579
O O7 0.275106 0.858049 0.552672
O O8 0.624889 0.500000 0.500000
O O9 0.500000 0.498005 0.346301
O O10 0.617875 0.471123 0.201640
O O11 0.600482 0.587955 0.276085
O O12 0.500000 0.898733 0.809729
O O13 0.361095 0.858288 0.827323
O O14 0.750000 0.268453 0.750000
O O15 0.607607 0.299100 0.825217
O O16 0.660406 0.190237 0.905334
O O17 0.776188 0.500000 0.500000
O O18 0.750000 0.576419 0.750000
O O19 0.848550 0.611573 0.510743
O O20 0.000000 0.625503 0.433380
#
# Coordination Sequence:
#
# PCOD8220153 Si02
#       8
#     8   8   8   8   8   8   8   8
#     4   9  18  34  56  76  97 134 179 217 264 328
#     4   9  19  37  57  75 100 137 180 223 269 320
#     4   9  18  34  56  83 116 152 187 225 275 332
#     4  12  23  31  47  80 112 135 166 216 276 330
#     4   9  20  39  61  80  99 136 191 236 268 317
#     4  10  20  34  55  85 119 151 189 235 280 324
#     4  10  21  37  59  85 118 158 190 224 281 346
#     4   9  19  37  56  73  99 138 180 223 268 319
#
# _framework density 19.834576999999999
#
# number of rings (size 3 to 8) (size 9 to 14) (size 15 to 20)
#    0.000    2.375    0.000    4.125    0.000    9.500 
#    0.000    6.250    0.000    1.500    0.000    0.000 
#    0.000    0.000    0.000    0.000    0.000    0.000 
#
# Total GULP energy -792941.525311 kJ/mol
# GULP energy per Si atom -12389.711333 kJ/mol
# Density = 1.978943 g / cm^3
# Si number density = 19.834577 Si / 1000 Ang^3
#
#
#
# Elastic Constant Matrix: (Units=GPa)
#
#
# Indices 1 2 3 4 5 6 
#
# 1 85.5928 40.3590 35.8908 0.0000 0.0000 0.0000
# 2 40.3590 91.0864 29.2832 0.0000 0.0000 0.0000
# 3 35.8908 29.2832 74.1744 0.0000 0.0000 0.0000
# 4 0.0000 0.0000 0.0000 -15.7330 0.0000 0.0000
# 5 0.0000 0.0000 0.0000 0.0000 24.7563 0.0000
# 6 0.0000 0.0000 0.0000 0.0000 0.0000 17.2014
#
#
#
# Elastic Compliance Matrix: (Units=1/GPa)
#
#
# Indices 1 2 3 4 5 6 
#
# 1 0.016778 -0.005525 -0.005937 0.000000 0.000000 0.000000
# 2 -0.005525 0.014394 -0.003009 0.000000 0.000000 0.000000
# 3 -0.005937 -0.003009 0.017542 0.000000 0.000000 0.000000
# 4 0.000000 0.000000 0.000000 -0.063561 0.000000 0.000000
# 5 0.000000 0.000000 0.000000 0.000000 0.040394 0.000000
# 6 0.000000 0.000000 0.000000 0.000000 0.000000 0.058135
#
#
# Mechanical properties :
#
#
# Convention : Reuss Voigt Hill
#
# Bulk Modulus (GPa) = 50.57746 51.32439 50.95092
# Shear Modulus (GPa) = 41.94057 14.93298 28.43677
#
# Velocity S-wave (km/s) = 4.60338 2.74684 3.79053
# Velocity P-wave (km/s) = 7.33551 5.99938 6.70083
#
# Compressibility (1/GPa) = 0.01977166
#
# Stress axis : x y z
#
# Youngs Moduli (GPa) = 59.60137 69.47235 57.00459
#
# Poissons Ratio (x) = 0.38387 0.33844
# Poissons Ratio (y) = 0.32932 0.17153
# Poissons Ratio (z) = 0.35386 0.20905
#
# Static dielectric constant tensor:
#      x y z
#    x 3.829160 0.000000 0.000000 
#    y 0.000000 3.387740 0.000000 
#    z 0.000000 0.000000 3.820020 
# 
# 
# High freq. dielectric constant tensor:
#      x y z
#    x 1.764960 0.000000 0.000000 
#    y 0.000000 1.749330 0.000000 
#    z 0.000000 0.000000 1.781630 
# 
# From -- ./inp_files/10278.got.cif
#   From: 2010.03.12/outbox.cif.g09.slc.cpg/sg53_6_cif.got.tgz:10278.got - 2010.04.16 14:36:59.
