data_PCOD8220403
_publ_section_title
;
Structure prediction by ZEFSAII (Michael W. Deem and Ramdas Pophale) SiO2 
 PCOD8220403
Probable space group: P M N A
;
_chemical_formula_sum "Si O2"
_cell_formula_units_Z 56
_cell_length_a 9.483071
_cell_length_b 14.640754
_cell_length_c 19.942254
_cell_angle_alpha 90.000000
_cell_angle_beta 90.000000
_cell_angle_gamma 90.000000
_cell_volume 2768.768779
_symmetry_space_group_name_H-M "P M N A"
_symmetry_group_IT_number 53
_symmetry_cell_setting 'orthorhombic'
loop_
_space_group_symop_operation_xyz
x,y,z
1/2-x,-y,1/2+z
x,-y,-z
1/2-x,y,1/2-z
-x,-y,-z
1/2+x,y,1/2-z
-x,y,z
1/2+x,-y,1/2+z
loop_
_atom_site_type_symbol
_atom_site_label
_atom_site_fract_x
_atom_site_fract_y
_atom_site_fract_z
Si Si1 0.346816 0.316368 0.382454
Si Si2 0.345573 0.508010 0.312565
Si Si3 0.664354 0.008795 0.079124
Si Si4 0.845018 0.398443 0.488675
Si Si5 0.162908 0.854086 0.315116
Si Si6 0.167871 0.129982 0.181743
Si Si7 0.155232 0.658423 0.367332
O O1 0.500000 0.291332 0.413403
O O2 0.358015 0.411071 0.345380
O O3 0.236901 0.329520 0.441206
O O4 0.303348 0.237316 0.330423
O O5 0.250000 0.494875 0.250000
O O6 0.500000 0.545404 0.293464
O O7 0.271251 0.581002 0.359396
O O8 0.500000 0.038633 0.084880
O O9 0.765473 0.081117 0.116387
O O10 0.691118 0.914222 0.118684
O O11 0.705983 0.000000 0.000000
O O12 0.775365 0.500000 0.500000
O O13 0.858469 0.334570 0.553274
O O14 0.000000 0.417375 0.457288
O O15 0.250000 0.888127 0.250000
O O16 0.210030 0.751727 0.334242
O O17 0.000000 0.858474 0.294501
O O18 0.250000 0.100684 0.250000
O O19 0.000000 0.107639 0.188875
O O20 0.000000 0.633449 0.337485
#
# Coordination Sequence:
#
# PCOD8220403 Si02
#       7
#     8   8   8   8   8   8   8
#     4  10  23  39  57  85 121 159 201 249 303 361
#     4  11  22  36  55  80 114 155 198 245 295 350
#     4  10  23  43  68  96 125 159 200 251 312 373
#     4  10  20  35  58  86 116 157 204 251 301 354
#     4  10  22  40  62  89 121 157 198 245 299 362
#     4  11  24  43  66  94 126 163 208 258 313 371
#     4  10  21  37  57  85 119 153 198 246 293 355
#
# _framework density 20.225595999999999
#
# number of rings (size 3 to 8) (size 9 to 14) (size 15 to 20)
#    0.000    1.714    1.429    2.143    2.000    6.286 
#    0.000    0.000    0.000    0.000    0.000    0.000 
#    0.000    0.000    0.000    0.000    0.000    0.000 
#
# Total GULP energy -693967.652969 kJ/mol
# GULP energy per Si atom -12392.279517 kJ/mol
# Density = 2.017956 g / cm^3
# Si number density = 20.225596 Si / 1000 Ang^3
#
#
#
# Elastic Constant Matrix: (Units=GPa)
#
#
# Indices 1 2 3 4 5 6 
#
# 1 122.7506 45.9844 63.3561 0.0000 0.0000 0.0000
# 2 45.9844 90.4603 36.9943 0.0000 0.0000 0.0000
# 3 63.3561 36.9943 134.4228 0.0000 0.0000 0.0000
# 4 0.0000 0.0000 0.0000 35.3258 0.0000 0.0000
# 5 0.0000 0.0000 0.0000 0.0000 36.4940 0.0000
# 6 0.0000 0.0000 0.0000 0.0000 0.0000 1652.7754
#
#
#
# Elastic Compliance Matrix: (Units=1/GPa)
#
#
# Indices 1 2 3 4 5 6 
#
# 1 0.012086 -0.004298 -0.004514 0.000000 0.000000 0.000000
# 2 -0.004298 0.013985 -0.001823 0.000000 0.000000 0.000000
# 3 -0.004514 -0.001823 0.010068 0.000000 0.000000 0.000000
# 4 0.000000 0.000000 0.000000 0.028308 0.000000 0.000000
# 5 0.000000 0.000000 0.000000 0.000000 0.027402 0.000000
# 6 0.000000 0.000000 0.000000 0.000000 0.000000 0.000605
#
#
# Mechanical properties :
#
#
# Convention : Reuss Voigt Hill
#
# Bulk Modulus (GPa) = 67.24890 71.14482 69.19686
# Shear Modulus (GPa) = 42.12983 358.33896 200.23439
#
# Velocity S-wave (km/s) = 4.56894 13.32500 9.96069
# Velocity P-wave (km/s) = 7.82018 16.49221 12.90636
#
# Compressibility (1/GPa) = 0.01487013
#
# Stress axis : x y z
#
# Youngs Moduli (GPa) = 82.73749 71.50522 99.32150
#
# Poissons Ratio (x) = 0.30734 0.44831
# Poissons Ratio (y) = 0.35561 0.18106
# Poissons Ratio (z) = 0.37345 0.13035
#
# Static dielectric constant tensor:
#      x y z
#    x 4.123900 0.000000 0.000000 
#    y 0.000000 3.679360 0.000000 
#    z 0.000000 0.000000 3.553700 
# 
# 
# High freq. dielectric constant tensor:
#      x y z
#    x 1.792380 0.000000 0.000000 
#    y 0.000000 1.791610 0.000000 
#    z 0.000000 0.000000 1.789440 
# 
# From -- ./inp_files/30759.got.cif
#   From: 2010.03.12/outbox.cif.g09.slc.cpg/sg53_16_cif.got.tgz:30759.got - 2010.04.16 14:36:59.
