data_PCOD8220949
_publ_section_title
;
Structure prediction by ZEFSAII (Michael W. Deem and Ramdas Pophale) SiO2 
 PCOD8220949
Probable space group: P M N A
;
_chemical_formula_sum "Si O2"
_cell_formula_units_Z 40
_cell_length_a 8.990386
_cell_length_b 12.177908
_cell_length_c 18.505012
_cell_angle_alpha 90.000000
_cell_angle_beta 90.000000
_cell_angle_gamma 90.000000
_cell_volume 2026.004466
_symmetry_space_group_name_H-M "P M N A"
_symmetry_group_IT_number 53
_symmetry_cell_setting 'orthorhombic'
loop_
_space_group_symop_operation_xyz
x,y,z
1/2-x,-y,1/2+z
x,-y,-z
1/2-x,y,1/2-z
-x,-y,-z
1/2+x,y,1/2-z
-x,y,z
1/2+x,-y,1/2+z
loop_
_atom_site_type_symbol
_atom_site_label
_atom_site_fract_x
_atom_site_fract_y
_atom_site_fract_z
Si Si1 0.327333 0.893612 0.825048
Si Si2 0.827239 0.669003 0.597374
Si Si3 0.674360 0.475620 0.676263
Si Si4 0.672606 0.306785 0.550359
Si Si5 0.825841 0.056599 0.926100
O O1 0.250000 0.865436 0.750000
O O2 0.500000 0.912337 0.810376
O O3 0.297425 0.794162 0.880050
O O4 0.260344 0.003983 0.859011
O O5 0.740328 0.592145 0.652901
O O6 0.767544 0.650406 0.516865
O O7 0.000000 0.638316 0.600152
O O8 0.750000 0.435992 0.750000
O O9 0.500000 0.489741 0.688670
O O10 0.711429 0.383836 0.617247
O O11 0.500000 0.313672 0.528259
O O12 0.717668 0.183918 0.571949
O O13 0.000000 0.037924 0.913760
O O14 0.772255 0.000000 0.000000
#
# Coordination Sequence:
#
# PCOD8220949 Si02
#       5
#     8   8   8   8   8
#     4  11  24  39  59  89 123 158 200 250 302 356
#     4  11  23  39  62  91 121 157 202 250 300 356
#     4  11  24  41  61  86 121 159 200 248 302 359
#     4  10  22  40  63  91 121 158 201 246 300 359
#     4  10  20  38  64  89 119 159 199 243 296 356
#
# _framework density 19.743293999999999
#
# number of rings (size 3 to 8) (size 9 to 14) (size 15 to 20)
#    0.000    1.400    2.000    3.000    0.000   10.000 
#    0.000    2.000    0.000    0.000    0.000    0.000 
#    0.000    0.000    0.000    0.000    0.000    0.000 
#
# Total GULP energy -496326.744056 kJ/mol
# GULP energy per Si atom -12408.168601 kJ/mol
# Density = 1.969836 g / cm^3
# Si number density = 19.743294 Si / 1000 Ang^3
#
#
#
# Elastic Constant Matrix: (Units=GPa)
#
#
# Indices 1 2 3 4 5 6 
#
# 1 92.0087 32.7552 63.9302 0.0000 0.0000 0.0000
# 2 32.7552 74.0154 29.4337 0.0000 0.0000 0.0000
# 3 63.9302 29.4337 127.3133 0.0000 0.0000 0.0000
# 4 0.0000 0.0000 0.0000 30.4793 0.0000 0.0000
# 5 0.0000 0.0000 0.0000 0.0000 40.8493 0.0000
# 6 0.0000 0.0000 0.0000 0.0000 0.0000 25.1460
#
#
#
# Elastic Compliance Matrix: (Units=1/GPa)
#
#
# Indices 1 2 3 4 5 6 
#
# 1 0.018149 -0.004854 -0.007991 0.000000 0.000000 0.000000
# 2 -0.004854 0.016177 -0.001303 0.000000 0.000000 0.000000
# 3 -0.007991 -0.001303 0.012169 0.000000 0.000000 0.000000
# 4 0.000000 0.000000 0.000000 0.032809 0.000000 0.000000
# 5 0.000000 0.000000 0.000000 0.000000 0.024480 0.000000
# 6 0.000000 0.000000 0.000000 0.000000 0.000000 0.039768
#
#
# Mechanical properties :
#
#
# Convention : Reuss Voigt Hill
#
# Bulk Modulus (GPa) = 54.94842 60.61950 57.78396
# Shear Modulus (GPa) = 28.10351 30.44281 29.27316
#
# Velocity S-wave (km/s) = 3.77695 3.93100 3.85475
# Velocity P-wave (km/s) = 6.84926 7.16758 7.01023
#
# Compressibility (1/GPa) = 0.01819888
#
# Stress axis : x y z
#
# Youngs Moduli (GPa) = 55.09890 61.81714 82.17839
#
# Poissons Ratio (x) = 0.30005 0.65672
# Poissons Ratio (y) = 0.26744 0.10704
# Poissons Ratio (z) = 0.44032 0.08052
#
# Static dielectric constant tensor:
#      x y z
#    x 3.595980 0.000000 0.000000 
#    y 0.000000 3.626950 0.000000 
#    z 0.000000 0.000000 3.583800 
# 
# 
# High freq. dielectric constant tensor:
#      x y z
#    x 1.773720 0.000000 0.000000 
#    y 0.000000 1.777230 0.000000 
#    z 0.000000 0.000000 1.776790 
# 
# From -- ./inp_files/25815.got.cif
#   From: 2010.03.12/outbox.cif.g09.slc.cpg/sg53_13_cif.got.tgz:25815.got - 2010.04.16 14:36:59.
