data_PCOD8220310
_publ_section_title
;
Structure prediction by ZEFSAII (Michael W. Deem and Ramdas Pophale) SiO2 
 PCOD8220310
Probable space group: P M N A
;
_chemical_formula_sum "Si O2"
_cell_formula_units_Z 40
_cell_length_a 8.640747
_cell_length_b 11.563326
_cell_length_c 21.891543
_cell_angle_alpha 90.000000
_cell_angle_beta 90.000000
_cell_angle_gamma 90.000000
_cell_volume 2187.310473
_symmetry_space_group_name_H-M "P M N A"
_symmetry_group_IT_number 53
_symmetry_cell_setting 'orthorhombic'
loop_
_space_group_symop_operation_xyz
x,y,z
1/2-x,-y,1/2+z
x,-y,-z
1/2-x,y,1/2-z
-x,-y,-z
1/2+x,y,1/2-z
-x,y,z
1/2+x,-y,1/2+z
loop_
_atom_site_type_symbol
_atom_site_label
_atom_site_fract_x
_atom_site_fract_y
_atom_site_fract_z
Si Si1 0.317561 0.442427 0.083108
Si Si2 0.681440 0.072465 0.559609
Si Si3 0.818001 0.319573 0.538936
Si Si4 0.316878 0.023811 0.184992
Si Si5 0.817043 0.713755 0.688043
O O1 0.500000 0.427804 0.081798
O O2 0.279887 0.579630 0.088649
O O3 0.243058 0.372234 0.138638
O O4 0.257206 0.378551 0.022877
O O5 0.500000 0.051923 0.566217
O O6 0.717393 0.206763 0.550282
O O7 0.759102 0.039819 0.624081
O O8 0.743439 0.000000 0.500000
O O9 0.000000 0.286829 0.538209
O O10 0.250000 0.975081 0.250000
O O11 0.500000 0.010841 0.188402
O O12 0.260531 0.155625 0.176655
O O13 0.750000 0.664142 0.750000
O O14 0.000000 0.708829 0.688587
#
# Coordination Sequence:
#
# PCOD8220310 Si02
#       5
#     8   8   8   8   8
#     4   8  15  30  52  75  98 125 162 208 253 302
#     4  11  23  36  51  76 109 140 175 220 263 306
#     4   9  17  32  54  75  96 128 169 210 255 305
#     4  10  20  35  56  79 105 138 174 213 259 312
#     4   9  17  30  49  74 100 126 160 201 246 297
#
# _framework density 18.287299000000001
#
# number of rings (size 3 to 8) (size 9 to 14) (size 15 to 20)
#    0.000    2.600    0.000    3.600    0.000    4.000 
#    0.000    5.000    0.000    2.400    0.000    0.000 
#    0.000    0.000    0.000    0.000    0.000    0.000 
#
# Total GULP energy -495599.418003 kJ/mol
# GULP energy per Si atom -12389.985450 kJ/mol
# Density = 1.824568 g / cm^3
# Si number density = 18.287299 Si / 1000 Ang^3
#
#
#
# Elastic Constant Matrix: (Units=GPa)
#
#
# Indices 1 2 3 4 5 6 
#
# 1 37.4917 20.7151 26.3218 0.0000 0.0000 0.0000
# 2 20.7151 113.7138 64.8289 0.0000 0.0000 0.0000
# 3 26.3218 64.8289 127.4377 0.0000 0.0000 0.0000
# 4 0.0000 0.0000 0.0000 37.0004 0.0000 0.0000
# 5 0.0000 0.0000 0.0000 0.0000 28.1855 0.0000
# 6 0.0000 0.0000 0.0000 0.0000 0.0000 23.2388
#
#
#
# Elastic Compliance Matrix: (Units=1/GPa)
#
#
# Indices 1 2 3 4 5 6 
#
# 1 0.031857 -0.002890 -0.005110 0.000000 0.000000 0.000000
# 2 -0.002890 0.012648 -0.005837 0.000000 0.000000 0.000000
# 3 -0.005110 -0.005837 0.011872 0.000000 0.000000 0.000000
# 4 0.000000 0.000000 0.000000 0.027027 0.000000 0.000000
# 5 0.000000 0.000000 0.000000 0.000000 0.035479 0.000000
# 6 0.000000 0.000000 0.000000 0.000000 0.000000 0.043032
#
#
# Mechanical properties :
#
#
# Convention : Reuss Voigt Hill
#
# Bulk Modulus (GPa) = 34.84014 55.81943 45.32978
# Shear Modulus (GPa) = 25.10582 28.80341 26.95462
#
# Velocity S-wave (km/s) = 3.70923 3.97300 3.84337
# Velocity P-wave (km/s) = 6.11861 7.18583 6.67359
#
# Compressibility (1/GPa) = 0.02870253
#
# Stress axis : x y z
#
# Youngs Moduli (GPa) = 31.39046 79.06078 84.23244
#
# Poissons Ratio (x) = 0.22851 0.43039
# Poissons Ratio (y) = 0.09073 0.49170
# Poissons Ratio (z) = 0.16039 0.46151
#
# Static dielectric constant tensor:
#      x y z
#    x 3.102460 0.000000 0.000000 
#    y 0.000000 3.502250 0.000000 
#    z 0.000000 0.000000 3.833240 
# 
# 
# High freq. dielectric constant tensor:
#      x y z
#    x 1.687500 0.000000 0.000000 
#    y 0.000000 1.707770 0.000000 
#    z 0.000000 0.000000 1.712550 
# 
# From -- ./inp_files/25855.got.cif
#   From: 2010.03.12/outbox.cif.g09.slc.cpg/sg53_13_cif.got.tgz:25855.got - 2010.04.16 14:36:59.
