data_PCOD8220990
_publ_section_title
;
Structure prediction by ZEFSAII (Michael W. Deem and Ramdas Pophale) SiO2 
 PCOD8220990
Probable space group: P M N A
;
_chemical_formula_sum "Si O2"
_cell_formula_units_Z 64
_cell_length_a 30.587785
_cell_length_b 8.187388
_cell_length_c 11.941622
_cell_angle_alpha 90.000000
_cell_angle_beta 90.000000
_cell_angle_gamma 90.000000
_cell_volume 2990.588926
_symmetry_space_group_name_H-M "P M N A"
_symmetry_group_IT_number 53
_symmetry_cell_setting 'orthorhombic'
loop_
_space_group_symop_operation_xyz
x,y,z
1/2-x,-y,1/2+z
x,-y,-z
1/2-x,y,1/2-z
-x,-y,-z
1/2+x,y,1/2-z
-x,y,z
1/2+x,-y,1/2+z
loop_
_atom_site_type_symbol
_atom_site_label
_atom_site_fract_x
_atom_site_fract_y
_atom_site_fract_z
Si Si1 0.672790 0.697237 0.259908
Si Si2 0.906048 0.881396 0.171790
Si Si3 0.610814 0.776437 0.565445
Si Si4 0.705187 0.193680 0.504690
Si Si5 0.204076 0.683728 0.472751
Si Si6 0.049379 0.302420 0.648139
Si Si7 0.897527 0.419073 0.266495
Si Si8 0.886328 0.184235 0.467479
O O1 0.637601 0.845965 0.255034
O O2 0.697820 0.715756 0.376686
O O3 0.708378 0.713416 0.161080
O O4 0.646774 0.527641 0.235650
O O5 0.945796 0.837617 0.255125
O O6 0.907716 0.061521 0.124289
O O7 0.904871 0.761218 0.062915
O O8 0.663859 0.768675 0.573930
O O9 0.592703 0.628735 0.637987
O O10 0.751088 0.269045 0.462517
O O11 0.710483 0.000000 0.500000
O O12 0.190851 0.500000 0.500000
O O13 0.165017 0.799294 0.512170
O O14 0.059789 0.478603 0.700438
O O15 0.083482 0.293880 0.546697
O O16 0.000000 0.295228 0.602714
O O17 0.893941 0.252444 0.341155
O O18 0.900764 0.000000 0.500000
#
# Coordination Sequence:
#
# PCOD8220990 Si02
#       8
#     8   8   8   8   8   8   8   8
#     4  10  20  39  63  85 129 174 218 276 330 391
#     4   9  18  40  69  92 127 171 215 274 338 399
#     4  10  20  40  66  93 131 173 220 272 335 402
#     4  11  23  40  62  95 129 177 235 276 323 394
#     4  12  23  41  62  93 136 179 225 278 335 394
#     4  11  24  44  70  98 130 171 221 276 340 419
#     4  11  23  39  66  97 128 177 220 267 340 407
#     4  12  24  43  68  94 133 176 220 279 344 401
#
# _framework density 21.400468
#
# number of rings (size 3 to 8) (size 9 to 14) (size 15 to 20)
#    0.000    1.250    6.250    1.875    1.750    5.250 
#    0.000    5.000    0.000    0.000    0.000    0.000 
#    0.000    0.000    0.000    0.000    0.000    0.000 
#
# Total GULP energy -792921.317316 kJ/mol
# GULP energy per Si atom -12389.395583 kJ/mol
# Density = 2.135176 g / cm^3
# Si number density = 21.400468 Si / 1000 Ang^3
#
#
#
# Elastic Constant Matrix: (Units=GPa)
#
#
# Indices 1 2 3 4 5 6 
#
# 1 83.8758 3.3833 12.8810 0.0000 0.0000 0.0000
# 2 3.3833 60.0380 13.4376 0.0000 0.0000 0.0000
# 3 12.8810 13.4376 76.9622 0.0000 0.0000 0.0000
# 4 0.0000 0.0000 0.0000 42.8199 0.0000 0.0000
# 5 0.0000 0.0000 0.0000 0.0000 8.8433 0.0000
# 6 0.0000 0.0000 0.0000 0.0000 0.0000 14.7343
#
#
#
# Elastic Compliance Matrix: (Units=1/GPa)
#
#
# Indices 1 2 3 4 5 6 
#
# 1 0.012240 -0.000241 -0.002007 0.000000 0.000000 0.000000
# 2 -0.000241 0.017338 -0.002987 0.000000 0.000000 0.000000
# 3 -0.002007 -0.002987 0.013851 0.000000 0.000000 0.000000
# 4 0.000000 0.000000 0.000000 0.023354 0.000000 0.000000
# 5 0.000000 0.000000 0.000000 0.000000 0.113080 0.000000
# 6 0.000000 0.000000 0.000000 0.000000 0.000000 0.067869
#
#
# Mechanical properties :
#
#
# Convention : Reuss Voigt Hill
#
# Bulk Modulus (GPa) = 30.33910 31.14220 30.74065
# Shear Modulus (GPa) = 18.57445 26.02444 22.29944
#
# Velocity S-wave (km/s) = 2.94929 3.49100 3.23152
# Velocity P-wave (km/s) = 5.07990 5.55276 5.32158
#
# Compressibility (1/GPa) = 0.03296076
#
# Stress axis : x y z
#
# Youngs Moduli (GPa) = 81.69768 57.67605 72.19825
#
# Poissons Ratio (x) = 0.01388 0.14487
# Poissons Ratio (y) = 0.01966 0.21565
# Poissons Ratio (z) = 0.16393 0.17228
#
# Static dielectric constant tensor:
#      x y z
#    x 3.619130 0.000000 0.000000 
#    y 0.000000 3.844680 0.000000 
#    z 0.000000 0.000000 4.255690 
# 
# 
# High freq. dielectric constant tensor:
#      x y z
#    x 1.811280 0.000000 0.000000 
#    y 0.000000 1.837340 0.000000 
#    z 0.000000 0.000000 1.845110 
# 
# From -- ./inp_files/19030.got.cif
#   From: 2010.03.12/outbox.cif.g09.slc.cpg/sg53_10_cif.got.tgz:19030.got - 2010.04.16 14:36:59.
