data_PCOD8220945
_publ_section_title
;
Structure prediction by ZEFSAII (Michael W. Deem and Ramdas Pophale) SiO2 
 PCOD8220945
Probable space group: P M N A
;
_chemical_formula_sum "Si O2"
_cell_formula_units_Z 28
_cell_length_a 25.789513
_cell_length_b 8.584077
_cell_length_c 5.628101
_cell_angle_alpha 90.000000
_cell_angle_beta 90.000000
_cell_angle_gamma 90.000000
_cell_volume 1245.944302
_symmetry_space_group_name_H-M "P M N A"
_symmetry_group_IT_number 53
_symmetry_cell_setting 'orthorhombic'
loop_
_space_group_symop_operation_xyz
x,y,z
1/2-x,-y,1/2+z
x,-y,-z
1/2-x,y,1/2-z
-x,-y,-z
1/2+x,y,1/2-z
-x,y,z
1/2+x,-y,1/2+z
loop_
_atom_site_type_symbol
_atom_site_label
_atom_site_fract_x
_atom_site_fract_y
_atom_site_fract_z
Si Si1 0.123764 0.000000 0.500000
Si Si2 0.219515 0.500000 0.000000
Si Si3 0.643958 0.740710 0.322327
Si Si4 0.441176 0.762492 0.698428
Si Si5 0.404689 0.500000 0.000000
O O1 0.159362 0.093640 0.694700
O O2 0.085561 0.122312 0.381390
O O3 0.250000 0.506747 0.750000
O O4 0.186511 0.336912 0.997632
O O5 0.589468 0.769338 0.452262
O O6 0.635813 0.615742 0.118498
O O7 0.500000 0.812873 0.646512
O O8 0.440565 0.588266 0.808391
#
# Coordination Sequence:
#
# PCOD8220945 Si02
#       5
#     4   4   8   8   4
#     4  10  25  40  68  94 150 182 234 282 361 418
#     4  12  27  48  84 106 133 181 248 309 376 440
#     4  11  23  44  69 102 137 181 232 298 357 425
#     4  11  22  38  64 100 143 193 235 280 347 430
#     4  10  20  38  63  96 144 179 234 287 347 406
#
# _framework density 22.472913999999999
#
# number of rings (size 3 to 8) (size 9 to 14) (size 15 to 20)
#    0.000    1.143    2.857    2.571    4.000    9.143 
#    0.000    0.000    6.286    0.000    0.000    0.000 
#    0.000    0.000    0.000    0.000    0.000    0.000 
#
# Total GULP energy -346999.129522 kJ/mol
# GULP energy per Si atom -12392.826054 kJ/mol
# Density = 2.242177 g / cm^3
# Si number density = 22.472914 Si / 1000 Ang^3
#
#
#
# Elastic Constant Matrix: (Units=GPa)
#
#
# Indices 1 2 3 4 5 6 
#
# 1 85.0678 29.2491 35.1701 0.0000 0.0000 0.0000
# 2 29.2491 126.6489 44.7032 0.0000 0.0000 0.0000
# 3 35.1701 44.7032 118.7295 0.0000 0.0000 0.0000
# 4 0.0000 0.0000 0.0000 48.3057 0.0000 0.0000
# 5 0.0000 0.0000 0.0000 0.0000 32.4155 0.0000
# 6 0.0000 0.0000 0.0000 0.0000 0.0000 14.1615
#
#
#
# Elastic Compliance Matrix: (Units=1/GPa)
#
#
# Indices 1 2 3 4 5 6 
#
# 1 0.013828 -0.002016 -0.003337 0.000000 0.000000 0.000000
# 2 -0.002016 0.009400 -0.002942 0.000000 0.000000 0.000000
# 3 -0.003337 -0.002942 0.010519 0.000000 0.000000 0.000000
# 4 0.000000 0.000000 0.000000 0.020701 0.000000 0.000000
# 5 0.000000 0.000000 0.000000 0.000000 0.030849 0.000000
# 6 0.000000 0.000000 0.000000 0.000000 0.000000 0.070614
#
#
# Mechanical properties :
#
#
# Convention : Reuss Voigt Hill
#
# Bulk Modulus (GPa) = 58.28588 60.96566 59.62577
# Shear Modulus (GPa) = 28.05512 33.73146 30.89329
#
# Velocity S-wave (km/s) = 3.53710 3.87845 3.71170
# Velocity P-wave (km/s) = 6.53252 6.87342 6.70514
#
# Compressibility (1/GPa) = 0.01715681
#
# Stress axis : x y z
#
# Youngs Moduli (GPa) = 72.31649 106.38521 95.06789
#
# Poissons Ratio (x) = 0.21443 0.31727
# Poissons Ratio (y) = 0.14576 0.27970
# Poissons Ratio (z) = 0.24134 0.31299
#
# Static dielectric constant tensor:
#      x y z
#    x 3.789840 0.000000 0.000000 
#    y 0.000000 4.750400 0.000000 
#    z 0.000000 0.000000 4.343020 
# 
# 
# High freq. dielectric constant tensor:
#      x y z
#    x 1.845430 0.000000 0.000000 
#    y 0.000000 1.899370 0.000000 
#    z 0.000000 0.000000 1.904850 
# 
# From -- ./inp_files/4161.got.cif
#   From: 2010.03.12/outbox.cif.g09.slc.cpg/sg53_3_cif.got.tgz:4161.got - 2010.04.16 14:36:59.
