data_PCOD8220636
_publ_section_title
;
Structure prediction by ZEFSAII (Michael W. Deem and Ramdas Pophale) SiO2 
 PCOD8220636
Probable space group: P M N A
;
_chemical_formula_sum "Si O2"
_cell_formula_units_Z 40
_cell_length_a 8.827005
_cell_length_b 12.653692
_cell_length_c 18.090665
_cell_angle_alpha 90.000000
_cell_angle_beta 90.000000
_cell_angle_gamma 90.000000
_cell_volume 2020.622401
_symmetry_space_group_name_H-M "P M N A"
_symmetry_group_IT_number 53
_symmetry_cell_setting 'orthorhombic'
loop_
_space_group_symop_operation_xyz
x,y,z
1/2-x,-y,1/2+z
x,-y,-z
1/2-x,y,1/2-z
-x,-y,-z
1/2+x,y,1/2-z
-x,y,z
1/2+x,-y,1/2+z
loop_
_atom_site_type_symbol
_atom_site_label
_atom_site_fract_x
_atom_site_fract_y
_atom_site_fract_z
Si Si1 0.822664 0.592375 0.172345
Si Si2 0.176854 0.182242 0.432986
Si Si3 0.822424 0.008921 0.672665
Si Si4 0.824266 0.196773 0.909927
Si Si5 0.678818 0.625429 0.828484
O O1 0.750000 0.626603 0.250000
O O2 0.790345 0.682540 0.112296
O O3 0.746312 0.485123 0.142391
O O4 0.000000 0.572768 0.184539
O O5 0.272588 0.178527 0.507009
O O6 0.222897 0.285782 0.387377
O O7 0.000000 0.181948 0.453246
O O8 0.222531 0.079104 0.387012
O O9 0.750000 0.976013 0.750000
O O10 0.764817 0.122264 0.646288
O O11 0.000000 0.014789 0.684397
O O12 0.000000 0.169325 0.902651
O O13 0.750000 0.656846 0.750000
O O14 0.500000 0.615487 0.818576
#
# Coordination Sequence:
#
# PCOD8220636 Si02
#       5
#     8   8   8   8   8
#     4  10  21  37  57  83 113 147 189 234 280 330
#     4  10  23  40  58  84 117 151 186 230 284 338
#     4  11  23  40  62  86 114 148 188 233 281 336
#     4  11  24  39  58  85 116 151 190 234 283 335
#     4  10  20  36  59  85 113 148 190 233 280 334
#
# _framework density 19.79588
#
# number of rings (size 3 to 8) (size 9 to 14) (size 15 to 20)
#    0.000    1.600    0.000    5.400    0.000   11.200 
#    0.000    4.000    0.000    0.000    0.000    0.000 
#    0.000    0.000    0.000    0.000    0.000    0.000 
#
# Total GULP energy -496227.214790 kJ/mol
# GULP energy per Si atom -12405.680370 kJ/mol
# Density = 1.975082 g / cm^3
# Si number density = 19.795880 Si / 1000 Ang^3
#
#
#
# Elastic Constant Matrix: (Units=GPa)
#
#
# Indices 1 2 3 4 5 6 
#
# 1 92.3158 42.2742 38.2601 0.0000 0.0000 0.0000
# 2 42.2742 93.0132 30.7207 0.0000 0.0000 0.0000
# 3 38.2601 30.7207 78.8819 0.0000 0.0000 0.0000
# 4 0.0000 0.0000 0.0000 32.8333 0.0000 0.0000
# 5 0.0000 0.0000 0.0000 0.0000 31.4488 0.0000
# 6 0.0000 0.0000 0.0000 0.0000 0.0000 32.0207
#
#
#
# Elastic Compliance Matrix: (Units=1/GPa)
#
#
# Indices 1 2 3 4 5 6 
#
# 1 0.015501 -0.005235 -0.005479 0.000000 0.000000 0.000000
# 2 -0.005235 0.014106 -0.002955 0.000000 0.000000 0.000000
# 3 -0.005479 -0.002955 0.016486 0.000000 0.000000 0.000000
# 4 0.000000 0.000000 0.000000 0.030457 0.000000 0.000000
# 5 0.000000 0.000000 0.000000 0.000000 0.031798 0.000000
# 6 0.000000 0.000000 0.000000 0.000000 0.000000 0.031230
#
#
# Mechanical properties :
#
#
# Convention : Reuss Voigt Hill
#
# Bulk Modulus (GPa) = 53.32133 54.08011 53.70072
# Shear Modulus (GPa) = 28.87389 29.45762 29.16576
#
# Velocity S-wave (km/s) = 3.82328 3.86173 3.84256
# Velocity P-wave (km/s) = 6.81792 6.87475 6.84639
#
# Compressibility (1/GPa) = 0.01875422
#
# Stress axis : x y z
#
# Youngs Moduli (GPa) = 64.51315 70.88980 60.65928
#
# Poissons Ratio (x) = 0.37113 0.33238
# Poissons Ratio (y) = 0.33774 0.17922
# Poissons Ratio (z) = 0.35350 0.20944
#
# Static dielectric constant tensor:
#      x y z
#    x 3.688440 0.000000 0.000000 
#    y 0.000000 3.830910 0.000000 
#    z 0.000000 0.000000 3.553460 
# 
# 
# High freq. dielectric constant tensor:
#      x y z
#    x 1.783490 0.000000 0.000000 
#    y 0.000000 1.787540 0.000000 
#    z 0.000000 0.000000 1.772590 
# 
# From -- ./inp_files/25832.got.cif
#   From: 2010.03.12/outbox.cif.g09.slc.cpg/sg53_13_cif.got.tgz:25832.got - 2010.04.16 14:36:59.
