data_PCOD8220144
_publ_section_title
;
Structure prediction by ZEFSAII (Michael W. Deem and Ramdas Pophale) SiO2 
 PCOD8220144
Probable space group: P M N A
;
_chemical_formula_sum "Si O2"
_cell_formula_units_Z 56
_cell_length_a 15.601441
_cell_length_b 9.546166
_cell_length_c 20.811600
_cell_angle_alpha 90.000000
_cell_angle_beta 90.000000
_cell_angle_gamma 90.000000
_cell_volume 3099.553703
_symmetry_space_group_name_H-M "P M N A"
_symmetry_group_IT_number 53
_symmetry_cell_setting 'orthorhombic'
loop_
_space_group_symop_operation_xyz
x,y,z
1/2-x,-y,1/2+z
x,-y,-z
1/2-x,y,1/2-z
-x,-y,-z
1/2+x,y,1/2-z
-x,y,z
1/2+x,-y,1/2+z
loop_
_atom_site_type_symbol
_atom_site_label
_atom_site_fract_x
_atom_site_fract_y
_atom_site_fract_z
Si Si1 0.755645 0.996257 0.674940
Si Si2 0.275371 0.564732 0.823778
Si Si3 0.678963 0.783886 0.594603
Si Si4 0.742036 0.719428 0.103948
Si Si5 0.404463 0.788479 0.859101
Si Si6 0.596126 0.658307 0.481740
Si Si7 0.342549 0.159632 0.012635
O O1 0.750000 0.982994 0.750000
O O2 0.752641 0.156086 0.654790
O O3 0.672629 0.914631 0.644140
O O4 0.844998 0.923620 0.654075
O O5 0.250000 0.545134 0.750000
O O6 0.203100 0.647282 0.863779
O O7 0.287329 0.415585 0.856943
O O8 0.364656 0.649977 0.826563
O O9 0.598749 0.748692 0.548654
O O10 0.750012 0.834247 0.544595
O O11 0.835570 0.705768 0.071407
O O12 0.665905 0.751485 0.053019
O O13 0.500000 0.810807 0.831541
O O14 0.409126 0.770246 0.937075
O O15 0.618669 0.500000 0.500000
O O16 0.500000 0.673374 0.453551
O O17 0.370127 0.000000 0.000000
#
# Coordination Sequence:
#
# PCOD8220144 Si02
#       7
#     8   8   8   8   8   8   8
#     4  10  20  37  59  80 109 149 193 221 269 337
#     4  10  20  36  56  79 106 149 191 219 265 329
#     4   9  17  32  54  76 104 143 184 220 263 330
#     4  11  19  35  58  84 110 146 184 226 271 343
#     4  10  21  37  57  83 110 141 186 236 276 320
#     4  10  20  34  55  85 116 144 179 236 288 322
#     4   9  16  32  54  79 105 141 172 218 275 329
#
# _framework density 18.067117
#
# number of rings (size 3 to 8) (size 9 to 14) (size 15 to 20)
#    0.000    2.429    4.286    2.143    0.000    0.286 
#    0.000    7.857    0.000    0.000    0.000    0.000 
#    0.000    0.000    0.000    0.000    0.000    0.000 
#
# Total GULP energy -693754.948132 kJ/mol
# GULP energy per Si atom -12388.481217 kJ/mol
# Density = 1.802600 g / cm^3
# Si number density = 18.067117 Si / 1000 Ang^3
#
#
#
# Elastic Constant Matrix: (Units=GPa)
#
#
# Indices 1 2 3 4 5 6 
#
# 1 69.3334 13.0619 10.6883 0.0000 0.0000 0.0000
# 2 13.0619 103.9158 22.0501 0.0000 0.0000 0.0000
# 3 10.6883 22.0501 82.3168 0.0000 0.0000 0.0000
# 4 0.0000 0.0000 0.0000 23.8441 0.0000 0.0000
# 5 0.0000 0.0000 0.0000 0.0000 10.0462 0.0000
# 6 0.0000 0.0000 0.0000 0.0000 0.0000 9.3470
#
#
#
# Elastic Compliance Matrix: (Units=1/GPa)
#
#
# Indices 1 2 3 4 5 6 
#
# 1 0.014951 -0.001556 -0.001525 0.000000 0.000000 0.000000
# 2 -0.001556 0.010365 -0.002574 0.000000 0.000000 0.000000
# 3 -0.001525 -0.002574 0.013036 0.000000 0.000000 0.000000
# 4 0.000000 0.000000 0.000000 0.041939 0.000000 0.000000
# 5 0.000000 0.000000 0.000000 0.000000 0.099540 0.000000
# 6 0.000000 0.000000 0.000000 0.000000 0.000000 0.106987
#
#
# Mechanical properties :
#
#
# Convention : Reuss Voigt Hill
#
# Bulk Modulus (GPa) = 36.97913 38.57410 37.77661
# Shear Modulus (GPa) = 16.27915 22.63184 19.45549
#
# Velocity S-wave (km/s) = 3.00498 3.54312 3.28509
# Velocity P-wave (km/s) = 5.70543 6.17536 5.94504
#
# Compressibility (1/GPa) = 0.02704228
#
# Stress axis : x y z
#
# Youngs Moduli (GPa) = 66.88430 96.47841 76.71203
#
# Poissons Ratio (x) = 0.15010 0.11695
# Poissons Ratio (y) = 0.10406 0.19749
# Poissons Ratio (z) = 0.10197 0.24838
#
# Static dielectric constant tensor:
#      x y z
#    x 3.057120 0.000000 0.000000 
#    y 0.000000 3.447920 0.000000 
#    z 0.000000 0.000000 3.781030 
# 
# 
# High freq. dielectric constant tensor:
#      x y z
#    x 1.655920 0.000000 0.000000 
#    y 0.000000 1.703540 0.000000 
#    z 0.000000 0.000000 1.710400 
# 
# From -- ./inp_files/32767.got.cif
#   From: 2010.03.12/outbox.cif.g09.slc.cpg/sg53_17_cif.got.tgz:32767.got - 2010.04.16 14:36:59.
