data_PCOD8220571
_publ_section_title
;
Structure prediction by ZEFSAII (Michael W. Deem and Ramdas Pophale) SiO2 
 PCOD8220571
Probable space group: P M N A
;
_chemical_formula_sum "Si O2"
_cell_formula_units_Z 48
_cell_length_a 15.279829
_cell_length_b 9.329739
_cell_length_c 17.661889
_cell_angle_alpha 90.000000
_cell_angle_beta 90.000000
_cell_angle_gamma 90.000000
_cell_volume 2517.822670
_symmetry_space_group_name_H-M "P M N A"
_symmetry_group_IT_number 53
_symmetry_cell_setting 'orthorhombic'
loop_
_space_group_symop_operation_xyz
x,y,z
1/2-x,-y,1/2+z
x,-y,-z
1/2-x,y,1/2-z
-x,-y,-z
1/2+x,y,1/2-z
-x,y,z
1/2+x,-y,1/2+z
loop_
_atom_site_type_symbol
_atom_site_label
_atom_site_fract_x
_atom_site_fract_y
_atom_site_fract_z
Si Si1 0.400308 0.836999 0.682630
Si Si2 0.761518 0.667491 0.914681
Si Si3 0.400321 0.162766 0.140676
Si Si4 0.160790 0.858763 0.206864
Si Si5 0.258569 0.661650 0.413097
Si Si6 0.096373 0.168667 0.637061
O O1 0.500000 0.805926 0.657955
O O2 0.336321 0.736073 0.636183
O O3 0.386527 0.805679 0.770942
O O4 0.377765 0.002350 0.664941
O O5 0.667273 0.741980 0.906177
O O6 0.751107 0.503393 0.889614
O O7 0.792395 0.680154 0.001517
O O8 0.500000 0.200405 0.116757
O O9 0.379673 0.997247 0.122475
O O10 0.250000 0.901109 0.250000
O O11 0.173690 0.737037 0.143844
O O12 0.096101 0.801171 0.272236
O O13 0.162929 0.731494 0.407495
O O14 0.000000 0.204069 0.605900
#
# Coordination Sequence:
#
# PCOD8220571 Si02
#       6
#     8   8   8   8   8   8
#     4  10  20  36  58  82 103 133 178 226 269 313
#     4  11  22  38  52  74 114 148 176 217 260 312
#     4   9  19  35  59  85 107 134 173 220 270 316
#     4   9  17  34  57  79 104 136 174 218 268 316
#     4  10  23  36  51  75 109 149 179 210 263 314
#     4   9  18  35  57  83 108 132 171 223 268 315
#
# _framework density 19.064091000000001
#
# number of rings (size 3 to 8) (size 9 to 14) (size 15 to 20)
#    0.000    2.333    0.000    5.000    0.000    8.000 
#    0.000   10.833    0.000    0.000    0.000    0.000 
#    0.000    0.000    0.000    0.000    0.000    0.000 
#
# Total GULP energy -595199.891845 kJ/mol
# GULP energy per Si atom -12399.997747 kJ/mol
# Density = 1.902070 g / cm^3
# Si number density = 19.064091 Si / 1000 Ang^3
#
#
#
# Elastic Constant Matrix: (Units=GPa)
#
#
# Indices 1 2 3 4 5 6 
#
# 1 78.4799 42.7827 20.1449 0.0000 0.0000 0.0000
# 2 42.7827 103.9713 43.7937 0.0000 0.0000 0.0000
# 3 20.1449 43.7937 56.3964 0.0000 0.0000 0.0000
# 4 0.0000 0.0000 0.0000 37.5189 0.0000 0.0000
# 5 0.0000 0.0000 0.0000 0.0000 17.0727 0.0000
# 6 0.0000 0.0000 0.0000 0.0000 0.0000 8.3848
#
#
#
# Elastic Compliance Matrix: (Units=1/GPa)
#
#
# Indices 1 2 3 4 5 6 
#
# 1 0.016459 -0.006385 -0.000921 0.000000 0.000000 0.000000
# 2 -0.006385 0.016770 -0.010742 0.000000 0.000000 0.000000
# 3 -0.000921 -0.010742 0.026402 0.000000 0.000000 0.000000
# 4 0.000000 0.000000 0.000000 0.026653 0.000000 0.000000
# 5 0.000000 0.000000 0.000000 0.000000 0.058573 0.000000
# 6 0.000000 0.000000 0.000000 0.000000 0.000000 0.119263
#
#
# Mechanical properties :
#
#
# Convention : Reuss Voigt Hill
#
# Bulk Modulus (GPa) = 42.48890 50.25449 46.37169
# Shear Modulus (GPa) = 16.23058 21.40371 18.81714
#
# Velocity S-wave (km/s) = 2.92099 3.35434 3.14514
# Velocity P-wave (km/s) = 5.80620 6.43585 6.12912
#
# Compressibility (1/GPa) = 0.02353556
#
# Stress axis : x y z
#
# Youngs Moduli (GPa) = 60.75655 59.63144 37.87597
#
# Poissons Ratio (x) = 0.38072 0.03490
# Poissons Ratio (y) = 0.38791 0.40685
# Poissons Ratio (z) = 0.05598 0.64054
#
# Static dielectric constant tensor:
#      x y z
#    x 3.589560 0.000000 0.000000 
#    y 0.000000 3.409490 0.000000 
#    z 0.000000 0.000000 3.404540 
# 
# 
# High freq. dielectric constant tensor:
#      x y z
#    x 1.742340 0.000000 0.000000 
#    y 0.000000 1.733480 0.000000 
#    z 0.000000 0.000000 1.733980 
# 
# From -- ./inp_files/28250.got.cif
#   From: 2010.03.12/outbox.cif.g09.slc.cpg/sg53_15_cif.got.tgz:28250.got - 2010.04.16 14:36:59.
