data_PCOD8220785
_publ_section_title
;
Structure prediction by ZEFSAII (Michael W. Deem and Ramdas Pophale) SiO2 
 PCOD8220785
Probable space group: P M N A
;
_chemical_formula_sum "Si O2"
_cell_formula_units_Z 56
_cell_length_a 8.913727
_cell_length_b 16.098440
_cell_length_c 19.405789
_cell_angle_alpha 90.000000
_cell_angle_beta 90.000000
_cell_angle_gamma 90.000000
_cell_volume 2784.674431
_symmetry_space_group_name_H-M "P M N A"
_symmetry_group_IT_number 53
_symmetry_cell_setting 'orthorhombic'
loop_
_space_group_symop_operation_xyz
x,y,z
1/2-x,-y,1/2+z
x,-y,-z
1/2-x,y,1/2-z
-x,-y,-z
1/2+x,y,1/2-z
-x,y,z
1/2+x,-y,1/2+z
loop_
_atom_site_type_symbol
_atom_site_label
_atom_site_fract_x
_atom_site_fract_y
_atom_site_fract_z
Si Si1 0.323398 0.993304 0.680368
Si Si2 0.327811 0.239467 0.557023
Si Si3 0.323305 0.637876 0.325505
Si Si4 0.172796 0.666733 0.923080
Si Si5 0.324935 0.806795 0.681016
Si Si6 0.176462 0.501717 0.579619
Si Si7 0.675997 0.929588 0.053973
O O1 0.250000 0.025885 0.750000
O O2 0.500000 0.999355 0.686531
O O3 0.267470 0.899705 0.663936
O O4 0.266468 0.055503 0.623138
O O5 0.500000 0.209288 0.551845
O O6 0.291328 0.276017 0.633071
O O7 0.299117 0.314934 0.503732
O O8 0.222019 0.163655 0.533059
O O9 0.250000 0.642931 0.250000
O O10 0.500000 0.623241 0.316692
O O11 0.257890 0.563026 0.370717
O O12 0.220148 0.749430 0.882472
O O13 0.278118 0.593474 0.894899
O O14 0.000000 0.642738 0.909131
O O15 0.250000 0.771614 0.750000
O O16 0.500000 0.808243 0.694694
O O17 0.231396 0.500000 0.500000
O O18 0.000000 0.486601 0.585762
O O19 0.500000 0.934754 0.066927
O O20 0.727455 0.000000 0.000000
#
# Coordination Sequence:
#
# PCOD8220785 Si02
#       7
#     8   8   8   8   8   8   8
#     4  10  20  37  60  83 114 154 198 246 300 361
#     4  10  22  40  63  88 116 158 205 252 307 363
#     4  11  24  43  67  93 124 161 205 255 309 367
#     4  10  20  37  61  87 117 155 201 244 295 357
#     4   9  19  34  55  83 115 151 191 241 294 351
#     4  11  23  39  62  91 123 159 201 247 300 358
#     4  11  24  39  58  88 124 160 203 254 306 360
#
# _framework density 20.110071999999999
#
# number of rings (size 3 to 8) (size 9 to 14) (size 15 to 20)
#    0.000    1.714    1.429    2.571    0.000    6.857 
#    0.000    2.857    0.000    0.000    0.000    0.000 
#    0.000    0.000    0.000    0.000    0.000    0.000 
#
# Total GULP energy -694446.274843 kJ/mol
# GULP energy per Si atom -12400.826336 kJ/mol
# Density = 2.006430 g / cm^3
# Si number density = 20.110072 Si / 1000 Ang^3
#
#
#
# Elastic Constant Matrix: (Units=GPa)
#
#
# Indices 1 2 3 4 5 6 
#
# 1 73.8179 37.2180 40.6689 0.0000 0.0000 0.0000
# 2 37.2180 87.9780 33.4178 0.0000 0.0000 0.0000
# 3 40.6689 33.4178 102.0094 0.0000 0.0000 0.0000
# 4 0.0000 0.0000 0.0000 29.7027 0.0000 0.0000
# 5 0.0000 0.0000 0.0000 0.0000 34.3377 0.0000
# 6 0.0000 0.0000 0.0000 0.0000 0.0000 33.0234
#
#
#
# Elastic Compliance Matrix: (Units=1/GPa)
#
#
# Indices 1 2 3 4 5 6 
#
# 1 0.019924 -0.006180 -0.005918 0.000000 0.000000 0.000000
# 2 -0.006180 0.014899 -0.002417 0.000000 0.000000 0.000000
# 3 -0.005918 -0.002417 0.012954 0.000000 0.000000 0.000000
# 4 0.000000 0.000000 0.000000 0.033667 0.000000 0.000000
# 5 0.000000 0.000000 0.000000 0.000000 0.029122 0.000000
# 6 0.000000 0.000000 0.000000 0.000000 0.000000 0.030282
#
#
# Mechanical properties :
#
#
# Convention : Reuss Voigt Hill
#
# Bulk Modulus (GPa) = 53.34587 54.04609 53.69598
# Shear Modulus (GPa) = 28.38846 29.57947 28.98397
#
# Velocity S-wave (km/s) = 3.76127 3.83936 3.80052
# Velocity P-wave (km/s) = 6.74147 6.82552 6.78363
#
# Compressibility (1/GPa) = 0.01874560
#
# Stress axis : x y z
#
# Youngs Moduli (GPa) = 50.19177 67.11841 77.19427
#
# Poissons Ratio (x) = 0.41482 0.45687
# Poissons Ratio (y) = 0.31020 0.18657
# Poissons Ratio (z) = 0.29706 0.16222
#
# Static dielectric constant tensor:
#      x y z
#    x 3.586600 0.000000 0.000000 
#    y 0.000000 3.647010 0.000000 
#    z 0.000000 0.000000 3.619870 
# 
# 
# High freq. dielectric constant tensor:
#      x y z
#    x 1.783520 0.000000 0.000000 
#    y 0.000000 1.787600 0.000000 
#    z 0.000000 0.000000 1.787390 
# 
# From -- ./inp_files/30726.got.cif
#   From: 2010.03.12/outbox.cif.g09.slc.cpg/sg53_16_cif.got.tgz:30726.got - 2010.04.16 14:36:59.
