data_PCOD8220019
_publ_section_title
;
Structure prediction by ZEFSAII (Michael W. Deem and Ramdas Pophale) SiO2 
 PCOD8220019
Probable space group: P M N A
;
_chemical_formula_sum "Si O2"
_cell_formula_units_Z 48
_cell_length_a 9.040873
_cell_length_b 18.245089
_cell_length_c 15.507418
_cell_angle_alpha 90.000000
_cell_angle_beta 90.000000
_cell_angle_gamma 90.000000
_cell_volume 2557.972365
_symmetry_space_group_name_H-M "P M N A"
_symmetry_group_IT_number 53
_symmetry_cell_setting 'orthorhombic'
loop_
_space_group_symop_operation_xyz
x,y,z
1/2-x,-y,1/2+z
x,-y,-z
1/2-x,y,1/2-z
-x,-y,-z
1/2+x,y,1/2-z
-x,y,z
1/2+x,-y,1/2+z
loop_
_atom_site_type_symbol
_atom_site_label
_atom_site_fract_x
_atom_site_fract_y
_atom_site_fract_z
Si Si1 0.673789 0.594784 0.836321
Si Si2 0.174562 0.323405 0.508268
Si Si3 0.173512 0.092121 0.166178
Si Si4 0.326300 0.830323 0.488506
Si Si5 0.826750 0.572254 0.336057
Si Si6 0.666299 0.960269 0.090901
O O1 0.750000 0.625848 0.750000
O O2 0.500000 0.599868 0.823004
O O3 0.723652 0.511198 0.853856
O O4 0.725183 0.643420 0.916910
O O5 0.263793 0.250015 0.525535
O O6 0.221886 0.380219 0.582143
O O7 0.000000 0.307469 0.509720
O O8 0.250000 0.128683 0.250000
O O9 0.000000 0.084499 0.180949
O O10 0.241643 0.010959 0.155890
O O11 0.211001 0.143543 0.085253
O O12 0.500000 0.832089 0.470708
O O13 0.248285 0.882609 0.418553
O O14 0.750000 0.603353 0.250000
O O15 0.000000 0.577044 0.320931
O O16 0.500000 0.947954 0.126254
O O17 0.661663 0.000000 0.000000
#
# Coordination Sequence:
#
# PCOD8220019 Si02
#       6
#     8   8   8   8   8   8
#     4   9  18  33  53  77 105 137 175 219 265 316
#     4  10  20  34  53  76 105 142 179 215 263 322
#     4  10  20  34  53  77 104 134 169 210 255 304
#     4  10  21  35  51  74 105 137 170 211 257 306
#     4   9  18  34  55  77 101 133 175 222 269 316
#     4   9  17  32  54  75  96 126 164 203 245 296
#
# _framework density 18.764862999999998
#
# number of rings (size 3 to 8) (size 9 to 14) (size 15 to 20)
#    0.000    2.500    0.000    2.000    0.000    8.000 
#    0.000    4.167    0.000    7.000    0.000    0.000 
#    0.000    0.000    0.000    0.000    0.000    0.000 
#
# Total GULP energy -595276.433768 kJ/mol
# GULP energy per Si atom -12401.592370 kJ/mol
# Density = 1.872215 g / cm^3
# Si number density = 18.764863 Si / 1000 Ang^3
#
#
#
# Elastic Constant Matrix: (Units=GPa)
#
#
# Indices 1 2 3 4 5 6 
#
# 1 57.2750 18.4775 10.1009 0.0000 0.0000 0.0000
# 2 18.4775 74.3962 6.9352 0.0000 0.0000 0.0000
# 3 10.1009 6.9352 49.8286 0.0000 0.0000 0.0000
# 4 0.0000 0.0000 0.0000 16.2197 0.0000 0.0000
# 5 0.0000 0.0000 0.0000 0.0000 32.6782 0.0000
# 6 0.0000 0.0000 0.0000 0.0000 0.0000 28.2961
#
#
#
# Elastic Compliance Matrix: (Units=1/GPa)
#
#
# Indices 1 2 3 4 5 6 
#
# 1 0.019509 -0.004536 -0.003323 0.000000 0.000000 0.000000
# 2 -0.004536 0.014673 -0.001123 0.000000 0.000000 0.000000
# 3 -0.003323 -0.001123 0.020899 0.000000 0.000000 0.000000
# 4 0.000000 0.000000 0.000000 0.061654 0.000000 0.000000
# 5 0.000000 0.000000 0.000000 0.000000 0.030601 0.000000
# 6 0.000000 0.000000 0.000000 0.000000 0.000000 0.035341
#
#
# Mechanical properties :
#
#
# Convention : Reuss Voigt Hill
#
# Bulk Modulus (GPa) = 26.94191 28.05856 27.50024
# Shear Modulus (GPa) = 23.47288 25.17120 24.32204
#
# Velocity S-wave (km/s) = 3.54064 3.66649 3.60411
# Velocity P-wave (km/s) = 5.57706 5.73667 5.65743
#
# Compressibility (1/GPa) = 0.03711689
#
# Stress axis : x y z
#
# Youngs Moduli (GPa) = 51.25849 68.15385 47.84968
#
# Poissons Ratio (x) = 0.30911 0.15903
# Poissons Ratio (y) = 0.23249 0.05372
# Poissons Ratio (z) = 0.17036 0.07652
#
# Static dielectric constant tensor:
#      x y z
#    x 3.467150 0.000000 0.000000 
#    y 0.000000 3.375840 0.000000 
#    z 0.000000 0.000000 3.489820 
# 
# 
# High freq. dielectric constant tensor:
#      x y z
#    x 1.730530 0.000000 0.000000 
#    y 0.000000 1.719360 0.000000 
#    z 0.000000 0.000000 1.724030 
# 
# From -- ./inp_files/20193.got.cif
#   From: 2010.03.12/outbox.cif.g09.slc.cpg/sg53_11_cif.got.tgz:20193.got - 2010.04.16 14:36:59.
