data_PCOD8220977
_publ_section_title
;
Structure prediction by ZEFSAII (Michael W. Deem and Ramdas Pophale) SiO2 
 PCOD8220977
Probable space group: P M N A
;
_chemical_formula_sum "Si O2"
_cell_formula_units_Z 48
_cell_length_a 8.709245
_cell_length_b 14.446603
_cell_length_c 20.515674
_cell_angle_alpha 90.000000
_cell_angle_beta 90.000000
_cell_angle_gamma 90.000000
_cell_volume 2581.261688
_symmetry_space_group_name_H-M "P M N A"
_symmetry_group_IT_number 53
_symmetry_cell_setting 'orthorhombic'
loop_
_space_group_symop_operation_xyz
x,y,z
1/2-x,-y,1/2+z
x,-y,-z
1/2-x,y,1/2-z
-x,-y,-z
1/2+x,y,1/2-z
-x,y,z
1/2+x,-y,1/2+z
loop_
_atom_site_type_symbol
_atom_site_label
_atom_site_fract_x
_atom_site_fract_y
_atom_site_fract_z
Si Si1 0.181120 0.254398 0.372375
Si Si2 0.180678 0.444754 0.938732
Si Si3 0.819981 0.064674 0.560847
Si Si4 0.679499 0.753042 0.486473
Si Si5 0.681021 0.941727 0.818645
Si Si6 0.181614 0.560530 0.818470
O O1 0.222249 0.249372 0.448067
O O2 0.238489 0.160330 0.338150
O O3 0.267973 0.336247 0.336192
O O4 0.000000 0.268305 0.365177
O O5 0.246854 0.488479 0.872172
O O6 0.000000 0.461154 0.939059
O O7 0.253204 0.500000 0.000000
O O8 0.222351 0.336738 0.943411
O O9 0.723844 0.158732 0.556500
O O10 0.000000 0.088049 0.561417
O O11 0.778694 0.000000 0.500000
O O12 0.764883 0.014130 0.626490
O O13 0.500000 0.753679 0.504568
O O14 0.750000 0.973094 0.750000
O O15 0.500000 0.942451 0.813679
O O16 0.250000 0.528682 0.750000
O O17 0.000000 0.558321 0.813937
#
# Coordination Sequence:
#
# PCOD8220977 Si02
#       6
#     8   8   8   8   8   8
#     4  11  21  36  57  85 118 152 185 230 289 344
#     4   9  18  36  58  80 112 150 185 229 283 330
#     4  10  20  39  59  79 114 153 186 230 286 339
#     4  11  21  35  59  89 113 144 192 241 281 330
#     4  10  22  38  57  80 113 152 184 226 283 337
#     4  11  22  38  58  83 116 152 189 233 286 342
#
# _framework density 18.595556999999999
#
# number of rings (size 3 to 8) (size 9 to 14) (size 15 to 20)
#    0.000    1.667    3.333    2.000    0.000    3.667 
#    0.000    5.000    0.000    4.000    0.000    0.000 
#    0.000    0.000    0.000    0.000    0.000    0.000 
#
# Total GULP energy -595342.933478 kJ/mol
# GULP energy per Si atom -12402.977781 kJ/mol
# Density = 1.855323 g / cm^3
# Si number density = 18.595557 Si / 1000 Ang^3
#
#
#
# Elastic Constant Matrix: (Units=GPa)
#
#
# Indices 1 2 3 4 5 6 
#
# 1 38.9851 26.9290 26.7333 0.0000 0.0000 0.0000
# 2 26.9290 129.0570 70.7419 0.0000 0.0000 0.0000
# 3 26.7333 70.7419 165.2469 0.0000 0.0000 0.0000
# 4 0.0000 0.0000 0.0000 15.4412 0.0000 0.0000
# 5 0.0000 0.0000 0.0000 0.0000 29.8269 0.0000
# 6 0.0000 0.0000 0.0000 0.0000 0.0000 18.3346
#
#
#
# Elastic Compliance Matrix: (Units=1/GPa)
#
#
# Indices 1 2 3 4 5 6 
#
# 1 0.031024 -0.004864 -0.002937 0.000000 0.000000 0.000000
# 2 -0.004864 0.010887 -0.003874 0.000000 0.000000 0.000000
# 3 -0.002937 -0.003874 0.008185 0.000000 0.000000 0.000000
# 4 0.000000 0.000000 0.000000 0.064762 0.000000 0.000000
# 5 0.000000 0.000000 0.000000 0.000000 0.033527 0.000000
# 6 0.000000 0.000000 0.000000 0.000000 0.000000 0.054542
#
#
# Mechanical properties :
#
#
# Convention : Reuss Voigt Hill
#
# Bulk Modulus (GPa) = 37.38681 64.67749 51.03215
# Shear Modulus (GPa) = 21.25931 26.64618 23.95275
#
# Velocity S-wave (km/s) = 3.38486 3.78952 3.59289
# Velocity P-wave (km/s) = 5.95191 7.34874 6.68690
#
# Compressibility (1/GPa) = 0.02674740
#
# Stress axis : x y z
#
# Youngs Moduli (GPa) = 32.23278 91.85485 122.17424
#
# Poissons Ratio (x) = 0.44675 0.35882
# Poissons Ratio (y) = 0.15677 0.47327
# Poissons Ratio (z) = 0.09467 0.35582
#
# Static dielectric constant tensor:
#      x y z
#    x 3.240460 0.000000 0.000000 
#    y 0.000000 3.605130 0.000000 
#    z 0.000000 0.000000 3.624830 
# 
# 
# High freq. dielectric constant tensor:
#      x y z
#    x 1.709370 0.000000 0.000000 
#    y 0.000000 1.724850 0.000000 
#    z 0.000000 0.000000 1.724730 
# 
# From -- ./inp_files/30518.got.cif
#   From: 2010.03.12/outbox.cif.g09.slc.cpg/sg53_16_cif.got.tgz:30518.got - 2010.04.16 14:36:59.
