data_PCOD8220345
_publ_section_title
;
Structure prediction by ZEFSAII (Michael W. Deem and Ramdas Pophale) SiO2 
 PCOD8220345
Probable space group: P M N A
;
_chemical_formula_sum "Si O2"
_cell_formula_units_Z 40
_cell_length_a 20.498380
_cell_length_b 12.134063
_cell_length_c 7.620435
_cell_angle_alpha 90.000000
_cell_angle_beta 90.000000
_cell_angle_gamma 90.000000
_cell_volume 1895.420390
_symmetry_space_group_name_H-M "P M N A"
_symmetry_group_IT_number 53
_symmetry_cell_setting 'orthorhombic'
loop_
_space_group_symop_operation_xyz
x,y,z
1/2-x,-y,1/2+z
x,-y,-z
1/2-x,y,1/2-z
-x,-y,-z
1/2+x,y,1/2-z
-x,y,z
1/2+x,-y,1/2+z
loop_
_atom_site_type_symbol
_atom_site_label
_atom_site_fract_x
_atom_site_fract_y
_atom_site_fract_z
Si Si1 0.112825 0.624970 0.540757
Si Si2 0.192207 0.912844 0.140969
Si Si3 0.254959 0.703332 0.552591
Si Si4 0.071682 0.217300 0.756546
Si Si5 0.391083 0.618974 0.556309
O O1 0.093879 0.500000 0.500000
O O2 0.188845 0.643432 0.494637
O O3 0.073080 0.705579 0.414633
O O4 0.092889 0.649283 0.741888
O O5 0.250000 0.973206 0.250000
O O6 0.128358 0.875437 0.251491
O O7 0.229932 0.807750 0.065731
O O8 0.165917 0.000000 0.000000
O O9 0.250000 0.747317 0.750000
O O10 0.312951 0.615058 0.531610
O O11 0.000000 0.160877 0.759066
O O12 0.077854 0.287717 0.934853
O O13 0.419213 0.500000 0.500000
#
# Coordination Sequence:
#
# PCOD8220345 Si02
#       5
#     8   8   8   8   8
#     4  11  20  36  61  91 127 174 212 259 318 386
#     4  11  22  41  70  94 121 160 213 273 333 384
#     4   9  19  34  58  92 125 154 208 270 325 372
#     4  11  25  42  61  91 130 171 213 262 319 382
#     4  10  20  35  56  90 125 170 214 261 309 379
#
# _framework density 21.103497000000001
#
# number of rings (size 3 to 8) (size 9 to 14) (size 15 to 20)
#    0.000    1.600    4.000    1.200    0.000    2.000 
#    0.000    0.000    0.000    0.600    0.000    0.000 
#    0.000    0.000    0.000    0.000    0.000    0.000 
#
# Total GULP energy -495918.190552 kJ/mol
# GULP energy per Si atom -12397.954764 kJ/mol
# Density = 2.105546 g / cm^3
# Si number density = 21.103497 Si / 1000 Ang^3
#
#
#
# Elastic Constant Matrix: (Units=GPa)
#
#
# Indices 1 2 3 4 5 6 
#
# 1 135.2108 19.3324 32.9434 0.0000 0.0000 0.0000
# 2 19.3324 62.5432 25.5037 0.0000 0.0000 0.0000
# 3 32.9434 25.5037 113.3361 0.0000 0.0000 0.0000
# 4 0.0000 0.0000 0.0000 32.7892 0.0000 0.0000
# 5 0.0000 0.0000 0.0000 0.0000 10.7665 0.0000
# 6 0.0000 0.0000 0.0000 0.0000 0.0000 33.0210
#
#
#
# Elastic Compliance Matrix: (Units=1/GPa)
#
#
# Indices 1 2 3 4 5 6 
#
# 1 0.008121 -0.001704 -0.001977 0.000000 0.000000 0.000000
# 2 -0.001704 0.017962 -0.003547 0.000000 0.000000 0.000000
# 3 -0.001977 -0.003547 0.010196 0.000000 0.000000 0.000000
# 4 0.000000 0.000000 0.000000 0.030498 0.000000 0.000000
# 5 0.000000 0.000000 0.000000 0.000000 0.092881 0.000000
# 6 0.000000 0.000000 0.000000 0.000000 0.000000 0.030284
#
#
# Mechanical properties :
#
#
# Convention : Reuss Voigt Hill
#
# Bulk Modulus (GPa) = 45.82193 51.84990 48.83591
# Shear Modulus (GPa) = 23.62146 30.86936 27.24541
#
# Velocity S-wave (km/s) = 3.34925 3.82875 3.59700
# Velocity P-wave (km/s) = 6.05943 6.64594 6.35945
#
# Compressibility (1/GPa) = 0.02182361
#
# Stress axis : x y z
#
# Youngs Moduli (GPa) = 123.13410 55.67338 98.07686
#
# Poissons Ratio (x) = 0.09487 0.19391
# Poissons Ratio (y) = 0.20983 0.34784
# Poissons Ratio (z) = 0.24345 0.19745
#
# Static dielectric constant tensor:
#      x y z
#    x 3.823460 0.000000 0.000000 
#    y 0.000000 3.449070 0.000000 
#    z 0.000000 0.000000 3.985200 
# 
# 
# High freq. dielectric constant tensor:
#      x y z
#    x 1.824450 0.000000 0.000000 
#    y 0.000000 1.796830 0.000000 
#    z 0.000000 0.000000 1.836970 
# 
# From -- ./inp_files/10749.got.cif
#   From: 2010.03.12/outbox.cif.g09.slc.cpg/sg53_6_cif.got.tgz:10749.got - 2010.04.16 14:36:59.
