data_PCOD8220756
_publ_section_title
;
Structure prediction by ZEFSAII (Michael W. Deem and Ramdas Pophale) SiO2 
 PCOD8220756
Probable space group: P M N A
;
_chemical_formula_sum "Si O2"
_cell_formula_units_Z 44
_cell_length_a 28.917225
_cell_length_b 5.014691
_cell_length_c 15.469651
_cell_angle_alpha 90.000000
_cell_angle_beta 90.000000
_cell_angle_gamma 90.000000
_cell_volume 2243.268756
_symmetry_space_group_name_H-M "P M N A"
_symmetry_group_IT_number 53
_symmetry_cell_setting 'orthorhombic'
loop_
_space_group_symop_operation_xyz
x,y,z
1/2-x,-y,1/2+z
x,-y,-z
1/2-x,y,1/2-z
-x,-y,-z
1/2+x,y,1/2-z
-x,y,z
1/2+x,-y,1/2+z
loop_
_atom_site_type_symbol
_atom_site_label
_atom_site_fract_x
_atom_site_fract_y
_atom_site_fract_z
Si Si1 0.413567 0.111150 0.671081
Si Si2 0.184241 0.108671 0.905591
Si Si3 0.105651 0.611067 0.727075
Si Si4 0.500000 0.246394 0.560663
Si Si5 0.204808 0.615540 0.802317
Si Si6 0.551884 0.244784 0.058765
O O1 0.370844 0.106909 0.605344
O O2 0.407617 0.305644 0.753642
O O3 0.455833 0.235040 0.620695
O O4 0.420059 0.810492 0.705584
O O5 0.200057 0.409292 0.882868
O O6 0.209986 0.911900 0.839487
O O7 0.197288 0.000000 0.000000
O O8 0.161117 0.622651 0.737149
O O9 0.089683 0.699480 0.632410
O O10 0.500000 0.500000 0.500000
O O11 0.500000 0.000000 0.500000
O O12 0.250000 0.534457 0.750000
O O13 0.500000 0.185682 0.096660
O O14 0.549037 0.500000 0.000000
O O15 0.569269 0.000000 0.000000
#
# Coordination Sequence:
#
# PCOD8220756 Si02
#       6
#     8   8   8   4   8   8
#     4  10  22  35  56  82 111 152 186 228 272 331
#     4  10  20  37  59  83 112 149 190 229 280 341
#     4  10  21  38  58  81 110 150 190 228 287 344
#     4  12  24  36  52  82 118 148 184 230 278 318
#     4  10  21  38  59  84 114 146 188 240 286 339
#     4  10  21  36  56  82 110 145 185 235 284 330
#
# _framework density 19.614232000000001
#
# number of rings (size 3 to 8) (size 9 to 14) (size 15 to 20)
#    0.000    1.818    0.000    3.818    2.545    2.909 
#    0.000    2.727    0.000    0.000    0.000    0.000 
#    0.000    0.000    0.000    0.000    0.000    0.000 
#
# Total GULP energy -545460.356844 kJ/mol
# GULP energy per Si atom -12396.826292 kJ/mol
# Density = 1.956959 g / cm^3
# Si number density = 19.614232 Si / 1000 Ang^3
#
#
#
# Elastic Constant Matrix: (Units=GPa)
#
#
# Indices 1 2 3 4 5 6 
#
# 1 87.9476 23.8292 57.9721 0.0000 0.0000 0.0000
# 2 23.8292 101.9652 20.5428 0.0000 0.0000 0.0000
# 3 57.9721 20.5428 95.5148 0.0000 0.0000 0.0000
# 4 0.0000 0.0000 0.0000 36.7738 0.0000 0.0000
# 5 0.0000 0.0000 0.0000 0.0000 15.4513 0.0000
# 6 0.0000 0.0000 0.0000 0.0000 0.0000 15.4949
#
#
#
# Elastic Compliance Matrix: (Units=1/GPa)
#
#
# Indices 1 2 3 4 5 6 
#
# 1 0.019441 -0.002264 -0.011312 0.000000 0.000000 0.000000
# 2 -0.002264 0.010515 -0.000887 0.000000 0.000000 0.000000
# 3 -0.011312 -0.000887 0.017526 0.000000 0.000000 0.000000
# 4 0.000000 0.000000 0.000000 0.027193 0.000000 0.000000
# 5 0.000000 0.000000 0.000000 0.000000 0.064719 0.000000
# 6 0.000000 0.000000 0.000000 0.000000 0.000000 0.064537
#
#
# Mechanical properties :
#
#
# Convention : Reuss Voigt Hill
#
# Bulk Modulus (GPa) = 53.89549 54.45731 54.17640
# Shear Modulus (GPa) = 20.91660 25.74957 23.33308
#
# Velocity S-wave (km/s) = 3.26912 3.62719 3.45280
# Velocity P-wave (km/s) = 6.46428 6.73546 6.60126
#
# Compressibility (1/GPa) = 0.01855443
#
# Stress axis : x y z
#
# Youngs Moduli (GPa) = 51.43867 95.10067 57.05674
#
# Poissons Ratio (x) = 0.21532 0.64545
# Poissons Ratio (y) = 0.11647 0.05063
# Poissons Ratio (z) = 0.58189 0.08438
#
# Static dielectric constant tensor:
#      x y z
#    x 3.411900 0.000000 0.000000 
#    y 0.000000 3.856960 0.000000 
#    z 0.000000 0.000000 3.308730 
# 
# 
# High freq. dielectric constant tensor:
#      x y z
#    x 1.748530 0.000000 0.000000 
#    y 0.000000 1.790850 0.000000 
#    z 0.000000 0.000000 1.751590 
# 
# From -- ./inp_files/24854.got.cif
#   From: 2010.03.12/outbox.cif.g09.slc.cpg/sg53_13_cif.got.tgz:24854.got - 2010.04.16 14:36:59.
