data_PCOD8220573
_publ_section_title
;
Structure prediction by ZEFSAII (Michael W. Deem and Ramdas Pophale) SiO2 
 PCOD8220573
Probable space group: P M N A
;
_chemical_formula_sum "Si O2"
_cell_formula_units_Z 48
_cell_length_a 8.873101
_cell_length_b 12.562204
_cell_length_c 23.388176
_cell_angle_alpha 90.000000
_cell_angle_beta 90.000000
_cell_angle_gamma 90.000000
_cell_volume 2606.979524
_symmetry_space_group_name_H-M "P M N A"
_symmetry_group_IT_number 53
_symmetry_cell_setting 'orthorhombic'
loop_
_space_group_symop_operation_xyz
x,y,z
1/2-x,-y,1/2+z
x,-y,-z
1/2-x,y,1/2-z
-x,-y,-z
1/2+x,y,1/2-z
-x,y,z
1/2+x,-y,1/2+z
loop_
_atom_site_type_symbol
_atom_site_label
_atom_site_fract_x
_atom_site_fract_y
_atom_site_fract_z
Si Si1 0.821315 0.497820 0.190054
Si Si2 0.823967 0.126717 0.809214
Si Si3 0.322165 0.116129 0.310340
Si Si4 0.677240 0.309825 0.608414
Si Si5 0.321454 0.697120 0.871961
Si Si6 0.677380 0.619837 0.996532
O O1 0.750000 0.532972 0.250000
O O2 0.773651 0.585861 0.143630
O O3 0.753333 0.385224 0.171677
O O4 0.000000 0.488384 0.196431
O O5 0.750000 0.161437 0.750000
O O6 0.764560 0.204378 0.858959
O O7 0.000000 0.142197 0.800288
O O8 0.783215 0.005807 0.825742
O O9 0.250000 0.148338 0.250000
O O10 0.500000 0.136857 0.307794
O O11 0.245045 0.186549 0.359294
O O12 0.500000 0.306583 0.599716
O O13 0.752686 0.309054 0.546481
O O14 0.500000 0.694935 0.863373
O O15 0.274049 0.669885 0.936429
O O16 0.500000 0.619161 0.004827
O O17 0.742085 0.500000 0.000000
#
# Coordination Sequence:
#
# PCOD8220573 Si02
#       6
#     8   8   8   8   8   8
#     4  11  22  34  52  80 111 141 175 218 270 325
#     4   9  19  36  57  83 112 144 180 222 271 323
#     4  10  20  36  58  82 111 144 181 223 271 323
#     4  10  21  36  56  82 110 141 181 223 268 323
#     4  11  22  37  56  78 108 142 182 226 270 322
#     4  10  21  38  57  78 106 145 186 225 272 320
#
# _framework density 18.412112
#
# number of rings (size 3 to 8) (size 9 to 14) (size 15 to 20)
#    0.000    1.833    1.667    2.500    0.000    3.667 
#    0.000    0.833    0.000    5.000    0.000    0.000 
#    0.000    0.000    0.000    0.000    0.000    0.000 
#
# Total GULP energy -595428.716032 kJ/mol
# GULP energy per Si atom -12404.764917 kJ/mol
# Density = 1.837021 g / cm^3
# Si number density = 18.412112 Si / 1000 Ang^3
#
#
#
# Elastic Constant Matrix: (Units=GPa)
#
#
# Indices 1 2 3 4 5 6 
#
# 1 55.0853 32.7096 42.8955 0.0000 0.0000 0.0000
# 2 32.7096 108.5799 60.4275 0.0000 0.0000 0.0000
# 3 42.8955 60.4275 125.4676 0.0000 0.0000 0.0000
# 4 0.0000 0.0000 0.0000 45.0033 0.0000 0.0000
# 5 0.0000 0.0000 0.0000 0.0000 36.0064 0.0000
# 6 0.0000 0.0000 0.0000 0.0000 0.0000 18.3152
#
#
#
# Elastic Compliance Matrix: (Units=1/GPa)
#
#
# Indices 1 2 3 4 5 6 
#
# 1 0.025912 -0.003929 -0.006967 0.000000 0.000000 0.000000
# 2 -0.003929 0.013178 -0.005004 0.000000 0.000000 0.000000
# 3 -0.006967 -0.005004 0.012762 0.000000 0.000000 0.000000
# 4 0.000000 0.000000 0.000000 0.022221 0.000000 0.000000
# 5 0.000000 0.000000 0.000000 0.000000 0.027773 0.000000
# 6 0.000000 0.000000 0.000000 0.000000 0.000000 0.054599
#
#
# Mechanical properties :
#
#
# Convention : Reuss Voigt Hill
#
# Bulk Modulus (GPa) = 49.86677 62.35533 56.11105
# Shear Modulus (GPa) = 25.65072 30.07167 27.86120
#
# Velocity S-wave (km/s) = 3.73653 4.04574 3.89421
# Velocity P-wave (km/s) = 6.76447 7.46753 7.12468
#
# Compressibility (1/GPa) = 0.02005344
#
# Stress axis : x y z
#
# Youngs Moduli (GPa) = 38.59287 75.88433 78.35896
#
# Poissons Ratio (x) = 0.29813 0.54590
# Poissons Ratio (y) = 0.15162 0.39208
# Poissons Ratio (z) = 0.26886 0.37969
#
# Static dielectric constant tensor:
#      x y z
#    x 3.344380 0.000000 0.000000 
#    y 0.000000 3.514330 0.000000 
#    z 0.000000 0.000000 3.382980 
# 
# 
# High freq. dielectric constant tensor:
#      x y z
#    x 1.717000 0.000000 0.000000 
#    y 0.000000 1.716790 0.000000 
#    z 0.000000 0.000000 1.713430 
# 
# From -- ./inp_files/33860.got.cif
#   From: 2010.03.12/outbox.cif.g09.slc.cpg/sg53_17_cif.got.tgz:33860.got - 2010.04.16 14:36:59.
