data_PCOD8220892
_publ_section_title
;
Structure prediction by ZEFSAII (Michael W. Deem and Ramdas Pophale) SiO2 
 PCOD8220892
Probable space group: P M N A
;
_chemical_formula_sum "Si O2"
_cell_formula_units_Z 64
_cell_length_a 30.089983
_cell_length_b 8.798537
_cell_length_c 11.676960
_cell_angle_alpha 90.000000
_cell_angle_beta 90.000000
_cell_angle_gamma 90.000000
_cell_volume 3091.449806
_symmetry_space_group_name_H-M "P M N A"
_symmetry_group_IT_number 53
_symmetry_cell_setting 'orthorhombic'
loop_
_space_group_symop_operation_xyz
x,y,z
1/2-x,-y,1/2+z
x,-y,-z
1/2-x,y,1/2-z
-x,-y,-z
1/2+x,y,1/2-z
-x,y,z
1/2+x,-y,1/2+z
loop_
_atom_site_type_symbol
_atom_site_label
_atom_site_fract_x
_atom_site_fract_y
_atom_site_fract_z
Si Si1 0.667394 0.324189 0.413608
Si Si2 0.728950 0.336032 0.037584
Si Si3 0.949824 0.662107 0.513837
Si Si4 0.866446 0.348595 0.845429
Si Si5 0.449382 0.204411 0.763236
Si Si6 0.180752 0.871084 0.706282
Si Si7 0.087982 0.932737 0.621249
Si Si8 0.293003 0.198265 0.806406
O O1 0.718650 0.353420 0.444611
O O2 0.644106 0.472091 0.356835
O O3 0.643548 0.273993 0.531184
O O4 0.661865 0.183549 0.328216
O O5 0.707887 0.271702 0.154593
O O6 0.709567 0.500000 0.000000
O O7 0.712463 0.217337 0.942134
O O8 0.925041 0.500000 0.500000
O O9 0.946356 0.741248 0.392410
O O10 0.928359 0.757889 0.618058
O O11 0.000000 0.634235 0.553369
O O12 0.917841 0.309520 0.816269
O O13 0.837293 0.275099 0.743620
O O14 0.500000 0.212638 0.715776
O O15 0.432879 0.027982 0.772143
O O16 0.140915 0.929519 0.627117
O O17 0.210624 0.019757 0.723687
O O18 0.072523 0.000000 0.500000
O O19 0.250000 0.279494 0.750000
#
# Coordination Sequence:
#
# PCOD8220892 Si02
#       8
#     8   8   8   8   8   8   8   8
#     4  11  24  45  60  86 127 173 219 264 323 381
#     4  12  23  41  63  91 128 172 213 259 320 389
#     4   9  19  34  59  93 128 163 203 263 335 399
#     4  11  23  44  67  90 124 174 221 267 322 392
#     4  10  21  40  67  94 126 172 223 274 333 397
#     4  12  26  37  62  95 128 168 214 264 314 384
#     4  10  20  38  58  91 135 166 207 257 333 397
#     4  12  22  40  63  93 127 165 211 262 315 382
#
# _framework density 20.702262999999999
#
# number of rings (size 3 to 8) (size 9 to 14) (size 15 to 20)
#    0.000    1.125    3.750    3.375    3.500    2.500 
#    0.000    1.250    0.000    2.250    0.000    0.000 
#    0.000    0.000    0.000    0.000    0.000    0.000 
#
# Total GULP energy -793347.434143 kJ/mol
# GULP energy per Si atom -12396.053658 kJ/mol
# Density = 2.065514 g / cm^3
# Si number density = 20.702263 Si / 1000 Ang^3
#
#
#
# Elastic Constant Matrix: (Units=GPa)
#
#
# Indices 1 2 3 4 5 6 
#
# 1 132.7341 38.3336 32.1796 0.0000 0.0000 0.0000
# 2 38.3336 112.4974 26.8773 0.0000 0.0000 0.0000
# 3 32.1796 26.8773 69.4123 0.0000 0.0000 0.0000
# 4 0.0000 0.0000 0.0000 30.2268 0.0000 0.0000
# 5 0.0000 0.0000 0.0000 0.0000 21.9973 0.0000
# 6 0.0000 0.0000 0.0000 0.0000 0.0000 25.3319
#
#
#
# Elastic Compliance Matrix: (Units=1/GPa)
#
#
# Indices 1 2 3 4 5 6 
#
# 1 0.008988 -0.002278 -0.003285 0.000000 0.000000 0.000000
# 2 -0.002278 0.010373 -0.002960 0.000000 0.000000 0.000000
# 3 -0.003285 -0.002960 0.017076 0.000000 0.000000 0.000000
# 4 0.000000 0.000000 0.000000 0.033083 0.000000 0.000000
# 5 0.000000 0.000000 0.000000 0.000000 0.045460 0.000000
# 6 0.000000 0.000000 0.000000 0.000000 0.000000 0.039476
#
#
# Mechanical properties :
#
#
# Convention : Reuss Voigt Hill
#
# Bulk Modulus (GPa) = 51.57226 56.60273 54.08750
# Shear Modulus (GPa) = 28.09537 29.99476 29.04507
#
# Velocity S-wave (km/s) = 3.68790 3.81052 3.74971
# Velocity P-wave (km/s) = 6.56503 6.83819 6.70300
#
# Compressibility (1/GPa) = 0.01939027
#
# Stress axis : x y z
#
# Youngs Moduli (GPa) = 111.25843 96.40816 58.56235
#
# Poissons Ratio (x) = 0.21961 0.19237
# Poissons Ratio (y) = 0.25344 0.17337
# Poissons Ratio (z) = 0.36547 0.28540
#
# Static dielectric constant tensor:
#      x y z
#    x 3.684370 0.000000 0.000000 
#    y 0.000000 3.982010 0.000000 
#    z 0.000000 0.000000 3.632070 
# 
# 
# High freq. dielectric constant tensor:
#      x y z
#    x 1.803160 0.000000 0.000000 
#    y 0.000000 1.818190 0.000000 
#    z 0.000000 0.000000 1.791150 
# 
# From -- ./inp_files/19054.got.cif
#   From: 2010.03.12/outbox.cif.g09.slc.cpg/sg53_10_cif.got.tgz:19054.got - 2010.04.16 14:36:59.
