data_PCOD8220445
_publ_section_title
;
Structure prediction by ZEFSAII (Michael W. Deem and Ramdas Pophale) SiO2 
 PCOD8220445
Probable space group: P M N A
;
_chemical_formula_sum "Si O2"
_cell_formula_units_Z 56
_cell_length_a 20.413967
_cell_length_b 12.164716
_cell_length_c 11.621197
_cell_angle_alpha 90.000000
_cell_angle_beta 90.000000
_cell_angle_gamma 90.000000
_cell_volume 2885.893141
_symmetry_space_group_name_H-M "P M N A"
_symmetry_group_IT_number 53
_symmetry_cell_setting 'orthorhombic'
loop_
_space_group_symop_operation_xyz
x,y,z
1/2-x,-y,1/2+z
x,-y,-z
1/2-x,y,1/2-z
-x,-y,-z
1/2+x,y,1/2-z
-x,y,z
1/2+x,-y,1/2+z
loop_
_atom_site_type_symbol
_atom_site_label
_atom_site_fract_x
_atom_site_fract_y
_atom_site_fract_z
Si Si1 0.823143 0.125324 0.991847
Si Si2 0.073610 0.996193 0.365547
Si Si3 0.573011 0.191691 0.695131
Si Si4 0.242444 0.327717 0.568434
Si Si5 0.812414 0.611717 0.670340
Si Si6 0.171867 0.157652 0.245419
Si Si7 0.347263 0.390665 0.737065
O O1 0.852090 0.163445 0.113983
O O2 0.878974 0.135548 0.896520
O O3 0.761430 0.203388 0.964992
O O4 0.797783 0.000000 0.000000
O O5 0.130668 0.065650 0.307968
O O6 0.000000 0.042099 0.339354
O O7 0.087282 0.000000 0.500000
O O8 0.079278 0.872352 0.316413
O O9 0.500000 0.181679 0.645154
O O10 0.586888 0.322008 0.712447
O O11 0.211095 0.393899 0.461617
O O12 0.304814 0.396390 0.618484
O O13 0.190251 0.316031 0.669708
O O14 0.750000 0.596872 0.750000
O O15 0.847285 0.727012 0.695300
O O16 0.860525 0.510736 0.706211
O O17 0.250000 0.132947 0.250000
#
# Coordination Sequence:
#
# PCOD8220445 Si02
#       7
#     8   8   8   8   8   8   8
#     4  11  21  37  57  91 122 153 195 245 307 361
#     4  10  23  44  63  83 121 170 206 245 305 374
#     4  10  23  42  62  84 116 159 208 255 298 354
#     4  10  20  36  54  87 120 152 192 235 301 364
#     4  11  20  36  56  85 124 160 185 243 302 359
#     4  11  23  37  59  95 124 157 195 252 309 359
#     4  10  22  36  60  87 114 156 202 243 289 363
#
# _framework density 19.404737000000001
#
# number of rings (size 3 to 8) (size 9 to 14) (size 15 to 20)
#    0.000    1.571    5.714    0.429    2.000    2.571 
#    0.000    0.714    0.000    2.571    0.000    0.000 
#    0.000    0.000    0.000    0.000    0.000    0.000 
#
# Total GULP energy -694085.392725 kJ/mol
# GULP energy per Si atom -12394.382013 kJ/mol
# Density = 1.936057 g / cm^3
# Si number density = 19.404737 Si / 1000 Ang^3
#
#
#
# Elastic Constant Matrix: (Units=GPa)
#
#
# Indices 1 2 3 4 5 6 
#
# 1 54.4733 28.7700 17.8776 0.0000 0.0000 0.0000
# 2 28.7700 97.2812 21.0286 0.0000 0.0000 0.0000
# 3 17.8776 21.0286 117.6125 0.0000 0.0000 0.0000
# 4 0.0000 0.0000 0.0000 31.1823 0.0000 0.0000
# 5 0.0000 0.0000 0.0000 0.0000 17.3978 0.0000
# 6 0.0000 0.0000 0.0000 0.0000 0.0000 15.5340
#
#
#
# Elastic Compliance Matrix: (Units=1/GPa)
#
#
# Indices 1 2 3 4 5 6 
#
# 1 0.022340 -0.006109 -0.002304 0.000000 0.000000 0.000000
# 2 -0.006109 0.012363 -0.001282 0.000000 0.000000 0.000000
# 3 -0.002304 -0.001282 0.009082 0.000000 0.000000 0.000000
# 4 0.000000 0.000000 0.000000 0.032069 0.000000 0.000000
# 5 0.000000 0.000000 0.000000 0.000000 0.057478 0.000000
# 6 0.000000 0.000000 0.000000 0.000000 0.000000 0.064375
#
#
# Mechanical properties :
#
#
# Convention : Reuss Voigt Hill
#
# Bulk Modulus (GPa) = 40.98966 44.96882 42.97924
# Shear Modulus (GPa) = 22.19964 26.26887 24.23426
#
# Velocity S-wave (km/s) = 3.38602 3.68331 3.53779
# Velocity P-wave (km/s) = 6.03790 6.42755 6.23577
#
# Compressibility (1/GPa) = 0.02439639
#
# Stress axis : x y z
#
# Youngs Moduli (GPa) = 44.76264 80.88491 110.10975
#
# Poissons Ratio (x) = 0.49412 0.25364
# Poissons Ratio (y) = 0.27345 0.14115
# Poissons Ratio (z) = 0.10311 0.10369
#
# Static dielectric constant tensor:
#      x y z
#    x 3.261540 0.000000 0.000000 
#    y 0.000000 3.896430 0.000000 
#    z 0.000000 0.000000 4.076880 
# 
# 
# High freq. dielectric constant tensor:
#      x y z
#    x 1.712850 0.000000 0.000000 
#    y 0.000000 1.761110 0.000000 
#    z 0.000000 0.000000 1.774040 
# 
# From -- ./inp_files/17856.got.cif
#   From: 2010.03.12/outbox.cif.g09.slc.cpg/sg53_9_cif.got.tgz:17856.got - 2010.04.16 14:36:59.
