data_PCOD8220249
_publ_section_title
;
Structure prediction by ZEFSAII (Michael W. Deem and Ramdas Pophale) SiO2 
 PCOD8220249
Probable space group: P M N A
;
_chemical_formula_sum "Si O2"
_cell_formula_units_Z 56
_cell_length_a 15.603481
_cell_length_b 9.873010
_cell_length_c 18.790714
_cell_angle_alpha 90.000000
_cell_angle_beta 90.000000
_cell_angle_gamma 90.000000
_cell_volume 2894.771951
_symmetry_space_group_name_H-M "P M N A"
_symmetry_group_IT_number 53
_symmetry_cell_setting 'orthorhombic'
loop_
_space_group_symop_operation_xyz
x,y,z
1/2-x,-y,1/2+z
x,-y,-z
1/2-x,y,1/2-z
-x,-y,-z
1/2+x,y,1/2-z
-x,y,z
1/2+x,-y,1/2+z
loop_
_atom_site_type_symbol
_atom_site_label
_atom_site_fract_x
_atom_site_fract_y
_atom_site_fract_z
Si Si1 0.095491 0.536296 0.187507
Si Si2 0.821480 0.257323 0.195642
Si Si3 0.903011 0.725750 0.315694
Si Si4 0.771703 0.320194 0.440121
Si Si5 0.252595 0.619222 0.094594
Si Si6 0.902071 0.020199 0.280945
Si Si7 0.100526 0.098380 0.438493
O O1 0.106835 0.374244 0.192607
O O2 0.103306 0.594498 0.266628
O O3 0.165438 0.613869 0.139851
O O4 0.000000 0.564165 0.156684
O O5 0.750000 0.313094 0.250000
O O6 0.786583 0.236325 0.115527
O O7 0.852469 0.111127 0.223470
O O8 0.827959 0.714310 0.374149
O O9 0.000000 0.736924 0.349780
O O10 0.887075 0.860285 0.267440
O O11 0.791492 0.468735 0.409948
O O12 0.725208 0.326534 0.516816
O O13 0.862555 0.247825 0.449899
O O14 0.870034 0.045676 0.361317
O O15 0.000000 0.062912 0.272885
O O16 0.000000 0.110502 0.445248
O O17 0.137128 0.000000 0.500000
#
# Coordination Sequence:
#
# PCOD8220249 Si02
#       7
#     8   8   8   8   8   8   8
#     4  10  21  38  60  84 113 154 198 249 301 350
#     4  11  20  36  58  84 113 150 200 249 292 345
#     4  10  21  37  60  88 121 157 192 238 300 359
#     4  10  21  37  55  83 115 154 198 246 292 356
#     4  10  21  38  58  84 121 150 200 248 295 358
#     4  10  21  36  55  83 117 151 192 237 287 354
#     4  10  20  35  54  79 118 156 187 232 291 358
#
# _framework density 19.345219
#
# number of rings (size 3 to 8) (size 9 to 14) (size 15 to 20)
#    0.000    1.857    1.429    3.429    0.000    3.429 
#    2.571    7.857    0.000    0.000    0.000    3.000 
#    0.000    0.000    0.000    0.000    0.000    0.000 
#
# Total GULP energy -694201.885863 kJ/mol
# GULP energy per Si atom -12396.462248 kJ/mol
# Density = 1.930119 g / cm^3
# Si number density = 19.345219 Si / 1000 Ang^3
#
#
#
# Elastic Constant Matrix: (Units=GPa)
#
#
# Indices 1 2 3 4 5 6 
#
# 1 96.8757 43.2950 51.1637 0.0000 0.0000 0.0000
# 2 43.2950 82.7744 42.1375 0.0000 0.0000 0.0000
# 3 51.1637 42.1375 114.0870 0.0000 0.0000 0.0000
# 4 0.0000 0.0000 0.0000 31.5346 0.0000 0.0000
# 5 0.0000 0.0000 0.0000 0.0000 20.8390 0.0000
# 6 0.0000 0.0000 0.0000 0.0000 0.0000 30.3787
#
#
#
# Elastic Compliance Matrix: (Units=1/GPa)
#
#
# Indices 1 2 3 4 5 6 
#
# 1 0.015367 -0.005578 -0.004831 0.000000 0.000000 0.000000
# 2 -0.005578 0.016903 -0.003742 0.000000 0.000000 0.000000
# 3 -0.004831 -0.003742 0.012314 0.000000 0.000000 0.000000
# 4 0.000000 0.000000 0.000000 0.031711 0.000000 0.000000
# 5 0.000000 0.000000 0.000000 0.000000 0.047987 0.000000
# 6 0.000000 0.000000 0.000000 0.000000 0.000000 0.032918
#
#
# Mechanical properties :
#
#
# Convention : Reuss Voigt Hill
#
# Bulk Modulus (GPa) = 61.41701 62.99215 62.20458
# Shear Modulus (GPa) = 26.18762 27.02651 26.60706
#
# Velocity S-wave (km/s) = 3.68326 3.74179 3.71264
# Velocity P-wave (km/s) = 7.06437 7.16246 7.11358
#
# Compressibility (1/GPa) = 0.01628213
#
# Stress axis : x y z
#
# Youngs Moduli (GPa) = 65.07416 59.15947 81.20978
#
# Poissons Ratio (x) = 0.33001 0.39234
# Poissons Ratio (y) = 0.36301 0.30385
# Poissons Ratio (z) = 0.31439 0.22135
#
# Static dielectric constant tensor:
#      x y z
#    x 3.493490 0.000000 0.000000 
#    y 0.000000 3.523330 0.000000 
#    z 0.000000 0.000000 3.610900 
# 
# 
# High freq. dielectric constant tensor:
#      x y z
#    x 1.741650 0.000000 0.000000 
#    y 0.000000 1.755530 0.000000 
#    z 0.000000 0.000000 1.747500 
# 
# From -- ./inp_files/32489.got.cif
#   From: 2010.03.12/outbox.cif.g09.slc.cpg/sg53_17_cif.got.tgz:32489.got - 2010.04.16 14:36:59.
