data_PCOD8220500
_publ_section_title
;
Structure prediction by ZEFSAII (Michael W. Deem and Ramdas Pophale) SiO2 
 PCOD8220500
Probable space group: P M N A
;
_chemical_formula_sum "Si O2"
_cell_formula_units_Z 60
_cell_length_a 23.212620
_cell_length_b 23.653299
_cell_length_c 5.315288
_cell_angle_alpha 90.000000
_cell_angle_beta 90.000000
_cell_angle_gamma 90.000000
_cell_volume 2918.385673
_symmetry_space_group_name_H-M "P M N A"
_symmetry_group_IT_number 53
_symmetry_cell_setting 'orthorhombic'
loop_
_space_group_symop_operation_xyz
x,y,z
1/2-x,-y,1/2+z
x,-y,-z
1/2-x,y,1/2-z
-x,-y,-z
1/2+x,y,1/2-z
-x,y,z
1/2+x,-y,1/2+z
loop_
_atom_site_type_symbol
_atom_site_label
_atom_site_fract_x
_atom_site_fract_y
_atom_site_fract_z
Si Si1 0.750000 0.644372 0.250000
Si Si2 0.564586 0.812606 0.426030
Si Si3 0.369268 0.164035 0.078621
Si Si4 0.064592 0.693311 0.254944
Si Si5 0.785881 0.064396 0.498875
Si Si6 0.854512 0.624023 0.960788
Si Si7 0.434494 0.536196 0.751575
Si Si8 0.665840 0.716335 0.908857
O O1 0.704504 0.603157 0.399207
O O2 0.787367 0.686359 0.418987
O O3 0.500000 0.835626 0.446736
O O4 0.599604 0.841069 0.652108
O O5 0.566237 0.744124 0.449906
O O6 0.586818 0.827852 0.149512
O O7 0.339816 0.105299 0.013207
O O8 0.322966 0.216077 0.103587
O O9 0.100024 0.710615 0.499869
O O10 0.000000 0.678796 0.340478
O O11 0.092468 0.635656 0.148753
O O12 0.750000 0.076632 0.250000
O O13 0.808395 0.000000 0.500000
O O14 0.750000 0.077829 0.750000
O O15 0.882180 0.582221 0.752918
O O16 0.832517 0.684724 0.857356
O O17 0.426869 0.500000 0.500000
O O18 0.500000 0.561569 0.761575
O O19 0.422691 0.500000 0.000000
#
# Coordination Sequence:
#
# PCOD8220500 Si02
#       8
#     4   8   8   8   8   8   8   8
#     4  10  24  38  58  84 124 164 204 250 300 368
#     4  10  20  36  56  87 125 156 199 249 301 371
#     4  11  21  37  60  88 120 165 201 250 314 365
#     4   9  19  33  54  87 122 157 196 242 302 370
#     4  10  22  39  60  87 118 158 211 265 308 355
#     4  11  21  40  62  87 122 162 200 252 307 369
#     4  10  24  44  69  98 125 155 201 262 316 368
#     4  10  22  36  57  87 123 158 204 242 307 370
#
# _framework density 20.55931
#
# number of rings (size 3 to 8) (size 9 to 14) (size 15 to 20)
#    0.000    1.867    1.333    2.000    4.667    2.667 
#    0.000    0.000    2.933    2.400    0.000    0.000 
#    0.000    0.000    0.000    0.000    0.000    0.000 
#
# Total GULP energy -743503.696664 kJ/mol
# GULP energy per Si atom -12391.728278 kJ/mol
# Density = 2.051252 g / cm^3
# Si number density = 20.559310 Si / 1000 Ang^3
#
#
#
# Elastic Constant Matrix: (Units=GPa)
#
#
# Indices 1 2 3 4 5 6 
#
# 1 140.2262 45.5473 34.8751 0.0000 0.0000 0.0000
# 2 45.5473 73.4016 21.6583 0.0000 0.0000 0.0000
# 3 34.8751 21.6583 99.2965 0.0000 0.0000 0.0000
# 4 0.0000 0.0000 0.0000 29.0163 0.0000 0.0000
# 5 0.0000 0.0000 0.0000 0.0000 28.3765 0.0000
# 6 0.0000 0.0000 0.0000 0.0000 0.0000 23.6888
#
#
#
# Elastic Compliance Matrix: (Units=1/GPa)
#
#
# Indices 1 2 3 4 5 6 
#
# 1 0.009344 -0.005162 -0.002156 0.000000 0.000000 0.000000
# 2 -0.005162 0.017413 -0.001985 0.000000 0.000000 0.000000
# 3 -0.002156 -0.001985 0.011261 0.000000 0.000000 0.000000
# 4 0.000000 0.000000 0.000000 0.034463 0.000000 0.000000
# 5 0.000000 0.000000 0.000000 0.000000 0.035240 0.000000
# 6 0.000000 0.000000 0.000000 0.000000 0.000000 0.042214
#
#
# Mechanical properties :
#
#
# Convention : Reuss Voigt Hill
#
# Bulk Modulus (GPa) = 51.51510 57.45397 54.48454
# Shear Modulus (GPa) = 28.56940 30.27256 29.42098
#
# Velocity S-wave (km/s) = 3.73179 3.84141 3.78700
# Velocity P-wave (km/s) = 6.60905 6.90517 6.75873
#
# Compressibility (1/GPa) = 0.01941178
#
# Stress axis : x y z
#
# Youngs Moduli (GPa) = 107.01740 57.42966 88.80189
#
# Poissons Ratio (x) = 0.29646 0.19145
# Poissons Ratio (y) = 0.55244 0.17627
# Poissons Ratio (z) = 0.23072 0.11399
#
# Static dielectric constant tensor:
#      x y z
#    x 3.836860 0.000000 0.000000 
#    y 0.000000 3.647480 0.000000 
#    z 0.000000 0.000000 3.825140 
# 
# 
# High freq. dielectric constant tensor:
#      x y z
#    x 1.805510 0.000000 0.000000 
#    y 0.000000 1.771490 0.000000 
#    z 0.000000 0.000000 1.819530 
# 
# From -- ./inp_files/3096.got.cif
#   From: 2010.03.12/outbox.cif.g09.slc.cpg/sg53_2_cif.got.tgz:3096.got - 2010.04.16 14:36:59.
