data_PCOD8220895
_publ_section_title
;
Structure prediction by ZEFSAII (Michael W. Deem and Ramdas Pophale) SiO2 
 PCOD8220895
Probable space group: P M N A
;
_chemical_formula_sum "Si O2"
_cell_formula_units_Z 40
_cell_length_a 26.331443
_cell_length_b 9.206553
_cell_length_c 8.189079
_cell_angle_alpha 90.000000
_cell_angle_beta 90.000000
_cell_angle_gamma 90.000000
_cell_volume 1985.211481
_symmetry_space_group_name_H-M "P M N A"
_symmetry_group_IT_number 53
_symmetry_cell_setting 'orthorhombic'
loop_
_space_group_symop_operation_xyz
x,y,z
1/2-x,-y,1/2+z
x,-y,-z
1/2-x,y,1/2-z
-x,-y,-z
1/2+x,y,1/2-z
-x,y,z
1/2+x,-y,1/2+z
loop_
_atom_site_type_symbol
_atom_site_label
_atom_site_fract_x
_atom_site_fract_y
_atom_site_fract_z
Si Si1 0.057989 0.311262 0.668828
Si Si2 0.896019 0.042322 0.818538
Si Si3 0.869000 0.768152 0.607626
Si Si4 0.857142 0.507382 0.189384
Si Si5 0.193485 0.783561 0.298950
O O1 0.061267 0.151385 0.749551
O O2 0.085865 0.307795 0.494099
O O3 0.085969 0.431128 0.781154
O O4 0.000000 0.358334 0.646265
O O5 0.842168 0.125353 0.823403
O O6 0.892520 0.904407 0.700869
O O7 0.912235 0.000000 0.000000
O O8 0.848548 0.652199 0.737306
O O9 0.822866 0.818525 0.487007
O O10 0.815495 0.612345 0.272002
O O11 0.845598 0.500000 0.000000
O O12 0.250000 0.829006 0.250000
#
# Coordination Sequence:
#
# PCOD8220895 Si02
#       5
#     8   8   8   8   8
#     4  10  21  37  57  81 109 146 188 227 275 332
#     4  10  21  38  57  81 113 147 183 228 278 327
#     4  10  20  38  59  80 112 146 183 228 274 328
#     4  10  21  38  57  81 113 147 183 228 278 327
#     4  10  21  37  57  83 111 146 186 225 272 328
#
# _framework density 20.148986000000001
#
# number of rings (size 3 to 8) (size 9 to 14) (size 15 to 20)
#    0.000    2.400    0.000    7.200    0.000    7.200 
#    0.000    5.000    0.000    0.000    0.000    0.000 
#    0.000    0.000    0.000    0.000    0.000    0.000 
#
# Total GULP energy -495953.848890 kJ/mol
# GULP energy per Si atom -12398.846222 kJ/mol
# Density = 2.010313 g / cm^3
# Si number density = 20.148986 Si / 1000 Ang^3
#
#
#
# Elastic Constant Matrix: (Units=GPa)
#
#
# Indices 1 2 3 4 5 6 
#
# 1 80.6540 -29.8477 -6.4599 0.0000 0.0000 0.0000
# 2 -29.8477 56.7202 5.8003 0.0000 0.0000 0.0000
# 3 -6.4599 5.8003 113.8465 0.0000 0.0000 0.0000
# 4 0.0000 0.0000 0.0000 40.0541 0.0000 0.0000
# 5 0.0000 0.0000 0.0000 0.0000 9.8435 0.0000
# 6 0.0000 0.0000 0.0000 0.0000 0.0000 14.7429
#
#
#
# Elastic Compliance Matrix: (Units=1/GPa)
#
#
# Indices 1 2 3 4 5 6 
#
# 1 0.015421 0.008068 0.000464 0.000000 0.000000 0.000000
# 2 0.008068 0.021943 -0.000660 0.000000 0.000000 0.000000
# 3 0.000464 -0.000660 0.008844 0.000000 0.000000 0.000000
# 4 0.000000 0.000000 0.000000 0.024966 0.000000 0.000000
# 5 0.000000 0.000000 0.000000 0.000000 0.101590 0.000000
# 6 0.000000 0.000000 0.000000 0.000000 0.000000 0.067829
#
#
# Mechanical properties :
#
#
# Convention : Reuss Voigt Hill
#
# Bulk Modulus (GPa) = 16.14165 21.13402 18.63784
# Shear Modulus (GPa) = 20.36652 31.70997 26.03824
#
# Velocity S-wave (km/s) = 3.18275 3.97139 3.59874
# Velocity P-wave (km/s) = 4.64059 5.61613 5.15150
#
# Compressibility (1/GPa) = 0.06195154
#
# Stress axis : x y z
#
# Youngs Moduli (GPa) = 64.84483 45.57189 113.07459
#
# Poissons Ratio (x) = -0.36766 -0.05247
# Poissons Ratio (y) = -0.52315 0.07465
# Poissons Ratio (z) = -0.03009 0.03009
#
# Static dielectric constant tensor:
#      x y z
#    x 3.332510 0.000000 0.000000 
#    y 0.000000 3.781410 0.000000 
#    z 0.000000 0.000000 3.659600 
# 
# 
# High freq. dielectric constant tensor:
#      x y z
#    x 1.753690 0.000000 0.000000 
#    y 0.000000 1.800130 0.000000 
#    z 0.000000 0.000000 1.790040 
# 
# From -- ./inp_files/12860.got.cif
#   From: 2010.03.12/outbox.cif.g09.slc.cpg/sg53_7_cif.got.tgz:12860.got - 2010.04.16 14:36:59.
