data_PCOD8220241
_publ_section_title
;
Structure prediction by ZEFSAII (Michael W. Deem and Ramdas Pophale) SiO2 
 PCOD8220241
Probable space group: P M N A
;
_chemical_formula_sum "Si O2"
_cell_formula_units_Z 64
_cell_length_a 8.959493
_cell_length_b 19.004315
_cell_length_c 20.100801
_cell_angle_alpha 90.000000
_cell_angle_beta 90.000000
_cell_angle_gamma 90.000000
_cell_volume 3422.543832
_symmetry_space_group_name_H-M "P M N A"
_symmetry_group_IT_number 53
_symmetry_cell_setting 'orthorhombic'
loop_
_space_group_symop_operation_xyz
x,y,z
1/2-x,-y,1/2+z
x,-y,-z
1/2-x,y,1/2-z
-x,-y,-z
1/2+x,y,1/2-z
-x,y,z
1/2+x,-y,1/2+z
loop_
_atom_site_type_symbol
_atom_site_label
_atom_site_fract_x
_atom_site_fract_y
_atom_site_fract_z
Si Si1 0.175031 0.215478 0.055862
Si Si2 0.175031 0.982280 0.184909
Si Si3 0.176869 0.431050 0.408021
Si Si4 0.175321 0.687220 0.821349
Si Si5 0.326573 0.733748 0.071947
Si Si6 0.325273 0.821109 0.316224
Si Si7 0.172542 0.580400 0.443256
Si Si8 0.677382 0.054492 0.445606
O O1 0.207834 0.246530 0.129408
O O2 0.230526 0.134830 0.047319
O O3 0.000000 0.221870 0.038907
O O4 0.271993 0.259598 0.003793
O O5 0.250000 0.014550 0.250000
O O6 0.222584 0.901676 0.174460
O O7 0.000000 0.989695 0.192258
O O8 0.238558 0.027396 0.124495
O O9 0.261380 0.384438 0.353389
O O10 0.224764 0.513756 0.398671
O O11 0.239519 0.413700 0.482058
O O12 0.000000 0.417964 0.398892
O O13 0.250000 0.702732 0.750000
O O14 0.000000 0.677496 0.810154
O O15 0.500000 0.754024 0.077026
O O16 0.229301 0.782734 0.118331
O O17 0.297615 0.653269 0.095333
O O18 0.250000 0.789238 0.250000
O O19 0.500000 0.811109 0.308984
O O20 0.000000 0.567838 0.457538
O O21 0.500000 0.051098 0.448344
O O22 0.743765 0.000000 0.500000
#
# Coordination Sequence:
#
# PCOD8220241 Si02
#       8
#     8   8   8   8   8   8   8   8
#     4  10  21  36  54  79 109 142 185 227 269 325
#     4   9  18  33  54  75  98 133 176 219 265 319
#     4   9  16  34  58  79 104 137 177 218 264 318
#     4  11  23  37  54  79 112 149 188 231 277 324
#     4  11  20  33  55  83 111 141 176 218 269 322
#     4  10  20  35  54  78 107 140 177 219 268 323
#     4   8  16  30  55  83 106 135 172 215 264 318
#     4   9  17  32  54  77 102 136 176 220 269 320
#
# _framework density 18.699541
#
# number of rings (size 3 to 8) (size 9 to 14) (size 15 to 20)
#    0.000    2.375    1.250    2.625    0.000    3.500 
#    0.000    3.750    0.000    1.500    0.000    0.000 
#    0.000    0.000    0.000    0.000    0.000    0.000 
#
# Total GULP energy -793260.881402 kJ/mol
# GULP energy per Si atom -12394.701272 kJ/mol
# Density = 1.865698 g / cm^3
# Si number density = 18.699541 Si / 1000 Ang^3
#
#
#
# Elastic Constant Matrix: (Units=GPa)
#
#
# Indices 1 2 3 4 5 6 
#
# 1 45.5559 31.8746 24.3399 0.0000 0.0000 0.0000
# 2 31.8746 114.4506 47.7195 0.0000 0.0000 0.0000
# 3 24.3399 47.7195 94.7900 0.0000 0.0000 0.0000
# 4 0.0000 0.0000 0.0000 31.5279 0.0000 0.0000
# 5 0.0000 0.0000 0.0000 0.0000 31.5053 0.0000
# 6 0.0000 0.0000 0.0000 0.0000 0.0000 14.2844
#
#
#
# Elastic Compliance Matrix: (Units=1/GPa)
#
#
# Indices 1 2 3 4 5 6 
#
# 1 0.028532 -0.006191 -0.004210 0.000000 0.000000 0.000000
# 2 -0.006191 0.012402 -0.004654 0.000000 0.000000 0.000000
# 3 -0.004210 -0.004654 0.013973 0.000000 0.000000 0.000000
# 4 0.000000 0.000000 0.000000 0.031718 0.000000 0.000000
# 5 0.000000 0.000000 0.000000 0.000000 0.031741 0.000000
# 6 0.000000 0.000000 0.000000 0.000000 0.000000 0.070006
#
#
# Mechanical properties :
#
#
# Convention : Reuss Voigt Hill
#
# Bulk Modulus (GPa) = 40.32500 51.40717 45.86608
# Shear Modulus (GPa) = 22.05100 25.52102 23.78601
#
# Velocity S-wave (km/s) = 3.43771 3.69832 3.57039
# Velocity P-wave (km/s) = 6.11299 6.76665 6.44811
#
# Compressibility (1/GPa) = 0.02479851
#
# Stress axis : x y z
#
# Youngs Moduli (GPa) = 35.04844 80.63264 71.56461
#
# Poissons Ratio (x) = 0.49919 0.30126
# Poissons Ratio (y) = 0.21698 0.33304
# Poissons Ratio (z) = 0.14754 0.37524
#
# Static dielectric constant tensor:
#      x y z
#    x 3.188810 0.000000 0.000000 
#    y 0.000000 3.677640 0.000000 
#    z 0.000000 0.000000 3.603010 
# 
# 
# High freq. dielectric constant tensor:
#      x y z
#    x 1.702120 0.000000 0.000000 
#    y 0.000000 1.734720 0.000000 
#    z 0.000000 0.000000 1.718750 
# 
# From -- ./inp_files/31177.got.cif
#   From: 2010.03.12/outbox.cif.g09.slc.cpg/sg53_16_cif.got.tgz:31177.got - 2010.04.16 14:36:59.
