data_PCOD8220046
_publ_section_title
;
Structure prediction by ZEFSAII (Michael W. Deem and Ramdas Pophale) SiO2 
 PCOD8220046
Probable space group: P M N A
;
_chemical_formula_sum "Si O2"
_cell_formula_units_Z 64
_cell_length_a 8.983058
_cell_length_b 18.311635
_cell_length_c 19.785136
_cell_angle_alpha 90.000000
_cell_angle_beta 90.000000
_cell_angle_gamma 90.000000
_cell_volume 3254.545644
_symmetry_space_group_name_H-M "P M N A"
_symmetry_group_IT_number 53
_symmetry_cell_setting 'orthorhombic'
loop_
_space_group_symop_operation_xyz
x,y,z
1/2-x,-y,1/2+z
x,-y,-z
1/2-x,y,1/2-z
-x,-y,-z
1/2+x,y,1/2-z
-x,y,z
1/2+x,-y,1/2+z
loop_
_atom_site_type_symbol
_atom_site_label
_atom_site_fract_x
_atom_site_fract_y
_atom_site_fract_z
Si Si1 0.833537 0.753195 0.685611
Si Si2 0.671802 0.928946 0.544869
Si Si3 0.330840 0.473887 0.075839
Si Si4 0.675695 0.257163 0.681828
Si Si5 0.324926 0.425448 0.682012
Si Si6 0.173151 0.679004 0.931204
Si Si7 0.165395 0.924845 0.684728
Si Si8 0.326250 0.206329 0.539808
O O1 0.750000 0.717748 0.750000
O O2 0.729744 0.738695 0.621670
O O3 0.846183 0.838916 0.694630
O O4 0.000000 0.719393 0.678360
O O5 0.500000 0.912436 0.561597
O O6 0.752666 0.944009 0.615283
O O7 0.744428 0.860594 0.503199
O O8 0.691947 0.000000 0.500000
O O9 0.500000 0.474076 0.102484
O O10 0.232216 0.528437 0.119225
O O11 0.267955 0.392884 0.079937
O O12 0.320413 0.500000 0.000000
O O13 0.750000 0.225549 0.750000
O O14 0.500000 0.249000 0.689200
O O15 0.721167 0.341423 0.671150
O O16 0.736807 0.212349 0.616484
O O17 0.250000 0.456244 0.750000
O O18 0.500000 0.435417 0.688076
O O19 0.000000 0.661495 0.920005
O O20 0.201699 0.715265 0.004353
O O21 0.250000 0.958729 0.750000
O O22 0.000000 0.959013 0.682152
O O23 0.500000 0.189874 0.544809
#
# Coordination Sequence:
#
# PCOD8220046 Si02
#       8
#     8   8   8   8   8   8   8   8
#     4  10  20  34  53  80 111 143 180 226 276 328
#     4  10  20  36  59  86 118 156 194 235 285 341
#     4  11  24  39  54  77 111 146 183 231 283 337
#     4   9  18  34  56  81 107 138 179 227 275 330
#     4  10  20  36  58  81 108 143 186 230 280 339
#     4  11  21  35  57  80 106 143 186 234 280 334
#     4  10  20  35  58  84 115 151 190 233 276 333
#     4   9  18  34  56  81 110 143 183 228 277 333
#
# _framework density 19.664801000000001
#
# number of rings (size 3 to 8) (size 9 to 14) (size 15 to 20)
#    0.000    2.000    1.250    2.625    0.000    4.250 
#    0.000    5.000    0.000    1.500    0.000    0.000 
#    0.000    0.000    0.000    0.000    0.000    0.000 
#
# Total GULP energy -793543.896791 kJ/mol
# GULP energy per Si atom -12399.123387 kJ/mol
# Density = 1.962004 g / cm^3
# Si number density = 19.664801 Si / 1000 Ang^3
#
#
#
# Elastic Constant Matrix: (Units=GPa)
#
#
# Indices 1 2 3 4 5 6 
#
# 1 86.3806 24.5482 57.1405 0.0000 0.0000 0.0000
# 2 24.5482 43.4138 25.0580 0.0000 0.0000 0.0000
# 3 57.1405 25.0580 150.0493 0.0000 0.0000 0.0000
# 4 0.0000 0.0000 0.0000 21.1508 0.0000 0.0000
# 5 0.0000 0.0000 0.0000 0.0000 35.0924 0.0000
# 6 0.0000 0.0000 0.0000 0.0000 0.0000 20.0700
#
#
#
# Elastic Compliance Matrix: (Units=1/GPa)
#
#
# Indices 1 2 3 4 5 6 
#
# 1 0.016983 -0.006496 -0.005383 0.000000 0.000000 0.000000
# 2 -0.006496 0.027976 -0.002198 0.000000 0.000000 0.000000
# 3 -0.005383 -0.002198 0.009081 0.000000 0.000000 0.000000
# 4 0.000000 0.000000 0.000000 0.047279 0.000000 0.000000
# 5 0.000000 0.000000 0.000000 0.000000 0.028496 0.000000
# 6 0.000000 0.000000 0.000000 0.000000 0.000000 0.049826
#
#
# Mechanical properties :
#
#
# Convention : Reuss Voigt Hill
#
# Bulk Modulus (GPa) = 38.62975 54.81523 46.72249
# Shear Modulus (GPa) = 23.10264 26.80245 24.95254
#
# Velocity S-wave (km/s) = 3.43129 3.69584 3.56602
# Velocity P-wave (km/s) = 5.94853 6.79320 6.38485
#
# Compressibility (1/GPa) = 0.02588678
#
# Stress axis : x y z
#
# Youngs Moduli (GPa) = 58.88091 35.74460 110.11634
#
# Poissons Ratio (x) = 0.23221 0.59271
# Poissons Ratio (y) = 0.38252 0.24204
# Poissons Ratio (z) = 0.31693 0.07857
#
# Static dielectric constant tensor:
#      x y z
#    x 3.646570 0.000000 0.000000 
#    y 0.000000 3.261740 0.000000 
#    z 0.000000 0.000000 3.819600 
# 
# 
# High freq. dielectric constant tensor:
#      x y z
#    x 1.760260 0.000000 0.000000 
#    y 0.000000 1.741910 0.000000 
#    z 0.000000 0.000000 1.781820 
# 
# From -- ./inp_files/26878.got.cif
#   From: 2010.03.12/outbox.cif.g09.slc.cpg/sg53_14_cif.got.tgz:26878.got - 2010.04.16 14:36:59.
