data_PCOD8220797
_publ_section_title
;
Structure prediction by ZEFSAII (Michael W. Deem and Ramdas Pophale) SiO2 
 PCOD8220797
Probable space group: P M N A
;
_chemical_formula_sum "Si O2"
_cell_formula_units_Z 48
_cell_length_a 9.042465
_cell_length_b 9.965380
_cell_length_c 27.887022
_cell_angle_alpha 90.000000
_cell_angle_beta 90.000000
_cell_angle_gamma 90.000000
_cell_volume 2512.944168
_symmetry_space_group_name_H-M "P M N A"
_symmetry_group_IT_number 53
_symmetry_cell_setting 'orthorhombic'
loop_
_space_group_symop_operation_xyz
x,y,z
1/2-x,-y,1/2+z
x,-y,-z
1/2-x,y,1/2-z
-x,-y,-z
1/2+x,y,1/2-z
-x,y,z
1/2+x,-y,1/2+z
loop_
_atom_site_type_symbol
_atom_site_label
_atom_site_fract_x
_atom_site_fract_y
_atom_site_fract_z
Si Si1 0.827484 0.694490 0.845241
Si Si2 0.824898 0.364613 0.439392
Si Si3 0.669410 0.556014 0.202039
Si Si4 0.825630 0.664547 0.454696
Si Si5 0.328616 0.021340 0.299682
Si Si6 0.168986 0.187151 0.636101
O O1 0.760201 0.716388 0.898172
O O2 0.746104 0.575031 0.818600
O O3 0.797402 0.826232 0.814011
O O4 0.000000 0.662488 0.849541
O O5 0.765202 0.517836 0.439760
O O6 0.782180 0.297889 0.490724
O O7 0.000000 0.356516 0.429693
O O8 0.750000 0.604016 0.250000
O O9 0.500000 0.520244 0.213464
O O10 0.682542 0.675075 0.164664
O O11 0.772021 0.779843 0.417829
O O12 0.000000 0.650415 0.450802
O O13 0.250000 0.985530 0.250000
O O14 0.500000 0.991371 0.292369
O O15 0.270608 0.927334 0.342119
O O16 0.000000 0.135633 0.635722
#
# Coordination Sequence:
#
# PCOD8220797 Si02
#       6
#     8   8   8   8   8   8
#     4  11  23  38  56  82 115 149 191 234 280 336
#     4   9  16  32  59  86 115 148 185 231 280 328
#     4  11  22  36  57  84 112 142 183 235 287 336
#     4   8  15  31  57  88 116 145 183 229 278 332
#     4  11  25  42  58  79 110 152 193 234 282 336
#     4  10  20  37  60  86 113 145 186 231 280 336
#
# _framework density 19.101099999999999
#
# number of rings (size 3 to 8) (size 9 to 14) (size 15 to 20)
#    0.000    2.000    1.667    3.500    0.000    6.667 
#    0.000    3.333    0.000    5.000    0.000    0.000 
#    0.000    0.000    0.000    0.000    0.000    0.000 
#
# Total GULP energy -595197.643629 kJ/mol
# GULP energy per Si atom -12399.950909 kJ/mol
# Density = 1.905763 g / cm^3
# Si number density = 19.101100 Si / 1000 Ang^3
#
#
#
# Elastic Constant Matrix: (Units=GPa)
#
#
# Indices 1 2 3 4 5 6 
#
# 1 84.0936 31.9376 26.1436 0.0000 0.0000 0.0000
# 2 31.9376 37.4030 -6.3848 0.0000 0.0000 0.0000
# 3 26.1436 -6.3848 80.4761 0.0000 0.0000 0.0000
# 4 0.0000 0.0000 0.0000 26.4344 0.0000 0.0000
# 5 0.0000 0.0000 0.0000 0.0000 28.0906 0.0000
# 6 0.0000 0.0000 0.0000 0.0000 0.0000 28.7701
#
#
#
# Elastic Compliance Matrix: (Units=1/GPa)
#
#
# Indices 1 2 3 4 5 6 
#
# 1 0.022600 -0.020833 -0.008995 0.000000 0.000000 0.000000
# 2 -0.020833 0.046307 0.010442 0.000000 0.000000 0.000000
# 3 -0.008995 0.010442 0.016177 0.000000 0.000000 0.000000
# 4 0.000000 0.000000 0.000000 0.037829 0.000000 0.000000
# 5 0.000000 0.000000 0.000000 0.000000 0.035599 0.000000
# 6 0.000000 0.000000 0.000000 0.000000 0.000000 0.034758
#
#
# Mechanical properties :
#
#
# Convention : Reuss Voigt Hill
#
# Bulk Modulus (GPa) = 21.59283 33.92950 27.76116
# Shear Modulus (GPa) = 20.20367 26.67745 23.44056
#
# Velocity S-wave (km/s) = 3.25579 3.74122 3.50692
# Velocity P-wave (km/s) = 5.04605 6.03855 5.56447
#
# Compressibility (1/GPa) = 0.04631168
#
# Stress axis : x y z
#
# Youngs Moduli (GPa) = 44.24781 21.59490 61.81803
#
# Poissons Ratio (x) = 0.44989 0.55604
# Poissons Ratio (y) = 0.92182 -0.64549
# Poissons Ratio (z) = 0.39800 -0.22549
#
# Static dielectric constant tensor:
#      x y z
#    x 3.539010 0.000000 0.000000 
#    y 0.000000 3.408850 0.000000 
#    z 0.000000 0.000000 4.189380 
# 
# 
# High freq. dielectric constant tensor:
#      x y z
#    x 1.727530 0.000000 0.000000 
#    y 0.000000 1.724560 0.000000 
#    z 0.000000 0.000000 1.762320 
# 
# From -- ./inp_files/37693.got.cif
#   From: 2010.03.12/outbox.cif.g09.slc.cpg/sg53_19_cif.got.tgz:37693.got - 2010.04.16 14:36:59.
