data_PCOD8220826
_publ_section_title
;
Structure prediction by ZEFSAII (Michael W. Deem and Ramdas Pophale) SiO2 
 PCOD8220826
Probable space group: P M N A
;
_chemical_formula_sum "Si O2"
_cell_formula_units_Z 48
_cell_length_a 8.659732
_cell_length_b 11.513476
_cell_length_c 23.550036
_cell_angle_alpha 90.000000
_cell_angle_beta 90.000000
_cell_angle_gamma 90.000000
_cell_volume 2348.023759
_symmetry_space_group_name_H-M "P M N A"
_symmetry_group_IT_number 53
_symmetry_cell_setting 'orthorhombic'
loop_
_space_group_symop_operation_xyz
x,y,z
1/2-x,-y,1/2+z
x,-y,-z
1/2-x,y,1/2-z
-x,-y,-z
1/2+x,y,1/2-z
-x,y,z
1/2+x,-y,1/2+z
loop_
_atom_site_type_symbol
_atom_site_label
_atom_site_fract_x
_atom_site_fract_y
_atom_site_fract_z
Si Si1 0.682779 0.594188 0.870666
Si Si2 0.180981 0.372128 0.812919
Si Si3 0.180003 0.215084 0.598249
Si Si4 0.179792 0.805648 0.808175
Si Si5 0.818872 0.264772 0.476788
Si Si6 0.822040 0.053228 0.401914
O O1 0.500000 0.576713 0.871108
O O2 0.760736 0.474149 0.853804
O O3 0.727520 0.689681 0.824389
O O4 0.745744 0.638533 0.932493
O O5 0.250000 0.377185 0.750000
O O6 0.227792 0.254023 0.845618
O O7 0.000000 0.379822 0.805599
O O8 0.242946 0.281190 0.541304
O O9 0.000000 0.240833 0.608960
O O10 0.208926 0.080322 0.584927
O O11 0.250000 0.851740 0.750000
O O12 0.208678 0.909898 0.851574
O O13 0.000000 0.776311 0.803603
O O14 0.780575 0.133804 0.455952
O O15 0.000000 0.281351 0.479231
O O16 0.000000 0.075080 0.383852
#
# Coordination Sequence:
#
# PCOD8220826 Si02
#       6
#     8   8   8   8   8   8
#     4  10  20  38  62  87 114 145 186 233 283 337
#     4  12  26  43  60  81 112 151 194 236 284 338
#     4  10  20  37  61  87 116 152 192 231 274 329
#     4  11  21  34  54  81 113 148 189 237 289 340
#     4   8  16  33  61  92 117 145 184 229 276 332
#     4   9  18  34  57  85 116 151 191 233 277 329
#
# _framework density 20.442722
#
# number of rings (size 3 to 8) (size 9 to 14) (size 15 to 20)
#    0.000    2.000    0.000    5.500    0.000    4.000 
#    0.000    7.500    0.000    5.000    0.000    0.000 
#    0.000    0.000    0.000    0.000    0.000    0.000 
#
# Total GULP energy -595031.439989 kJ/mol
# GULP energy per Si atom -12396.488333 kJ/mol
# Density = 2.039619 g / cm^3
# Si number density = 20.442722 Si / 1000 Ang^3
#
#
#
# Elastic Constant Matrix: (Units=GPa)
#
#
# Indices 1 2 3 4 5 6 
#
# 1 90.0351 30.3551 35.1810 0.0000 0.0000 0.0000
# 2 30.3551 75.2777 45.4880 0.0000 0.0000 0.0000
# 3 35.1810 45.4880 108.3449 0.0000 0.0000 0.0000
# 4 0.0000 0.0000 0.0000 38.6412 0.0000 0.0000
# 5 0.0000 0.0000 0.0000 0.0000 25.2701 0.0000
# 6 0.0000 0.0000 0.0000 0.0000 0.0000 7.6890
#
#
#
# Elastic Compliance Matrix: (Units=1/GPa)
#
#
# Indices 1 2 3 4 5 6 
#
# 1 0.013461 -0.003734 -0.002803 0.000000 0.000000 0.000000
# 2 -0.003734 0.018836 -0.006696 0.000000 0.000000 0.000000
# 3 -0.002803 -0.006696 0.012951 0.000000 0.000000 0.000000
# 4 0.000000 0.000000 0.000000 0.025879 0.000000 0.000000
# 5 0.000000 0.000000 0.000000 0.000000 0.039572 0.000000
# 6 0.000000 0.000000 0.000000 0.000000 0.000000 0.130057
#
#
# Mechanical properties :
#
#
# Convention : Reuss Voigt Hill
#
# Bulk Modulus (GPa) = 53.24217 55.07846 54.16032
# Shear Modulus (GPa) = 18.28268 25.16229 21.72248
#
# Velocity S-wave (km/s) = 2.99379 3.51218 3.26329
# Velocity P-wave (km/s) = 6.16859 6.59155 6.38357
#
# Compressibility (1/GPa) = 0.01878210
#
# Stress axis : x y z
#
# Youngs Moduli (GPa) = 74.28810 53.09019 77.21325
#
# Poissons Ratio (x) = 0.19825 0.21645
# Poissons Ratio (y) = 0.27741 0.51699
# Poissons Ratio (z) = 0.20825 0.35547
#
# Static dielectric constant tensor:
#      x y z
#    x 3.515290 0.000000 0.000000 
#    y 0.000000 3.665470 0.000000 
#    z 0.000000 0.000000 3.846930 
# 
# 
# High freq. dielectric constant tensor:
#      x y z
#    x 1.775020 0.000000 0.000000 
#    y 0.000000 1.793920 0.000000 
#    z 0.000000 0.000000 1.810790 
# 
# From -- ./inp_files/33917.got.cif
#   From: 2010.03.12/outbox.cif.g09.slc.cpg/sg53_17_cif.got.tgz:33917.got - 2010.04.16 14:36:59.
