data_PCOD8220809
_publ_section_title
;
Structure prediction by ZEFSAII (Michael W. Deem and Ramdas Pophale) SiO2 
 PCOD8220809
Probable space group: P M N A
;
_chemical_formula_sum "Si O2"
_cell_formula_units_Z 48
_cell_length_a 8.723019
_cell_length_b 30.136419
_cell_length_c 9.116346
_cell_angle_alpha 90.000000
_cell_angle_beta 90.000000
_cell_angle_gamma 90.000000
_cell_volume 2396.510101
_symmetry_space_group_name_H-M "P M N A"
_symmetry_group_IT_number 53
_symmetry_cell_setting 'orthorhombic'
loop_
_space_group_symop_operation_xyz
x,y,z
1/2-x,-y,1/2+z
x,-y,-z
1/2-x,y,1/2-z
-x,-y,-z
1/2+x,y,1/2-z
-x,y,z
1/2+x,-y,1/2+z
loop_
_atom_site_type_symbol
_atom_site_label
_atom_site_fract_x
_atom_site_fract_y
_atom_site_fract_z
Si Si1 0.318254 0.622423 0.590288
Si Si2 0.179083 0.957235 0.094850
Si Si3 0.320988 0.217208 0.098893
Si Si4 0.819163 0.701080 0.409527
Si Si5 0.318808 0.117221 0.096344
Si Si6 0.322988 0.544203 0.093188
O O1 0.250000 0.613302 0.750000
O O2 0.500000 0.625125 0.602057
O O3 0.253753 0.668027 0.526552
O O4 0.271327 0.583010 0.483006
O O5 0.250000 0.967931 0.250000
O O6 0.000000 0.948328 0.107063
O O7 0.256758 0.913216 0.032491
O O8 0.218929 0.000000 0.000000
O O9 0.250000 0.235149 0.250000
O O10 0.500000 0.217074 0.125567
O O11 0.263144 0.167496 0.062535
O O12 0.276862 0.249375 0.964329
O O13 0.750000 0.692970 0.250000
O O14 0.000000 0.693056 0.402482
O O15 0.250000 0.100536 0.250000
O O16 0.500000 0.113345 0.104726
O O17 0.250000 0.534532 0.250000
O O18 0.500000 0.558616 0.109293
O O19 0.306199 0.500000 0.000000
#
# Coordination Sequence:
#
# PCOD8220809 Si02
#       6
#     8   8   8   8   8   8
#     4  12  25  42  64  90 121 157 199 246 297 352
#     4  11  24  40  59  84 114 150 191 236 288 344
#     4   9  20  37  59  86 116 152 193 238 288 345
#     4  11  23  40  60  86 120 157 198 243 294 347
#     4  10  20  37  60  87 118 152 192 237 288 344
#     4  11  24  42  65  93 125 161 201 245 295 350
#
# _framework density 20.029125000000001
#
# number of rings (size 3 to 8) (size 9 to 14) (size 15 to 20)
#    0.000    1.333    0.000    5.500    0.000    9.333 
#    0.000    1.667    0.000    0.000    0.000    0.000 
#    0.000    0.000    0.000    0.000    0.000    0.000 
#
# Total GULP energy -595460.167061 kJ/mol
# GULP energy per Si atom -12405.420147 kJ/mol
# Density = 1.998354 g / cm^3
# Si number density = 20.029125 Si / 1000 Ang^3
#
#
#
# Elastic Constant Matrix: (Units=GPa)
#
#
# Indices 1 2 3 4 5 6 
#
# 1 112.5989 52.4465 56.9314 0.0000 0.0000 0.0000
# 2 52.4465 95.2543 43.4859 0.0000 0.0000 0.0000
# 3 56.9314 43.4859 130.4216 0.0000 0.0000 0.0000
# 4 0.0000 0.0000 0.0000 17.6640 0.0000 0.0000
# 5 0.0000 0.0000 0.0000 0.0000 36.8527 0.0000
# 6 0.0000 0.0000 0.0000 0.0000 0.0000 40.7405
#
#
#
# Elastic Compliance Matrix: (Units=1/GPa)
#
#
# Indices 1 2 3 4 5 6 
#
# 1 0.013535 -0.005609 -0.004038 0.000000 0.000000 0.000000
# 2 -0.005609 0.014707 -0.002455 0.000000 0.000000 0.000000
# 3 -0.004038 -0.002455 0.010249 0.000000 0.000000 0.000000
# 4 0.000000 0.000000 0.000000 0.056612 0.000000 0.000000
# 5 0.000000 0.000000 0.000000 0.000000 0.027135 0.000000
# 6 0.000000 0.000000 0.000000 0.000000 0.000000 0.024546
#
#
# Mechanical properties :
#
#
# Convention : Reuss Voigt Hill
#
# Bulk Modulus (GPa) = 69.99638 71.55582 70.77610
# Shear Modulus (GPa) = 28.44914 31.41217 29.93065
#
# Velocity S-wave (km/s) = 3.77289 3.96450 3.86988
# Velocity P-wave (km/s) = 7.34866 7.53391 7.44186
#
# Compressibility (1/GPa) = 0.01428645
#
# Stress axis : x y z
#
# Youngs Moduli (GPa) = 73.88014 67.99279 97.57108
#
# Poissons Ratio (x) = 0.38137 0.39402
# Poissons Ratio (y) = 0.41439 0.23958
# Poissons Ratio (z) = 0.29835 0.16695
#
# Static dielectric constant tensor:
#      x y z
#    x 3.785500 0.000000 0.000000 
#    y 0.000000 3.961350 0.000000 
#    z 0.000000 0.000000 3.710560 
# 
# 
# High freq. dielectric constant tensor:
#      x y z
#    x 1.795050 0.000000 0.000000 
#    y 0.000000 1.796350 0.000000 
#    z 0.000000 0.000000 1.789040 
# 
# From -- ./inp_files/6706.got.cif
#   From: 2010.03.12/outbox.cif.g09.slc.cpg/sg53_4_cif.got.tgz:6706.got - 2010.04.16 14:36:59.
