data_PCOD8220799
_publ_section_title
;
Structure prediction by ZEFSAII (Michael W. Deem and Ramdas Pophale) SiO2 
 PCOD8220799
Probable space group: P M N A
;
_chemical_formula_sum "Si O2"
_cell_formula_units_Z 56
_cell_length_a 8.969186
_cell_length_b 20.939434
_cell_length_c 15.411772
_cell_angle_alpha 90.000000
_cell_angle_beta 90.000000
_cell_angle_gamma 90.000000
_cell_volume 2894.479941
_symmetry_space_group_name_H-M "P M N A"
_symmetry_group_IT_number 53
_symmetry_cell_setting 'orthorhombic'
loop_
_space_group_symop_operation_xyz
x,y,z
1/2-x,-y,1/2+z
x,-y,-z
1/2-x,y,1/2-z
-x,-y,-z
1/2+x,y,1/2-z
-x,y,z
1/2+x,-y,1/2+z
loop_
_atom_site_type_symbol
_atom_site_label
_atom_site_fract_x
_atom_site_fract_y
_atom_site_fract_z
Si Si1 0.826564 0.794307 0.500478
Si Si2 0.826478 0.001660 0.899419
Si Si3 0.827036 0.351589 0.502492
Si Si4 0.175007 0.585439 0.163087
Si Si5 0.824730 0.142770 0.839882
Si Si6 0.336112 0.529716 0.905243
Si Si7 0.323974 0.122215 0.162995
O O1 0.795501 0.720886 0.524466
O O2 0.734746 0.811629 0.415232
O O3 0.769038 0.836052 0.581391
O O4 0.000000 0.807506 0.482066
O O5 0.727947 0.950533 0.848724
O O6 0.000000 0.985518 0.885720
O O7 0.782348 0.070058 0.861308
O O8 0.783130 0.000000 0.000000
O O9 0.727987 0.370138 0.584768
O O10 0.785650 0.396375 0.419244
O O11 0.000000 0.362651 0.527584
O O12 0.250000 0.612657 0.250000
O O13 0.219961 0.510735 0.151457
O O14 0.000000 0.590489 0.171810
O O15 0.750000 0.163623 0.750000
O O16 0.000000 0.152503 0.832249
O O17 0.500000 0.525989 0.860892
O O18 0.344825 0.500000 0.000000
O O19 0.250000 0.150649 0.250000
O O20 0.500000 0.124731 0.173487
#
# Coordination Sequence:
#
# PCOD8220799 Si02
#       7
#     8   8   8   8   8   8   8
#     4  10  22  40  60  83 113 152 195 235 280 339
#     4  10  20  37  60  86 114 145 184 236 293 344
#     4   9  19  37  58  78 107 145 182 222 272 328
#     4  11  21  33  53  82 113 143 180 224 271 323
#     4  11  23  38  58  83 115 151 189 235 288 343
#     4   8  15  31  54  77 103 136 170 211 263 313
#     4  11  23  38  60  86 113 148 190 237 289 343
#
# _framework density 19.347172
#
# number of rings (size 3 to 8) (size 9 to 14) (size 15 to 20)
#    0.000    2.000    1.429    3.429    0.000    6.857 
#    0.000    0.714    0.000    1.714    0.000    0.000 
#    0.000    0.000    0.000    0.000    0.000    0.000 
#
# Total GULP energy -694480.557921 kJ/mol
# GULP energy per Si atom -12401.438534 kJ/mol
# Density = 1.930314 g / cm^3
# Si number density = 19.347172 Si / 1000 Ang^3
#
#
#
# Elastic Constant Matrix: (Units=GPa)
#
#
# Indices 1 2 3 4 5 6 
#
# 1 79.7985 22.0236 25.6342 0.0000 0.0000 0.0000
# 2 22.0236 94.2926 13.4115 0.0000 0.0000 0.0000
# 3 25.6342 13.4115 77.8611 0.0000 0.0000 0.0000
# 4 0.0000 0.0000 0.0000 15.5988 0.0000 0.0000
# 5 0.0000 0.0000 0.0000 0.0000 31.4216 0.0000
# 6 0.0000 0.0000 0.0000 0.0000 0.0000 16.9760
#
#
#
# Elastic Compliance Matrix: (Units=1/GPa)
#
#
# Indices 1 2 3 4 5 6 
#
# 1 0.014708 -0.002816 -0.004357 0.000000 0.000000 0.000000
# 2 -0.002816 0.011411 -0.001038 0.000000 0.000000 0.000000
# 3 -0.004357 -0.001038 0.014457 0.000000 0.000000 0.000000
# 4 0.000000 0.000000 0.000000 0.064107 0.000000 0.000000
# 5 0.000000 0.000000 0.000000 0.000000 0.031825 0.000000
# 6 0.000000 0.000000 0.000000 0.000000 0.000000 0.058907
#
#
# Mechanical properties :
#
#
# Convention : Reuss Voigt Hill
#
# Bulk Modulus (GPa) = 41.40309 41.56564 41.48437
# Shear Modulus (GPa) = 22.73873 25.52482 24.13177
#
# Velocity S-wave (km/s) = 3.43198 3.63616 3.53555
# Velocity P-wave (km/s) = 6.09518 6.25777 6.17701
#
# Compressibility (1/GPa) = 0.02415279
#
# Stress axis : x y z
#
# Youngs Moduli (GPa) = 67.98822 87.63760 69.17123
#
# Poissons Ratio (x) = 0.24675 0.30141
# Poissons Ratio (y) = 0.19143 0.07183
# Poissons Ratio (z) = 0.29626 0.09101
#
# Static dielectric constant tensor:
#      x y z
#    x 3.453400 0.000000 0.000000 
#    y 0.000000 3.720200 0.000000 
#    z 0.000000 0.000000 3.549980 
# 
# 
# High freq. dielectric constant tensor:
#      x y z
#    x 1.749980 0.000000 0.000000 
#    y 0.000000 1.750170 0.000000 
#    z 0.000000 0.000000 1.747270 
# 
# From -- ./inp_files/20492.got.cif
#   From: 2010.03.12/outbox.cif.g09.slc.cpg/sg53_11_cif.got.tgz:20492.got - 2010.04.16 14:36:59.
