data_PCOD8220047
_publ_section_title
;
Structure prediction by ZEFSAII (Michael W. Deem and Ramdas Pophale) SiO2 
 PCOD8220047
Probable space group: P M N A
;
_chemical_formula_sum "Si O2"
_cell_formula_units_Z 64
_cell_length_a 9.030483
_cell_length_b 22.772705
_cell_length_c 16.980117
_cell_angle_alpha 90.000000
_cell_angle_beta 90.000000
_cell_angle_gamma 90.000000
_cell_volume 3491.936022
_symmetry_space_group_name_H-M "P M N A"
_symmetry_group_IT_number 53
_symmetry_cell_setting 'orthorhombic'
loop_
_space_group_symop_operation_xyz
x,y,z
1/2-x,-y,1/2+z
x,-y,-z
1/2-x,y,1/2-z
-x,-y,-z
1/2+x,y,1/2-z
-x,y,z
1/2+x,-y,1/2+z
loop_
_atom_site_type_symbol
_atom_site_label
_atom_site_fract_x
_atom_site_fract_y
_atom_site_fract_z
Si Si1 0.333002 0.540661 0.424099
Si Si2 0.174082 0.809488 0.170221
Si Si3 0.667975 0.931392 0.401102
Si Si4 0.174039 0.445890 0.330425
Si Si5 0.173241 0.633267 0.520189
Si Si6 0.173873 0.752549 0.008671
Si Si7 0.333479 0.126423 0.431869
Si Si8 0.673737 0.037936 0.167841
O O1 0.333451 0.500000 0.500000
O O2 0.500000 0.553532 0.395043
O O3 0.242462 0.508808 0.354768
O O4 0.253923 0.601399 0.447120
O O5 0.250000 0.787073 0.250000
O O6 0.221820 0.876338 0.151595
O O7 0.221639 0.767160 0.098327
O O8 0.000000 0.806455 0.181392
O O9 0.500000 0.949437 0.378327
O O10 0.674798 0.914250 0.491827
O O11 0.777826 0.985572 0.389864
O O12 0.250000 0.424080 0.250000
O O13 0.209893 0.397593 0.396807
O O14 0.000000 0.453784 0.317523
O O15 0.231378 0.699229 0.524984
O O16 0.000000 0.631816 0.502744
O O17 0.000000 0.737979 0.004666
O O18 0.213263 0.807450 0.952904
O O19 0.500000 0.125475 0.397877
O O20 0.223746 0.100943 0.366152
O O21 0.750000 0.025188 0.250000
O O22 0.500000 0.038039 0.178688
#
# Coordination Sequence:
#
# PCOD8220047 Si02
#       8
#     8   8   8   8   8   8   8   8
#     4   9  17  31  53  78 104 136 170 205 251 302
#     4   9  18  32  51  76 103 132 166 207 256 308
#     4   9  18  34  55  77 102 131 164 205 259 320
#     4  10  20  34  53  80 112 141 173 215 261 307
#     4  10  20  34  54  80 108 139 178 220 257 300
#     4   9  19  36  56  76 101 137 179 216 255 308
#     4   9  19  37  57  75 100 135 171 212 263 315
#     4  12  24  35  50  74 103 133 169 213 262 316
#
# _framework density 18.327943000000001
#
# number of rings (size 3 to 8) (size 9 to 14) (size 15 to 20)
#    0.000    2.375    0.000    4.500    0.000    7.500 
#    0.000    3.750    0.000    3.000    0.000    0.000 
#    0.000    0.000    0.000    0.000    0.000    0.000 
#
# Total GULP energy -793682.331696 kJ/mol
# GULP energy per Si atom -12401.286433 kJ/mol
# Density = 1.828623 g / cm^3
# Si number density = 18.327943 Si / 1000 Ang^3
#
#
#
# Elastic Constant Matrix: (Units=GPa)
#
#
# Indices 1 2 3 4 5 6 
#
# 1 112.1677 57.2481 41.0094 0.0000 0.0000 0.0000
# 2 57.2481 110.8079 37.3590 0.0000 0.0000 0.0000
# 3 41.0094 37.3590 57.1258 0.0000 0.0000 0.0000
# 4 0.0000 0.0000 0.0000 17.6311 0.0000 0.0000
# 5 0.0000 0.0000 0.0000 0.0000 33.0738 0.0000
# 6 0.0000 0.0000 0.0000 0.0000 0.0000 29.2760
#
#
#
# Elastic Compliance Matrix: (Units=1/GPa)
#
#
# Indices 1 2 3 4 5 6 
#
# 1 0.013887 -0.004892 -0.006770 0.000000 0.000000 0.000000
# 2 -0.004892 0.013301 -0.005186 0.000000 0.000000 0.000000
# 3 -0.006770 -0.005186 0.025757 0.000000 0.000000 0.000000
# 4 0.000000 0.000000 0.000000 0.056718 0.000000 0.000000
# 5 0.000000 0.000000 0.000000 0.000000 0.030235 0.000000
# 6 0.000000 0.000000 0.000000 0.000000 0.000000 0.034158
#
#
# Mechanical properties :
#
#
# Convention : Reuss Voigt Hill
#
# Bulk Modulus (GPa) = 51.95371 61.25936 56.60653
# Shear Modulus (GPa) = 23.34602 25.62849 24.48726
#
# Velocity S-wave (km/s) = 3.57290 3.74348 3.65918
# Velocity P-wave (km/s) = 6.74011 7.22367 6.98608
#
# Compressibility (1/GPa) = 0.01924790
#
# Stress axis : x y z
#
# Youngs Moduli (GPa) = 72.00833 75.18368 38.82443
#
# Poissons Ratio (x) = 0.36782 0.26284
# Poissons Ratio (y) = 0.35228 0.20136
# Poissons Ratio (z) = 0.48749 0.38993
#
# Static dielectric constant tensor:
#      x y z
#    x 3.365610 0.000000 0.000000 
#    y 0.000000 3.309100 0.000000 
#    z 0.000000 0.000000 3.340000 
# 
# 
# High freq. dielectric constant tensor:
#      x y z
#    x 1.711820 0.000000 0.000000 
#    y 0.000000 1.700910 0.000000 
#    z 0.000000 0.000000 1.700300 
# 
# From -- ./inp_files/26829.got.cif
#   From: 2010.03.12/outbox.cif.g09.slc.cpg/sg53_14_cif.got.tgz:26829.got - 2010.04.16 14:36:59.
