data_PCOD8220831
_publ_section_title
;
Structure prediction by ZEFSAII (Michael W. Deem and Ramdas Pophale) SiO2 
 PCOD8220831
Probable space group: P M N A
;
_chemical_formula_sum "Si O2"
_cell_formula_units_Z 64
_cell_length_a 8.719126
_cell_length_b 23.847619
_cell_length_c 15.476214
_cell_angle_alpha 90.000000
_cell_angle_beta 90.000000
_cell_angle_gamma 90.000000
_cell_volume 3217.975288
_symmetry_space_group_name_H-M "P M N A"
_symmetry_group_IT_number 53
_symmetry_cell_setting 'orthorhombic'
loop_
_space_group_symop_operation_xyz
x,y,z
1/2-x,-y,1/2+z
x,-y,-z
1/2-x,y,1/2-z
-x,-y,-z
1/2+x,y,1/2-z
-x,y,z
1/2+x,-y,1/2+z
loop_
_atom_site_type_symbol
_atom_site_label
_atom_site_fract_x
_atom_site_fract_y
_atom_site_fract_z
Si Si1 0.817564 0.887133 0.339015
Si Si2 0.317701 0.685832 0.999929
Si Si3 0.819443 0.621420 0.840582
Si Si4 0.182400 0.117338 0.339597
Si Si5 0.680428 0.613318 0.161098
Si Si6 0.181798 0.812509 0.497057
Si Si7 0.318871 0.001682 0.399782
Si Si8 0.179454 0.501302 0.099437
O O1 0.750000 0.862610 0.250000
O O2 0.755055 0.847486 0.415661
O O3 0.000000 0.888198 0.335671
O O4 0.754926 0.949290 0.352013
O O5 0.500000 0.683184 0.993927
O O6 0.256416 0.650749 0.082057
O O7 0.256439 0.749205 0.009108
O O8 0.248948 0.660770 0.913463
O O9 0.750000 0.641109 0.750000
O O10 0.772894 0.557246 0.857958
O O11 0.000000 0.629097 0.839452
O O12 0.250000 0.140939 0.250000
O O13 0.240769 0.158941 0.414790
O O14 0.248099 0.056025 0.356110
O O15 0.000000 0.114543 0.335357
O O16 0.750000 0.636994 0.250000
O O17 0.500000 0.617840 0.167455
O O18 0.727396 0.548909 0.148820
O O19 0.000000 0.812915 0.495305
O O20 0.500000 0.001235 0.385706
O O21 0.273082 0.000000 0.500000
O O22 0.000000 0.514323 0.108561
O O23 0.230094 0.500000 0.000000
#
# Coordination Sequence:
#
# PCOD8220831 Si02
#       8
#     8   8   8   8   8   8   8   8
#     4  11  22  39  62  89 120 156 196 238 291 349
#     4  10  22  42  63  86 116 155 202 248 293 346
#     4  11  23  39  61  89 120 156 194 241 296 352
#     4  11  22  39  62  88 118 155 194 238 291 349
#     4  11  23  37  60  89 121 157 196 242 294 353
#     4   9  21  41  63  84 115 156 198 243 292 344
#     4  11  22  37  60  90 122 153 191 240 291 349
#     4  10  20  37  61  88 121 154 191 240 295 354
#
# _framework density 19.888283999999999
#
# number of rings (size 3 to 8) (size 9 to 14) (size 15 to 20)
#    0.000    1.500    2.500    2.625    0.000    4.250 
#    0.000    3.750    0.000    0.000    0.000    0.000 
#    0.000    0.000    0.000    0.000    0.000    0.000 
#
# Total GULP energy -793941.195608 kJ/mol
# GULP energy per Si atom -12405.331181 kJ/mol
# Density = 1.984302 g / cm^3
# Si number density = 19.888284 Si / 1000 Ang^3
#
#
#
# Elastic Constant Matrix: (Units=GPa)
#
#
# Indices 1 2 3 4 5 6 
#
# 1 55.5203 27.5213 38.5049 0.0000 0.0000 0.0000
# 2 27.5213 135.8814 66.3775 0.0000 0.0000 0.0000
# 3 38.5049 66.3775 176.7245 0.0000 0.0000 0.0000
# 4 0.0000 0.0000 0.0000 8.6563 0.0000 0.0000
# 5 0.0000 0.0000 0.0000 0.0000 34.6531 0.0000
# 6 0.0000 0.0000 0.0000 0.0000 0.0000 0.1699
#
#
#
# Elastic Compliance Matrix: (Units=1/GPa)
#
#
# Indices 1 2 3 4 5 6 
#
# 1 0.021933 -0.002581 -0.003809 0.000000 0.000000 0.000000
# 2 -0.002581 0.009317 -0.002937 0.000000 0.000000 0.000000
# 3 -0.003809 -0.002937 0.007592 0.000000 0.000000 0.000000
# 4 0.000000 0.000000 0.000000 0.115523 0.000000 0.000000
# 5 0.000000 0.000000 0.000000 0.000000 0.028857 0.000000
# 6 0.000000 0.000000 0.000000 0.000000 0.000000 5.887005
#
#
# Mechanical properties :
#
#
# Convention : Reuss Voigt Hill
#
# Bulk Modulus (GPa) = 49.53900 70.32597 59.93248
# Shear Modulus (GPa) = 0.82026 24.41068 12.61547
#
# Velocity S-wave (km/s) = 0.64291 3.50721 2.52130
# Velocity P-wave (km/s) = 5.05112 7.19986 6.21900
#
# Compressibility (1/GPa) = 0.02018612
#
# Stress axis : x y z
#
# Youngs Moduli (GPa) = 45.59376 107.33180 131.72486
#
# Poissons Ratio (x) = 0.27708 0.50176
# Poissons Ratio (y) = 0.11770 0.38687
# Poissons Ratio (z) = 0.17367 0.31523
#
# Static dielectric constant tensor:
#      x y z
#    x 3.476370 0.000000 0.000000 
#    y 0.000000 3.694190 0.000000 
#    z 0.000000 0.000000 3.916430 
# 
# 
# High freq. dielectric constant tensor:
#      x y z
#    x 1.767140 0.000000 0.000000 
#    y 0.000000 1.772670 0.000000 
#    z 0.000000 0.000000 1.797010 
# 
# From -- ./inp_files/20846.got.cif
#   From: 2010.03.12/outbox.cif.g09.slc.cpg/sg53_11_cif.got.tgz:20846.got - 2010.04.16 14:36:59.
