data_PCOD8220154
_publ_section_title
;
Structure prediction by ZEFSAII (Michael W. Deem and Ramdas Pophale) SiO2 
 PCOD8220154
Probable space group: P M N A
;
_chemical_formula_sum "Si O2"
_cell_formula_units_Z 64
_cell_length_a 8.747978
_cell_length_b 17.706314
_cell_length_c 21.222854
_cell_angle_alpha 90.000000
_cell_angle_beta 90.000000
_cell_angle_gamma 90.000000
_cell_volume 3287.302199
_symmetry_space_group_name_H-M "P M N A"
_symmetry_group_IT_number 53
_symmetry_cell_setting 'orthorhombic'
loop_
_space_group_symop_operation_xyz
x,y,z
1/2-x,-y,1/2+z
x,-y,-z
1/2-x,y,1/2-z
-x,-y,-z
1/2+x,y,1/2-z
-x,y,z
1/2+x,-y,1/2+z
loop_
_atom_site_type_symbol
_atom_site_label
_atom_site_fract_x
_atom_site_fract_y
_atom_site_fract_z
Si Si1 0.676292 0.215508 0.508005
Si Si2 0.168075 0.578949 0.033143
Si Si3 0.679890 0.578469 0.812005
Si Si4 0.325364 0.737755 0.353312
Si Si5 0.183781 0.096231 0.817626
Si Si6 0.325285 0.586089 0.157112
Si Si7 0.679519 0.063020 0.946889
Si Si8 0.322637 0.327299 0.068201
O O1 0.500000 0.212705 0.487788
O O2 0.699106 0.268567 0.570760
O O3 0.729700 0.133437 0.526573
O O4 0.781212 0.239900 0.446928
O O5 0.305275 0.580064 0.082504
O O6 0.000000 0.596111 0.063570
O O7 0.166476 0.500000 0.000000
O O8 0.202513 0.638753 0.980097
O O9 0.750000 0.615647 0.750000
O O10 0.500000 0.571304 0.808516
O O11 0.748873 0.493027 0.818222
O O12 0.726877 0.638919 0.864984
O O13 0.500000 0.736643 0.334282
O O14 0.257878 0.816951 0.327540
O O15 0.252410 0.663896 0.319082
O O16 0.250000 0.067761 0.750000
O O17 0.252223 0.046290 0.876184
O O18 0.000000 0.089412 0.818505
O O19 0.500000 0.591057 0.176450
O O20 0.500000 0.079321 0.939646
O O21 0.710269 0.000000 0.000000
O O22 0.500000 0.344893 0.054755
#
# Coordination Sequence:
#
# PCOD8220154 Si02
#       8
#     8   8   8   8   8   8   8   8
#     4  10  20  34  55  86 116 143 179 219 273 334
#     4  11  21  31  48  75 102 133 173 221 278 332
#     4  10  24  40  52  70  96 135 185 232 285 338
#     4   9  19  33  49  76 111 145 183 224 269 327
#     4  10  21  37  58  84 119 160 200 239 282 339
#     4  11  21  33  50  73 102 138 181 231 282 333
#     4  10  21  38  62  92 125 159 194 233 279 334
#     4  11  21  35  55  77 103 134 174 227 276 327
#
# _framework density 19.468851000000001
#
# number of rings (size 3 to 8) (size 9 to 14) (size 15 to 20)
#    0.000    1.750    2.500    3.000    0.000    6.500 
#    0.000    2.500    0.000    0.750    0.000    3.500 
#    0.000    0.000    0.000    0.000    0.000    0.000 
#
# Total GULP energy -792841.030964 kJ/mol
# GULP energy per Si atom -12388.141109 kJ/mol
# Density = 1.942454 g / cm^3
# Si number density = 19.468851 Si / 1000 Ang^3
#
#
#
# Elastic Constant Matrix: (Units=GPa)
#
#
# Indices 1 2 3 4 5 6 
#
# 1 61.5011 19.3500 32.1121 0.0000 0.0000 0.0000
# 2 19.3500 44.0018 34.5916 0.0000 0.0000 0.0000
# 3 32.1121 34.5916 118.6037 0.0000 0.0000 0.0000
# 4 0.0000 0.0000 0.0000 15.6553 0.0000 0.0000
# 5 0.0000 0.0000 0.0000 0.0000 29.2341 0.0000
# 6 0.0000 0.0000 0.0000 0.0000 0.0000 27.5815
#
#
#
# Elastic Compliance Matrix: (Units=1/GPa)
#
#
# Indices 1 2 3 4 5 6 
#
# 1 0.020053 -0.005904 -0.003708 0.000000 0.000000 0.000000
# 2 -0.005904 0.031225 -0.007509 0.000000 0.000000 0.000000
# 3 -0.003708 -0.007509 0.011625 0.000000 0.000000 0.000000
# 4 0.000000 0.000000 0.000000 0.063876 0.000000 0.000000
# 5 0.000000 0.000000 0.000000 0.000000 0.034207 0.000000
# 6 0.000000 0.000000 0.000000 0.000000 0.000000 0.036256
#
#
# Mechanical properties :
#
#
# Convention : Reuss Voigt Hill
#
# Bulk Modulus (GPa) = 34.88721 44.02379 39.45550
# Shear Modulus (GPa) = 20.74364 23.69769 22.22067
#
# Velocity S-wave (km/s) = 3.26771 3.49264 3.38204
# Velocity P-wave (km/s) = 5.67412 6.23909 5.96330
#
# Compressibility (1/GPa) = 0.02866380
#
# Stress axis : x y z
#
# Youngs Moduli (GPa) = 49.86720 32.02517 86.02003
#
# Poissons Ratio (x) = 0.18907 0.31892
# Poissons Ratio (y) = 0.29441 0.64589
# Poissons Ratio (z) = 0.18488 0.24047
#
# Static dielectric constant tensor:
#      x y z
#    x 3.530330 0.000000 0.000000 
#    y 0.000000 3.489780 0.000000 
#    z 0.000000 0.000000 3.683140 
# 
# 
# High freq. dielectric constant tensor:
#      x y z
#    x 1.761600 0.000000 0.000000 
#    y 0.000000 1.737340 0.000000 
#    z 0.000000 0.000000 1.748790 
# 
# From -- ./inp_files/31166.got.cif
#   From: 2010.03.12/outbox.cif.g09.slc.cpg/sg53_16_cif.got.tgz:31166.got - 2010.04.16 14:36:59.
