data_PCOD8220540
_publ_section_title
;
Structure prediction by ZEFSAII (Michael W. Deem and Ramdas Pophale) SiO2 
 PCOD8220540
Probable space group: P M N A
;
_chemical_formula_sum "Si O2"
_cell_formula_units_Z 48
_cell_length_a 8.705398
_cell_length_b 30.682998
_cell_length_c 9.136696
_cell_angle_alpha 90.000000
_cell_angle_beta 90.000000
_cell_angle_gamma 90.000000
_cell_volume 2440.481940
_symmetry_space_group_name_H-M "P M N A"
_symmetry_group_IT_number 53
_symmetry_cell_setting 'orthorhombic'
loop_
_space_group_symop_operation_xyz
x,y,z
1/2-x,-y,1/2+z
x,-y,-z
1/2-x,y,1/2-z
-x,-y,-z
1/2+x,y,1/2-z
-x,y,z
1/2+x,-y,1/2+z
loop_
_atom_site_type_symbol
_atom_site_label
_atom_site_fract_x
_atom_site_fract_y
_atom_site_fract_z
Si Si1 0.318204 0.882353 0.406758
Si Si2 0.682068 0.209653 0.905903
Si Si3 0.181754 0.541775 0.589530
Si Si4 0.818119 0.625431 0.410092
Si Si5 0.322403 0.042852 0.094873
Si Si6 0.819085 0.707912 0.591080
O O1 0.250000 0.895888 0.250000
O O2 0.500000 0.879813 0.392973
O O3 0.253375 0.835874 0.459033
O O4 0.270870 0.917475 0.526020
O O5 0.750000 0.223660 0.750000
O O6 0.500000 0.204870 0.891376
O O7 0.731238 0.245954 0.022958
O O8 0.241747 0.500000 0.500000
O O9 0.250000 0.540904 0.750000
O O10 0.240249 0.584701 0.505598
O O11 0.000000 0.541349 0.603146
O O12 0.750000 0.621885 0.250000
O O13 0.756922 0.669324 0.487513
O O14 0.000000 0.625594 0.396475
O O15 0.250000 0.031868 0.250000
O O16 0.500000 0.056122 0.109493
O O17 0.300592 0.000000 0.000000
O O18 0.750000 0.702593 0.750000
O O19 0.000000 0.704605 0.605219
#
# Coordination Sequence:
#
# PCOD8220540 Si02
#       6
#     8   8   8   8   8   8
#     4  11  22  38  61  87 117 152 190 233 282 334
#     4  10  20  36  57  82 111 144 186 230 276 332
#     4  10  21  36  55  81 112 145 184 228 274 329
#     4  10  21  37  56  81 110 142 184 229 276 331
#     4  11  24  41  62  88 118 152 191 234 281 334
#     4  10  22  37  55  80 110 144 183 229 277 331
#
# _framework density 19.668244999999999
#
# number of rings (size 3 to 8) (size 9 to 14) (size 15 to 20)
#    0.000    1.667    0.000    5.500    0.000    6.333 
#    0.000    1.667    0.000    0.000    0.000    0.000 
#    0.000    0.000    0.000    0.000    0.000    0.000 
#
# Total GULP energy -595423.541331 kJ/mol
# GULP energy per Si atom -12404.657111 kJ/mol
# Density = 1.962348 g / cm^3
# Si number density = 19.668245 Si / 1000 Ang^3
#
#
#
# Elastic Constant Matrix: (Units=GPa)
#
#
# Indices 1 2 3 4 5 6 
#
# 1 80.6893 52.0849 45.2948 0.0000 0.0000 0.0000
# 2 52.0849 133.6825 78.9779 0.0000 0.0000 0.0000
# 3 45.2948 78.9779 156.4731 0.0000 0.0000 0.0000
# 4 0.0000 0.0000 0.0000 98.5233 0.0000 0.0000
# 5 0.0000 0.0000 0.0000 0.0000 38.9148 0.0000
# 6 0.0000 0.0000 0.0000 0.0000 0.0000 6.0292
#
#
#
# Elastic Compliance Matrix: (Units=1/GPa)
#
#
# Indices 1 2 3 4 5 6 
#
# 1 0.017101 -0.005327 -0.002262 0.000000 0.000000 0.000000
# 2 -0.005327 0.012318 -0.004675 0.000000 0.000000 0.000000
# 3 -0.002262 -0.004675 0.009405 0.000000 0.000000 0.000000
# 4 0.000000 0.000000 0.000000 0.010150 0.000000 0.000000
# 5 0.000000 0.000000 0.000000 0.000000 0.025697 0.000000
# 6 0.000000 0.000000 0.000000 0.000000 0.000000 0.165858
#
#
# Mechanical properties :
#
#
# Convention : Reuss Voigt Hill
#
# Bulk Modulus (GPa) = 69.94521 80.39555 75.17038
# Shear Modulus (GPa) = 18.53064 41.65930 30.09497
#
# Velocity S-wave (km/s) = 3.07279 4.60727 3.91593
# Velocity P-wave (km/s) = 6.94472 8.32269 7.66473
#
# Compressibility (1/GPa) = 0.01429691
#
# Stress axis : x y z
#
# Youngs Moduli (GPa) = 58.47532 81.18242 106.32144
#
# Poissons Ratio (x) = 0.43243 0.24047
# Poissons Ratio (y) = 0.31148 0.49709
# Poissons Ratio (z) = 0.13226 0.37956
#
# Static dielectric constant tensor:
#      x y z
#    x 3.570840 0.000000 0.000000 
#    y 0.000000 3.941270 0.000000 
#    z 0.000000 0.000000 3.511850 
# 
# 
# High freq. dielectric constant tensor:
#      x y z
#    x 1.767070 0.000000 0.000000 
#    y 0.000000 1.785160 0.000000 
#    z 0.000000 0.000000 1.773690 
# 
# From -- ./inp_files/6612.got.cif
#   From: 2010.03.12/outbox.cif.g09.slc.cpg/sg53_4_cif.got.tgz:6612.got - 2010.04.16 14:36:59.
