data_PCOD8220467
_publ_section_title
;
Structure prediction by ZEFSAII (Michael W. Deem and Ramdas Pophale) SiO2 
 PCOD8220467
Probable space group: P M N A
;
_chemical_formula_sum "Si O2"
_cell_formula_units_Z 48
_cell_length_a 9.932017
_cell_length_b 27.833596
_cell_length_c 9.893270
_cell_angle_alpha 90.000000
_cell_angle_beta 90.000000
_cell_angle_gamma 90.000000
_cell_volume 2734.932645
_symmetry_space_group_name_H-M "P M N A"
_symmetry_group_IT_number 53
_symmetry_cell_setting 'orthorhombic'
loop_
_space_group_symop_operation_xyz
x,y,z
1/2-x,-y,1/2+z
x,-y,-z
1/2-x,y,1/2-z
-x,-y,-z
1/2+x,y,1/2-z
-x,y,z
1/2+x,-y,1/2+z
loop_
_atom_site_type_symbol
_atom_site_label
_atom_site_fract_x
_atom_site_fract_y
_atom_site_fract_z
Si Si1 0.657503 0.315791 0.876123
Si Si2 0.500000 0.547748 0.588182
Si Si3 0.000000 0.456051 0.399639
Si Si4 0.653546 0.796103 0.129412
Si Si5 0.654425 0.968805 0.871466
Si Si6 0.745382 0.388562 0.094796
Si Si7 0.154454 0.142206 0.371451
O O1 0.750000 0.331532 0.750000
O O2 0.500000 0.329453 0.851604
O O3 0.672965 0.259610 0.905354
O O4 0.721014 0.341449 0.006172
O O5 0.500000 0.500000 0.500000
O O6 0.500000 0.528835 0.742453
O O7 0.623338 0.582176 0.552784
O O8 0.000000 0.500000 0.500000
O O9 0.128210 0.425295 0.435034
O O10 0.750000 0.812597 0.250000
O O11 0.500000 0.807056 0.172161
O O12 0.696310 0.826494 0.999731
O O13 0.750000 0.985358 0.750000
O O14 0.500000 0.978365 0.829078
O O15 0.678284 0.913300 0.908428
O O16 0.695978 0.000000 0.000000
O O17 0.750000 0.371328 0.250000
O O18 0.250000 0.158749 0.250000
O O19 0.000000 0.151773 0.329200
#
# Coordination Sequence:
#
# PCOD8220467 Si02
#       7
#     8   4   4   8   8   8   8
#     4  10  21  37  56  79 106 137 173 213 256 307
#     4  10  22  36  54  82 108 132 172 212 249 300
#     4  10  20  36  56  76 104 140 170 206 251 296
#     4   9  19  35  53  75 104 135 171 214 260 308
#     4   9  18  32  49  72 103 137 176 219 263 312
#     4  10  21  37  56  78 107 138 169 209 254 301
#     4   9  18  33  52  74 103 138 175 217 262 312
#
# _framework density 17.550706999999999
#
# number of rings (size 3 to 8) (size 9 to 14) (size 15 to 20)
#    0.000    2.500    0.833    0.500    1.167    3.667 
#    0.000    0.000    0.000    0.000    0.000    0.000 
#    0.000    0.000    0.000    0.000    0.000    0.000 
#
# Total GULP energy -595222.906072 kJ/mol
# GULP energy per Si atom -12400.477210 kJ/mol
# Density = 1.751076 g / cm^3
# Si number density = 17.550707 Si / 1000 Ang^3
#
#
#
# Elastic Constant Matrix: (Units=GPa)
#
#
# Indices 1 2 3 4 5 6 
#
# 1 130.3337 55.0819 84.3101 0.0000 0.0000 0.0000
# 2 55.0819 73.6346 80.0037 0.0000 0.0000 0.0000
# 3 84.3101 80.0037 146.1280 0.0000 0.0000 0.0000
# 4 0.0000 0.0000 0.0000 41.7889 0.0000 0.0000
# 5 0.0000 0.0000 0.0000 0.0000 36.9022 0.0000
# 6 0.0000 0.0000 0.0000 0.0000 0.0000 30.2152
#
#
#
# Elastic Compliance Matrix: (Units=1/GPa)
#
#
# Indices 1 2 3 4 5 6 
#
# 1 0.012655 -0.003785 -0.005229 0.000000 0.000000 0.000000
# 2 -0.003785 0.034652 -0.016788 0.000000 0.000000 0.000000
# 3 -0.005229 -0.016788 0.019051 0.000000 0.000000 0.000000
# 4 0.000000 0.000000 0.000000 0.023930 0.000000 0.000000
# 5 0.000000 0.000000 0.000000 0.000000 0.027099 0.000000
# 6 0.000000 0.000000 0.000000 0.000000 0.000000 0.033096
#
#
# Mechanical properties :
#
#
# Convention : Reuss Voigt Hill
#
# Bulk Modulus (GPa) = 67.77649 87.65419 77.71534
# Shear Modulus (GPa) = 24.15415 30.49464 27.32439
#
# Velocity S-wave (km/s) = 3.71381 4.17287 3.95002
# Velocity P-wave (km/s) = 7.55587 8.55973 8.07342
#
# Compressibility (1/GPa) = 0.01475438
#
# Stress axis : x y z
#
# Youngs Moduli (GPa) = 79.02133 28.85867 52.48966
#
# Poissons Ratio (x) = 0.10923 0.27447
# Poissons Ratio (y) = 0.29909 0.88118
# Poissons Ratio (z) = 0.41321 0.48447
#
# Static dielectric constant tensor:
#      x y z
#    x 3.485940 0.000000 0.000000 
#    y 0.000000 3.184850 0.000000 
#    z 0.000000 0.000000 3.226360 
# 
# 
# High freq. dielectric constant tensor:
#      x y z
#    x 1.693300 0.000000 0.000000 
#    y 0.000000 1.676280 0.000000 
#    z 0.000000 0.000000 1.675290 
# 
# From -- ./inp_files/6775.got.cif
#   From: 2010.03.12/outbox.cif.g09.slc.cpg/sg53_4_cif.got.tgz:6775.got - 2010.04.16 14:36:59.
