data_PCOD8220942
_publ_section_title
;
Structure prediction by ZEFSAII (Michael W. Deem and Ramdas Pophale) SiO2 
 PCOD8220942
Probable space group: P M N A
;
_chemical_formula_sum "Si O2"
_cell_formula_units_Z 40
_cell_length_a 15.189611
_cell_length_b 14.035893
_cell_length_c 8.469996
_cell_angle_alpha 90.000000
_cell_angle_beta 90.000000
_cell_angle_gamma 90.000000
_cell_volume 1805.801070
_symmetry_space_group_name_H-M "P M N A"
_symmetry_group_IT_number 53
_symmetry_cell_setting 'orthorhombic'
loop_
_space_group_symop_operation_xyz
x,y,z
1/2-x,-y,1/2+z
x,-y,-z
1/2-x,y,1/2-z
-x,-y,-z
1/2+x,y,1/2-z
-x,y,z
1/2+x,-y,1/2+z
loop_
_atom_site_type_symbol
_atom_site_label
_atom_site_fract_x
_atom_site_fract_y
_atom_site_fract_z
Si Si1 0.000000 0.699595 0.333479
Si Si2 0.000000 0.507269 0.810036
Si Si3 0.171268 0.721137 0.147535
Si Si4 0.500000 0.995445 0.691492
Si Si5 0.350870 0.651516 0.686081
Si Si6 0.000000 0.779610 0.688619
Si Si7 0.326503 0.933020 0.354191
O O1 0.913585 0.740020 0.252733
O O2 0.000000 0.737015 0.511957
O O3 0.000000 0.585959 0.299146
O O4 0.090378 0.561462 0.759026
O O5 0.000000 0.500000 0.000000
O O6 0.250000 0.675619 0.250000
O O7 0.197697 0.826497 0.087798
O O8 0.154166 0.649766 0.003973
O O9 0.500000 0.892331 0.778111
O O10 0.500000 0.000000 0.500000
O O11 0.415736 0.056156 0.749105
O O12 0.250000 0.650691 0.750000
O O13 0.408253 0.743991 0.733441
O O14 0.250000 0.976372 0.250000
O O15 0.338087 0.000000 0.500000
#
# Coordination Sequence:
#
# PCOD8220942 Si02
#       7
#     4   4   8   4   8   4   8
#     4  12  24  45  65  93 136 170 225 288 357 430
#     4  11  23  47  69  95 135 180 220 291 360 427
#     4  11  23  40  65  95 132 177 222 282 352 418
#     4  10  20  38  63  91 127 179 223 271 343 411
#     4  11  23  43  68  99 130 176 231 282 359 433
#     4  11  25  41  68 101 133 179 227 292 347 423
#     4  10  22  38  60  89 124 169 216 273 327 403
#
# _framework density 22.150836000000002
#
# number of rings (size 3 to 8) (size 9 to 14) (size 15 to 20)
#    0.000    1.200    2.000    4.800    0.000    8.800 
#    3.600    1.500    0.000    0.000    0.000    0.000 
#    0.000    0.000    0.000    0.000    0.000    0.000 
#
# Total GULP energy -495532.180175 kJ/mol
# GULP energy per Si atom -12388.304504 kJ/mol
# Density = 2.210042 g / cm^3
# Si number density = 22.150836 Si / 1000 Ang^3
#
#
#
# Elastic Constant Matrix: (Units=GPa)
#
#
# Indices 1 2 3 4 5 6 
#
# 1 196.1207 13.1848 44.7636 0.0000 0.0000 0.0000
# 2 13.1848 91.8652 22.0358 0.0000 0.0000 0.0000
# 3 44.7636 22.0358 111.7085 0.0000 0.0000 0.0000
# 4 0.0000 0.0000 0.0000 37.0773 0.0000 0.0000
# 5 0.0000 0.0000 0.0000 0.0000 39.7003 0.0000
# 6 0.0000 0.0000 0.0000 0.0000 0.0000 28.4310
#
#
#
# Elastic Compliance Matrix: (Units=1/GPa)
#
#
# Indices 1 2 3 4 5 6 
#
# 1 0.005619 -0.000280 -0.002197 0.000000 0.000000 0.000000
# 2 -0.000280 0.011440 -0.002145 0.000000 0.000000 0.000000
# 3 -0.002197 -0.002145 0.010255 0.000000 0.000000 0.000000
# 4 0.000000 0.000000 0.000000 0.026971 0.000000 0.000000
# 5 0.000000 0.000000 0.000000 0.000000 0.025189 0.000000
# 6 0.000000 0.000000 0.000000 0.000000 0.000000 0.035173
#
#
# Mechanical properties :
#
#
# Convention : Reuss Voigt Hill
#
# Bulk Modulus (GPa) = 55.33194 62.18476 58.75835
# Shear Modulus (GPa) = 38.48751 42.35572 40.42161
#
# Velocity S-wave (km/s) = 4.17288 4.37756 4.27644
# Velocity P-wave (km/s) = 6.94630 7.32700 7.13919
#
# Compressibility (1/GPa) = 0.01807274
#
# Stress axis : x y z
#
# Youngs Moduli (GPa) = 177.96638 87.41198 97.51235
#
# Poissons Ratio (x) = 0.02444 0.21419
# Poissons Ratio (y) = 0.04976 0.20913
# Poissons Ratio (z) = 0.39090 0.18747
#
# Static dielectric constant tensor:
#      x y z
#    x 5.966380 0.000000 0.000000 
#    y 0.000000 3.902010 0.000000 
#    z 0.000000 0.000000 3.757940 
# 
# 
# High freq. dielectric constant tensor:
#      x y z
#    x 1.902050 0.000000 0.000000 
#    y 0.000000 1.870240 0.000000 
#    z 0.000000 0.000000 1.853020 
# 
# From -- ./inp_files/8496.got.cif
#   From: 2010.03.12/outbox.cif.g09.slc.cpg/sg53_5_cif.got.tgz:8496.got - 2010.04.16 14:36:59.
