data_PCOD8220072
_publ_section_title
;
Structure prediction by ZEFSAII (Michael W. Deem and Ramdas Pophale) SiO2 
 PCOD8220072
Probable space group: P M N A
;
_chemical_formula_sum "Si O2"
_cell_formula_units_Z 64
_cell_length_a 8.794697
_cell_length_b 22.499319
_cell_length_c 17.518821
_cell_angle_alpha 90.000000
_cell_angle_beta 90.000000
_cell_angle_gamma 90.000000
_cell_volume 3466.531333
_symmetry_space_group_name_H-M "P M N A"
_symmetry_group_IT_number 53
_symmetry_cell_setting 'orthorhombic'
loop_
_space_group_symop_operation_xyz
x,y,z
1/2-x,-y,1/2+z
x,-y,-z
1/2-x,y,1/2-z
-x,-y,-z
1/2+x,y,1/2-z
-x,y,z
1/2+x,-y,1/2+z
loop_
_atom_site_type_symbol
_atom_site_label
_atom_site_fract_x
_atom_site_fract_y
_atom_site_fract_z
Si Si1 0.820800 0.055931 0.332609
Si Si2 0.674530 0.624409 0.531690
Si Si3 0.823042 0.299472 0.672648
Si Si4 0.832174 0.960168 0.074662
Si Si5 0.680056 0.864165 0.537359
Si Si6 0.320860 0.255905 0.989466
Si Si7 0.824780 0.457493 0.174116
Si Si8 0.320992 0.574176 0.110412
O O1 0.750000 0.066959 0.250000
O O2 0.759386 0.106118 0.389732
O O3 0.000000 0.061349 0.326628
O O4 0.778859 0.989700 0.363140
O O5 0.500000 0.640914 0.514295
O O6 0.776681 0.683336 0.531766
O O7 0.693644 0.594134 0.612999
O O8 0.733738 0.576955 0.469961
O O9 0.750000 0.274241 0.750000
O O10 0.771039 0.260578 0.599517
O O11 0.775616 0.367955 0.659745
O O12 0.000000 0.293542 0.683451
O O13 0.000000 0.954356 0.112106
O O14 0.772487 0.896652 0.042674
O O15 0.843518 0.000000 0.000000
O O16 0.500000 0.868850 0.549735
O O17 0.731793 0.796532 0.531204
O O18 0.500000 0.245665 0.997621
O O19 0.750000 0.430642 0.250000
O O20 0.731193 0.516321 0.154542
O O21 0.000000 0.475209 0.185913
O O22 0.500000 0.572575 0.094166
#
# Coordination Sequence:
#
# PCOD8220072 Si02
#       8
#     8   8   8   8   8   8   8   8
#     4  11  21  34  55  83 115 147 181 224 269 312
#     4  10  21  37  55  76 103 137 178 222 269 322
#     4   9  19  33  50  75 104 133 168 212 262 316
#     4   8  16  32  53  78 108 139 171 210 258 311
#     4  10  20  36  58  82 109 143 183 223 266 318
#     4  10  21  37  56  79 106 140 184 226 266 317
#     4  11  23  36  52  76 105 136 172 217 269 325
#     4  10  20  34  54  79 105 134 170 215 268 327
#
# _framework density 18.462259
#
# number of rings (size 3 to 8) (size 9 to 14) (size 15 to 20)
#    0.000    2.125    0.000    5.250    0.000   10.250 
#    0.000    1.250    0.000    3.000    0.000    0.000 
#    0.000    0.000    0.000    0.000    0.000    0.000 
#
# Total GULP energy -793576.386119 kJ/mol
# GULP energy per Si atom -12399.631033 kJ/mol
# Density = 1.842024 g / cm^3
# Si number density = 18.462259 Si / 1000 Ang^3
#
#
#
# Elastic Constant Matrix: (Units=GPa)
#
#
# Indices 1 2 3 4 5 6 
#
# 1 92.9579 30.3307 57.0496 0.0000 0.0000 0.0000
# 2 30.3307 68.3887 41.8390 0.0000 0.0000 0.0000
# 3 57.0496 41.8390 117.1606 0.0000 0.0000 0.0000
# 4 0.0000 0.0000 0.0000 14.8718 0.0000 0.0000
# 5 0.0000 0.0000 0.0000 0.0000 33.1215 0.0000
# 6 0.0000 0.0000 0.0000 0.0000 0.0000 12.3404
#
#
#
# Elastic Compliance Matrix: (Units=1/GPa)
#
#
# Indices 1 2 3 4 5 6 
#
# 1 0.015792 -0.002942 -0.006639 0.000000 0.000000 0.000000
# 2 -0.002942 0.019258 -0.005445 0.000000 0.000000 0.000000
# 3 -0.006639 -0.005445 0.013712 0.000000 0.000000 0.000000
# 4 0.000000 0.000000 0.000000 0.067241 0.000000 0.000000
# 5 0.000000 0.000000 0.000000 0.000000 0.030192 0.000000
# 6 0.000000 0.000000 0.000000 0.000000 0.000000 0.081035
#
#
# Mechanical properties :
#
#
# Convention : Reuss Voigt Hill
#
# Bulk Modulus (GPa) = 53.44478 59.66067 56.55273
# Shear Modulus (GPa) = 18.97397 22.01925 20.49661
#
# Velocity S-wave (km/s) = 3.20928 3.45724 3.33557
# Velocity P-wave (km/s) = 6.53786 6.95139 6.74779
#
# Compressibility (1/GPa) = 0.01871090
#
# Stress axis : x y z
#
# Youngs Moduli (GPa) = 63.32323 51.92630 72.92698
#
# Poissons Ratio (x) = 0.15278 0.48416
# Poissons Ratio (y) = 0.18631 0.39705
# Poissons Ratio (z) = 0.42040 0.28272
#
# Static dielectric constant tensor:
#      x y z
#    x 3.484070 0.000000 0.000000 
#    y 0.000000 3.416000 0.000000 
#    z 0.000000 0.000000 3.446700 
# 
# 
# High freq. dielectric constant tensor:
#      x y z
#    x 1.727180 0.000000 0.000000 
#    y 0.000000 1.702440 0.000000 
#    z 0.000000 0.000000 1.710460 
# 
# From -- ./inp_files/26800.got.cif
#   From: 2010.03.12/outbox.cif.g09.slc.cpg/sg53_14_cif.got.tgz:26800.got - 2010.04.16 14:36:59.
