data_PCOD8220508
_publ_section_title
;
Structure prediction by ZEFSAII (Michael W. Deem and Ramdas Pophale) SiO2 
 PCOD8220508
Probable space group: P M N A
;
_chemical_formula_sum "Si O2"
_cell_formula_units_Z 64
_cell_length_a 9.130128
_cell_length_b 12.312516
_cell_length_c 29.230483
_cell_angle_alpha 90.000000
_cell_angle_beta 90.000000
_cell_angle_gamma 90.000000
_cell_volume 3285.940277
_symmetry_space_group_name_H-M "P M N A"
_symmetry_group_IT_number 53
_symmetry_cell_setting 'orthorhombic'
loop_
_space_group_symop_operation_xyz
x,y,z
1/2-x,-y,1/2+z
x,-y,-z
1/2-x,y,1/2-z
-x,-y,-z
1/2+x,y,1/2-z
-x,y,z
1/2+x,-y,1/2+z
loop_
_atom_site_type_symbol
_atom_site_label
_atom_site_fract_x
_atom_site_fract_y
_atom_site_fract_z
Si Si1 0.173432 0.065042 0.297560
Si Si2 0.825320 0.897642 0.029641
Si Si3 0.666965 0.691007 0.794225
Si Si4 0.833882 0.495312 0.928080
Si Si5 0.170811 0.093552 0.864987
Si Si6 0.670888 0.282444 0.705107
Si Si7 0.830775 0.527526 0.339598
Si Si8 0.835520 0.676293 0.992177
O O1 0.250000 0.029998 0.250000
O O2 0.216499 0.189213 0.310078
O O3 0.000000 0.046491 0.292581
O O4 0.234817 0.997175 0.339689
O O5 0.772670 0.901570 0.082505
O O6 0.756825 0.790330 0.004805
O O7 0.000000 0.890918 0.029817
O O8 0.769116 0.000000 0.000000
O O9 0.750000 0.649933 0.750000
O O10 0.500000 0.696035 0.779452
O O11 0.696199 0.601081 0.832711
O O12 0.726518 0.449698 0.890002
O O13 0.837115 0.399916 0.964234
O O14 0.000000 0.513682 0.909626
O O15 0.767438 0.607461 0.949857
O O16 0.198354 0.207701 0.839358
O O17 0.000000 0.061653 0.862809
O O18 0.750000 0.231725 0.750000
O O19 0.500000 0.294961 0.715772
O O20 0.739962 0.400630 0.696221
O O21 0.000000 0.559995 0.335095
O O22 0.000000 0.704296 0.977358
#
# Coordination Sequence:
#
# PCOD8220508 Si02
#       8
#     8   8   8   8   8   8   8   8
#     4  10  20  36  57  79 106 140 179 222 270 325
#     4   9  17  30  50  77 108 139 174 221 272 321
#     4   9  20  36  52  72 100 135 170 210 257 305
#     4   9  17  31  53  76  99 133 175 218 263 310
#     4  10  21  36  56  83 112 142 180 227 275 325
#     4  11  23  38  56  80 112 147 183 224 272 324
#     4  11  22  35  52  78 111 142 177 218 264 318
#     4   8  15  30  50  72  99 132 172 215 261 313
#
# _framework density 19.476921000000001
#
# number of rings (size 3 to 8) (size 9 to 14) (size 15 to 20)
#    0.000    2.375    0.000    3.375    0.000    7.500 
#    0.000    2.500    0.000    1.125    0.000    0.000 
#    0.000    0.000    0.000    0.000    0.000    0.000 
#
# Total GULP energy -793270.933982 kJ/mol
# GULP energy per Si atom -12394.858343 kJ/mol
# Density = 1.943259 g / cm^3
# Si number density = 19.476921 Si / 1000 Ang^3
#
#
#
# Elastic Constant Matrix: (Units=GPa)
#
#
# Indices 1 2 3 4 5 6 
#
# 1 64.8089 35.3652 33.1944 0.0000 0.0000 0.0000
# 2 35.3652 109.2624 41.5068 0.0000 0.0000 0.0000
# 3 33.1944 41.5068 97.9145 0.0000 0.0000 0.0000
# 4 0.0000 0.0000 0.0000 27.4328 0.0000 0.0000
# 5 0.0000 0.0000 0.0000 0.0000 24.6117 0.0000
# 6 0.0000 0.0000 0.0000 0.0000 0.0000 20.0562
#
#
#
# Elastic Compliance Matrix: (Units=1/GPa)
#
#
# Indices 1 2 3 4 5 6 
#
# 1 0.020572 -0.004779 -0.004949 0.000000 0.000000 0.000000
# 2 -0.004779 0.012019 -0.003475 0.000000 0.000000 0.000000
# 3 -0.004949 -0.003475 0.013364 0.000000 0.000000 0.000000
# 4 0.000000 0.000000 0.000000 0.036453 0.000000 0.000000
# 5 0.000000 0.000000 0.000000 0.000000 0.040631 0.000000
# 6 0.000000 0.000000 0.000000 0.000000 0.000000 0.049860
#
#
# Mechanical properties :
#
#
# Convention : Reuss Voigt Hill
#
# Bulk Modulus (GPa) = 51.14948 54.67986 52.91467
# Shear Modulus (GPa) = 24.29306 25.21476 24.75391
#
# Velocity S-wave (km/s) = 3.53551 3.60195 3.56889
# Velocity P-wave (km/s) = 6.55630 6.74047 6.64902
#
# Compressibility (1/GPa) = 0.01955054
#
# Stress axis : x y z
#
# Youngs Moduli (GPa) = 48.60903 83.20082 74.82979
#
# Poissons Ratio (x) = 0.39760 0.37030
# Poissons Ratio (y) = 0.23229 0.26003
# Poissons Ratio (z) = 0.24054 0.28912
#
# Static dielectric constant tensor:
#      x y z
#    x 3.324950 0.000000 0.000000 
#    y 0.000000 3.819990 0.000000 
#    z 0.000000 0.000000 3.644340 
# 
# 
# High freq. dielectric constant tensor:
#      x y z
#    x 1.726780 0.000000 0.000000 
#    y 0.000000 1.770500 0.000000 
#    z 0.000000 0.000000 1.755130 
# 
# From -- ./inp_files/38283.got.cif
#   From: 2010.03.12/outbox.cif.g09.slc.cpg/sg53_20_cif.got.tgz:38283.got - 2010.04.16 14:36:59.
