data_PCOD8220281
_publ_section_title
;
Structure prediction by ZEFSAII (Michael W. Deem and Ramdas Pophale) SiO2 
 PCOD8220281
Probable space group: P M N A
;
_chemical_formula_sum "Si O2"
_cell_formula_units_Z 48
_cell_length_a 8.704242
_cell_length_b 8.057967
_cell_length_c 34.755115
_cell_angle_alpha 90.000000
_cell_angle_beta 90.000000
_cell_angle_gamma 90.000000
_cell_volume 2437.671453
_symmetry_space_group_name_H-M "P M N A"
_symmetry_group_IT_number 53
_symmetry_cell_setting 'orthorhombic'
loop_
_space_group_symop_operation_xyz
x,y,z
1/2-x,-y,1/2+z
x,-y,-z
1/2-x,y,1/2-z
-x,-y,-z
1/2+x,y,1/2-z
-x,y,z
1/2+x,-y,1/2+z
loop_
_atom_site_type_symbol
_atom_site_label
_atom_site_fract_x
_atom_site_fract_y
_atom_site_fract_z
Si Si1 0.825599 0.582251 0.041738
Si Si2 0.317145 0.428698 0.792234
Si Si3 0.317656 0.081613 0.708014
Si Si4 0.165464 0.812377 0.505031
Si Si5 0.819950 0.743911 0.834973
Si Si6 0.820369 0.315433 0.414600
O O1 0.723550 0.507221 0.076332
O O2 0.000000 0.573412 0.055241
O O3 0.793495 0.500000 0.000000
O O4 0.772192 0.767937 0.031811
O O5 0.250000 0.457470 0.750000
O O6 0.500000 0.417916 0.790509
O O7 0.270066 0.586712 0.817653
O O8 0.252305 0.253667 0.809333
O O9 0.250000 0.051150 0.750000
O O10 0.500000 0.101847 0.710070
O O11 0.269407 0.920096 0.683354
O O12 0.238081 0.780989 0.547260
O O13 0.000000 0.717049 0.503372
O O14 0.130640 0.000000 0.500000
O O15 0.777973 0.756427 0.879674
O O16 0.000000 0.713868 0.828921
O O17 0.000000 0.296099 0.405390
#
# Coordination Sequence:
#
# PCOD8220281 Si02
#       6
#     8   8   8   8   8   8
#     4   9  17  31  52  75 101 136 177 222 269 325
#     4  11  22  38  62  89 118 154 196 241 286 345
#     4  10  21  38  61  87 117 155 196 243 290 342
#     4   9  18  34  55  79 107 141 183 232 279 336
#     4  11  23  39  59  85 120 157 195 242 295 347
#     4  10  20  35  55  79 108 145 186 231 284 341
#
# _framework density 19.690925
#
# number of rings (size 3 to 8) (size 9 to 14) (size 15 to 20)
#    0.000    2.000    0.000    5.000    0.000    7.000 
#    3.000    0.000    0.000    0.000    0.000    0.000 
#    0.000    0.000    0.000    0.000    0.000    0.000 
#
# Total GULP energy -594804.624351 kJ/mol
# GULP energy per Si atom -12391.763007 kJ/mol
# Density = 1.964611 g / cm^3
# Si number density = 19.690925 Si / 1000 Ang^3
#
#
#
# Elastic Constant Matrix: (Units=GPa)
#
#
# Indices 1 2 3 4 5 6 
#
# 1 93.8042 40.4530 23.4752 0.0000 0.0000 0.0000
# 2 40.4530 119.9180 44.6285 0.0000 0.0000 0.0000
# 3 23.4752 44.6285 76.6093 0.0000 0.0000 0.0000
# 4 0.0000 0.0000 0.0000 19.8783 0.0000 0.0000
# 5 0.0000 0.0000 0.0000 0.0000 30.9479 0.0000
# 6 0.0000 0.0000 0.0000 0.0000 0.0000 21.6371
#
#
#
# Elastic Compliance Matrix: (Units=1/GPa)
#
#
# Indices 1 2 3 4 5 6 
#
# 1 0.012662 -0.003610 -0.001777 0.000000 0.000000 0.000000
# 2 -0.003610 0.011677 -0.005696 0.000000 0.000000 0.000000
# 3 -0.001777 -0.005696 0.016916 0.000000 0.000000 0.000000
# 4 0.000000 0.000000 0.000000 0.050306 0.000000 0.000000
# 5 0.000000 0.000000 0.000000 0.000000 0.032312 0.000000
# 6 0.000000 0.000000 0.000000 0.000000 0.000000 0.046217
#
#
# Mechanical properties :
#
#
# Convention : Reuss Voigt Hill
#
# Bulk Modulus (GPa) = 52.38731 56.38278 54.38504
# Shear Modulus (GPa) = 25.17383 26.61097 25.89240
#
# Velocity S-wave (km/s) = 3.57942 3.68017 3.63015
# Velocity P-wave (km/s) = 6.61404 6.83771 6.72681
#
# Compressibility (1/GPa) = 0.01908859
#
# Stress axis : x y z
#
# Youngs Moduli (GPa) = 78.97612 85.64091 59.11591
#
# Poissons Ratio (x) = 0.30917 0.10505
# Poissons Ratio (y) = 0.28511 0.33672
# Poissons Ratio (z) = 0.14034 0.48781
#
# Static dielectric constant tensor:
#      x y z
#    x 3.630820 0.000000 0.000000 
#    y 0.000000 3.816540 0.000000 
#    z 0.000000 0.000000 3.618690 
# 
# 
# High freq. dielectric constant tensor:
#      x y z
#    x 1.779210 0.000000 0.000000 
#    y 0.000000 1.768320 0.000000 
#    z 0.000000 0.000000 1.750380 
# 
# From -- ./inp_files/37787.got.cif
#   From: 2010.03.12/outbox.cif.g09.slc.cpg/sg53_19_cif.got.tgz:37787.got - 2010.04.16 14:36:59.
