data_PCOD8220858
_publ_section_title
;
Structure prediction by ZEFSAII (Michael W. Deem and Ramdas Pophale) SiO2 
 PCOD8220858
Probable space group: P M N A
;
_chemical_formula_sum "Si O2"
_cell_formula_units_Z 48
_cell_length_a 30.054528
_cell_length_b 9.729185
_cell_length_c 8.360524
_cell_angle_alpha 90.000000
_cell_angle_beta 90.000000
_cell_angle_gamma 90.000000
_cell_volume 2444.667907
_symmetry_space_group_name_H-M "P M N A"
_symmetry_group_IT_number 53
_symmetry_cell_setting 'orthorhombic'
loop_
_space_group_symop_operation_xyz
x,y,z
1/2-x,-y,1/2+z
x,-y,-z
1/2-x,y,1/2-z
-x,-y,-z
1/2+x,y,1/2-z
-x,y,z
1/2+x,-y,1/2+z
loop_
_atom_site_type_symbol
_atom_site_label
_atom_site_fract_x
_atom_site_fract_y
_atom_site_fract_z
Si Si1 0.205916 0.584347 0.661269
Si Si2 0.097305 0.777526 0.372553
Si Si3 0.615527 0.507634 0.312279
Si Si4 0.676890 0.870895 0.906878
Si Si5 0.448635 0.711855 0.819274
Si Si6 0.103689 0.040897 0.182463
O O1 0.199658 0.500000 0.500000
O O2 0.250000 0.531485 0.750000
O O3 0.163356 0.557639 0.772323
O O4 0.211570 0.748554 0.628929
O O5 0.111295 0.664101 0.243727
O O6 0.139507 0.803794 0.483163
O O7 0.056966 0.737926 0.490605
O O8 0.082890 0.914394 0.280556
O O9 0.607975 0.500000 0.500000
O O10 0.576788 0.427505 0.221810
O O11 0.653461 0.923930 0.744441
O O12 0.699949 0.000000 0.000000
O O13 0.500000 0.692551 0.778288
O O14 0.429608 0.832741 0.707352
O O15 0.107900 0.000000 0.000000
#
# Coordination Sequence:
#
# PCOD8220858 Si02
#       6
#     8   8   8   8   8   8
#     4  12  23  43  66  95 129 165 211 255 309 376
#     4  10  20  37  64  86 121 166 204 252 305 383
#     4  12  23  40  64  92 125 164 206 264 320 367
#     4   9  19  39  64  87 122 164 204 246 307 372
#     4  11  23  40  61  88 124 168 214 256 310 377
#     4  10  20  37  62  93 121 160 207 258 312 370
#
# _framework density 19.634571000000001
#
# number of rings (size 3 to 8) (size 9 to 14) (size 15 to 20)
#    0.000    1.333    5.000    3.500    0.000    3.333 
#    0.000    3.333    0.000    0.000    0.000    0.000 
#    0.000    0.000    0.000    0.000    0.000    0.000 
#
# Total GULP energy -595271.440829 kJ/mol
# GULP energy per Si atom -12401.488351 kJ/mol
# Density = 1.958988 g / cm^3
# Si number density = 19.634571 Si / 1000 Ang^3
#
#
#
# Elastic Constant Matrix: (Units=GPa)
#
#
# Indices 1 2 3 4 5 6 
#
# 1 62.7397 11.3561 12.7558 0.0000 0.0000 0.0000
# 2 11.3561 84.9305 10.4307 0.0000 0.0000 0.0000
# 3 12.7558 10.4307 109.1126 0.0000 0.0000 0.0000
# 4 0.0000 0.0000 0.0000 30.7229 0.0000 0.0000
# 5 0.0000 0.0000 0.0000 0.0000 9.8390 0.0000
# 6 0.0000 0.0000 0.0000 0.0000 0.0000 3.6117
#
#
#
# Elastic Compliance Matrix: (Units=1/GPa)
#
#
# Indices 1 2 3 4 5 6 
#
# 1 0.016660 -0.002012 -0.001755 0.000000 0.000000 0.000000
# 2 -0.002012 0.012157 -0.000927 0.000000 0.000000 0.000000
# 3 -0.001755 -0.000927 0.009459 0.000000 0.000000 0.000000
# 4 0.000000 0.000000 0.000000 0.032549 0.000000 0.000000
# 5 0.000000 0.000000 0.000000 0.000000 0.101636 0.000000
# 6 0.000000 0.000000 0.000000 0.000000 0.000000 0.276882
#
#
# Mechanical properties :
#
#
# Convention : Reuss Voigt Hill
#
# Bulk Modulus (GPa) = 34.61738 36.20758 35.41248
# Shear Modulus (GPa) = 10.67554 23.65073 17.16314
#
# Velocity S-wave (km/s) = 2.33429 3.47442 2.95977
# Velocity P-wave (km/s) = 4.99343 5.88016 5.45484
#
# Compressibility (1/GPa) = 0.02888722
#
# Stress axis : x y z
#
# Youngs Moduli (GPa) = 60.02432 82.25578 105.72326
#
# Poissons Ratio (x) = 0.16550 0.18557
# Poissons Ratio (y) = 0.12077 0.09800
# Poissons Ratio (z) = 0.10536 0.07625
#
# Static dielectric constant tensor:
#      x y z
#    x 3.266040 0.000000 0.000000 
#    y 0.000000 4.081390 0.000000 
#    z 0.000000 0.000000 3.732630 
# 
# 
# High freq. dielectric constant tensor:
#      x y z
#    x 1.731140 0.000000 0.000000 
#    y 0.000000 1.786570 0.000000 
#    z 0.000000 0.000000 1.770680 
# 
# From -- ./inp_files/13027.got.cif
#   From: 2010.03.12/outbox.cif.g09.slc.cpg/sg53_7_cif.got.tgz:13027.got - 2010.04.16 14:36:59.
