data_PCOD8220499
_publ_section_title
;
Structure prediction by ZEFSAII (Michael W. Deem and Ramdas Pophale) SiO2 
 PCOD8220499
Probable space group: P M N A
;
_chemical_formula_sum "Si O2"
_cell_formula_units_Z 52
_cell_length_a 13.939430
_cell_length_b 8.787360
_cell_length_c 20.874177
_cell_angle_alpha 90.000000
_cell_angle_beta 90.000000
_cell_angle_gamma 90.000000
_cell_volume 2556.894423
_symmetry_space_group_name_H-M "P M N A"
_symmetry_group_IT_number 53
_symmetry_cell_setting 'orthorhombic'
loop_
_space_group_symop_operation_xyz
x,y,z
1/2-x,-y,1/2+z
x,-y,-z
1/2-x,y,1/2-z
-x,-y,-z
1/2+x,y,1/2-z
-x,y,z
1/2+x,-y,1/2+z
loop_
_atom_site_type_symbol
_atom_site_label
_atom_site_fract_x
_atom_site_fract_y
_atom_site_fract_z
Si Si1 0.892057 0.544962 0.206241
Si Si2 0.113273 0.700623 0.555205
Si Si3 0.764702 0.065782 0.071105
Si Si4 0.249640 0.500000 0.000000
Si Si5 0.257369 0.810497 0.324401
Si Si6 0.890297 0.647454 0.909172
Si Si7 0.111101 0.429842 0.652838
O O1 0.838200 0.682288 0.171628
O O2 0.885157 0.388724 0.166355
O O3 0.854615 0.507592 0.277605
O O4 0.000000 0.604254 0.211107
O O5 0.158581 0.857647 0.580988
O O6 0.177262 0.647780 0.493129
O O7 0.138773 0.563025 0.603675
O O8 0.000000 0.718190 0.540480
O O9 0.850460 0.186112 0.076748
O O10 0.782676 0.947819 0.128198
O O11 0.770699 0.000000 0.000000
O O12 0.177486 0.518480 0.940645
O O13 0.250000 0.867383 0.250000
O O14 0.161883 0.733606 0.354454
O O15 0.000000 0.636559 0.934368
O O16 0.000000 0.395447 0.646661
#
# Coordination Sequence:
#
# PCOD8220499 Si02
#       7
#     8   8   8   4   8   8   8
#     4   9  19  37  63  91 113 141 192 250 297 348
#     4  10  22  39  61  85 112 154 197 242 297 345
#     4  11  26  39  54  83 127 161 200 242 286 355
#     4  10  20  36  56  86 112 138 192 242 280 340
#     4  10  21  38  60  86 119 160 194 237 297 356
#     4  10  22  39  61  85 112 154 197 242 297 345
#     4   9  19  37  63  91 113 141 192 250 297 348
#
# _framework density 20.337171000000001
#
# number of rings (size 3 to 8) (size 9 to 14) (size 15 to 20)
#    0.000    2.154    0.000    2.308    8.615    3.077 
#    0.000    0.000    0.000    0.000    0.000    0.000 
#    0.000    0.000    0.000    0.000    0.000    0.000 
#
# Total GULP energy -644219.446204 kJ/mol
# GULP energy per Si atom -12388.835504 kJ/mol
# Density = 2.029088 g / cm^3
# Si number density = 20.337171 Si / 1000 Ang^3
#
#
#
# Elastic Constant Matrix: (Units=GPa)
#
#
# Indices 1 2 3 4 5 6 
#
# 1 117.3613 40.5248 31.7009 0.0000 0.0000 0.0000
# 2 40.5248 96.2228 59.9248 0.0000 0.0000 0.0000
# 3 31.7009 59.9248 96.5956 0.0000 0.0000 0.0000
# 4 0.0000 0.0000 0.0000 35.1637 0.0000 0.0000
# 5 0.0000 0.0000 0.0000 0.0000 23.4573 0.0000
# 6 0.0000 0.0000 0.0000 0.0000 0.0000 20.9153
#
#
#
# Elastic Compliance Matrix: (Units=1/GPa)
#
#
# Indices 1 2 3 4 5 6 
#
# 1 0.010041 -0.003547 -0.001095 0.000000 0.000000 0.000000
# 2 -0.003547 0.018189 -0.010120 0.000000 0.000000 0.000000
# 3 -0.001095 -0.010120 0.016990 0.000000 0.000000 0.000000
# 4 0.000000 0.000000 0.000000 0.028438 0.000000 0.000000
# 5 0.000000 0.000000 0.000000 0.000000 0.042631 0.000000
# 6 0.000000 0.000000 0.000000 0.000000 0.000000 0.047812
#
#
# Mechanical properties :
#
#
# Convention : Reuss Voigt Hill
#
# Bulk Modulus (GPa) = 63.70857 63.83117 63.76987
# Shear Modulus (GPa) = 25.14391 27.77589 26.45990
#
# Velocity S-wave (km/s) = 3.51999 3.69964 3.61094
# Velocity P-wave (km/s) = 6.92204 7.05013 6.98638
#
# Compressibility (1/GPa) = 0.01569648
#
# Stress axis : x y z
#
# Youngs Moduli (GPa) = 99.58934 54.97962 58.85967
#
# Poissons Ratio (x) = 0.19502 0.06444
# Poissons Ratio (y) = 0.35325 0.59563
# Poissons Ratio (z) = 0.10904 0.55637
#
# Static dielectric constant tensor:
#      x y z
#    x 3.932800 0.000000 0.000000 
#    y 0.000000 3.534140 0.000000 
#    z 0.000000 0.000000 4.000990 
# 
# 
# High freq. dielectric constant tensor:
#      x y z
#    x 1.813290 0.000000 0.000000 
#    y 0.000000 1.769200 0.000000 
#    z 0.000000 0.000000 1.801660 
# 
# From -- ./inp_files/32368.got.cif
#   From: 2010.03.12/outbox.cif.g09.slc.cpg/sg53_17_cif.got.tgz:32368.got - 2010.04.16 14:36:59.
