data_PCOD8220989
_publ_section_title
;
Structure prediction by ZEFSAII (Michael W. Deem and Ramdas Pophale) SiO2 
 PCOD8220989
Probable space group: P M N A
;
_chemical_formula_sum "Si O2"
_cell_formula_units_Z 64
_cell_length_a 8.687114
_cell_length_b 19.882451
_cell_length_c 18.460776
_cell_angle_alpha 90.000000
_cell_angle_beta 90.000000
_cell_angle_gamma 90.000000
_cell_volume 3188.565878
_symmetry_space_group_name_H-M "P M N A"
_symmetry_group_IT_number 53
_symmetry_cell_setting 'orthorhombic'
loop_
_space_group_symop_operation_xyz
x,y,z
1/2-x,-y,1/2+z
x,-y,-z
1/2-x,y,1/2-z
-x,-y,-z
1/2+x,y,1/2-z
-x,y,z
1/2+x,-y,1/2+z
loop_
_atom_site_type_symbol
_atom_site_label
_atom_site_fract_x
_atom_site_fract_y
_atom_site_fract_z
Si Si1 0.318073 0.060699 0.416614
Si Si2 0.318781 0.467126 0.926519
Si Si3 0.321639 0.293933 0.071816
Si Si4 0.681170 0.196324 0.670492
Si Si5 0.180914 0.586460 0.671956
Si Si6 0.183013 0.082249 0.569148
Si Si7 0.678052 0.677431 0.423441
Si Si8 0.321050 0.170421 0.175423
O O1 0.500000 0.060827 0.429043
O O2 0.235351 0.093364 0.486396
O O3 0.270954 0.103624 0.346799
O O4 0.260886 0.985465 0.401130
O O5 0.500000 0.463306 0.935646
O O6 0.270582 0.513772 0.858921
O O7 0.261499 0.392806 0.909787
O O8 0.248849 0.500000 0.000000
O O9 0.500000 0.305348 0.053253
O O10 0.256194 0.356761 0.117434
O O11 0.292456 0.226359 0.115373
O O12 0.230079 0.287536 0.997492
O O13 0.750000 0.188770 0.750000
O O14 0.500000 0.181067 0.671601
O O15 0.763817 0.144044 0.617739
O O16 0.715752 0.271561 0.641959
O O17 0.250000 0.597962 0.750000
O O18 0.000000 0.594359 0.679021
O O19 0.000000 0.075435 0.571853
O O20 0.500000 0.661381 0.428120
O O21 0.250000 0.197504 0.250000
O O22 0.500000 0.153885 0.185137
#
# Coordination Sequence:
#
# PCOD8220989 Si02
#       8
#     8   8   8   8   8   8   8   8
#     4  11  22  39  63  91 125 162 204 253 302 362
#     4  10  20  39  63  84 116 157 200 243 295 362
#     4  10  21  39  61  84 117 159 202 240 294 361
#     4  11  25  44  63  90 125 163 206 254 312 372
#     4  10  21  37  58  86 117 154 194 240 296 356
#     4  11  22  40  66  94 122 157 203 254 307 365
#     4  11  24  39  62  92 121 152 198 253 301 352
#     4  11  23  38  58  86 121 161 202 249 300 358
#
# _framework density 20.071719000000002
#
# number of rings (size 3 to 8) (size 9 to 14) (size 15 to 20)
#    0.000    1.375    1.250    5.250    0.000    7.250 
#    0.000    5.000    0.000    0.000    0.000    0.000 
#    0.000    0.000    0.000    0.000    0.000    0.000 
#
# Total GULP energy -793864.748101 kJ/mol
# GULP energy per Si atom -12404.136689 kJ/mol
# Density = 2.002604 g / cm^3
# Si number density = 20.071719 Si / 1000 Ang^3
#
#
#
# Elastic Constant Matrix: (Units=GPa)
#
#
# Indices 1 2 3 4 5 6 
#
# 1 62.3033 27.8146 15.7414 0.0000 0.0000 0.0000
# 2 27.8146 92.2955 16.5225 0.0000 0.0000 0.0000
# 3 15.7414 16.5225 55.3394 0.0000 0.0000 0.0000
# 4 0.0000 0.0000 0.0000 638.5753 0.0000 0.0000
# 5 0.0000 0.0000 0.0000 0.0000 33.6922 0.0000
# 6 0.0000 0.0000 0.0000 0.0000 0.0000 34.6122
#
#
#
# Elastic Compliance Matrix: (Units=1/GPa)
#
#
# Indices 1 2 3 4 5 6 
#
# 1 0.019339 -0.005117 -0.003973 0.000000 0.000000 0.000000
# 2 -0.005117 0.012800 -0.002366 0.000000 0.000000 0.000000
# 3 -0.003973 -0.002366 0.019907 0.000000 0.000000 0.000000
# 4 0.000000 0.000000 0.000000 0.001566 0.000000 0.000000
# 5 0.000000 0.000000 0.000000 0.000000 0.029680 0.000000
# 6 0.000000 0.000000 0.000000 0.000000 0.000000 0.028892
#
#
# Mechanical properties :
#
#
# Convention : Reuss Voigt Hill
#
# Bulk Modulus (GPa) = 34.32469 36.67723 35.50096
# Shear Modulus (GPa) = 34.52855 151.36660 92.94757
#
# Velocity S-wave (km/s) = 4.15210 8.69348 6.81236
# Velocity P-wave (km/s) = 6.33441 10.91245 8.92206
#
# Compressibility (1/GPa) = 0.02913354
#
# Stress axis : x y z
#
# Youngs Moduli (GPa) = 51.70982 78.12277 50.23357
#
# Poissons Ratio (x) = 0.39973 0.19959
# Poissons Ratio (y) = 0.26458 0.11887
# Poissons Ratio (z) = 0.20546 0.18486
#
# Static dielectric constant tensor:
#      x y z
#    x 3.650450 0.000000 0.000000 
#    y 0.000000 3.758380 0.000000 
#    z 0.000000 0.000000 3.691470 
# 
# 
# High freq. dielectric constant tensor:
#      x y z
#    x 1.786010 0.000000 0.000000 
#    y 0.000000 1.797340 0.000000 
#    z 0.000000 0.000000 1.784710 
# 
# From -- ./inp_files/26982.got.cif
#   From: 2010.03.12/outbox.cif.g09.slc.cpg/sg53_14_cif.got.tgz:26982.got - 2010.04.16 14:36:59.
