data_PCOD8220951
_publ_section_title
;
Structure prediction by ZEFSAII (Michael W. Deem and Ramdas Pophale) SiO2 
 PCOD8220951
Probable space group: P M N A
;
_chemical_formula_sum "Si O2"
_cell_formula_units_Z 48
_cell_length_a 9.540188
_cell_length_b 17.584576
_cell_length_c 13.881797
_cell_angle_alpha 90.000000
_cell_angle_beta 90.000000
_cell_angle_gamma 90.000000
_cell_volume 2328.812499
_symmetry_space_group_name_H-M "P M N A"
_symmetry_group_IT_number 53
_symmetry_cell_setting 'orthorhombic'
loop_
_space_group_symop_operation_xyz
x,y,z
1/2-x,-y,1/2+z
x,-y,-z
1/2-x,y,1/2-z
-x,-y,-z
1/2+x,y,1/2-z
-x,y,z
1/2+x,-y,1/2+z
loop_
_atom_site_type_symbol
_atom_site_label
_atom_site_fract_x
_atom_site_fract_y
_atom_site_fract_z
Si Si1 0.500000 0.586288 0.469916
Si Si2 0.835845 0.829346 0.955190
Si Si3 0.500000 0.581846 0.052031
Si Si4 0.750000 0.579296 0.750000
Si Si5 0.336982 0.107259 0.666731
Si Si6 0.000000 0.470349 0.769662
Si Si7 0.840915 0.031833 0.394343
Si Si8 0.736224 0.337556 0.057102
O O1 0.500000 0.500000 0.500000
O O2 0.500000 0.593776 0.353387
O O3 0.622952 0.629773 0.518756
O O4 0.750338 0.890996 0.893374
O O5 0.750507 0.752630 0.935458
O O6 0.000000 0.826189 0.922839
O O7 0.827622 0.846527 0.068349
O O8 0.500000 0.570107 0.166489
O O9 0.500000 0.500000 0.000000
O O10 0.628745 0.633869 0.022599
O O11 0.869285 0.524346 0.788358
O O12 0.805346 0.631323 0.662663
O O13 0.250000 0.153248 0.750000
O O14 0.500000 0.093929 0.694934
O O15 0.253529 0.027474 0.663968
O O16 0.000000 0.043690 0.351805
O O17 0.858808 0.000000 0.500000
#
# Coordination Sequence:
#
# PCOD8220951 Si02
#       8
#     4   8   4   4   8   4   8   8
#     4  12  22  42  70  92 119 168 219 264 310 394
#     4  10  22  41  60  89 128 169 207 258 321 382
#     4  12  24  44  62  94 129 162 211 276 334 386
#     4  12  22  40  68  90 120 164 210 266 330 386
#     4  10  20  38  64  91 126 166 213 259 310 376
#     4  12  24  40  68  94 118 160 216 268 324 388
#     4   9  18  35  64  92 117 159 207 251 307 373
#     4  12  24  42  64  93 130 168 213 268 330 390
#
# _framework density 20.611362
#
# number of rings (size 3 to 8) (size 9 to 14) (size 15 to 20)
#    0.000    1.167    4.167    2.500    1.167    2.667 
#    4.500    0.000    0.000    0.000    0.000    0.000 
#    0.000    0.000    0.000    0.000    0.000    0.000 
#
# Total GULP energy -594918.697920 kJ/mol
# GULP energy per Si atom -12394.139540 kJ/mol
# Density = 2.056445 g / cm^3
# Si number density = 20.611362 Si / 1000 Ang^3
#
#
#
# Elastic Constant Matrix: (Units=GPa)
#
#
# Indices 1 2 3 4 5 6 
#
# 1 116.3121 12.1370 -6.7335 0.0000 0.0000 0.0000
# 2 12.1370 83.3861 -3.2516 0.0000 0.0000 0.0000
# 3 -6.7335 -3.2516 80.5276 0.0000 0.0000 0.0000
# 4 0.0000 0.0000 0.0000 18.7123 0.0000 0.0000
# 5 0.0000 0.0000 0.0000 0.0000 30.4465 0.0000
# 6 0.0000 0.0000 0.0000 0.0000 0.0000 34.0502
#
#
#
# Elastic Compliance Matrix: (Units=1/GPa)
#
#
# Indices 1 2 3 4 5 6 
#
# 1 0.008767 -0.001250 0.000683 0.000000 0.000000 0.000000
# 2 -0.001250 0.012189 0.000388 0.000000 0.000000 0.000000
# 3 0.000683 0.000388 0.012491 0.000000 0.000000 0.000000
# 4 0.000000 0.000000 0.000000 0.053441 0.000000 0.000000
# 5 0.000000 0.000000 0.000000 0.000000 0.032844 0.000000
# 6 0.000000 0.000000 0.000000 0.000000 0.000000 0.029368
#
#
# Mechanical properties :
#
#
# Convention : Reuss Voigt Hill
#
# Bulk Modulus (GPa) = 30.22116 31.61443 30.91780
# Shear Modulus (GPa) = 31.15469 35.18007 33.16738
#
# Velocity S-wave (km/s) = 3.89206 4.13586 4.01581
# Velocity P-wave (km/s) = 5.90692 6.17890 6.04444
#
# Compressibility (1/GPa) = 0.03308940
#
# Stress axis : x y z
#
# Youngs Moduli (GPa) = 114.05810 82.03857 80.05871
#
# Poissons Ratio (x) = 0.10251 -0.05465
# Poissons Ratio (y) = 0.14252 -0.03104
# Poissons Ratio (z) = -0.07786 -0.03181
#
# Static dielectric constant tensor:
#      x y z
#    x 3.890840 0.000000 0.000000 
#    y 0.000000 5.138600 0.000000 
#    z 0.000000 0.000000 3.992000 
# 
# 
# High freq. dielectric constant tensor:
#      x y z
#    x 1.826960 0.000000 0.000000 
#    y 0.000000 1.789880 0.000000 
#    z 0.000000 0.000000 1.812160 
# 
# From -- ./inp_files/20299.got.cif
#   From: 2010.03.12/outbox.cif.g09.slc.cpg/sg53_11_cif.got.tgz:20299.got - 2010.04.16 14:36:59.
