data_PCOD8220061
_publ_section_title
;
Structure prediction by ZEFSAII (Michael W. Deem and Ramdas Pophale) SiO2 
 PCOD8220061
Probable space group: P M N A
;
_chemical_formula_sum "Si O2"
_cell_formula_units_Z 48
_cell_length_a 8.716327
_cell_length_b 21.173093
_cell_length_c 14.063010
_cell_angle_alpha 90.000000
_cell_angle_beta 90.000000
_cell_angle_gamma 90.000000
_cell_volume 2595.351027
_symmetry_space_group_name_H-M "P M N A"
_symmetry_group_IT_number 53
_symmetry_cell_setting 'orthorhombic'
loop_
_space_group_symop_operation_xyz
x,y,z
1/2-x,-y,1/2+z
x,-y,-z
1/2-x,y,1/2-z
-x,-y,-z
1/2+x,y,1/2-z
-x,y,z
1/2+x,-y,1/2+z
loop_
_atom_site_type_symbol
_atom_site_label
_atom_site_fract_x
_atom_site_fract_y
_atom_site_fract_z
Si Si1 0.817791 0.593130 0.003095
Si Si2 0.683036 0.500440 0.853997
Si Si3 0.820424 0.738141 0.014690
Si Si4 0.819066 0.071042 0.486381
Si Si5 0.820248 0.832981 0.351431
Si Si6 0.180238 0.166667 0.148230
O O1 0.733616 0.561355 0.914045
O O2 0.770395 0.666054 0.002378
O O3 0.000000 0.583054 0.994874
O O4 0.756010 0.562468 0.100355
O O5 0.750000 0.508963 0.750000
O O6 0.500000 0.495015 0.852249
O O7 0.768664 0.776268 0.920918
O O8 0.000000 0.744697 0.032163
O O9 0.737959 0.766246 0.107562
O O10 0.768367 0.110748 0.578609
O O11 0.741975 0.100334 0.392505
O O12 0.000000 0.072821 0.470785
O O13 0.758633 0.000000 0.500000
O O14 0.750000 0.847971 0.250000
O O15 0.000000 0.829453 0.340235
O O16 0.250000 0.181632 0.250000
O O17 0.000000 0.162029 0.158353
#
# Coordination Sequence:
#
# PCOD8220061 Si02
#       6
#     8   8   8   8   8   8
#     4  10  20  37  58  81 108 138 174 219 267 314
#     4  11  22  37  56  80 109 142 178 217 261 311
#     4   9  20  37  56  78 106 138 174 216 261 311
#     4   9  19  36  55  77 105 137 175 218 263 311
#     4  10  20  34  54  77 105 139 174 216 262 311
#     4  10  20  35  54  78 107 139 175 215 260 310
#
# _framework density 18.494609000000001
#
# number of rings (size 3 to 8) (size 9 to 14) (size 15 to 20)
#    0.000    2.167    0.000    4.000    0.000    5.000 
#    0.000    3.333    0.000    0.000    0.000    0.000 
#    0.000    0.000    0.000    0.000    0.000    0.000 
#
# Total GULP energy -595356.718875 kJ/mol
# GULP energy per Si atom -12403.264977 kJ/mol
# Density = 1.845251 g / cm^3
# Si number density = 18.494609 Si / 1000 Ang^3
#
#
#
# Elastic Constant Matrix: (Units=GPa)
#
#
# Indices 1 2 3 4 5 6 
#
# 1 60.6393 31.3326 26.5387 0.0000 0.0000 0.0000
# 2 31.3326 136.2147 35.2048 0.0000 0.0000 0.0000
# 3 26.5387 35.2048 107.2387 0.0000 0.0000 0.0000
# 4 0.0000 0.0000 0.0000 14.7393 0.0000 0.0000
# 5 0.0000 0.0000 0.0000 0.0000 37.4945 0.0000
# 6 0.0000 0.0000 0.0000 0.0000 0.0000 27.9465
#
#
#
# Elastic Compliance Matrix: (Units=1/GPa)
#
#
# Indices 1 2 3 4 5 6 
#
# 1 0.020013 -0.003632 -0.003761 0.000000 0.000000 0.000000
# 2 -0.003632 0.008681 -0.001951 0.000000 0.000000 0.000000
# 3 -0.003761 -0.001951 0.010896 0.000000 0.000000 0.000000
# 4 0.000000 0.000000 0.000000 0.067846 0.000000 0.000000
# 5 0.000000 0.000000 0.000000 0.000000 0.026671 0.000000
# 6 0.000000 0.000000 0.000000 0.000000 0.000000 0.035783
#
#
# Mechanical properties :
#
#
# Convention : Reuss Voigt Hill
#
# Bulk Modulus (GPa) = 47.83808 54.47165 51.15486
# Shear Modulus (GPa) = 25.56973 30.10385 27.83679
#
# Velocity S-wave (km/s) = 3.72230 4.03887 3.88381
# Velocity P-wave (km/s) = 6.66304 7.16007 6.91602
#
# Compressibility (1/GPa) = 0.02090385
#
# Stress axis : x y z
#
# Youngs Moduli (GPa) = 49.96695 115.19449 91.77566
#
# Poissons Ratio (x) = 0.41834 0.34513
# Poissons Ratio (y) = 0.18146 0.17906
# Poissons Ratio (z) = 0.18790 0.22476
#
# Static dielectric constant tensor:
#      x y z
#    x 3.442550 0.000000 0.000000 
#    y 0.000000 3.519330 0.000000 
#    z 0.000000 0.000000 3.467500 
# 
# 
# High freq. dielectric constant tensor:
#      x y z
#    x 1.726790 0.000000 0.000000 
#    y 0.000000 1.718970 0.000000 
#    z 0.000000 0.000000 1.720990 
# 
# From -- ./inp_files/20332.got.cif
#   From: 2010.03.12/outbox.cif.g09.slc.cpg/sg53_11_cif.got.tgz:20332.got - 2010.04.16 14:36:59.
