data_PCOD8220207
_publ_section_title
;
Structure prediction by ZEFSAII (Michael W. Deem and Ramdas Pophale) SiO2 
 PCOD8220207
Probable space group: P M N A
;
_chemical_formula_sum "Si O2"
_cell_formula_units_Z 40
_cell_length_a 24.338705
_cell_length_b 8.919885
_cell_length_c 8.462652
_cell_angle_alpha 90.000000
_cell_angle_beta 90.000000
_cell_angle_gamma 90.000000
_cell_volume 1837.228629
_symmetry_space_group_name_H-M "P M N A"
_symmetry_group_IT_number 53
_symmetry_cell_setting 'orthorhombic'
loop_
_space_group_symop_operation_xyz
x,y,z
1/2-x,-y,1/2+z
x,-y,-z
1/2-x,y,1/2-z
-x,-y,-z
1/2+x,y,1/2-z
-x,y,z
1/2+x,-y,1/2+z
loop_
_atom_site_type_symbol
_atom_site_label
_atom_site_fract_x
_atom_site_fract_y
_atom_site_fract_z
Si Si1 0.500000 0.171359 0.658421
Si Si2 0.284232 0.144571 0.599333
Si Si3 0.712866 0.368572 0.112116
Si Si4 0.886196 0.842961 0.287776
Si Si5 0.387283 0.187474 0.155384
Si Si6 0.000000 0.814835 0.803570
O O1 0.555437 0.228985 0.740304
O O2 0.500000 0.240481 0.483238
O O3 0.500000 0.993390 0.682391
O O4 0.250000 0.087574 0.750000
O O5 0.248342 0.254500 0.492832
O O6 0.339719 0.223095 0.669647
O O7 0.301535 0.000000 0.500000
O O8 0.750000 0.440449 0.250000
O O9 0.663120 0.290720 0.211578
O O10 0.690054 0.500000 0.000000
O O11 0.877837 0.801483 0.468293
O O12 0.882416 0.022703 0.271765
O O13 0.446923 0.248332 0.209375
#
# Coordination Sequence:
#
# PCOD8220207 Si02
#       6
#     4   8   8   8   8   4
#     4   9  19  31  53  94 127 155 197 251 318 364
#     4  12  23  38  62  94 125 160 205 259 311 367
#     4  12  27  44  62  88 124 169 211 257 312 374
#     4  10  20  34  61  90 126 159 201 252 309 370
#     4  10  20  39  59  90 122 165 202 252 311 372
#     4   9  19  33  58  88 125 161 201 256 311 372
#
# _framework density 21.771923000000001
#
# number of rings (size 3 to 8) (size 9 to 14) (size 15 to 20)
#    0.000    1.400    2.000    4.200    8.400    2.400 
#    0.000    0.500    0.000    0.000    0.000    2.800 
#    0.000    0.000    0.000    0.000    0.000    0.000 
#
# Total GULP energy -495779.599273 kJ/mol
# GULP energy per Si atom -12394.489982 kJ/mol
# Density = 2.172237 g / cm^3
# Si number density = 21.771923 Si / 1000 Ang^3
#
#
#
# Elastic Constant Matrix: (Units=GPa)
#
#
# Indices 1 2 3 4 5 6 
#
# 1 175.9261 17.5172 39.2848 0.0000 0.0000 0.0000
# 2 17.5172 34.4296 7.8804 0.0000 0.0000 0.0000
# 3 39.2848 7.8804 76.0141 0.0000 0.0000 0.0000
# 4 0.0000 0.0000 0.0000 16.7184 0.0000 0.0000
# 5 0.0000 0.0000 0.0000 0.0000 45.6074 0.0000
# 6 0.0000 0.0000 0.0000 0.0000 0.0000 9.5047
#
#
#
# Elastic Compliance Matrix: (Units=1/GPa)
#
#
# Indices 1 2 3 4 5 6 
#
# 1 0.006656 -0.002662 -0.003164 0.000000 0.000000 0.000000
# 2 -0.002662 0.030816 -0.001819 0.000000 0.000000 0.000000
# 3 -0.003164 -0.001819 0.014979 0.000000 0.000000 0.000000
# 4 0.000000 0.000000 0.000000 0.059814 0.000000 0.000000
# 5 0.000000 0.000000 0.000000 0.000000 0.021926 0.000000
# 6 0.000000 0.000000 0.000000 0.000000 0.000000 0.105211
#
#
# Mechanical properties :
#
#
# Convention : Reuss Voigt Hill
#
# Bulk Modulus (GPa) = 26.91006 46.19273 36.55140
# Shear Modulus (GPa) = 18.72112 29.14527 23.93320
#
# Velocity S-wave (km/s) = 2.93554 3.66274 3.31912
# Velocity P-wave (km/s) = 4.88638 6.25702 5.61369
#
# Compressibility (1/GPa) = 0.03716082
#
# Stress axis : x y z
#
# Youngs Moduli (GPa) = 150.24579 32.45119 66.75978
#
# Poissons Ratio (x) = 0.08639 0.21121
# Poissons Ratio (y) = 0.39998 0.12142
# Poissons Ratio (z) = 0.47534 0.05902
#
# Static dielectric constant tensor:
#      x y z
#    x 4.368840 0.000000 0.000000 
#    y 0.000000 3.386770 0.000000 
#    z 0.000000 0.000000 4.113550 
# 
# 
# High freq. dielectric constant tensor:
#      x y z
#    x 1.877100 0.000000 0.000000 
#    y 0.000000 1.787090 0.000000 
#    z 0.000000 0.000000 1.870600 
# 
# From -- ./inp_files/11607.got.cif
#   From: 2010.03.12/outbox.cif.g09.slc.cpg/sg53_6_cif.got.tgz:11607.got - 2010.04.16 14:36:59.
