data_PCOD8220096
_publ_section_title
;
Structure prediction by ZEFSAII (Michael W. Deem and Ramdas Pophale) SiO2 
 PCOD8220096
Probable space group: P M N A
;
_chemical_formula_sum "Si O2"
_cell_formula_units_Z 64
_cell_length_a 9.095526
_cell_length_b 12.407463
_cell_length_c 29.178210
_cell_angle_alpha 90.000000
_cell_angle_beta 90.000000
_cell_angle_gamma 90.000000
_cell_volume 3292.831094
_symmetry_space_group_name_H-M "P M N A"
_symmetry_group_IT_number 53
_symmetry_cell_setting 'orthorhombic'
loop_
_space_group_symop_operation_xyz
x,y,z
1/2-x,-y,1/2+z
x,-y,-z
1/2-x,y,1/2-z
-x,-y,-z
1/2+x,y,1/2-z
-x,y,z
1/2+x,-y,1/2+z
loop_
_atom_site_type_symbol
_atom_site_label
_atom_site_fract_x
_atom_site_fract_y
_atom_site_fract_z
Si Si1 0.670073 0.068904 0.794825
Si Si2 0.670518 0.457713 0.392812
Si Si3 0.169360 0.322666 0.941059
Si Si4 0.835269 0.174757 0.316248
Si Si5 0.173085 0.892608 0.111337
Si Si6 0.832352 0.901967 0.583516
Si Si7 0.671816 0.308788 0.034589
Si Si8 0.672062 0.617248 0.705872
O O1 0.750000 0.117712 0.750000
O O2 0.500000 0.103639 0.794987
O O3 0.745716 0.115533 0.840151
O O4 0.687979 0.940513 0.792999
O O5 0.500000 0.426573 0.397707
O O6 0.700127 0.581351 0.405617
O O7 0.759819 0.379143 0.425288
O O8 0.723515 0.442900 0.340371
O O9 0.217535 0.212479 0.917068
O O10 0.000000 0.319019 0.956064
O O11 0.263165 0.344165 0.986239
O O12 0.807992 0.165163 0.370289
O O13 0.717108 0.257008 0.295965
O O14 0.000000 0.218309 0.306630
O O15 0.000000 0.900864 0.120203
O O16 0.225181 0.995481 0.081592
O O17 0.796086 0.818739 0.542576
O O18 0.000000 0.944782 0.580941
O O19 0.500000 0.332187 0.034463
O O20 0.750000 0.562593 0.750000
O O21 0.500000 0.608453 0.713127
#
# Coordination Sequence:
#
# PCOD8220096 Si02
#       8
#     8   8   8   8   8   8   8   8
#     4  10  20  34  54  81 113 149 189 235 286 339
#     4  10  22  41  61  82 114 153 190 233 285 339
#     4  10  23  42  60  81 113 152 194 239 287 340
#     4   9  17  32  52  77 113 149 179 220 274 331
#     4  10  21  37  58  82 112 152 195 238 282 338
#     4   9  19  35  55  82 119 152 178 227 286 335
#     4  11  22  37  61  91 117 145 187 237 290 341
#     4  11  22  34  54  82 111 147 185 225 277 335
#
# _framework density 19.436163000000001
#
# number of rings (size 3 to 8) (size 9 to 14) (size 15 to 20)
#    0.000    2.000    1.250    3.000    0.000    8.500 
#    0.000    3.125    0.000    1.500    0.000    0.000 
#    0.000    0.000    0.000    0.000    0.000    0.000 
#
# Total GULP energy -793738.887301 kJ/mol
# GULP energy per Si atom -12402.170114 kJ/mol
# Density = 1.939192 g / cm^3
# Si number density = 19.436163 Si / 1000 Ang^3
#
#
#
# Elastic Constant Matrix: (Units=GPa)
#
#
# Indices 1 2 3 4 5 6 
#
# 1 96.0913 44.6099 67.2239 0.0000 0.0000 0.0000
# 2 44.6099 81.6439 55.9211 0.0000 0.0000 0.0000
# 3 67.2239 55.9211 137.9644 0.0000 0.0000 0.0000
# 4 0.0000 0.0000 0.0000 10.7531 0.0000 0.0000
# 5 0.0000 0.0000 0.0000 0.0000 30.8786 0.0000
# 6 0.0000 0.0000 0.0000 0.0000 0.0000 18.0424
#
#
#
# Elastic Compliance Matrix: (Units=1/GPa)
#
#
# Indices 1 2 3 4 5 6 
#
# 1 0.017175 -0.005056 -0.006319 0.000000 0.000000 0.000000
# 2 -0.005056 0.018444 -0.005012 0.000000 0.000000 0.000000
# 3 -0.006319 -0.005012 0.012359 0.000000 0.000000 0.000000
# 4 0.000000 0.000000 0.000000 0.092997 0.000000 0.000000
# 5 0.000000 0.000000 0.000000 0.000000 0.032385 0.000000
# 6 0.000000 0.000000 0.000000 0.000000 0.000000 0.055425
#
#
# Mechanical properties :
#
#
# Convention : Reuss Voigt Hill
#
# Bulk Modulus (GPa) = 65.77757 72.35658 69.06708
# Shear Modulus (GPa) = 18.75281 21.79781 20.27531
#
# Velocity S-wave (km/s) = 3.10956 3.35253 3.23333
# Velocity P-wave (km/s) = 6.84170 7.23150 7.03930
#
# Compressibility (1/GPa) = 0.01520275
#
# Stress axis : x y z
#
# Youngs Moduli (GPa) = 58.22500 54.21807 80.91302
#
# Poissons Ratio (x) = 0.27412 0.51130
# Poissons Ratio (y) = 0.29438 0.40557
# Poissons Ratio (z) = 0.36793 0.27176
#
# Static dielectric constant tensor:
#      x y z
#    x 3.554150 0.000000 0.000000 
#    y 0.000000 3.405790 0.000000 
#    z 0.000000 0.000000 3.744360 
# 
# 
# High freq. dielectric constant tensor:
#      x y z
#    x 1.760440 0.000000 0.000000 
#    y 0.000000 1.735850 0.000000 
#    z 0.000000 0.000000 1.765620 
# 
# From -- ./inp_files/38268.got.cif
#   From: 2010.03.12/outbox.cif.g09.slc.cpg/sg53_20_cif.got.tgz:38268.got - 2010.04.16 14:36:59.
