data_PCOD8220392
_publ_section_title
;
Structure prediction by ZEFSAII (Michael W. Deem and Ramdas Pophale) SiO2 
 PCOD8220392
Probable space group: P M N A
;
_chemical_formula_sum "Si O2"
_cell_formula_units_Z 48
_cell_length_a 8.812923
_cell_length_b 9.449083
_cell_length_c 30.536831
_cell_angle_alpha 90.000000
_cell_angle_beta 90.000000
_cell_angle_gamma 90.000000
_cell_volume 2542.925314
_symmetry_space_group_name_H-M "P M N A"
_symmetry_group_IT_number 53
_symmetry_cell_setting 'orthorhombic'
loop_
_space_group_symop_operation_xyz
x,y,z
1/2-x,-y,1/2+z
x,-y,-z
1/2-x,y,1/2-z
-x,-y,-z
1/2+x,y,1/2-z
-x,y,z
1/2+x,-y,1/2+z
loop_
_atom_site_type_symbol
_atom_site_label
_atom_site_fract_x
_atom_site_fract_y
_atom_site_fract_z
Si Si1 0.821475 0.841916 0.375547
Si Si2 0.823064 0.650840 0.794832
Si Si3 0.179400 0.337218 0.950776
Si Si4 0.180238 0.647100 0.296113
Si Si5 0.820470 0.653866 0.950657
Si Si6 0.176679 0.855503 0.874892
O O1 0.755914 0.775968 0.419620
O O2 0.764369 0.756061 0.333140
O O3 0.000000 0.836552 0.378852
O O4 0.768819 0.001651 0.370834
O O5 0.750000 0.708113 0.750000
O O6 0.742578 0.506359 0.809649
O O7 0.794781 0.768800 0.830912
O O8 0.000000 0.619178 0.787675
O O9 0.239820 0.495586 0.940082
O O10 0.000000 0.327755 0.944724
O O11 0.226569 0.298472 0.000568
O O12 0.250000 0.697380 0.250000
O O13 0.000000 0.641132 0.291983
O O14 0.756090 0.765552 0.915639
O O15 0.000000 0.646914 0.946669
O O16 0.000000 0.889892 0.881924
#
# Coordination Sequence:
#
# PCOD8220392 Si02
#       6
#     8   8   8   8   8   8
#     4  11  24  37  50  76 112 144 174 213 264 315
#     4  10  20  35  58  84 107 135 174 218 264 314
#     4   9  17  34  60  82 103 134 174 221 265 309
#     4  10  21  37  57  79 104 136 175 218 261 308
#     4   8  16  33  58  84 103 129 177 226 261 301
#     4  10  21  36  54  77 106 142 180 214 255 311
#
# _framework density 18.875897999999999
#
# number of rings (size 3 to 8) (size 9 to 14) (size 15 to 20)
#    0.000    2.333    0.000    4.500    0.000    6.667 
#    0.000   10.000    0.000    0.000    0.000    0.000 
#    0.000    0.000    0.000    0.000    0.000    0.000 
#
# Total GULP energy -595221.733593 kJ/mol
# GULP energy per Si atom -12400.452783 kJ/mol
# Density = 1.883294 g / cm^3
# Si number density = 18.875898 Si / 1000 Ang^3
#
#
#
# Elastic Constant Matrix: (Units=GPa)
#
#
# Indices 1 2 3 4 5 6 
#
# 1 55.3554 30.2948 38.4619 0.0000 0.0000 0.0000
# 2 30.2948 106.2333 69.8540 0.0000 0.0000 0.0000
# 3 38.4619 69.8540 122.8511 0.0000 0.0000 0.0000
# 4 0.0000 0.0000 0.0000 16.7799 0.0000 0.0000
# 5 0.0000 0.0000 0.0000 0.0000 19.5424 0.0000
# 6 0.0000 0.0000 0.0000 0.0000 0.0000 16.6259
#
#
#
# Elastic Compliance Matrix: (Units=1/GPa)
#
#
# Indices 1 2 3 4 5 6 
#
# 1 0.023670 -0.002998 -0.005706 0.000000 0.000000 0.000000
# 2 -0.002998 0.015414 -0.007826 0.000000 0.000000 0.000000
# 3 -0.005706 -0.007826 0.014376 0.000000 0.000000 0.000000
# 4 0.000000 0.000000 0.000000 0.059595 0.000000 0.000000
# 5 0.000000 0.000000 0.000000 0.000000 0.051171 0.000000
# 6 0.000000 0.000000 0.000000 0.000000 0.000000 0.060147
#
#
# Mechanical properties :
#
#
# Convention : Reuss Voigt Hill
#
# Bulk Modulus (GPa) = 49.01776 62.40679 55.71228
# Shear Modulus (GPa) = 18.92259 20.31158 19.61708
#
# Velocity S-wave (km/s) = 3.16962 3.28389 3.22726
# Velocity P-wave (km/s) = 6.27855 6.89289 6.59288
#
# Compressibility (1/GPa) = 0.02040077
#
# Stress axis : x y z
#
# Youngs Moduli (GPa) = 42.24673 64.87505 69.55941
#
# Poissons Ratio (x) = 0.19451 0.39690
# Poissons Ratio (y) = 0.12667 0.54437
# Poissons Ratio (z) = 0.24105 0.50771
#
# Static dielectric constant tensor:
#      x y z
#    x 3.290710 0.000000 0.000000 
#    y 0.000000 3.491350 0.000000 
#    z 0.000000 0.000000 3.789410 
# 
# 
# High freq. dielectric constant tensor:
#      x y z
#    x 1.717550 0.000000 0.000000 
#    y 0.000000 1.731840 0.000000 
#    z 0.000000 0.000000 1.749240 
# 
# From -- ./inp_files/37746.got.cif
#   From: 2010.03.12/outbox.cif.g09.slc.cpg/sg53_19_cif.got.tgz:37746.got - 2010.04.16 14:36:59.
