data_PCOD8220608
_publ_section_title
;
Structure prediction by ZEFSAII (Michael W. Deem and Ramdas Pophale) SiO2 
 PCOD8220608
Probable space group: P M N A
;
_chemical_formula_sum "Si O2"
_cell_formula_units_Z 48
_cell_length_a 8.660215
_cell_length_b 30.739635
_cell_length_c 9.159313
_cell_angle_alpha 90.000000
_cell_angle_beta 90.000000
_cell_angle_gamma 90.000000
_cell_volume 2438.317641
_symmetry_space_group_name_H-M "P M N A"
_symmetry_group_IT_number 53
_symmetry_cell_setting 'orthorhombic'
loop_
_space_group_symop_operation_xyz
x,y,z
1/2-x,-y,1/2+z
x,-y,-z
1/2-x,y,1/2-z
-x,-y,-z
1/2+x,y,1/2-z
-x,y,z
1/2+x,-y,1/2+z
loop_
_atom_site_type_symbol
_atom_site_label
_atom_site_fract_x
_atom_site_fract_y
_atom_site_fract_z
Si Si1 0.817955 0.124601 0.089844
Si Si2 0.316784 0.284756 0.092247
Si Si3 0.682949 0.622761 0.595208
Si Si4 0.681889 0.540523 0.408624
Si Si5 0.316900 0.791605 0.408492
Si Si6 0.682902 0.958165 0.410706
O O1 0.750000 0.122329 0.250000
O O2 0.000000 0.121811 0.103231
O O3 0.765564 0.169080 0.013094
O O4 0.754514 0.084478 0.994108
O O5 0.250000 0.271529 0.250000
O O6 0.500000 0.283655 0.101083
O O7 0.259879 0.332330 0.044069
O O8 0.257306 0.252238 0.969471
O O9 0.750000 0.607933 0.750000
O O10 0.500000 0.629102 0.607715
O O11 0.731515 0.585914 0.481043
O O12 0.749612 0.500000 0.500000
O O13 0.750000 0.538437 0.250000
O O14 0.500000 0.536644 0.398598
O O15 0.250000 0.801542 0.250000
O O16 0.500000 0.786548 0.400091
O O17 0.750000 0.959588 0.250000
O O18 0.500000 0.957517 0.398657
O O19 0.741618 0.000000 0.500000
#
# Coordination Sequence:
#
# PCOD8220608 Si02
#       6
#     8   8   8   8   8   8
#     4  10  22  38  58  84 113 147 188 233 280 335
#     4  11  22  38  60  85 114 149 189 232 281 335
#     4  10  20  36  58  84 114 147 187 231 277 331
#     4  10  22  38  57  83 113 146 185 228 274 328
#     4  11  23  39  58  83 114 148 189 234 284 338
#     4  10  21  37  57  84 116 149 188 231 277 331
#
# _framework density 19.685706
#
# number of rings (size 3 to 8) (size 9 to 14) (size 15 to 20)
#    0.000    1.667    0.000    5.500    0.000    6.000 
#    0.000    1.667    0.000    0.000    0.000    0.000 
#    0.000    0.000    0.000    0.000    0.000    0.000 
#
# Total GULP energy -595412.555281 kJ/mol
# GULP energy per Si atom -12404.428235 kJ/mol
# Density = 1.964090 g / cm^3
# Si number density = 19.685706 Si / 1000 Ang^3
#
#
#
# Elastic Constant Matrix: (Units=GPa)
#
#
# Indices 1 2 3 4 5 6 
#
# 1 73.4645 50.9760 45.6963 0.0000 0.0000 0.0000
# 2 50.9760 146.8257 100.1404 0.0000 0.0000 0.0000
# 3 45.6963 100.1404 179.6454 0.0000 0.0000 0.0000
# 4 0.0000 0.0000 0.0000 48.8680 0.0000 0.0000
# 5 0.0000 0.0000 0.0000 0.0000 40.1022 0.0000
# 6 0.0000 0.0000 0.0000 0.0000 0.0000 8.5076
#
#
#
# Elastic Compliance Matrix: (Units=1/GPa)
#
#
# Indices 1 2 3 4 5 6 
#
# 1 0.018284 -0.005124 -0.001795 0.000000 0.000000 0.000000
# 2 -0.005124 0.012424 -0.005622 0.000000 0.000000 0.000000
# 3 -0.001795 -0.005622 0.009157 0.000000 0.000000 0.000000
# 4 0.000000 0.000000 0.000000 0.020463 0.000000 0.000000
# 5 0.000000 0.000000 0.000000 0.000000 0.024936 0.000000
# 6 0.000000 0.000000 0.000000 0.000000 0.000000 0.117542
#
#
# Mechanical properties :
#
#
# Convention : Reuss Voigt Hill
#
# Bulk Modulus (GPa) = 67.64322 88.17343 77.90833
# Shear Modulus (GPa) = 21.47610 33.03708 27.25659
#
# Velocity S-wave (km/s) = 3.30653 4.10106 3.72504
# Velocity P-wave (km/s) = 7.00098 8.20444 7.62648
#
# Compressibility (1/GPa) = 0.01478345
#
# Stress axis : x y z
#
# Youngs Moduli (GPa) = 54.69360 80.48637 109.20427
#
# Poissons Ratio (x) = 0.41240 0.19598
# Poissons Ratio (y) = 0.28024 0.61400
# Poissons Ratio (z) = 0.09815 0.45253
#
# Static dielectric constant tensor:
#      x y z
#    x 3.555520 0.000000 0.000000 
#    y 0.000000 3.945360 0.000000 
#    z 0.000000 0.000000 3.432310 
# 
# 
# High freq. dielectric constant tensor:
#      x y z
#    x 1.767320 0.000000 0.000000 
#    y 0.000000 1.786680 0.000000 
#    z 0.000000 0.000000 1.775020 
# 
# From -- ./inp_files/6634.got.cif
#   From: 2010.03.12/outbox.cif.g09.slc.cpg/sg53_4_cif.got.tgz:6634.got - 2010.04.16 14:36:59.
