data_PCOD8220624
_publ_section_title
;
Structure prediction by ZEFSAII (Michael W. Deem and Ramdas Pophale) SiO2 
 PCOD8220624
Probable space group: P M N A
;
_chemical_formula_sum "Si O2"
_cell_formula_units_Z 64
_cell_length_a 14.929727
_cell_length_b 11.818173
_cell_length_c 18.334040
_cell_angle_alpha 90.000000
_cell_angle_beta 90.000000
_cell_angle_gamma 90.000000
_cell_volume 3234.896455
_symmetry_space_group_name_H-M "P M N A"
_symmetry_group_IT_number 53
_symmetry_cell_setting 'orthorhombic'
loop_
_space_group_symop_operation_xyz
x,y,z
1/2-x,-y,1/2+z
x,-y,-z
1/2-x,y,1/2-z
-x,-y,-z
1/2+x,y,1/2-z
-x,y,z
1/2+x,-y,1/2+z
loop_
_atom_site_type_symbol
_atom_site_label
_atom_site_fract_x
_atom_site_fract_y
_atom_site_fract_z
Si Si1 0.105575 0.436861 0.356687
Si Si2 0.241508 0.950923 0.575624
Si Si3 0.897692 0.613232 0.952859
Si Si4 0.658099 0.092373 0.288339
Si Si5 0.900425 0.926628 0.332422
Si Si6 0.787732 0.292268 0.470879
Si Si7 0.398735 0.691086 0.114502
Si Si8 0.599787 0.658808 0.708469
O O1 0.163933 0.390343 0.424211
O O2 0.121523 0.570713 0.349212
O O3 0.148381 0.384665 0.282163
O O4 0.000000 0.407228 0.369378
O O5 0.325139 0.954219 0.630623
O O6 0.200446 0.825439 0.571145
O O7 0.277940 0.000000 0.500000
O O8 0.162356 0.029456 0.603760
O O9 0.819084 0.690862 0.985649
O O10 0.867149 0.601298 0.867352
O O11 0.000000 0.664513 0.956387
O O12 0.896242 0.500000 0.000000
O O13 0.750000 0.129398 0.250000
O O14 0.599125 0.204838 0.294349
O O15 0.613608 0.989353 0.244468
O O16 0.885517 0.790717 0.325002
O O17 0.000000 0.952575 0.359542
O O18 0.831889 0.284972 0.549113
O O19 0.500000 0.692795 0.083629
O O20 0.500000 0.614905 0.719351
#
# Coordination Sequence:
#
# PCOD8220624 Si02
#       8
#     8   8   8   8   8   8   8   8
#     4  10  21  35  57  92 127 155 190 238 298 369
#     4  11  22  38  59  86 119 153 199 254 302 360
#     4  10  22  39  59  84 114 152 202 256 302 351
#     4  10  20  36  59  82 114 152 196 248 292 351
#     4  10  21  37  60  88 120 160 198 241 304 367
#     4  12  21  37  62  86 121 160 196 243 306 361
#     4  10  21  37  58  90 129 161 193 236 298 381
#     4  10  20  36  59  84 112 148 194 248 300 351
#
# _framework density 19.78425
#
# number of rings (size 3 to 8) (size 9 to 14) (size 15 to 20)
#    0.000    1.625    2.500    3.375    0.000    3.250 
#    0.000    1.250    5.500    4.875    0.000    0.000 
#    0.000    0.000    0.000    0.000    0.000    0.000 
#
# Total GULP energy -793179.783737 kJ/mol
# GULP energy per Si atom -12393.434121 kJ/mol
# Density = 1.973922 g / cm^3
# Si number density = 19.784250 Si / 1000 Ang^3
#
#
#
# Elastic Constant Matrix: (Units=GPa)
#
#
# Indices 1 2 3 4 5 6 
#
# 1 72.2828 35.4764 26.0530 0.0000 0.0000 0.0000
# 2 35.4764 133.6916 55.8227 0.0000 0.0000 0.0000
# 3 26.0530 55.8227 124.1663 0.0000 0.0000 0.0000
# 4 0.0000 0.0000 0.0000 32.6833 0.0000 0.0000
# 5 0.0000 0.0000 0.0000 0.0000 21.9332 0.0000
# 6 0.0000 0.0000 0.0000 0.0000 0.0000 22.9553
#
#
#
# Elastic Compliance Matrix: (Units=1/GPa)
#
#
# Indices 1 2 3 4 5 6 
#
# 1 0.016229 -0.003551 -0.001809 0.000000 0.000000 0.000000
# 2 -0.003551 0.009986 -0.003744 0.000000 0.000000 0.000000
# 3 -0.001809 -0.003744 0.010117 0.000000 0.000000 0.000000
# 4 0.000000 0.000000 0.000000 0.030597 0.000000 0.000000
# 5 0.000000 0.000000 0.000000 0.000000 0.045593 0.000000
# 6 0.000000 0.000000 0.000000 0.000000 0.000000 0.043563
#
#
# Mechanical properties :
#
#
# Convention : Reuss Voigt Hill
#
# Bulk Modulus (GPa) = 55.17820 62.76055 58.96938
# Shear Modulus (GPa) = 27.72633 29.70025 28.71329
#
# Velocity S-wave (km/s) = 3.74763 3.87874 3.81375
# Velocity P-wave (km/s) = 6.83205 7.20076 7.01882
#
# Compressibility (1/GPa) = 0.01812310
#
# Stress axis : x y z
#
# Youngs Moduli (GPa) = 61.61621 100.14321 98.84806
#
# Poissons Ratio (x) = 0.35565 0.17878
# Poissons Ratio (y) = 0.21883 0.37011
# Poissons Ratio (z) = 0.11144 0.37496
#
# Static dielectric constant tensor:
#      x y z
#    x 3.698580 0.000000 0.000000 
#    y 0.000000 3.660080 0.000000 
#    z 0.000000 0.000000 3.679040 
# 
# 
# High freq. dielectric constant tensor:
#      x y z
#    x 1.769270 0.000000 0.000000 
#    y 0.000000 1.768630 0.000000 
#    z 0.000000 0.000000 1.767210 
# 
# From -- ./inp_files/28542.got.cif
#   From: 2010.03.12/outbox.cif.g09.slc.cpg/sg53_15_cif.got.tgz:28542.got - 2010.04.16 14:36:59.
