data_PCOD8220465
_publ_section_title
;
Structure prediction by ZEFSAII (Michael W. Deem and Ramdas Pophale) SiO2 
 PCOD8220465
Probable space group: P M N A
;
_chemical_formula_sum "Si O2"
_cell_formula_units_Z 40
_cell_length_a 25.746229
_cell_length_b 8.915494
_cell_length_c 10.011079
_cell_angle_alpha 90.000000
_cell_angle_beta 90.000000
_cell_angle_gamma 90.000000
_cell_volume 2297.946579
_symmetry_space_group_name_H-M "P M N A"
_symmetry_group_IT_number 53
_symmetry_cell_setting 'orthorhombic'
loop_
_space_group_symop_operation_xyz
x,y,z
1/2-x,-y,1/2+z
x,-y,-z
1/2-x,y,1/2-z
-x,-y,-z
1/2+x,y,1/2-z
-x,y,z
1/2+x,-y,1/2+z
loop_
_atom_site_type_symbol
_atom_site_label
_atom_site_fract_x
_atom_site_fract_y
_atom_site_fract_z
Si Si1 0.147046 0.164361 0.260346
Si Si2 0.154847 0.834478 0.223512
Si Si3 0.441981 0.008595 0.658133
Si Si4 0.200275 0.669346 0.973481
Si Si5 0.321408 0.330589 0.990559
O O1 0.087159 0.141270 0.212573
O O2 0.145455 0.225502 0.411081
O O3 0.176295 0.002420 0.254774
O O4 0.176867 0.282814 0.168156
O O5 0.180524 0.780277 0.087280
O O6 0.170391 0.721305 0.339430
O O7 0.091997 0.845837 0.203776
O O8 0.500000 0.019616 0.718434
O O9 0.444123 0.000000 0.500000
O O10 0.261956 0.679431 0.965048
O O11 0.181693 0.500000 0.000000
O O12 0.341898 0.500000 0.000000
#
# Coordination Sequence:
#
# PCOD8220465 Si02
#       5
#     8   8   8   8   8
#     4  10  20  36  55  85 101 145 186 225 261 313
#     4  10  20  36  55  85 101 145 186 225 261 313
#     4   9  18  37  62  84 103 130 179 235 284 310
#     4  11  21  35  53  78 116 152 179 213 267 321
#     4  11  23  35  51  78 120 154 171 213 273 323
#
# _framework density 17.406844
#
# number of rings (size 3 to 8) (size 9 to 14) (size 15 to 20)
#    1.200    0.600    2.000    3.600    0.000    8.000 
#    0.000    2.000    0.000    7.200    0.000    0.000 
#    0.000    0.000    0.000    0.000    0.000    0.000 
#
# Total GULP energy -495835.757241 kJ/mol
# GULP energy per Si atom -12395.893931 kJ/mol
# Density = 1.736723 g / cm^3
# Si number density = 17.406844 Si / 1000 Ang^3
#
#
#
# Elastic Constant Matrix: (Units=GPa)
#
#
# Indices 1 2 3 4 5 6 
#
# 1 59.8353 13.8803 2.6657 0.0000 0.0000 0.0000
# 2 13.8803 90.1970 5.2024 0.0000 0.0000 0.0000
# 3 2.6657 5.2024 54.5553 0.0000 0.0000 0.0000
# 4 0.0000 0.0000 0.0000 36.2535 0.0000 0.0000
# 5 0.0000 0.0000 0.0000 0.0000 6.3682 0.0000
# 6 0.0000 0.0000 0.0000 0.0000 0.0000 -2.2077
#
#
#
# Elastic Compliance Matrix: (Units=1/GPa)
#
#
# Indices 1 2 3 4 5 6 
#
# 1 0.017351 -0.002636 -0.000596 0.000000 0.000000 0.000000
# 2 -0.002636 0.011549 -0.000972 0.000000 0.000000 0.000000
# 3 -0.000596 -0.000972 0.018452 0.000000 0.000000 0.000000
# 4 0.000000 0.000000 0.000000 0.027584 0.000000 0.000000
# 5 0.000000 0.000000 0.000000 0.000000 0.157030 0.000000
# 6 0.000000 0.000000 0.000000 0.000000 0.000000 -0.452964
#
#
# Mechanical properties :
#
#
# Convention : Reuss Voigt Hill
#
# Bulk Modulus (GPa) = 25.67933 27.56491 26.62212
# Shear Modulus (GPa) = -25.04886 20.27209 -2.38838
#
# Velocity S-wave (km/s) = -3.79756 3.41633 -1.17264
# Velocity P-wave (km/s) = 2.10812 5.60641 3.67339
#
# Compressibility (1/GPa) = 0.03894182
#
# Stress axis : x y z
#
# Youngs Moduli (GPa) = 57.63512 86.59106 54.19497
#
# Poissons Ratio (x) = 0.22822 0.03232
# Poissons Ratio (y) = 0.15191 0.05270
# Poissons Ratio (z) = 0.03438 0.08421
#
# Static dielectric constant tensor:
#      x y z
#    x 3.195850 0.000000 0.000000 
#    y 0.000000 3.238190 0.000000 
#    z 0.000000 0.000000 3.208580 
# 
# 
# High freq. dielectric constant tensor:
#      x y z
#    x 1.649140 0.000000 0.000000 
#    y 0.000000 1.668490 0.000000 
#    z 0.000000 0.000000 1.682990 
# 
# From -- ./inp_files/12853.got.cif
#   From: 2010.03.12/outbox.cif.g09.slc.cpg/sg53_7_cif.got.tgz:12853.got - 2010.04.16 14:36:59.
