data_PCOD8220169
_publ_section_title
;
Structure prediction by ZEFSAII (Michael W. Deem and Ramdas Pophale) SiO2 
 PCOD8220169
Probable space group: P M N A
;
_chemical_formula_sum "Si O2"
_cell_formula_units_Z 64
_cell_length_a 8.929806
_cell_length_b 19.561582
_cell_length_c 20.128959
_cell_angle_alpha 90.000000
_cell_angle_beta 90.000000
_cell_angle_gamma 90.000000
_cell_volume 3516.149350
_symmetry_space_group_name_H-M "P M N A"
_symmetry_group_IT_number 53
_symmetry_cell_setting 'orthorhombic'
loop_
_space_group_symop_operation_xyz
x,y,z
1/2-x,-y,1/2+z
x,-y,-z
1/2-x,y,1/2-z
-x,-y,-z
1/2+x,y,1/2-z
-x,y,z
1/2+x,-y,1/2+z
loop_
_atom_site_type_symbol
_atom_site_label
_atom_site_fract_x
_atom_site_fract_y
_atom_site_fract_z
Si Si1 0.823471 0.559844 0.318244
Si Si2 0.171197 0.188629 0.893661
Si Si3 0.674595 0.402629 0.182983
Si Si4 0.175648 0.829242 0.954432
Si Si5 0.822217 0.310995 0.440161
Si Si6 0.175428 0.658175 0.078203
Si Si7 0.324855 0.073752 0.818486
Si Si8 0.324315 0.033264 0.069304
O O1 0.750000 0.586515 0.250000
O O2 0.780665 0.481063 0.330293
O O3 0.756143 0.600359 0.379787
O O4 0.000000 0.572020 0.314363
O O5 0.202711 0.269099 0.886171
O O6 0.273507 0.148924 0.841315
O O7 0.000000 0.171036 0.877342
O O8 0.212903 0.164538 0.967669
O O9 0.750000 0.374681 0.250000
O O10 0.500000 0.394733 0.193772
O O11 0.729185 0.358256 0.120812
O O12 0.263598 0.764911 0.924264
O O13 0.233668 0.897115 0.918165
O O14 0.000000 0.818586 0.942114
O O15 0.745626 0.342063 0.505226
O O16 0.000000 0.310170 0.450150
O O17 0.000000 0.642478 0.071839
O O18 0.250000 0.051937 0.750000
O O19 0.500000 0.075903 0.807872
O O20 0.276589 0.018111 0.872745
O O21 0.500000 0.049788 0.069604
O O22 0.274550 0.000000 0.000000
#
# Coordination Sequence:
#
# PCOD8220169 Si02
#       8
#     8   8   8   8   8   8   8   8
#     4  10  20  36  56  79 108 145 187 231 277 332
#     4   9  19  35  53  75 106 140 177 217 263 319
#     4   9  20  37  58  82 108 143 187 230 280 336
#     4  10  20  34  56  85 111 139 178 225 270 323
#     4  10  20  36  57  82 113 146 181 229 280 331
#     4  10  21  36  54  82 114 146 185 228 274 328
#     4  11  23  37  55  79 110 143 179 224 270 321
#     4  10  20  36  58  83 107 139 183 225 268 323
#
# _framework density 18.201730999999999
#
# number of rings (size 3 to 8) (size 9 to 14) (size 15 to 20)
#    0.000    2.125    1.250    2.625    0.000    6.250 
#    0.000    3.125    0.000    0.000    0.000    0.000 
#    0.000    0.000    0.000    0.000    0.000    0.000 
#
# Total GULP energy -793856.122069 kJ/mol
# GULP energy per Si atom -12404.001907 kJ/mol
# Density = 1.816030 g / cm^3
# Si number density = 18.201731 Si / 1000 Ang^3
#
#
#
# Elastic Constant Matrix: (Units=GPa)
#
#
# Indices 1 2 3 4 5 6 
#
# 1 83.1391 51.3762 57.7860 0.0000 0.0000 0.0000
# 2 51.3762 104.7847 73.8111 0.0000 0.0000 0.0000
# 3 57.7860 73.8111 127.0624 0.0000 0.0000 0.0000
# 4 0.0000 0.0000 0.0000 27.0939 0.0000 0.0000
# 5 0.0000 0.0000 0.0000 0.0000 33.5873 0.0000
# 6 0.0000 0.0000 0.0000 0.0000 0.0000 30.4075
#
#
#
# Elastic Compliance Matrix: (Units=1/GPa)
#
#
# Indices 1 2 3 4 5 6 
#
# 1 0.019329 -0.005560 -0.005561 0.000000 0.000000 0.000000
# 2 -0.005560 0.017753 -0.007784 0.000000 0.000000 0.000000
# 3 -0.005561 -0.007784 0.014921 0.000000 0.000000 0.000000
# 4 0.000000 0.000000 0.000000 0.036909 0.000000 0.000000
# 5 0.000000 0.000000 0.000000 0.000000 0.029773 0.000000
# 6 0.000000 0.000000 0.000000 0.000000 0.000000 0.032887
#
#
# Mechanical properties :
#
#
# Convention : Reuss Voigt Hill
#
# Bulk Modulus (GPa) = 70.45736 75.65922 73.05829
# Shear Modulus (GPa) = 25.75850 27.01858 26.38854
#
# Velocity S-wave (km/s) = 3.76595 3.85697 3.81173
# Velocity P-wave (km/s) = 7.59625 7.84170 7.71995
#
# Compressibility (1/GPa) = 0.01419298
#
# Stress axis : x y z
#
# Youngs Moduli (GPa) = 51.73626 56.33002 67.02088
#
# Poissons Ratio (x) = 0.31320 0.37268
# Poissons Ratio (y) = 0.28766 0.52168
# Poissons Ratio (z) = 0.28768 0.43847
#
# Static dielectric constant tensor:
#      x y z
#    x 3.370040 0.000000 0.000000 
#    y 0.000000 3.409820 0.000000 
#    z 0.000000 0.000000 3.310000 
# 
# 
# High freq. dielectric constant tensor:
#      x y z
#    x 1.714740 0.000000 0.000000 
#    y 0.000000 1.707820 0.000000 
#    z 0.000000 0.000000 1.696120 
# 
# From -- ./inp_files/31185.got.cif
#   From: 2010.03.12/outbox.cif.g09.slc.cpg/sg53_16_cif.got.tgz:31185.got - 2010.04.16 14:36:59.
