data_PCOD8220002
_publ_section_title
;
Structure prediction by ZEFSAII (Michael W. Deem and Ramdas Pophale) SiO2 
 PCOD8220002
Probable space group: P M N A
;
_chemical_formula_sum "Si O2"
_cell_formula_units_Z 48
_cell_length_a 8.842607
_cell_length_b 15.164434
_cell_length_c 18.828019
_cell_angle_alpha 90.000000
_cell_angle_beta 90.000000
_cell_angle_gamma 90.000000
_cell_volume 2524.708004
_symmetry_space_group_name_H-M "P M N A"
_symmetry_group_IT_number 53
_symmetry_cell_setting 'orthorhombic'
loop_
_space_group_symop_operation_xyz
x,y,z
1/2-x,-y,1/2+z
x,-y,-z
1/2-x,y,1/2-z
-x,-y,-z
1/2+x,y,1/2-z
-x,y,z
1/2+x,-y,1/2+z
loop_
_atom_site_type_symbol
_atom_site_label
_atom_site_fract_x
_atom_site_fract_y
_atom_site_fract_z
Si Si1 0.821112 0.496047 0.673780
Si Si2 0.322414 0.006721 0.325084
Si Si3 0.178782 0.329106 0.584019
Si Si4 0.176754 0.647400 0.573338
Si Si5 0.822203 0.153263 0.415994
Si Si6 0.677506 0.148396 0.567140
O O1 0.750000 0.506804 0.750000
O O2 0.775450 0.401287 0.642084
O O3 0.750646 0.573235 0.624141
O O4 0.000000 0.504827 0.679986
O O5 0.250000 0.982618 0.250000
O O6 0.500000 0.017996 0.315421
O O7 0.280649 0.929432 0.379392
O O8 0.255003 0.097807 0.354017
O O9 0.236625 0.363092 0.507169
O O10 0.262498 0.238282 0.602853
O O11 0.000000 0.310596 0.581966
O O12 0.215181 0.744916 0.601823
O O13 0.000000 0.629804 0.572163
O O14 0.757525 0.127114 0.492762
O O15 0.000000 0.135273 0.417045
O O16 0.500000 0.155226 0.553290
#
# Coordination Sequence:
#
# PCOD8220002 Si02
#       6
#     8   8   8   8   8   8
#     4  10  20  34  52  76 108 141 173 213 263 318
#     4  11  24  39  55  78 110 146 181 220 269 321
#     4   9  18  34  57  79 100 135 181 223 261 307
#     4   8  16  33  56  79 101 133 178 219 257 307
#     4  10  20  36  60  85 108 139 180 223 268 321
#     4  10  21  37  57  81 109 140 177 224 272 318
#
# _framework density 19.012098000000002
#
# number of rings (size 3 to 8) (size 9 to 14) (size 15 to 20)
#    0.000    2.333    0.000    3.500    0.000    8.667 
#    0.000    9.167    0.000    5.000    0.000    0.000 
#    0.000    0.000    0.000    0.000    0.000    0.000 
#
# Total GULP energy -595258.997668 kJ/mol
# GULP energy per Si atom -12401.229118 kJ/mol
# Density = 1.896883 g / cm^3
# Si number density = 19.012098 Si / 1000 Ang^3
#
#
#
# Elastic Constant Matrix: (Units=GPa)
#
#
# Indices 1 2 3 4 5 6 
#
# 1 51.5430 35.2669 30.0148 0.0000 0.0000 0.0000
# 2 35.2669 81.7077 33.6116 0.0000 0.0000 0.0000
# 3 30.0148 33.6116 74.3584 0.0000 0.0000 0.0000
# 4 0.0000 0.0000 0.0000 20.3112 0.0000 0.0000
# 5 0.0000 0.0000 0.0000 0.0000 33.9955 0.0000
# 6 0.0000 0.0000 0.0000 0.0000 0.0000 24.3063
#
#
#
# Elastic Compliance Matrix: (Units=1/GPa)
#
#
# Indices 1 2 3 4 5 6 
#
# 1 0.030914 -0.010085 -0.007920 0.000000 0.000000 0.000000
# 2 -0.010085 0.018325 -0.004212 0.000000 0.000000 0.000000
# 3 -0.007920 -0.004212 0.018549 0.000000 0.000000 0.000000
# 4 0.000000 0.000000 0.000000 0.049234 0.000000 0.000000
# 5 0.000000 0.000000 0.000000 0.000000 0.029416 0.000000
# 6 0.000000 0.000000 0.000000 0.000000 0.000000 0.041142
#
#
# Mechanical properties :
#
#
# Convention : Reuss Voigt Hill
#
# Bulk Modulus (GPa) = 42.82047 45.04398 43.93223
# Shear Modulus (GPa) = 20.85099 22.97029 21.91064
#
# Velocity S-wave (km/s) = 3.31527 3.47968 3.39847
# Velocity P-wave (km/s) = 6.10134 6.31569 6.20944
#
# Compressibility (1/GPa) = 0.02335332
#
# Stress axis : x y z
#
# Youngs Moduli (GPa) = 32.34828 54.57172 53.91090
#
# Poissons Ratio (x) = 0.55037 0.42695
# Poissons Ratio (y) = 0.32624 0.22708
# Poissons Ratio (z) = 0.25618 0.22987
#
# Static dielectric constant tensor:
#      x y z
#    x 3.330680 0.000000 0.000000 
#    y 0.000000 3.697400 0.000000 
#    z 0.000000 0.000000 3.502440 
# 
# 
# High freq. dielectric constant tensor:
#      x y z
#    x 1.724950 0.000000 0.000000 
#    y 0.000000 1.752220 0.000000 
#    z 0.000000 0.000000 1.736910 
# 
# From -- ./inp_files/26185.got.cif
#   From: 2010.03.12/outbox.cif.g09.slc.cpg/sg53_14_cif.got.tgz:26185.got - 2010.04.16 14:36:59.
