data_PCOD8220173
_publ_section_title
;
Structure prediction by ZEFSAII (Michael W. Deem and Ramdas Pophale) SiO2 
 PCOD8220173
Probable space group: P M N A
;
_chemical_formula_sum "Si O2"
_cell_formula_units_Z 56
_cell_length_a 8.677082
_cell_length_b 22.457144
_cell_length_c 14.316157
_cell_angle_alpha 90.000000
_cell_angle_beta 90.000000
_cell_angle_gamma 90.000000
_cell_volume 2789.681857
_symmetry_space_group_name_H-M "P M N A"
_symmetry_group_IT_number 53
_symmetry_cell_setting 'orthorhombic'
loop_
_space_group_symop_operation_xyz
x,y,z
1/2-x,-y,1/2+z
x,-y,-z
1/2-x,y,1/2-z
-x,-y,-z
1/2+x,y,1/2-z
-x,y,z
1/2+x,-y,1/2+z
loop_
_atom_site_type_symbol
_atom_site_label
_atom_site_fract_x
_atom_site_fract_y
_atom_site_fract_z
Si Si1 0.333292 0.521469 0.895693
Si Si2 0.181426 0.755626 0.851942
Si Si3 0.178233 0.973684 0.655379
Si Si4 0.183202 0.398190 0.656756
Si Si5 0.315655 0.644732 0.956834
Si Si6 0.822323 0.139535 0.466643
Si Si7 0.182237 0.899188 0.150844
O O1 0.500000 0.530755 0.847433
O O2 0.245689 0.466290 0.845673
O O3 0.251803 0.586605 0.898941
O O4 0.362253 0.500000 0.000000
O O5 0.250000 0.746751 0.750000
O O6 0.234066 0.702579 0.918401
O O7 0.235949 0.817309 0.895913
O O8 0.000000 0.756280 0.842935
O O9 0.250000 0.945938 0.750000
O O10 0.196301 0.927339 0.571653
O O11 0.000000 0.990221 0.672703
O O12 0.269004 0.033278 0.628852
O O13 0.250000 0.366804 0.750000
O O14 0.233400 0.360940 0.565669
O O15 0.000000 0.401739 0.660566
O O16 0.500000 0.649459 0.947183
O O17 0.748613 0.143172 0.569520
O O18 0.000000 0.158675 0.472510
O O19 0.250000 0.877704 0.250000
O O20 0.000000 0.893517 0.152943
#
# Coordination Sequence:
#
# PCOD8220173 Si02
#       7
#     8   8   8   8   8   8   8
#     4   7  12  26  49  75 104 141 182 223 271 324
#     4  12  26  43  62  84 110 143 186 233 283 337
#     4  10  20  34  56  86 119 153 189 232 281 335
#     4   9  17  30  52  82 115 149 184 226 276 332
#     4   9  18  36  58  79 109 149 190 232 279 330
#     4  11  23  40  61  85 115 150 191 238 286 334
#     4  11  22  37  59  87 120 155 190 230 279 336
#
# _framework density 20.073972000000001
#
# number of rings (size 3 to 8) (size 9 to 14) (size 15 to 20)
#    0.000    2.143    0.000    6.857    0.000    6.286 
#    0.000    2.857    0.000    4.286    0.000    0.000 
#    0.000    0.000    0.000    0.000    0.000    0.000 
#
# Total GULP energy -694024.964698 kJ/mol
# GULP energy per Si atom -12393.302941 kJ/mol
# Density = 2.002828 g / cm^3
# Si number density = 20.073972 Si / 1000 Ang^3
#
#
#
# Elastic Constant Matrix: (Units=GPa)
#
#
# Indices 1 2 3 4 5 6 
#
# 1 109.2248 28.7524 54.0485 0.0000 0.0000 0.0000
# 2 28.7524 54.9473 33.2646 0.0000 0.0000 0.0000
# 3 54.0485 33.2646 133.6876 0.0000 0.0000 0.0000
# 4 0.0000 0.0000 0.0000 23.0217 0.0000 0.0000
# 5 0.0000 0.0000 0.0000 0.0000 29.4019 0.0000
# 6 0.0000 0.0000 0.0000 0.0000 0.0000 1.0016
#
#
#
# Elastic Compliance Matrix: (Units=1/GPa)
#
#
# Indices 1 2 3 4 5 6 
#
# 1 0.012143 -0.003982 -0.003918 0.000000 0.000000 0.000000
# 2 -0.003982 0.022733 -0.004047 0.000000 0.000000 0.000000
# 3 -0.003918 -0.004047 0.010071 0.000000 0.000000 0.000000
# 4 0.000000 0.000000 0.000000 0.043437 0.000000 0.000000
# 5 0.000000 0.000000 0.000000 0.000000 0.034011 0.000000
# 6 0.000000 0.000000 0.000000 0.000000 0.000000 0.998447
#
#
# Mechanical properties :
#
#
# Convention : Reuss Voigt Hill
#
# Bulk Modulus (GPa) = 47.49948 58.88788 53.19368
# Shear Modulus (GPa) = 4.34121 22.80465 13.57293
#
# Velocity S-wave (km/s) = 1.47218 3.37416 2.60310
# Velocity P-wave (km/s) = 5.15784 6.67676 5.96584
#
# Compressibility (1/GPa) = 0.02105286
#
# Stress axis : x y z
#
# Youngs Moduli (GPa) = 82.35522 43.98974 99.29337
#
# Poissons Ratio (x) = 0.17515 0.38907
# Poissons Ratio (y) = 0.32792 0.40180
# Poissons Ratio (z) = 0.32270 0.17801
#
# Static dielectric constant tensor:
#      x y z
#    x 3.514040 0.000000 0.000000 
#    y 0.000000 3.620710 0.000000 
#    z 0.000000 0.000000 3.934430 
# 
# 
# High freq. dielectric constant tensor:
#      x y z
#    x 1.770290 0.000000 0.000000 
#    y 0.000000 1.767910 0.000000 
#    z 0.000000 0.000000 1.792200 
# 
# From -- ./inp_files/20600.got.cif
#   From: 2010.03.12/outbox.cif.g09.slc.cpg/sg53_11_cif.got.tgz:20600.got - 2010.04.16 14:36:59.
