data_PCOD8220581
_publ_section_title
;
Structure prediction by ZEFSAII (Michael W. Deem and Ramdas Pophale) SiO2 
 PCOD8220581
Probable space group: P M N A
;
_chemical_formula_sum "Si O2"
_cell_formula_units_Z 56
_cell_length_a 8.567157
_cell_length_b 23.668866
_cell_length_c 14.420013
_cell_angle_alpha 90.000000
_cell_angle_beta 90.000000
_cell_angle_gamma 90.000000
_cell_volume 2924.016565
_symmetry_space_group_name_H-M "P M N A"
_symmetry_group_IT_number 53
_symmetry_cell_setting 'orthorhombic'
loop_
_space_group_symop_operation_xyz
x,y,z
1/2-x,-y,1/2+z
x,-y,-z
1/2-x,y,1/2-z
-x,-y,-z
1/2+x,y,1/2-z
-x,y,z
1/2+x,-y,1/2+z
loop_
_atom_site_type_symbol
_atom_site_label
_atom_site_fract_x
_atom_site_fract_y
_atom_site_fract_z
Si Si1 0.815038 0.562719 0.499584
Si Si2 0.315501 0.347353 0.852754
Si Si3 0.180284 0.145484 0.504429
Si Si4 0.684326 0.060517 0.647263
Si Si5 0.681745 0.055388 0.150774
Si Si6 0.315610 0.652100 0.852595
Si Si7 0.817954 0.266633 0.000578
O O1 0.739891 0.500000 0.500000
O O2 0.759203 0.596578 0.408081
O O3 0.760207 0.596195 0.591550
O O4 0.000000 0.558339 0.498896
O O5 0.250000 0.349345 0.750000
O O6 0.500000 0.343864 0.848465
O O7 0.255545 0.292432 0.907120
O O8 0.229824 0.109962 0.593222
O O9 0.211834 0.109050 0.413140
O O10 0.286752 0.200369 0.498022
O O11 0.000000 0.163077 0.513442
O O12 0.750000 0.063031 0.750000
O O13 0.500000 0.069613 0.643518
O O14 0.729834 0.998836 0.606887
O O15 0.750000 0.072031 0.250000
O O16 0.500000 0.039937 0.159502
O O17 0.250000 0.649264 0.750000
O O18 0.500000 0.656114 0.848303
O O19 0.254698 0.707074 0.906245
O O20 0.000000 0.279064 0.999905
#
# Coordination Sequence:
#
# PCOD8220581 Si02
#       7
#     8   8   8   8   8   8   8
#     4   8  16  32  54  82 116 150 185 227 272 321
#     4  10  20  36  58  82 112 149 187 227 275 328
#     4  11  23  39  58  82 112 144 182 227 278 330
#     4  11  22  37  58  83 112 145 182 224 272 328
#     4  10  21  37  58  82 111 145 179 221 271 326
#     4  10  20  36  58  82 112 150 188 228 276 327
#     4  11  23  39  58  81 109 142 186 234 280 330
#
# _framework density 19.151738999999999
#
# number of rings (size 3 to 8) (size 9 to 14) (size 15 to 20)
#    0.000    1.857    0.000    6.429    0.000    5.714 
#    0.000    4.286    0.000   14.571    0.000    0.000 
#    0.000    0.000    0.000    0.000    0.000    0.000 
#
# Total GULP energy -694507.525931 kJ/mol
# GULP energy per Si atom -12401.920106 kJ/mol
# Density = 1.910815 g / cm^3
# Si number density = 19.151739 Si / 1000 Ang^3
#
#
#
# Elastic Constant Matrix: (Units=GPa)
#
#
# Indices 1 2 3 4 5 6 
#
# 1 83.2960 28.6602 44.6522 0.0000 0.0000 0.0000
# 2 28.6602 131.0878 63.6670 0.0000 0.0000 0.0000
# 3 44.6522 63.6670 141.5561 0.0000 0.0000 0.0000
# 4 0.0000 0.0000 0.0000 10.4400 0.0000 0.0000
# 5 0.0000 0.0000 0.0000 0.0000 32.6309 0.0000
# 6 0.0000 0.0000 0.0000 0.0000 0.0000 23.5269
#
#
#
# Elastic Compliance Matrix: (Units=1/GPa)
#
#
# Indices 1 2 3 4 5 6 
#
# 1 0.014600 -0.001222 -0.004056 0.000000 0.000000 0.000000
# 2 -0.001222 0.009863 -0.004050 0.000000 0.000000 0.000000
# 3 -0.004056 -0.004050 0.010165 0.000000 0.000000 0.000000
# 4 0.000000 0.000000 0.000000 0.095785 0.000000 0.000000
# 5 0.000000 0.000000 0.000000 0.000000 0.030646 0.000000
# 6 0.000000 0.000000 0.000000 0.000000 0.000000 0.042504
#
#
# Mechanical properties :
#
#
# Convention : Reuss Voigt Hill
#
# Bulk Modulus (GPa) = 62.61126 69.98874 66.30000
# Shear Modulus (GPa) = 21.97374 27.91695 24.94534
#
# Velocity S-wave (km/s) = 3.39093 3.82209 3.61295
# Velocity P-wave (km/s) = 6.93501 7.49009 7.21789
#
# Compressibility (1/GPa) = 0.01597157
#
# Stress axis : x y z
#
# Youngs Moduli (GPa) = 68.49290 101.38966 98.37292
#
# Poissons Ratio (x) = 0.12393 0.39897
# Poissons Ratio (y) = 0.08372 0.39845
# Poissons Ratio (z) = 0.27778 0.41067
#
# Static dielectric constant tensor:
#      x y z
#    x 3.294710 0.000000 0.000000 
#    y 0.000000 3.709040 0.000000 
#    z 0.000000 0.000000 3.571200 
# 
# 
# High freq. dielectric constant tensor:
#      x y z
#    x 1.748940 0.000000 0.000000 
#    y 0.000000 1.747000 0.000000 
#    z 0.000000 0.000000 1.751570 
# 
# From -- ./inp_files/20576.got.cif
#   From: 2010.03.12/outbox.cif.g09.slc.cpg/sg53_11_cif.got.tgz:20576.got - 2010.04.16 14:36:59.
