data_PCOD8220577
_publ_section_title
;
Structure prediction by ZEFSAII (Michael W. Deem and Ramdas Pophale) SiO2 
 PCOD8220577
Probable space group: P M N A
;
_chemical_formula_sum "Si O2"
_cell_formula_units_Z 48
_cell_length_a 8.905284
_cell_length_b 30.490599
_cell_length_c 9.057491
_cell_angle_alpha 90.000000
_cell_angle_beta 90.000000
_cell_angle_gamma 90.000000
_cell_volume 2459.357375
_symmetry_space_group_name_H-M "P M N A"
_symmetry_group_IT_number 53
_symmetry_cell_setting 'orthorhombic'
loop_
_space_group_symop_operation_xyz
x,y,z
1/2-x,-y,1/2+z
x,-y,-z
1/2-x,y,1/2-z
-x,-y,-z
1/2+x,y,1/2-z
-x,y,z
1/2+x,-y,1/2+z
loop_
_atom_site_type_symbol
_atom_site_label
_atom_site_fract_x
_atom_site_fract_y
_atom_site_fract_z
Si Si1 0.823898 0.541353 0.591697
Si Si2 0.325180 0.137163 0.090964
Si Si3 0.177291 0.627127 0.408136
Si Si4 0.674250 0.789523 0.403988
Si Si5 0.172992 0.038878 0.403696
Si Si6 0.825309 0.703564 0.909119
O O1 0.760912 0.500000 0.500000
O O2 0.750000 0.542537 0.750000
O O3 0.780532 0.585422 0.506614
O O4 0.000000 0.536761 0.614917
O O5 0.250000 0.144542 0.250000
O O6 0.500000 0.148994 0.107996
O O7 0.302170 0.087583 0.030521
O O8 0.250245 0.166999 0.967178
O O9 0.250000 0.619719 0.250000
O O10 0.245896 0.669795 0.482622
O O11 0.000000 0.633323 0.390340
O O12 0.750000 0.775878 0.250000
O O13 0.500000 0.798715 0.374839
O O14 0.698262 0.751400 0.522941
O O15 0.250000 0.036307 0.250000
O O16 0.000000 0.028737 0.379019
O O17 0.246218 0.000000 0.500000
O O18 0.750000 0.701889 0.750000
O O19 0.000000 0.691392 0.893641
#
# Coordination Sequence:
#
# PCOD8220577 Si02
#       6
#     8   8   8   8   8   8
#     4  10  22  39  59  86 118 153 194 238 286 340
#     4  10  20  36  58  82 111 147 187 231 278 332
#     4  11  23  39  61  88 119 154 193 238 287 339
#     4  11  24  40  59  84 114 148 186 231 282 335
#     4   9  19  35  54  79 110 144 183 226 274 328
#     4  11  24  41  62  87 116 151 190 233 282 337
#
# _framework density 19.517295000000001
#
# number of rings (size 3 to 8) (size 9 to 14) (size 15 to 20)
#    0.000    1.667    0.000    4.000    0.000   10.000 
#    0.000    1.667    0.000    0.000    0.000    0.000 
#    0.000    0.000    0.000    0.000    0.000    0.000 
#
# Total GULP energy -595345.269997 kJ/mol
# GULP energy per Si atom -12403.026458 kJ/mol
# Density = 1.947287 g / cm^3
# Si number density = 19.517295 Si / 1000 Ang^3
#
#
#
# Elastic Constant Matrix: (Units=GPa)
#
#
# Indices 1 2 3 4 5 6 
#
# 1 100.8523 60.0803 60.4434 0.0000 0.0000 0.0000
# 2 60.0803 113.8896 46.3748 0.0000 0.0000 0.0000
# 3 60.4434 46.3748 121.6933 0.0000 0.0000 0.0000
# 4 0.0000 0.0000 0.0000 55.7899 0.0000 0.0000
# 5 0.0000 0.0000 0.0000 0.0000 33.8628 0.0000
# 6 0.0000 0.0000 0.0000 0.0000 0.0000 24.2660
#
#
#
# Elastic Compliance Matrix: (Units=1/GPa)
#
#
# Indices 1 2 3 4 5 6 
#
# 1 0.017678 -0.006807 -0.006187 0.000000 0.000000 0.000000
# 2 -0.006807 0.013014 -0.001579 0.000000 0.000000 0.000000
# 3 -0.006187 -0.001579 0.011892 0.000000 0.000000 0.000000
# 4 0.000000 0.000000 0.000000 0.017924 0.000000 0.000000
# 5 0.000000 0.000000 0.000000 0.000000 0.029531 0.000000
# 6 0.000000 0.000000 0.000000 0.000000 0.000000 0.041210
#
#
# Mechanical properties :
#
#
# Convention : Reuss Voigt Hill
#
# Bulk Modulus (GPa) = 74.40390 74.47026 74.43708
# Shear Modulus (GPa) = 30.32638 34.08619 32.20628
#
# Velocity S-wave (km/s) = 3.94613 4.18360 4.06660
# Velocity P-wave (km/s) = 7.67902 7.84701 7.76347
#
# Compressibility (1/GPa) = 0.01344016
#
# Stress axis : x y z
#
# Youngs Moduli (GPa) = 56.56684 76.84071 84.09187
#
# Poissons Ratio (x) = 0.52303 0.52025
# Poissons Ratio (y) = 0.38503 0.13274
# Poissons Ratio (z) = 0.34996 0.12130
#
# Static dielectric constant tensor:
#      x y z
#    x 3.692530 0.000000 0.000000 
#    y 0.000000 4.226450 0.000000 
#    z 0.000000 0.000000 3.515440 
# 
# 
# High freq. dielectric constant tensor:
#      x y z
#    x 1.769640 0.000000 0.000000 
#    y 0.000000 1.777940 0.000000 
#    z 0.000000 0.000000 1.766390 
# 
# From -- ./inp_files/6562.got.cif
#   From: 2010.03.12/outbox.cif.g09.slc.cpg/sg53_4_cif.got.tgz:6562.got - 2010.04.16 14:36:59.
