data_PCOD8220803
_publ_section_title
;
Structure prediction by ZEFSAII (Michael W. Deem and Ramdas Pophale) SiO2 
 PCOD8220803
Probable space group: P M N A
;
_chemical_formula_sum "Si O2"
_cell_formula_units_Z 40
_cell_length_a 8.676563
_cell_length_b 9.125911
_cell_length_c 25.241934
_cell_angle_alpha 90.000000
_cell_angle_beta 90.000000
_cell_angle_gamma 90.000000
_cell_volume 1998.695250
_symmetry_space_group_name_H-M "P M N A"
_symmetry_group_IT_number 53
_symmetry_cell_setting 'orthorhombic'
loop_
_space_group_symop_operation_xyz
x,y,z
1/2-x,-y,1/2+z
x,-y,-z
1/2-x,y,1/2-z
-x,-y,-z
1/2+x,y,1/2-z
-x,y,z
1/2+x,-y,1/2+z
loop_
_atom_site_type_symbol
_atom_site_label
_atom_site_fract_x
_atom_site_fract_y
_atom_site_fract_z
Si Si1 0.321532 0.169588 0.496127
Si Si2 0.178818 0.332532 0.399280
Si Si3 0.319023 0.159910 0.305994
Si Si4 0.178175 0.330264 0.592245
Si Si5 0.820501 0.150026 0.694768
O O1 0.500000 0.192068 0.481428
O O2 0.216409 0.239481 0.451071
O O3 0.286726 0.244539 0.551989
O O4 0.278078 0.000000 0.500000
O O5 0.277752 0.279862 0.349597
O O6 0.222123 0.499995 0.410682
O O7 0.000000 0.314509 0.385210
O O8 0.250000 0.210416 0.250000
O O9 0.500000 0.146988 0.300144
O O10 0.254054 0.002524 0.323818
O O11 0.213152 0.273066 0.651177
O O12 0.000000 0.303940 0.576852
O O13 0.750000 0.206196 0.750000
O O14 0.000000 0.121732 0.703073
#
# Coordination Sequence:
#
# PCOD8220803 Si02
#       5
#     8   8   8   8   8
#     4  11  24  40  60  87 116 149 192 239 286 340
#     4  11  23  40  60  85 118 153 191 236 288 343
#     4  11  22  38  60  87 117 152 195 238 284 337
#     4  10  23  40  59  85 117 153 191 235 288 344
#     4  10  20  37  60  86 116 151 192 236 284 336
#
# _framework density 20.013055999999999
#
# number of rings (size 3 to 8) (size 9 to 14) (size 15 to 20)
#    0.000    1.400    0.000    6.600    0.000   11.200 
#    0.000    2.000    0.000    0.000    0.000    0.000 
#    0.000    0.000    0.000    0.000    0.000    0.000 
#
# Total GULP energy -496284.417954 kJ/mol
# GULP energy per Si atom -12407.110449 kJ/mol
# Density = 1.996751 g / cm^3
# Si number density = 20.013056 Si / 1000 Ang^3
#
#
#
# Elastic Constant Matrix: (Units=GPa)
#
#
# Indices 1 2 3 4 5 6 
#
# 1 104.2553 46.9223 43.1227 0.0000 0.0000 0.0000
# 2 46.9223 125.8129 63.0231 0.0000 0.0000 0.0000
# 3 43.1227 63.0231 112.0210 0.0000 0.0000 0.0000
# 4 0.0000 0.0000 0.0000 15.9747 0.0000 0.0000
# 5 0.0000 0.0000 0.0000 0.0000 37.5724 0.0000
# 6 0.0000 0.0000 0.0000 0.0000 0.0000 14.5350
#
#
#
# Elastic Compliance Matrix: (Units=1/GPa)
#
#
# Indices 1 2 3 4 5 6 
#
# 1 0.012199 -0.003060 -0.002975 0.000000 0.000000 0.000000
# 2 -0.003060 0.011835 -0.005480 0.000000 0.000000 0.000000
# 3 -0.002975 -0.005480 0.013155 0.000000 0.000000 0.000000
# 4 0.000000 0.000000 0.000000 0.062599 0.000000 0.000000
# 5 0.000000 0.000000 0.000000 0.000000 0.026615 0.000000
# 6 0.000000 0.000000 0.000000 0.000000 0.000000 0.068799
#
#
# Mechanical properties :
#
#
# Convention : Reuss Voigt Hill
#
# Bulk Modulus (GPa) = 70.62296 72.02505 71.32401
# Shear Modulus (GPa) = 22.42630 26.21783 24.32207
#
# Velocity S-wave (km/s) = 3.35114 3.62337 3.48991
# Velocity P-wave (km/s) = 7.09497 7.31931 7.20801
#
# Compressibility (1/GPa) = 0.01415970
#
# Stress axis : x y z
#
# Youngs Moduli (GPa) = 81.97161 84.49739 76.01477
#
# Poissons Ratio (x) = 0.25853 0.22613
# Poissons Ratio (y) = 0.25080 0.41659
# Poissons Ratio (z) = 0.24385 0.46308
#
# Static dielectric constant tensor:
#      x y z
#    x 3.696240 0.000000 0.000000 
#    y 0.000000 3.662790 0.000000 
#    z 0.000000 0.000000 3.703000 
# 
# 
# High freq. dielectric constant tensor:
#      x y z
#    x 1.791580 0.000000 0.000000 
#    y 0.000000 1.783660 0.000000 
#    z 0.000000 0.000000 1.793250 
# 
# From -- ./inp_files/33618.got.cif
#   From: 2010.03.12/outbox.cif.g09.slc.cpg/sg53_17_cif.got.tgz:33618.got - 2010.04.16 14:36:59.
