data_PCOD8220845
_publ_section_title
;
Structure prediction by ZEFSAII (Michael W. Deem and Ramdas Pophale) SiO2 
 PCOD8220845
Probable space group: P M N A
;
_chemical_formula_sum "Si O2"
_cell_formula_units_Z 40
_cell_length_a 8.776143
_cell_length_b 12.490031
_cell_length_c 18.801203
_cell_angle_alpha 90.000000
_cell_angle_beta 90.000000
_cell_angle_gamma 90.000000
_cell_volume 2060.880671
_symmetry_space_group_name_H-M "P M N A"
_symmetry_group_IT_number 53
_symmetry_cell_setting 'orthorhombic'
loop_
_space_group_symop_operation_xyz
x,y,z
1/2-x,-y,1/2+z
x,-y,-z
1/2-x,y,1/2-z
-x,-y,-z
1/2+x,y,1/2-z
-x,y,z
1/2+x,-y,1/2+z
loop_
_atom_site_type_symbol
_atom_site_label
_atom_site_fract_x
_atom_site_fract_y
_atom_site_fract_z
Si Si1 0.321061 0.720776 0.934332
Si Si2 0.680545 0.880908 0.173021
Si Si3 0.320443 0.534457 0.827100
Si Si4 0.679241 0.050424 0.425612
Si Si5 0.680020 0.671917 0.091641
O O1 0.500000 0.749133 0.934948
O O2 0.277360 0.638477 0.872604
O O3 0.224526 0.826483 0.920877
O O4 0.270954 0.668305 0.009251
O O5 0.750000 0.867862 0.250000
O O6 0.500000 0.882726 0.178243
O O7 0.741432 0.781308 0.126376
O O8 0.737086 0.990512 0.138358
O O9 0.250000 0.547120 0.750000
O O10 0.500000 0.522941 0.819234
O O11 0.250928 0.430082 0.866683
O O12 0.500000 0.037441 0.415769
O O13 0.735063 0.000000 0.500000
O O14 0.500000 0.666792 0.097800
#
# Coordination Sequence:
#
# PCOD8220845 Si02
#       5
#     8   8   8   8   8
#     4  10  20  37  62  86 112 152 200 241 285 346
#     4  11  22  37  60  88 119 153 194 240 294 351
#     4  10  21  37  58  85 118 153 190 237 289 346
#     4  11  23  39  59  85 118 153 194 244 293 343
#     4   9  18  35  60  87 113 149 194 239 286 345
#
# _framework density 19.409177
#
# number of rings (size 3 to 8) (size 9 to 14) (size 15 to 20)
#    0.000    1.800    2.000    2.400    0.000    4.800 
#    0.000    4.000    0.000    2.400    0.000    0.000 
#    0.000    0.000    0.000    0.000    0.000    0.000 
#
# Total GULP energy -496148.140838 kJ/mol
# GULP energy per Si atom -12403.703521 kJ/mol
# Density = 1.936500 g / cm^3
# Si number density = 19.409177 Si / 1000 Ang^3
#
#
#
# Elastic Constant Matrix: (Units=GPa)
#
#
# Indices 1 2 3 4 5 6 
#
# 1 46.7104 33.9099 33.3494 0.0000 0.0000 0.0000
# 2 33.9099 137.8373 74.8584 0.0000 0.0000 0.0000
# 3 33.3494 74.8584 151.7555 0.0000 0.0000 0.0000
# 4 0.0000 0.0000 0.0000 34.5478 0.0000 0.0000
# 5 0.0000 0.0000 0.0000 0.0000 31.6809 0.0000
# 6 0.0000 0.0000 0.0000 0.0000 0.0000 17.2527
#
#
#
# Elastic Compliance Matrix: (Units=1/GPa)
#
#
# Indices 1 2 3 4 5 6 
#
# 1 0.027502 -0.004758 -0.003697 0.000000 0.000000 0.000000
# 2 -0.004758 0.010733 -0.004249 0.000000 0.000000 0.000000
# 3 -0.003697 -0.004249 0.009498 0.000000 0.000000 0.000000
# 4 0.000000 0.000000 0.000000 0.028945 0.000000 0.000000
# 5 0.000000 0.000000 0.000000 0.000000 0.031565 0.000000
# 6 0.000000 0.000000 0.000000 0.000000 0.000000 0.057962
#
#
# Mechanical properties :
#
#
# Convention : Reuss Voigt Hill
#
# Bulk Modulus (GPa) = 44.79176 68.94873 56.87024
# Shear Modulus (GPa) = 25.11880 29.64198 27.38039
#
# Velocity S-wave (km/s) = 3.60136 3.91220 3.75999
# Velocity P-wave (km/s) = 6.35774 7.48385 6.94366
#
# Compressibility (1/GPa) = 0.02232553
#
# Stress axis : x y z
#
# Youngs Moduli (GPa) = 36.36091 93.17068 105.28840
#
# Poissons Ratio (x) = 0.44333 0.38921
# Poissons Ratio (y) = 0.17302 0.44734
# Poissons Ratio (z) = 0.13441 0.39586
#
# Static dielectric constant tensor:
#      x y z
#    x 3.289380 0.000000 0.000000 
#    y 0.000000 3.750180 0.000000 
#    z 0.000000 0.000000 3.689220 
# 
# 
# High freq. dielectric constant tensor:
#      x y z
#    x 1.732650 0.000000 0.000000 
#    y 0.000000 1.768840 0.000000 
#    z 0.000000 0.000000 1.767850 
# 
# From -- ./inp_files/19867.got.cif
#   From: 2010.03.12/outbox.cif.g09.slc.cpg/sg53_10_cif.got.tgz:19867.got - 2010.04.16 14:36:59.
