data_PCOD8220593
_publ_section_title
;
Structure prediction by ZEFSAII (Michael W. Deem and Ramdas Pophale) SiO2 
 PCOD8220593
Probable space group: P M N A
;
_chemical_formula_sum "Si O2"
_cell_formula_units_Z 48
_cell_length_a 9.069166
_cell_length_b 30.296401
_cell_length_c 9.114227
_cell_angle_alpha 90.000000
_cell_angle_beta 90.000000
_cell_angle_gamma 90.000000
_cell_volume 2504.253172
_symmetry_space_group_name_H-M "P M N A"
_symmetry_group_IT_number 53
_symmetry_cell_setting 'orthorhombic'
loop_
_space_group_symop_operation_xyz
x,y,z
1/2-x,-y,1/2+z
x,-y,-z
1/2-x,y,1/2-z
-x,-y,-z
1/2+x,y,1/2-z
-x,y,z
1/2+x,-y,1/2+z
loop_
_atom_site_type_symbol
_atom_site_label
_atom_site_fract_x
_atom_site_fract_y
_atom_site_fract_z
Si Si1 0.326393 0.542031 0.093889
Si Si2 0.673011 0.291355 0.903455
Si Si3 0.173372 0.374253 0.405516
Si Si4 0.670997 0.787438 0.898078
Si Si5 0.330067 0.042464 0.600597
Si Si6 0.173784 0.111457 0.401995
O O1 0.250000 0.540643 0.250000
O O2 0.500000 0.541824 0.120474
O O3 0.275064 0.500000 0.000000
O O4 0.274693 0.585555 0.007775
O O5 0.750000 0.299299 0.750000
O O6 0.500000 0.293339 0.875143
O O7 0.722985 0.329083 0.016481
O O8 0.722588 0.244065 0.969508
O O9 0.250000 0.378234 0.250000
O O10 0.000000 0.375714 0.378411
O O11 0.750000 0.772631 0.750000
O O12 0.500000 0.780979 0.866428
O O13 0.708257 0.837725 0.940234
O O14 0.250000 0.029744 0.750000
O O15 0.500000 0.055475 0.627920
O O16 0.245236 0.083756 0.531835
O O17 0.316520 0.000000 0.500000
O O18 0.250000 0.097594 0.250000
O O19 0.000000 0.101843 0.389725
#
# Coordination Sequence:
#
# PCOD8220593 Si02
#       6
#     8   8   8   8   8   8
#     4  10  21  36  54  79 109 140 178 221 265 317
#     4  10  21  36  53  77 108 140 178 221 266 317
#     4  10  21  36  55  79 106 138 178 222 267 319
#     4   9  19  35  55  80 108 140 178 219 263 315
#     4  11  24  40  59  83 111 144 181 222 269 319
#     4  10  20  36  58  83 112 144 180 222 268 319
#
# _framework density 19.167390000000001
#
# number of rings (size 3 to 8) (size 9 to 14) (size 15 to 20)
#    0.000    2.000    0.000    3.000    0.000    6.333 
#    0.000    1.667    0.000    0.000    0.000    0.000 
#    0.000    0.000    0.000    0.000    0.000    0.000 
#
# Total GULP energy -595409.723809 kJ/mol
# GULP energy per Si atom -12404.369246 kJ/mol
# Density = 1.912376 g / cm^3
# Si number density = 19.167390 Si / 1000 Ang^3
#
#
#
# Elastic Constant Matrix: (Units=GPa)
#
#
# Indices 1 2 3 4 5 6 
#
# 1 76.7769 47.8073 65.5971 0.0000 0.0000 0.0000
# 2 47.8073 109.6278 65.2927 0.0000 0.0000 0.0000
# 3 65.5971 65.2927 157.4503 0.0000 0.0000 0.0000
# 4 0.0000 0.0000 0.0000 31.0917 0.0000 0.0000
# 5 0.0000 0.0000 0.0000 0.0000 42.6950 0.0000
# 6 0.0000 0.0000 0.0000 0.0000 0.0000 18.9712
#
#
#
# Elastic Compliance Matrix: (Units=1/GPa)
#
#
# Indices 1 2 3 4 5 6 
#
# 1 0.022571 -0.005634 -0.007067 0.000000 0.000000 0.000000
# 2 -0.005634 0.013520 -0.003259 0.000000 0.000000 0.000000
# 3 -0.007067 -0.003259 0.010647 0.000000 0.000000 0.000000
# 4 0.000000 0.000000 0.000000 0.032163 0.000000 0.000000
# 5 0.000000 0.000000 0.000000 0.000000 0.023422 0.000000
# 6 0.000000 0.000000 0.000000 0.000000 0.000000 0.052711
#
#
# Mechanical properties :
#
#
# Convention : Reuss Voigt Hill
#
# Bulk Modulus (GPa) = 67.48920 77.91658 72.70289
# Shear Modulus (GPa) = 26.05604 29.56212 27.80908
#
# Velocity S-wave (km/s) = 3.69100 3.93149 3.81314
# Velocity P-wave (km/s) = 7.31105 7.83247 7.57625
#
# Compressibility (1/GPa) = 0.01481719
#
# Stress axis : x y z
#
# Youngs Moduli (GPa) = 44.30467 73.96559 93.92126
#
# Poissons Ratio (x) = 0.41670 0.66377
# Poissons Ratio (y) = 0.24960 0.30612
# Poissons Ratio (z) = 0.31311 0.24108
#
# Static dielectric constant tensor:
#      x y z
#    x 3.500860 0.000000 0.000000 
#    y 0.000000 3.791670 0.000000 
#    z 0.000000 0.000000 3.514370 
# 
# 
# High freq. dielectric constant tensor:
#      x y z
#    x 1.743890 0.000000 0.000000 
#    y 0.000000 1.761920 0.000000 
#    z 0.000000 0.000000 1.750190 
# 
# From -- ./inp_files/6645.got.cif
#   From: 2010.03.12/outbox.cif.g09.slc.cpg/sg53_4_cif.got.tgz:6645.got - 2010.04.16 14:36:59.
