data_PCOD8220286
_publ_section_title
;
Structure prediction by ZEFSAII (Michael W. Deem and Ramdas Pophale) SiO2 
 PCOD8220286
Probable space group: P M N A
;
_chemical_formula_sum "Si O2"
_cell_formula_units_Z 64
_cell_length_a 17.109482
_cell_length_b 20.665524
_cell_length_c 9.232888
_cell_angle_alpha 90.000000
_cell_angle_beta 90.000000
_cell_angle_gamma 90.000000
_cell_volume 3264.531401
_symmetry_space_group_name_H-M "P M N A"
_symmetry_group_IT_number 53
_symmetry_cell_setting 'orthorhombic'
loop_
_space_group_symop_operation_xyz
x,y,z
1/2-x,-y,1/2+z
x,-y,-z
1/2-x,y,1/2-z
-x,-y,-z
1/2+x,y,1/2-z
-x,y,z
1/2+x,-y,1/2+z
loop_
_atom_site_type_symbol
_atom_site_label
_atom_site_fract_x
_atom_site_fract_y
_atom_site_fract_z
Si Si1 0.173489 0.003953 0.666140
Si Si2 0.589549 0.874219 0.808309
Si Si3 0.906654 0.635681 0.688602
Si Si4 0.336664 0.753444 0.299027
Si Si5 0.408179 0.360271 0.866826
Si Si6 0.914408 0.496509 0.671892
Si Si7 0.411302 0.131942 0.857878
Si Si8 0.907277 0.752418 0.890702
O O1 0.250000 0.026434 0.750000
O O2 0.106110 0.057671 0.682162
O O3 0.198039 0.000000 0.500000
O O4 0.142318 0.936213 0.730268
O O5 0.500000 0.894780 0.785623
O O6 0.612600 0.814971 0.705726
O O7 0.603307 0.852844 0.973631
O O8 0.875301 0.654780 0.528165
O O9 0.873340 0.563223 0.728847
O O10 0.878946 0.688702 0.804282
O O11 0.000000 0.633927 0.685932
O O12 0.250000 0.733523 0.250000
O O13 0.394200 0.699560 0.237052
O O14 0.354523 0.823408 0.234411
O O15 0.351584 0.756368 0.470236
O O16 0.500000 0.372772 0.879463
O O17 0.371339 0.427238 0.797465
O O18 0.922593 0.500000 0.500000
O O19 0.000000 0.495091 0.744966
O O20 0.500000 0.146992 0.813770
O O21 0.000000 0.750145 0.928910
#
# Coordination Sequence:
#
# PCOD8220286 Si02
#       8
#     8   8   8   8   8   8   8   8
#     4  10  21  36  56  83 114 144 173 209 256 311
#     4   9  19  36  59  84 106 134 175 222 266 310
#     4   8  14  28  54  84 106 129 172 227 270 308
#     4  12  25  37  49  72 108 145 179 217 264 319
#     4   9  16  31  55  78 102 138 179 215 261 321
#     4   7  11  22  47  81 106 126 165 219 264 306
#     4  10  20  38  61  80 101 135 180 222 262 312
#     4  10  20  35  55  80 109 137 173 223 271 311
#
# _framework density 19.604651
#
# number of rings (size 3 to 8) (size 9 to 14) (size 15 to 20)
#    0.000    2.625    0.000    4.125    0.000    6.500 
#    0.000    2.500    0.000   10.500    0.000    0.000 
#    0.000    0.000    0.000    0.000    0.000    0.000 
#
# Total GULP energy -793101.034810 kJ/mol
# GULP energy per Si atom -12392.203669 kJ/mol
# Density = 1.956003 g / cm^3
# Si number density = 19.604651 Si / 1000 Ang^3
#
#
#
# Elastic Constant Matrix: (Units=GPa)
#
#
# Indices 1 2 3 4 5 6 
#
# 1 43.2153 24.1206 32.6229 0.0000 0.0000 0.0000
# 2 24.1206 135.0189 66.7660 0.0000 0.0000 0.0000
# 3 32.6229 66.7660 96.9764 0.0000 0.0000 0.0000
# 4 0.0000 0.0000 0.0000 13.2083 0.0000 0.0000
# 5 0.0000 0.0000 0.0000 0.0000 19.5222 0.0000
# 6 0.0000 0.0000 0.0000 0.0000 0.0000 8.4872
#
#
#
# Elastic Compliance Matrix: (Units=1/GPa)
#
#
# Indices 1 2 3 4 5 6 
#
# 1 0.031046 -0.000579 -0.010045 0.000000 0.000000 0.000000
# 2 -0.000579 0.011240 -0.007544 0.000000 0.000000 0.000000
# 3 -0.010045 -0.007544 0.018885 0.000000 0.000000 0.000000
# 4 0.000000 0.000000 0.000000 0.075710 0.000000 0.000000
# 5 0.000000 0.000000 0.000000 0.000000 0.051224 0.000000
# 6 0.000000 0.000000 0.000000 0.000000 0.000000 0.117824
#
#
# Mechanical properties :
#
#
# Convention : Reuss Voigt Hill
#
# Bulk Modulus (GPa) = 40.26585 58.02550 49.14568
# Shear Modulus (GPa) = 14.26357 18.35697 16.31027
#
# Velocity S-wave (km/s) = 2.70026 3.06332 2.88750
# Velocity P-wave (km/s) = 5.50503 6.49415 6.01994
#
# Compressibility (1/GPa) = 0.02483494
#
# Stress axis : x y z
#
# Youngs Moduli (GPa) = 32.20999 88.96656 52.95257
#
# Poissons Ratio (x) = 0.05150 0.53193
# Poissons Ratio (y) = 0.01865 0.39947
# Poissons Ratio (z) = 0.32356 0.67115
#
# Static dielectric constant tensor:
#      x y z
#    x 3.127920 0.000000 0.000000 
#    y 0.000000 3.970090 0.000000 
#    z 0.000000 0.000000 3.428550 
# 
# 
# High freq. dielectric constant tensor:
#      x y z
#    x 1.720670 0.000000 0.000000 
#    y 0.000000 1.789180 0.000000 
#    z 0.000000 0.000000 1.743700 
# 
# From -- ./inp_files/10238.got.cif
#   From: 2010.03.12/outbox.cif.g09.slc.cpg/sg53_6_cif.got.tgz:10238.got - 2010.04.16 14:36:59.
