data_PCOD8220557
_publ_section_title
;
Structure prediction by ZEFSAII (Michael W. Deem and Ramdas Pophale) SiO2 
 PCOD8220557
Probable space group: P M N A
;
_chemical_formula_sum "Si O2"
_cell_formula_units_Z 56
_cell_length_a 18.908708
_cell_length_b 9.522693
_cell_length_c 16.256669
_cell_angle_alpha 90.000000
_cell_angle_beta 90.000000
_cell_angle_gamma 90.000000
_cell_volume 2927.205429
_symmetry_space_group_name_H-M "P M N A"
_symmetry_group_IT_number 53
_symmetry_cell_setting 'orthorhombic'
loop_
_space_group_symop_operation_xyz
x,y,z
1/2-x,-y,1/2+z
x,-y,-z
1/2-x,y,1/2-z
-x,-y,-z
1/2+x,y,1/2-z
-x,y,z
1/2+x,-y,1/2+z
loop_
_atom_site_type_symbol
_atom_site_label
_atom_site_fract_x
_atom_site_fract_y
_atom_site_fract_z
Si Si1 0.082348 0.635977 0.056947
Si Si2 0.421782 0.773791 0.009162
Si Si3 0.324366 0.020813 0.283184
Si Si4 0.168110 0.855025 0.954528
Si Si5 0.795560 0.297603 0.825909
Si Si6 0.922353 0.991851 0.632853
Si Si7 0.779031 0.656201 0.487755
O O1 0.133724 0.621806 0.138359
O O2 0.000000 0.654622 0.083876
O O3 0.091301 0.500000 0.000000
O O4 0.106294 0.771212 0.002830
O O5 0.500000 0.711159 0.028621
O O6 0.393538 0.874345 0.082335
O O7 0.363462 0.652838 0.998792
O O8 0.425752 0.857672 0.925049
O O9 0.250000 0.077914 0.250000
O O10 0.321377 0.856428 0.302443
O O11 0.378223 0.048864 0.211121
O O12 0.352490 0.109954 0.360870
O O13 0.239441 0.761244 0.949726
O O14 0.185474 0.000000 0.000000
O O15 0.750000 0.367267 0.750000
O O16 0.738211 0.287923 0.897361
O O17 0.000000 0.030669 0.664531
O O18 0.749081 0.500000 0.500000
#
# Coordination Sequence:
#
# PCOD8220557 Si02
#       7
#     8   8   8   8   8   8   8
#     4  10  22  42  63  85 120 165 202 236 294 364
#     4   9  18  35  57  80 111 153 192 230 290 356
#     4  11  20  32  54  88 115 143 187 247 297 339
#     4  11  21  37  58  86 113 150 195 244 293 349
#     4  10  20  36  57  86 115 147 193 247 291 341
#     4   9  19  33  54  83 113 143 179 234 293 342
#     4  11  22  37  57  81 113 156 192 233 287 351
#
# _framework density 19.130873999999999
#
# number of rings (size 3 to 8) (size 9 to 14) (size 15 to 20)
#    0.000    1.857    2.857    5.143    2.000    1.714 
#    0.000    6.429    0.000    1.714    0.000    0.000 
#    0.000    0.000    0.000    0.000    0.000    0.000 
#
# Total GULP energy -693851.900477 kJ/mol
# GULP energy per Si atom -12390.212509 kJ/mol
# Density = 1.908733 g / cm^3
# Si number density = 19.130874 Si / 1000 Ang^3
#
#
#
# Elastic Constant Matrix: (Units=GPa)
#
#
# Indices 1 2 3 4 5 6 
#
# 1 140.9523 34.3735 51.0548 0.0000 0.0000 0.0000
# 2 34.3735 71.6310 14.7662 0.0000 0.0000 0.0000
# 3 51.0548 14.7662 116.9580 0.0000 0.0000 0.0000
# 4 0.0000 0.0000 0.0000 14.7732 0.0000 0.0000
# 5 0.0000 0.0000 0.0000 0.0000 36.4774 0.0000
# 6 0.0000 0.0000 0.0000 0.0000 0.0000 25.8057
#
#
#
# Elastic Compliance Matrix: (Units=1/GPa)
#
#
# Indices 1 2 3 4 5 6 
#
# 1 0.009304 -0.003724 -0.003591 0.000000 0.000000 0.000000
# 2 -0.003724 0.015824 -0.000372 0.000000 0.000000 0.000000
# 3 -0.003591 -0.000372 0.010165 0.000000 0.000000 0.000000
# 4 0.000000 0.000000 0.000000 0.067690 0.000000 0.000000
# 5 0.000000 0.000000 0.000000 0.000000 0.027414 0.000000
# 6 0.000000 0.000000 0.000000 0.000000 0.000000 0.038751
#
#
# Mechanical properties :
#
#
# Convention : Reuss Voigt Hill
#
# Bulk Modulus (GPa) = 50.20661 58.88113 54.54387
# Shear Modulus (GPa) = 26.15584 30.70104 28.42844
#
# Velocity S-wave (km/s) = 3.70159 4.01033 3.85905
# Velocity P-wave (km/s) = 6.67606 7.23108 6.95910
#
# Compressibility (1/GPa) = 0.01991770
#
# Stress axis : x y z
#
# Youngs Moduli (GPa) = 107.48624 63.19403 98.38054
#
# Poissons Ratio (x) = 0.23535 0.35328
# Poissons Ratio (y) = 0.40030 0.03661
# Poissons Ratio (z) = 0.38598 0.02352
#
# Static dielectric constant tensor:
#      x y z
#    x 3.789790 0.000000 0.000000 
#    y 0.000000 3.319940 0.000000 
#    z 0.000000 0.000000 3.640610 
# 
# 
# High freq. dielectric constant tensor:
#      x y z
#    x 1.753240 0.000000 0.000000 
#    y 0.000000 1.719640 0.000000 
#    z 0.000000 0.000000 1.739800 
# 
# From -- ./inp_files/24373.got.cif
#   From: 2010.03.12/outbox.cif.g09.slc.cpg/sg53_13_cif.got.tgz:24373.got - 2010.04.16 14:36:59.
