data_PCOD8220670
_publ_section_title
;
Structure prediction by ZEFSAII (Michael W. Deem and Ramdas Pophale) SiO2 
 PCOD8220670
Probable space group: P M N A
;
_chemical_formula_sum "Si O2"
_cell_formula_units_Z 48
_cell_length_a 8.763368
_cell_length_b 9.314213
_cell_length_c 30.667260
_cell_angle_alpha 90.000000
_cell_angle_beta 90.000000
_cell_angle_gamma 90.000000
_cell_volume 2503.180632
_symmetry_space_group_name_H-M "P M N A"
_symmetry_group_IT_number 53
_symmetry_cell_setting 'orthorhombic'
loop_
_space_group_symop_operation_xyz
x,y,z
1/2-x,-y,1/2+z
x,-y,-z
1/2-x,y,1/2-z
-x,-y,-z
1/2+x,y,1/2-z
-x,y,z
1/2+x,-y,1/2+z
loop_
_atom_site_type_symbol
_atom_site_label
_atom_site_fract_x
_atom_site_fract_y
_atom_site_fract_z
Si Si1 0.821771 0.852034 0.954333
Si Si2 0.679714 0.166305 0.705057
Si Si3 0.320120 0.158608 0.294879
Si Si4 0.678361 0.646332 0.624958
Si Si5 0.178064 0.339791 0.627468
Si Si6 0.320597 0.845923 0.044849
O O1 0.785877 0.730493 0.919294
O O2 0.000000 0.889451 0.955952
O O3 0.731956 0.995596 0.940966
O O4 0.766032 0.795334 0.001220
O O5 0.750000 0.224863 0.750000
O O6 0.500000 0.172533 0.709265
O O7 0.730306 0.268524 0.666445
O O8 0.737222 0.003761 0.696043
O O9 0.250000 0.218697 0.250000
O O10 0.500000 0.161780 0.290333
O O11 0.265446 0.257830 0.334481
O O12 0.500000 0.607808 0.628935
O O13 0.779323 0.505218 0.624147
O O14 0.225768 0.264299 0.582494
O O15 0.000000 0.321696 0.636763
O O16 0.500000 0.846878 0.035651
#
# Coordination Sequence:
#
# PCOD8220670 Si02
#       6
#     8   8   8   8   8   8
#     4  10  20  36  60  85 107 139 186 231 275 330
#     4  10  20  37  61  85 111 142 181 229 275 323
#     4   9  19  36  58  83 108 138 178 223 271 321
#     4  10  22  38  55  79 112 147 182 225 276 327
#     4  11  24  38  54  80 113 150 187 222 270 329
#     4  10  21  37  57  82 112 144 181 228 279 328
#
# _framework density 19.175602999999999
#
# number of rings (size 3 to 8) (size 9 to 14) (size 15 to 20)
#    0.000    2.000    0.000    4.000    0.000    8.000 
#    0.000    5.000    0.000    0.000    0.000    0.000 
#    0.000    0.000    0.000    0.000    0.000    0.000 
#
# Total GULP energy -595397.354338 kJ/mol
# GULP energy per Si atom -12404.111549 kJ/mol
# Density = 1.913196 g / cm^3
# Si number density = 19.175603 Si / 1000 Ang^3
#
#
#
# Elastic Constant Matrix: (Units=GPa)
#
#
# Indices 1 2 3 4 5 6 
#
# 1 43.6162 25.3446 39.9440 0.0000 0.0000 0.0000
# 2 25.3446 99.0170 73.7838 0.0000 0.0000 0.0000
# 3 39.9440 73.7838 138.6121 0.0000 0.0000 0.0000
# 4 0.0000 0.0000 0.0000 -13.3476 0.0000 0.0000
# 5 0.0000 0.0000 0.0000 0.0000 32.0631 0.0000
# 6 0.0000 0.0000 0.0000 0.0000 0.0000 29.1717
#
#
#
# Elastic Compliance Matrix: (Units=1/GPa)
#
#
# Indices 1 2 3 4 5 6 
#
# 1 0.031420 -0.002147 -0.007912 0.000000 0.000000 0.000000
# 2 -0.002147 0.016885 -0.008369 0.000000 0.000000 0.000000
# 3 -0.007912 -0.008369 0.013949 0.000000 0.000000 0.000000
# 4 0.000000 0.000000 0.000000 -0.074920 0.000000 0.000000
# 5 0.000000 0.000000 0.000000 0.000000 0.031189 0.000000
# 6 0.000000 0.000000 0.000000 0.000000 0.000000 0.034280
#
#
# Mechanical properties :
#
#
# Convention : Reuss Voigt Hill
#
# Bulk Modulus (GPa) = 39.37161 62.15447 50.76304
# Shear Modulus (GPa) = 50.95495 19.05563 35.00529
#
# Velocity S-wave (km/s) = 5.16047 3.15579 4.27724
# Velocity P-wave (km/s) = 7.48893 6.76479 7.13605
#
# Compressibility (1/GPa) = 0.02539901
#
# Stress axis : x y z
#
# Youngs Moduli (GPa) = 31.82655 59.22254 71.68773
#
# Poissons Ratio (x) = 0.12715 0.56716
# Poissons Ratio (y) = 0.06833 0.59999
# Poissons Ratio (z) = 0.25180 0.49566
#
# Static dielectric constant tensor:
#      x y z
#    x 3.504580 0.000000 0.000000 
#    y 0.000000 3.461870 0.000000 
#    z 0.000000 0.000000 3.733930 
# 
# 
# High freq. dielectric constant tensor:
#      x y z
#    x 1.750960 0.000000 0.000000 
#    y 0.000000 1.739790 0.000000 
#    z 0.000000 0.000000 1.760610 
# 
# From -- ./inp_files/37738.got.cif
#   From: 2010.03.12/outbox.cif.g09.slc.cpg/sg53_19_cif.got.tgz:37738.got - 2010.04.16 14:36:59.
