data_PCOD8220230
_publ_section_title
;
Structure prediction by ZEFSAII (Michael W. Deem and Ramdas Pophale) SiO2 
 PCOD8220230
Probable space group: P M N A
;
_chemical_formula_sum "Si O2"
_cell_formula_units_Z 56
_cell_length_a 8.970498
_cell_length_b 17.239343
_cell_length_c 19.525802
_cell_angle_alpha 90.000000
_cell_angle_beta 90.000000
_cell_angle_gamma 90.000000
_cell_volume 3019.577255
_symmetry_space_group_name_H-M "P M N A"
_symmetry_group_IT_number 53
_symmetry_cell_setting 'orthorhombic'
loop_
_space_group_symop_operation_xyz
x,y,z
1/2-x,-y,1/2+z
x,-y,-z
1/2-x,y,1/2-z
-x,-y,-z
1/2+x,y,1/2-z
-x,y,z
1/2+x,-y,1/2+z
loop_
_atom_site_type_symbol
_atom_site_label
_atom_site_fract_x
_atom_site_fract_y
_atom_site_fract_z
Si Si1 0.323705 0.506287 0.176102
Si Si2 0.672469 0.619446 0.936254
Si Si3 0.171671 0.377647 0.921869
Si Si4 0.325690 0.081012 0.680536
Si Si5 0.171441 0.801215 0.064658
Si Si6 0.827894 0.203038 0.426262
Si Si7 0.674814 0.094228 0.320004
O O1 0.250000 0.493438 0.250000
O O2 0.500000 0.514025 0.185940
O O3 0.280490 0.434331 0.127163
O O4 0.261543 0.583321 0.140045
O O5 0.500000 0.608353 0.955907
O O6 0.706065 0.706766 0.912142
O O7 0.765170 0.597117 0.003947
O O8 0.190272 0.286280 0.909187
O O9 0.000000 0.403492 0.918877
O O10 0.250000 0.108607 0.750000
O O11 0.500000 0.086062 0.692467
O O12 0.273312 0.139862 0.622389
O O13 0.277143 0.993530 0.660533
O O14 0.000000 0.816970 0.042928
O O15 0.282108 0.818311 0.002834
O O16 0.725853 0.152403 0.377876
O O17 0.000000 0.182595 0.414363
O O18 0.750000 0.121010 0.250000
O O19 0.500000 0.101128 0.310443
#
# Coordination Sequence:
#
# PCOD8220230 Si02
#       7
#     8   8   8   8   8   8   8
#     4  11  23  38  55  77 107 139 174 216 260 308
#     4   9  20  38  57  77 104 140 177 214 259 310
#     4  10  20  35  57  82 107 137 174 214 259 313
#     4   9  19  35  54  75 103 139 177 215 258 310
#     4   9  19  36  55  78 107 139 175 214 258 308
#     4  10  20  35  55  80 107 136 174 217 261 309
#     4  10  20  35  54  76 104 139 176 215 261 312
#
# _framework density 18.545642000000001
#
# number of rings (size 3 to 8) (size 9 to 14) (size 15 to 20)
#    0.000    2.286    0.000    2.143    0.000    6.857 
#    0.000    5.714    0.000    0.000    0.000    0.000 
#    0.000    0.000    0.000    0.000    0.000    0.000 
#
# Total GULP energy -694562.441285 kJ/mol
# GULP energy per Si atom -12402.900737 kJ/mol
# Density = 1.850343 g / cm^3
# Si number density = 18.545642 Si / 1000 Ang^3
#
#
#
# Elastic Constant Matrix: (Units=GPa)
#
#
# Indices 1 2 3 4 5 6 
#
# 1 70.6537 36.1511 47.3898 0.0000 0.0000 0.0000
# 2 36.1511 82.2671 63.5967 0.0000 0.0000 0.0000
# 3 47.3898 63.5967 114.1050 0.0000 0.0000 0.0000
# 4 0.0000 0.0000 0.0000 -89.0095 0.0000 0.0000
# 5 0.0000 0.0000 0.0000 0.0000 40.1880 0.0000
# 6 0.0000 0.0000 0.0000 0.0000 0.0000 27.8828
#
#
#
# Elastic Compliance Matrix: (Units=1/GPa)
#
#
# Indices 1 2 3 4 5 6 
#
# 1 0.020431 -0.004249 -0.006117 0.000000 0.000000 0.000000
# 2 -0.004249 0.022242 -0.010632 0.000000 0.000000 0.000000
# 3 -0.006117 -0.010632 0.017230 0.000000 0.000000 0.000000
# 4 0.000000 0.000000 0.000000 -0.011235 0.000000 0.000000
# 5 0.000000 0.000000 0.000000 0.000000 0.024883 0.000000
# 6 0.000000 0.000000 0.000000 0.000000 0.000000 0.035864
#
#
# Mechanical properties :
#
#
# Convention : Reuss Voigt Hill
#
# Bulk Modulus (GPa) = 55.84554 62.36677 59.10615
# Shear Modulus (GPa) = 31.77049 3.80480 17.78765
#
# Velocity S-wave (km/s) = 4.14345 1.43389 3.10034
# Velocity P-wave (km/s) = 7.28483 6.03682 6.68999
#
# Compressibility (1/GPa) = 0.01790653
#
# Stress axis : x y z
#
# Youngs Moduli (GPa) = 48.94642 44.96084 58.03901
#
# Poissons Ratio (x) = 0.19105 0.35501
# Poissons Ratio (y) = 0.20799 0.61705
# Poissons Ratio (z) = 0.29939 0.47800
#
# Static dielectric constant tensor:
#      x y z
#    x 3.459220 0.000000 0.000000 
#    y 0.000000 3.543430 0.000000 
#    z 0.000000 0.000000 3.508720 
# 
# 
# High freq. dielectric constant tensor:
#      x y z
#    x 1.727040 0.000000 0.000000 
#    y 0.000000 1.725570 0.000000 
#    z 0.000000 0.000000 1.717240 
# 
# From -- ./inp_files/30832.got.cif
#   From: 2010.03.12/outbox.cif.g09.slc.cpg/sg53_16_cif.got.tgz:30832.got - 2010.04.16 14:36:59.
