data_PCOD8220262
_publ_section_title
;
Structure prediction by ZEFSAII (Michael W. Deem and Ramdas Pophale) SiO2 
 PCOD8220262
Probable space group: P M N A
;
_chemical_formula_sum "Si O2"
_cell_formula_units_Z 40
_cell_length_a 14.396550
_cell_length_b 16.749060
_cell_length_c 8.569226
_cell_angle_alpha 90.000000
_cell_angle_beta 90.000000
_cell_angle_gamma 90.000000
_cell_volume 2066.286152
_symmetry_space_group_name_H-M "P M N A"
_symmetry_group_IT_number 53
_symmetry_cell_setting 'orthorhombic'
loop_
_space_group_symop_operation_xyz
x,y,z
1/2-x,-y,1/2+z
x,-y,-z
1/2-x,y,1/2-z
-x,-y,-z
1/2+x,y,1/2-z
-x,y,z
1/2+x,-y,1/2+z
loop_
_atom_site_type_symbol
_atom_site_label
_atom_site_fract_x
_atom_site_fract_y
_atom_site_fract_z
Si Si1 0.656115 0.302009 0.658690
Si Si2 0.346113 0.970907 0.667051
Si Si3 0.500000 0.056188 0.853366
Si Si4 0.659964 0.795681 0.646022
Si Si5 0.000000 0.696077 0.713133
Si Si6 0.500000 0.241255 0.877956
Si Si7 0.500000 0.594001 0.504157
O O1 0.750000 0.332479 0.750000
O O2 0.683481 0.236891 0.527239
O O3 0.592993 0.256763 0.782930
O O4 0.593893 0.372998 0.581522
O O5 0.250000 0.962097 0.750000
O O6 0.389866 0.882450 0.646305
O O7 0.319015 0.000000 0.500000
O O8 0.410665 0.035732 0.750144
O O9 0.500000 0.146763 0.917597
O O10 0.500000 0.000000 0.000000
O O11 0.750000 0.798067 0.750000
O O12 0.592005 0.737443 0.731555
O O13 0.000000 0.697547 0.525329
O O14 0.000000 0.612481 0.808635
O O15 0.500000 0.500000 0.500000
#
# Coordination Sequence:
#
# PCOD8220262 Si02
#       7
#     8   8   4   8   4   4   4
#     4  10  21  38  61  88 115 150 194 240 293 354
#     4  11  23  36  51  75 107 148 195 247 302 347
#     4  12  24  36  53  78 113 153 198 249 301 350
#     4  10  20  35  55  77 108 149 196 243 287 347
#     4  10  20  37  59  81 108 147 188 227 288 360
#     4  11  22  36  57  83 114 153 196 248 294 346
#     4   9  21  43  65  90 124 153 182 234 293 362
#
# _framework density 19.358402000000002
#
# number of rings (size 3 to 8) (size 9 to 14) (size 15 to 20)
#    0.000    1.600    0.000    5.700    0.000    6.400 
#    0.000    8.000    0.000    0.000    0.000    0.000 
#    0.000    0.000    0.000    0.000    0.000    0.000 
#
# Total GULP energy -495604.491029 kJ/mol
# GULP energy per Si atom -12390.112276 kJ/mol
# Density = 1.931434 g / cm^3
# Si number density = 19.358402 Si / 1000 Ang^3
#
#
#
# Elastic Constant Matrix: (Units=GPa)
#
#
# Indices 1 2 3 4 5 6 
#
# 1 96.7015 33.9559 38.0277 0.0000 0.0000 0.0000
# 2 33.9559 123.0523 49.7559 0.0000 0.0000 0.0000
# 3 38.0277 49.7559 151.8059 0.0000 0.0000 0.0000
# 4 0.0000 0.0000 0.0000 67.9900 0.0000 0.0000
# 5 0.0000 0.0000 0.0000 0.0000 96.4921 0.0000
# 6 0.0000 0.0000 0.0000 0.0000 0.0000 7.9964
#
#
#
# Elastic Compliance Matrix: (Units=1/GPa)
#
#
# Indices 1 2 3 4 5 6 
#
# 1 0.012070 -0.002430 -0.002227 0.000000 0.000000 0.000000
# 2 -0.002430 0.009857 -0.002622 0.000000 0.000000 0.000000
# 3 -0.002227 -0.002622 0.008005 0.000000 0.000000 0.000000
# 4 0.000000 0.000000 0.000000 0.014708 0.000000 0.000000
# 5 0.000000 0.000000 0.000000 0.000000 0.010364 0.000000
# 6 0.000000 0.000000 0.000000 0.000000 0.000000 0.125057
#
#
# Mechanical properties :
#
#
# Convention : Reuss Voigt Hill
#
# Bulk Modulus (GPa) = 65.04680 68.33764 66.69222
# Shear Modulus (GPa) = 25.03200 51.15038 38.09119
#
# Velocity S-wave (km/s) = 3.59985 5.14589 4.44067
# Velocity P-wave (km/s) = 7.13812 8.40743 7.79864
#
# Compressibility (1/GPa) = 0.01537355
#
# Stress axis : x y z
#
# Youngs Moduli (GPa) = 82.84828 101.44580 124.92702
#
# Poissons Ratio (x) = 0.24654 0.27822
# Poissons Ratio (y) = 0.20134 0.32757
# Poissons Ratio (z) = 0.18451 0.26600
#
# Static dielectric constant tensor:
#      x y z
#    x 3.647520 0.000000 0.000000 
#    y 0.000000 3.478920 0.000000 
#    z 0.000000 0.000000 4.008100 
# 
# 
# High freq. dielectric constant tensor:
#      x y z
#    x 1.764400 0.000000 0.000000 
#    y 0.000000 1.728340 0.000000 
#    z 0.000000 0.000000 1.772750 
# 
# From -- ./inp_files/8491.got.cif
#   From: 2010.03.12/outbox.cif.g09.slc.cpg/sg53_5_cif.got.tgz:8491.got - 2010.04.16 14:36:59.
