data_PCOD8220181
_publ_section_title
;
Structure prediction by ZEFSAII (Michael W. Deem and Ramdas Pophale) SiO2 
 PCOD8220181
Probable space group: P M N A
;
_chemical_formula_sum "Si O2"
_cell_formula_units_Z 64
_cell_length_a 9.449490
_cell_length_b 14.357770
_cell_length_c 24.741953
_cell_angle_alpha 90.000000
_cell_angle_beta 90.000000
_cell_angle_gamma 90.000000
_cell_volume 3356.829934
_symmetry_space_group_name_H-M "P M N A"
_symmetry_group_IT_number 53
_symmetry_cell_setting 'orthorhombic'
loop_
_space_group_symop_operation_xyz
x,y,z
1/2-x,-y,1/2+z
x,-y,-z
1/2-x,y,1/2-z
-x,-y,-z
1/2+x,y,1/2-z
-x,y,z
1/2+x,-y,1/2+z
loop_
_atom_site_type_symbol
_atom_site_label
_atom_site_fract_x
_atom_site_fract_y
_atom_site_fract_z
Si Si1 0.834237 0.845880 0.123914
Si Si2 0.832361 0.184345 0.107973
Si Si3 0.166951 0.970923 0.806745
Si Si4 0.340127 0.386696 0.357037
Si Si5 0.342394 0.675341 0.116476
Si Si6 0.331930 0.103575 0.503767
Si Si7 0.839976 0.545120 0.053477
Si Si8 0.343959 0.482262 0.795720
O O1 0.741425 0.759479 0.145662
O O2 0.000000 0.822370 0.127949
O O3 0.797800 0.935092 0.160287
O O4 0.783891 0.856100 0.061574
O O5 0.780185 0.113911 0.155049
O O6 0.781268 0.288539 0.121156
O O7 0.771197 0.159422 0.048297
O O8 0.000000 0.177153 0.104846
O O9 0.250000 0.969075 0.750000
O O10 0.000000 0.963793 0.794431
O O11 0.500000 0.374310 0.334802
O O12 0.337308 0.465218 0.402253
O O13 0.234699 0.420892 0.310357
O O14 0.500000 0.707371 0.098761
O O15 0.252451 0.636714 0.065950
O O16 0.355402 0.589142 0.156109
O O17 0.500000 0.101087 0.501739
O O18 0.270123 0.000000 0.500000
O O19 0.000000 0.580999 0.043663
O O20 0.774809 0.500000 0.000000
O O21 0.250000 0.432484 0.750000
O O22 0.500000 0.507232 0.773961
#
# Coordination Sequence:
#
# PCOD8220181 Si02
#       8
#     8   8   8   8   8   8   8   8
#     4  10  20  34  57  84 109 140 184 230 271 320
#     4   9  17  31  53  82 112 141 179 222 271 323
#     4  10  21  37  55  79 109 144 181 222 272 326
#     4   9  18  32  52  80 111 140 174 219 264 315
#     4  10  22  37  53  77 110 145 177 217 272 327
#     4   9  15  28  54  84 110 138 177 230 276 314
#     4   9  18  32  52  80 110 141 180 220 258 306
#     4  10  21  38  58  77 102 139 182 227 274 321
#
# _framework density 19.065607
#
# number of rings (size 3 to 8) (size 9 to 14) (size 15 to 20)
#    0.000    2.500    1.250    0.750    1.750    3.250 
#    0.000    4.375    0.000    1.125    0.000    0.000 
#    0.000    0.000    0.000    0.000    0.000    0.000 
#
# Total GULP energy -793234.315405 kJ/mol
# GULP energy per Si atom -12394.286178 kJ/mol
# Density = 1.902221 g / cm^3
# Si number density = 19.065607 Si / 1000 Ang^3
#
#
#
# Elastic Constant Matrix: (Units=GPa)
#
#
# Indices 1 2 3 4 5 6 
#
# 1 77.6108 26.4086 23.1633 0.0000 0.0000 0.0000
# 2 26.4086 82.2112 2.0673 0.0000 0.0000 0.0000
# 3 23.1633 2.0673 79.7088 0.0000 0.0000 0.0000
# 4 0.0000 0.0000 0.0000 10.9610 0.0000 0.0000
# 5 0.0000 0.0000 0.0000 0.0000 22.2015 0.0000
# 6 0.0000 0.0000 0.0000 0.0000 0.0000 8.9589
#
#
#
# Elastic Compliance Matrix: (Units=1/GPa)
#
#
# Indices 1 2 3 4 5 6 
#
# 1 0.015931 -0.005004 -0.004500 0.000000 0.000000 0.000000
# 2 -0.005004 0.013744 0.001098 0.000000 0.000000 0.000000
# 3 -0.004500 0.001098 0.013825 0.000000 0.000000 0.000000
# 4 0.000000 0.000000 0.000000 0.091232 0.000000 0.000000
# 5 0.000000 0.000000 0.000000 0.000000 0.045042 0.000000
# 6 0.000000 0.000000 0.000000 0.000000 0.000000 0.111621
#
#
# Mechanical properties :
#
#
# Convention : Reuss Voigt Hill
#
# Bulk Modulus (GPa) = 37.47155 38.08990 37.78073
# Shear Modulus (GPa) = 15.76779 20.95039 18.35909
#
# Velocity S-wave (km/s) = 2.87893 3.31850 3.10650
# Velocity P-wave (km/s) = 5.54506 5.89109 5.72069
#
# Compressibility (1/GPa) = 0.02668691
#
# Stress axis : x y z
#
# Youngs Moduli (GPa) = 62.77264 72.76074 72.33388
#
# Poissons Ratio (x) = 0.36411 0.32547
# Poissons Ratio (y) = 0.31413 -0.07941
# Poissons Ratio (z) = 0.28245 -0.07987
#
# Static dielectric constant tensor:
#      x y z
#    x 3.453930 0.000000 0.000000 
#    y 0.000000 3.538210 0.000000 
#    z 0.000000 0.000000 3.592230 
# 
# 
# High freq. dielectric constant tensor:
#      x y z
#    x 1.709600 0.000000 0.000000 
#    y 0.000000 1.745400 0.000000 
#    z 0.000000 0.000000 1.740410 
# 
# From -- ./inp_files/34219.got.cif
#   From: 2010.03.12/outbox.cif.g09.slc.cpg/sg53_18_cif.got.tgz:34219.got - 2010.04.16 14:36:59.
