data_PCOD8220216
_publ_section_title
;
Structure prediction by ZEFSAII (Michael W. Deem and Ramdas Pophale) SiO2 
 PCOD8220216
Probable space group: P M N A
;
_chemical_formula_sum "Si O2"
_cell_formula_units_Z 48
_cell_length_a 9.046881
_cell_length_b 28.799143
_cell_length_c 10.257503
_cell_angle_alpha 90.000000
_cell_angle_beta 90.000000
_cell_angle_gamma 90.000000
_cell_volume 2672.514651
_symmetry_space_group_name_H-M "P M N A"
_symmetry_group_IT_number 53
_symmetry_cell_setting 'orthorhombic'
loop_
_space_group_symop_operation_xyz
x,y,z
1/2-x,-y,1/2+z
x,-y,-z
1/2-x,y,1/2-z
-x,-y,-z
1/2+x,y,1/2-z
-x,y,z
1/2+x,-y,1/2+z
loop_
_atom_site_type_symbol
_atom_site_label
_atom_site_fract_x
_atom_site_fract_y
_atom_site_fract_z
Si Si1 0.326580 0.968688 0.381736
Si Si2 0.673821 0.307057 0.384253
Si Si3 0.326473 0.862313 0.381751
Si Si4 0.328409 0.199367 0.381060
Si Si5 0.171621 0.469655 0.618936
Si Si6 0.326239 0.361927 0.884267
O O1 0.250000 0.986238 0.250000
O O2 0.500000 0.975137 0.362941
O O3 0.284041 0.915503 0.411920
O O4 0.266762 0.000000 0.500000
O O5 0.750000 0.322991 0.250000
O O6 0.500000 0.318317 0.377772
O O7 0.704530 0.253009 0.410290
O O8 0.749907 0.334520 0.500011
O O9 0.250000 0.844771 0.250000
O O10 0.500000 0.855714 0.363401
O O11 0.265560 0.830815 0.499368
O O12 0.250000 0.182388 0.250000
O O13 0.500000 0.189703 0.361160
O O14 0.235652 0.500000 0.500000
O O15 0.250000 0.486580 0.750000
O O16 0.204062 0.415994 0.589698
O O17 0.000000 0.479545 0.638450
O O18 0.250000 0.346043 0.750000
O O19 0.500000 0.350557 0.877770
#
# Coordination Sequence:
#
# PCOD8220216 Si02
#       6
#     8   8   8   8   8   8
#     4   9  18  32  49  70  97 127 159 198 241 286
#     4  10  20  35  53  74 101 132 167 206 249 296
#     4   9  18  33  50  70  97 127 161 199 240 287
#     4   9  19  34  51  72  98 128 162 201 243 289
#     4   9  19  35  53  75 102 131 165 203 243 290
#     4  10  20  35  54  76 103 134 168 206 248 294
#
# _framework density 17.960612999999999
#
# number of rings (size 3 to 8) (size 9 to 14) (size 15 to 20)
#    0.000    2.667    0.000    1.000    0.000    4.667 
#    0.000    3.333    0.000    0.000    0.000    0.000 
#    0.000    0.000    0.000    0.000    0.000    0.000 
#
# Total GULP energy -595322.818181 kJ/mol
# GULP energy per Si atom -12402.558712 kJ/mol
# Density = 1.791973 g / cm^3
# Si number density = 17.960613 Si / 1000 Ang^3
#
#
#
# Elastic Constant Matrix: (Units=GPa)
#
#
# Indices 1 2 3 4 5 6 
#
# 1 69.2303 43.4742 75.6423 0.0000 0.0000 0.0000
# 2 43.4742 72.7533 94.0371 0.0000 0.0000 0.0000
# 3 75.6423 94.0371 208.9526 0.0000 0.0000 0.0000
# 4 0.0000 0.0000 0.0000 42.9136 0.0000 0.0000
# 5 0.0000 0.0000 0.0000 0.0000 40.1995 0.0000
# 6 0.0000 0.0000 0.0000 0.0000 0.0000 20.1660
#
#
#
# Elastic Compliance Matrix: (Units=1/GPa)
#
#
# Indices 1 2 3 4 5 6 
#
# 1 0.025691 -0.007963 -0.005717 0.000000 0.000000 0.000000
# 2 -0.007963 0.035327 -0.013016 0.000000 0.000000 0.000000
# 3 -0.005717 -0.013016 0.012713 0.000000 0.000000 0.000000
# 4 0.000000 0.000000 0.000000 0.023303 0.000000 0.000000
# 5 0.000000 0.000000 0.000000 0.000000 0.024876 0.000000
# 6 0.000000 0.000000 0.000000 0.000000 0.000000 0.049588
#
#
# Mechanical properties :
#
#
# Convention : Reuss Voigt Hill
#
# Bulk Modulus (GPa) = 49.16367 86.36038 67.76203
# Shear Modulus (GPa) = 21.58245 29.84132 25.71189
#
# Velocity S-wave (km/s) = 3.47025 4.08056 3.78771
# Velocity P-wave (km/s) = 6.59464 8.38981 7.54580
#
# Compressibility (1/GPa) = 0.02034022
#
# Stress axis : x y z
#
# Youngs Moduli (GPa) = 38.92391 28.30686 78.65886
#
# Poissons Ratio (x) = 0.22539 0.44969
# Poissons Ratio (y) = 0.30993 1.02384
# Poissons Ratio (z) = 0.22252 0.36845
#
# Static dielectric constant tensor:
#      x y z
#    x 3.314980 0.000000 0.000000 
#    y 0.000000 3.354270 0.000000 
#    z 0.000000 0.000000 4.705190 
# 
# 
# High freq. dielectric constant tensor:
#      x y z
#    x 1.695130 0.000000 0.000000 
#    y 0.000000 1.689870 0.000000 
#    z 0.000000 0.000000 1.705930 
# 
# From -- ./inp_files/6615.got.cif
#   From: 2010.03.12/outbox.cif.g09.slc.cpg/sg53_4_cif.got.tgz:6615.got - 2010.04.16 14:36:59.
