data_PCOD8220569
_publ_section_title
;
Structure prediction by ZEFSAII (Michael W. Deem and Ramdas Pophale) SiO2 
 PCOD8220569
Probable space group: P M N A
;
_chemical_formula_sum "Si O2"
_cell_formula_units_Z 40
_cell_length_a 8.746154
_cell_length_b 25.086842
_cell_length_c 9.695363
_cell_angle_alpha 90.000000
_cell_angle_beta 90.000000
_cell_angle_gamma 90.000000
_cell_volume 2127.292400
_symmetry_space_group_name_H-M "P M N A"
_symmetry_group_IT_number 53
_symmetry_cell_setting 'orthorhombic'
loop_
_space_group_symop_operation_xyz
x,y,z
1/2-x,-y,1/2+z
x,-y,-z
1/2-x,y,1/2-z
-x,-y,-z
1/2+x,y,1/2-z
-x,y,z
1/2+x,-y,1/2+z
loop_
_atom_site_type_symbol
_atom_site_label
_atom_site_fract_x
_atom_site_fract_y
_atom_site_fract_z
Si Si1 0.680242 0.252936 0.401094
Si Si2 0.819257 0.336589 0.603542
Si Si3 0.180059 0.842300 0.103268
Si Si4 0.319509 0.953837 0.104200
Si Si5 0.179889 0.542162 0.392026
O O1 0.750000 0.247125 0.250000
O O2 0.500000 0.260783 0.389010
O O3 0.750768 0.303606 0.477647
O O4 0.723714 0.200605 0.487942
O O5 0.750000 0.317696 0.750000
O O6 0.771486 0.397494 0.571840
O O7 0.000000 0.328484 0.610808
O O8 0.250000 0.824666 0.250000
O O9 0.249315 0.898206 0.052136
O O10 0.000000 0.848247 0.122624
O O11 0.250000 0.970354 0.250000
O O12 0.500000 0.947277 0.117265
O O13 0.271548 0.000000 0.000000
O O14 0.247479 0.500000 0.500000
O O15 0.250000 0.523383 0.250000
O O16 0.000000 0.537762 0.381785
#
# Coordination Sequence:
#
# PCOD8220569 Si02
#       5
#     8   8   8   8   8
#     4  11  24  39  56  81 111 143 180 225 276 324
#     4  10  20  36  58  81 108 144 184 224 268 323
#     4  10  21  37  58  81 106 141 181 220 265 318
#     4  10  21  36  56  82 110 142 179 219 264 314
#     4   9  19  35  54  79 109 141 179 221 266 317
#
# _framework density 18.803245
#
# number of rings (size 3 to 8) (size 9 to 14) (size 15 to 20)
#    0.000    2.000    0.000    4.200    0.000    9.200 
#    0.000    6.000    0.000    0.000    0.000    0.000 
#    0.000    0.000    0.000    0.000    0.000    0.000 
#
# Total GULP energy -496095.464839 kJ/mol
# GULP energy per Si atom -12402.386621 kJ/mol
# Density = 1.876045 g / cm^3
# Si number density = 18.803245 Si / 1000 Ang^3
#
#
#
# Elastic Constant Matrix: (Units=GPa)
#
#
# Indices 1 2 3 4 5 6 
#
# 1 79.5382 55.4801 60.1742 0.0000 0.0000 0.0000
# 2 55.4801 133.2637 108.0182 0.0000 0.0000 0.0000
# 3 60.1742 108.0182 163.2862 0.0000 0.0000 0.0000
# 4 0.0000 0.0000 0.0000 43.0973 0.0000 0.0000
# 5 0.0000 0.0000 0.0000 0.0000 34.8112 0.0000
# 6 0.0000 0.0000 0.0000 0.0000 0.0000 17.0058
#
#
#
# Elastic Compliance Matrix: (Units=1/GPa)
#
#
# Indices 1 2 3 4 5 6 
#
# 1 0.018731 -0.004750 -0.003760 0.000000 0.000000 0.000000
# 2 -0.004750 0.017384 -0.009750 0.000000 0.000000 0.000000
# 3 -0.003760 -0.009750 0.013960 0.000000 0.000000 0.000000
# 4 0.000000 0.000000 0.000000 0.023203 0.000000 0.000000
# 5 0.000000 0.000000 0.000000 0.000000 0.028726 0.000000
# 6 0.000000 0.000000 0.000000 0.000000 0.000000 0.058803
#
#
# Mechanical properties :
#
#
# Convention : Reuss Voigt Hill
#
# Bulk Modulus (GPa) = 73.77607 91.49255 82.63431
# Shear Modulus (GPa) = 24.77147 29.14392 26.95770
#
# Velocity S-wave (km/s) = 3.63354 3.94120 3.79049
# Velocity P-wave (km/s) = 7.54483 8.33512 7.94980
#
# Compressibility (1/GPa) = 0.01355453
#
# Stress axis : x y z
#
# Youngs Moduli (GPa) = 53.38839 57.52444 71.63530
#
# Poissons Ratio (x) = 0.27323 0.26938
# Poissons Ratio (y) = 0.25358 0.69841
# Poissons Ratio (z) = 0.20077 0.56084
#
# Static dielectric constant tensor:
#      x y z
#    x 3.526180 0.000000 0.000000 
#    y 0.000000 3.674780 0.000000 
#    z 0.000000 0.000000 3.486370 
# 
# 
# High freq. dielectric constant tensor:
#      x y z
#    x 1.742890 0.000000 0.000000 
#    y 0.000000 1.741490 0.000000 
#    z 0.000000 0.000000 1.729880 
# 
# From -- ./inp_files/6313.got.cif
#   From: 2010.03.12/outbox.cif.g09.slc.cpg/sg53_4_cif.got.tgz:6313.got - 2010.04.16 14:36:59.
