data_PCOD8220342
_publ_section_title
;
Structure prediction by ZEFSAII (Michael W. Deem and Ramdas Pophale) SiO2 
 PCOD8220342
Probable space group: P M N A
;
_chemical_formula_sum "Si O2"
_cell_formula_units_Z 56
_cell_length_a 8.572061
_cell_length_b 14.248048
_cell_length_c 21.988090
_cell_angle_alpha 90.000000
_cell_angle_beta 90.000000
_cell_angle_gamma 90.000000
_cell_volume 2685.518375
_symmetry_space_group_name_H-M "P M N A"
_symmetry_group_IT_number 53
_symmetry_cell_setting 'orthorhombic'
loop_
_space_group_symop_operation_xyz
x,y,z
1/2-x,-y,1/2+z
x,-y,-z
1/2-x,y,1/2-z
-x,-y,-z
1/2+x,y,1/2-z
-x,y,z
1/2+x,-y,1/2+z
loop_
_atom_site_type_symbol
_atom_site_label
_atom_site_fract_x
_atom_site_fract_y
_atom_site_fract_z
Si Si1 0.822394 0.246573 0.810018
Si Si2 0.678921 0.550134 0.317541
Si Si3 0.316733 0.548410 0.562049
Si Si4 0.319992 0.078822 0.867537
Si Si5 0.180436 0.748118 0.577559
Si Si6 0.679201 0.106593 0.510041
Si Si7 0.683330 0.118630 0.184078
O O1 0.750000 0.291370 0.750000
O O2 0.810953 0.344035 0.847433
O O3 0.701634 0.161002 0.819131
O O4 0.000000 0.208866 0.806871
O O5 0.750000 0.530225 0.250000
O O6 0.500000 0.521588 0.308540
O O7 0.754620 0.489700 0.373571
O O8 0.247241 0.500000 0.500000
O O9 0.500000 0.530317 0.562418
O O10 0.283217 0.659181 0.560302
O O11 0.500000 0.068872 0.887680
O O12 0.208771 0.122911 0.919184
O O13 0.252122 0.979501 0.843678
O O14 0.206231 0.827892 0.527405
O O15 0.232110 0.793770 0.641937
O O16 0.000000 0.719404 0.578403
O O17 0.500000 0.126428 0.492565
O O18 0.730588 0.000000 0.500000
O O19 0.750000 0.138527 0.250000
O O20 0.500000 0.107848 0.189321
#
# Coordination Sequence:
#
# PCOD8220342 Si02
#       7
#     8   8   8   8   8   8   8
#     4  10  20  35  56  86 121 159 203 248 301 362
#     4   9  20  39  62  88 121 161 204 258 316 376
#     4  10  23  43  66  92 124 160 204 261 320 376
#     4  11  22  37  58  87 124 164 200 248 304 355
#     4  11  24  43  63  90 124 160 202 253 309 369
#     4  11  23  39  62  90 119 158 202 244 294 362
#     4  10  23  40  60  86 123 163 204 251 300 356
#
# _framework density 20.852585000000001
#
# number of rings (size 3 to 8) (size 9 to 14) (size 15 to 20)
#    0.000    1.714    1.429    2.143    2.000    6.000 
#    0.000    2.857    0.000    0.000    0.000    0.000 
#    0.000    0.000    0.000    0.000    0.000    0.000 
#
# Total GULP energy -693785.576425 kJ/mol
# GULP energy per Si atom -12389.028150 kJ/mol
# Density = 2.080512 g / cm^3
# Si number density = 20.852585 Si / 1000 Ang^3
#
#
#
# Elastic Constant Matrix: (Units=GPa)
#
#
# Indices 1 2 3 4 5 6 
#
# 1 36.4779 22.9362 24.1943 0.0000 0.0000 0.0000
# 2 22.9362 110.8897 52.5385 0.0000 0.0000 0.0000
# 3 24.1943 52.5385 137.6812 0.0000 0.0000 0.0000
# 4 0.0000 0.0000 0.0000 17.0176 0.0000 0.0000
# 5 0.0000 0.0000 0.0000 0.0000 32.2641 0.0000
# 6 0.0000 0.0000 0.0000 0.0000 0.0000 30.4221
#
#
#
# Elastic Compliance Matrix: (Units=1/GPa)
#
#
# Indices 1 2 3 4 5 6 
#
# 1 0.033158 -0.005002 -0.003918 0.000000 0.000000 0.000000
# 2 -0.005002 0.011763 -0.003610 0.000000 0.000000 0.000000
# 3 -0.003918 -0.003610 0.009329 0.000000 0.000000 0.000000
# 4 0.000000 0.000000 0.000000 0.058763 0.000000 0.000000
# 5 0.000000 0.000000 0.000000 0.000000 0.030994 0.000000
# 6 0.000000 0.000000 0.000000 0.000000 0.000000 0.032871
#
#
# Mechanical properties :
#
#
# Convention : Reuss Voigt Hill
#
# Bulk Modulus (GPa) = 34.25794 53.82076 44.03935
# Shear Modulus (GPa) = 23.62206 28.29941 25.96074
#
# Velocity S-wave (km/s) = 3.36938 3.68790 3.53223
# Velocity P-wave (km/s) = 5.62150 6.63327 6.14823
#
# Compressibility (1/GPa) = 0.02919032
#
# Stress axis : x y z
#
# Youngs Moduli (GPa) = 30.15897 85.01396 107.19182
#
# Poissons Ratio (x) = 0.42524 0.41997
# Poissons Ratio (y) = 0.15085 0.38692
# Poissons Ratio (z) = 0.11816 0.30687
#
# Static dielectric constant tensor:
#      x y z
#    x 3.490350 0.000000 0.000000 
#    y 0.000000 3.798320 0.000000 
#    z 0.000000 0.000000 4.290310 
# 
# 
# High freq. dielectric constant tensor:
#      x y z
#    x 1.801840 0.000000 0.000000 
#    y 0.000000 1.822470 0.000000 
#    z 0.000000 0.000000 1.821130 
# 
# From -- ./inp_files/30836.got.cif
#   From: 2010.03.12/outbox.cif.g09.slc.cpg/sg53_16_cif.got.tgz:30836.got - 2010.04.16 14:36:59.
