data_PCOD8220320
_publ_section_title
;
Structure prediction by ZEFSAII (Michael W. Deem and Ramdas Pophale) SiO2 
 PCOD8220320
Probable space group: P M N A
;
_chemical_formula_sum "Si O2"
_cell_formula_units_Z 48
_cell_length_a 8.831213
_cell_length_b 30.596942
_cell_length_c 9.112663
_cell_angle_alpha 90.000000
_cell_angle_beta 90.000000
_cell_angle_gamma 90.000000
_cell_volume 2462.315464
_symmetry_space_group_name_H-M "P M N A"
_symmetry_group_IT_number 53
_symmetry_cell_setting 'orthorhombic'
loop_
_space_group_symop_operation_xyz
x,y,z
1/2-x,-y,1/2+z
x,-y,-z
1/2-x,y,1/2-z
-x,-y,-z
1/2+x,y,1/2-z
-x,y,z
1/2+x,-y,1/2+z
loop_
_atom_site_type_symbol
_atom_site_label
_atom_site_fract_x
_atom_site_fract_y
_atom_site_fract_z
Si Si1 0.820509 0.792943 0.405748
Si Si2 0.177272 0.702414 0.096120
Si Si3 0.324186 0.457025 0.905864
Si Si4 0.678975 0.958163 0.091321
Si Si5 0.676573 0.381426 0.408244
Si Si6 0.678274 0.875542 0.907683
O O1 0.750000 0.805932 0.250000
O O2 0.753452 0.746963 0.461290
O O3 0.771951 0.829579 0.522021
O O4 0.000000 0.789289 0.389176
O O5 0.250000 0.687315 0.250000
O O6 0.000000 0.710081 0.122177
O O7 0.208817 0.666413 0.972865
O O8 0.250000 0.465635 0.750000
O O9 0.500000 0.446514 0.885247
O O10 0.295918 0.500000 0.000000
O O11 0.247100 0.416128 0.982245
O O12 0.750000 0.960392 0.250000
O O13 0.500000 0.957693 0.108596
O O14 0.737954 0.914691 0.010029
O O15 0.734638 0.000000 0.000000
O O16 0.750000 0.385465 0.250000
O O17 0.500000 0.391207 0.393145
O O18 0.750000 0.880487 0.750000
O O19 0.500000 0.878518 0.889764
#
# Coordination Sequence:
#
# PCOD8220320 Si02
#       6
#     8   8   8   8   8   8
#     4  10  20  35  56  81 109 143 184 229 277 331
#     4  10  21  37  58  84 112 146 188 232 281 335
#     4  11  24  41  63  90 120 154 192 235 282 335
#     4  10  21  37  57  82 111 143 182 226 273 327
#     4  11  24  40  60  86 117 153 192 236 285 337
#     4  10  22  37  54  80 111 144 184 227 273 328
#
# _framework density 19.493846999999999
#
# number of rings (size 3 to 8) (size 9 to 14) (size 15 to 20)
#    0.000    1.667    0.000    5.000    0.000    9.667 
#    0.000    3.333    0.000    0.000    0.000    0.000 
#    0.000    0.000    0.000    0.000    0.000    0.000 
#
# Total GULP energy -595423.831298 kJ/mol
# GULP energy per Si atom -12404.663152 kJ/mol
# Density = 1.944948 g / cm^3
# Si number density = 19.493847 Si / 1000 Ang^3
#
#
#
# Elastic Constant Matrix: (Units=GPa)
#
#
# Indices 1 2 3 4 5 6 
#
# 1 99.0096 69.3702 66.8880 0.0000 0.0000 0.0000
# 2 69.3702 124.8950 74.4906 0.0000 0.0000 0.0000
# 3 66.8880 74.4906 154.9692 0.0000 0.0000 0.0000
# 4 0.0000 0.0000 0.0000 22.1033 0.0000 0.0000
# 5 0.0000 0.0000 0.0000 0.0000 35.6681 0.0000
# 6 0.0000 0.0000 0.0000 0.0000 0.0000 -248.9961
#
#
#
# Elastic Compliance Matrix: (Units=1/GPa)
#
#
# Indices 1 2 3 4 5 6 
#
# 1 0.018318 -0.007653 -0.004228 0.000000 0.000000 0.000000
# 2 -0.007653 0.014422 -0.003629 0.000000 0.000000 0.000000
# 3 -0.004228 -0.003629 0.010022 0.000000 0.000000 0.000000
# 4 0.000000 0.000000 0.000000 0.045242 0.000000 0.000000
# 5 0.000000 0.000000 0.000000 0.000000 0.028036 0.000000
# 6 0.000000 0.000000 0.000000 0.000000 0.000000 -0.004016
#
#
# Mechanical properties :
#
#
# Convention : Reuss Voigt Hill
#
# Bulk Modulus (GPa) = 85.16148 88.93016 87.04582
# Shear Modulus (GPa) = 34.02321 -27.03661 3.49330
#
# Velocity S-wave (km/s) = 4.18225 -3.72819 1.34011
# Velocity P-wave (km/s) = 8.19163 5.21403 6.86618
#
# Compressibility (1/GPa) = 0.01174240
#
# Stress axis : x y z
#
# Youngs Moduli (GPa) = 54.59062 69.33935 99.77789
#
# Poissons Ratio (x) = 0.53064 0.42186
# Poissons Ratio (y) = 0.41777 0.36211
# Poissons Ratio (z) = 0.23081 0.25165
#
# Static dielectric constant tensor:
#      x y z
#    x 3.644160 0.000000 0.000000 
#    y 0.000000 3.905000 0.000000 
#    z 0.000000 0.000000 3.391050 
# 
# 
# High freq. dielectric constant tensor:
#      x y z
#    x 1.767090 0.000000 0.000000 
#    y 0.000000 1.777680 0.000000 
#    z 0.000000 0.000000 1.765800 
# 
# From -- ./inp_files/6705.got.cif
#   From: 2010.03.12/outbox.cif.g09.slc.cpg/sg53_4_cif.got.tgz:6705.got - 2010.04.16 14:36:59.
