data_PCOD8220836
_publ_section_title
;
Structure prediction by ZEFSAII (Michael W. Deem and Ramdas Pophale) SiO2 
 PCOD8220836
Probable space group: P M N A
;
_chemical_formula_sum "Si O2"
_cell_formula_units_Z 56
_cell_length_a 8.923448
_cell_length_b 20.634334
_cell_length_c 15.316043
_cell_angle_alpha 90.000000
_cell_angle_beta 90.000000
_cell_angle_gamma 90.000000
_cell_volume 2820.133907
_symmetry_space_group_name_H-M "P M N A"
_symmetry_group_IT_number 53
_symmetry_cell_setting 'orthorhombic'
loop_
_space_group_symop_operation_xyz
x,y,z
1/2-x,-y,1/2+z
x,-y,-z
1/2-x,y,1/2-z
-x,-y,-z
1/2+x,y,1/2-z
-x,y,z
1/2+x,-y,1/2+z
loop_
_atom_site_type_symbol
_atom_site_label
_atom_site_fract_x
_atom_site_fract_y
_atom_site_fract_z
Si Si1 0.172604 0.142474 0.007508
Si Si2 0.825418 0.496212 0.601364
Si Si3 0.671915 0.291912 0.498936
Si Si4 0.174448 0.937025 0.659846
Si Si5 0.323794 0.353369 0.840357
Si Si6 0.676752 0.377413 0.337401
Si Si7 0.674890 0.087743 0.840315
O O1 0.255018 0.102524 0.081609
O O2 0.000000 0.120812 0.003368
O O3 0.189116 0.217833 0.029916
O O4 0.249020 0.129581 0.915140
O O5 0.785195 0.500000 0.500000
O O6 0.775718 0.426460 0.636753
O O7 0.727908 0.548465 0.652694
O O8 0.000000 0.510419 0.617939
O O9 0.500000 0.309470 0.519829
O O10 0.769103 0.305175 0.584478
O O11 0.733753 0.335553 0.419537
O O12 0.250000 0.915228 0.750000
O O13 0.000000 0.921025 0.666155
O O14 0.203889 0.012301 0.640630
O O15 0.250000 0.331529 0.750000
O O16 0.500000 0.346435 0.831759
O O17 0.750000 0.347877 0.250000
O O18 0.500000 0.373812 0.327803
O O19 0.750000 0.109062 0.750000
O O20 0.500000 0.103944 0.836100
#
# Coordination Sequence:
#
# PCOD8220836 Si02
#       7
#     8   8   8   8   8   8   8
#     4  11  23  39  60  86 119 157 198 242 291 346
#     4  10  20  37  61  90 119 146 186 238 292 347
#     4  10  24  43  59  82 116 155 199 242 285 341
#     4  10  21  38  61  90 122 154 193 241 290 346
#     4  11  23  39  62  87 116 152 191 239 292 348
#     4  11  23  39  61  86 115 152 193 238 291 346
#     4  10  21  38  61  90 121 154 194 240 292 346
#
# _framework density 19.857213000000002
#
# number of rings (size 3 to 8) (size 9 to 14) (size 15 to 20)
#    0.000    1.571    1.429    3.000    0.000    8.857 
#    0.000    1.429    0.000    0.000    0.000    0.000 
#    0.000    0.000    0.000    0.000    0.000    0.000 
#
# Total GULP energy -694791.707985 kJ/mol
# GULP energy per Si atom -12406.994785 kJ/mol
# Density = 1.981202 g / cm^3
# Si number density = 19.857213 Si / 1000 Ang^3
#
#
#
# Elastic Constant Matrix: (Units=GPa)
#
#
# Indices 1 2 3 4 5 6 
#
# 1 91.8965 27.5627 43.8812 0.0000 0.0000 0.0000
# 2 27.5627 49.5968 21.2016 0.0000 0.0000 0.0000
# 3 43.8812 21.2016 120.7338 0.0000 0.0000 0.0000
# 4 0.0000 0.0000 0.0000 1.3693 0.0000 0.0000
# 5 0.0000 0.0000 0.0000 0.0000 41.4299 0.0000
# 6 0.0000 0.0000 0.0000 0.0000 0.0000 31.4015
#
#
#
# Elastic Compliance Matrix: (Units=1/GPa)
#
#
# Indices 1 2 3 4 5 6 
#
# 1 0.014847 -0.006427 -0.004268 0.000000 0.000000 0.000000
# 2 -0.006427 0.024581 -0.001981 0.000000 0.000000 0.000000
# 3 -0.004268 -0.001981 0.010182 0.000000 0.000000 0.000000
# 4 0.000000 0.000000 0.000000 0.730318 0.000000 0.000000
# 5 0.000000 0.000000 0.000000 0.000000 0.024137 0.000000
# 6 0.000000 0.000000 0.000000 0.000000 0.000000 0.031846
#
#
# Mechanical properties :
#
#
# Convention : Reuss Voigt Hill
#
# Bulk Modulus (GPa) = 41.22122 49.72424 45.47273
# Shear Modulus (GPa) = 5.75144 26.14557 15.94851
#
# Velocity S-wave (km/s) = 1.70373 3.63254 2.83708
# Velocity P-wave (km/s) = 4.96731 6.53369 5.80359
#
# Compressibility (1/GPa) = 0.02425935
#
# Stress axis : x y z
#
# Youngs Moduli (GPa) = 67.35234 40.68197 98.21606
#
# Poissons Ratio (x) = 0.26146 0.41916
# Poissons Ratio (y) = 0.43286 0.19454
# Poissons Ratio (z) = 0.28744 0.08058
#
# Static dielectric constant tensor:
#      x y z
#    x 3.667000 0.000000 0.000000 
#    y 0.000000 3.527430 0.000000 
#    z 0.000000 0.000000 3.767380 
# 
# 
# High freq. dielectric constant tensor:
#      x y z
#    x 1.782920 0.000000 0.000000 
#    y 0.000000 1.767420 0.000000 
#    z 0.000000 0.000000 1.790090 
# 
# From -- ./inp_files/20534.got.cif
#   From: 2010.03.12/outbox.cif.g09.slc.cpg/sg53_11_cif.got.tgz:20534.got - 2010.04.16 14:36:59.
