data_PCOD8220559
_publ_section_title
;
Structure prediction by ZEFSAII (Michael W. Deem and Ramdas Pophale) SiO2 
 PCOD8220559
Probable space group: P M N A
;
_chemical_formula_sum "Si O2"
_cell_formula_units_Z 40
_cell_length_a 9.484474
_cell_length_b 23.597085
_cell_length_c 9.295290
_cell_angle_alpha 90.000000
_cell_angle_beta 90.000000
_cell_angle_gamma 90.000000
_cell_volume 2080.341108
_symmetry_space_group_name_H-M "P M N A"
_symmetry_group_IT_number 53
_symmetry_cell_setting 'orthorhombic'
loop_
_space_group_symop_operation_xyz
x,y,z
1/2-x,-y,1/2+z
x,-y,-z
1/2-x,y,1/2-z
-x,-y,-z
1/2+x,y,1/2-z
-x,y,z
1/2+x,-y,1/2+z
loop_
_atom_site_type_symbol
_atom_site_label
_atom_site_fract_x
_atom_site_fract_y
_atom_site_fract_z
Si Si1 0.500000 0.560101 0.076957
Si Si2 0.666050 0.867203 0.603943
Si Si3 0.000000 0.557596 0.084892
Si Si4 0.752861 0.363150 0.917842
Si Si5 0.337839 0.264603 0.389587
Si Si6 0.834074 0.946438 0.396564
O O1 0.500000 0.545816 0.245447
O O2 0.623298 0.600804 0.026270
O O3 0.500000 0.500000 0.000000
O O4 0.750000 0.882748 0.750000
O O5 0.500000 0.886069 0.615918
O O6 0.676037 0.800982 0.569724
O O7 0.748192 0.895856 0.472041
O O8 0.872945 0.595095 0.032329
O O9 0.000000 0.500000 0.000000
O O10 0.750000 0.351412 0.750000
O O11 0.768003 0.301047 0.984419
O O12 0.250000 0.279864 0.250000
O O13 0.500000 0.281259 0.364609
O O14 0.750000 0.960678 0.250000
O O15 0.000000 0.930733 0.367963
O O16 0.825245 0.000000 0.500000
#
# Coordination Sequence:
#
# PCOD8220559 Si02
#       6
#     4   8   4   8   8   8
#     4  10  22  36  54  84 112 142 191 238 291 352
#     4  10  21  39  62  89 123 161 203 253 304 357
#     4  10  20  36  58  78 108 150 185 236 291 346
#     4  10  21  38  57  81 114 150 189 236 293 352
#     4  10  22  39  60  88 119 154 197 243 291 348
#     4  11  24  41  63  93 127 165 209 253 302 358
#
# _framework density 19.227615
#
# number of rings (size 3 to 8) (size 9 to 14) (size 15 to 20)
#    0.000    1.800    1.000    2.400    1.400    6.400 
#    0.000    0.000    0.000    0.000    0.000    0.000 
#    0.000    0.000    0.000    0.000    0.000    0.000 
#
# Total GULP energy -495754.900537 kJ/mol
# GULP energy per Si atom -12393.872513 kJ/mol
# Density = 1.918385 g / cm^3
# Si number density = 19.227615 Si / 1000 Ang^3
#
#
#
# Elastic Constant Matrix: (Units=GPa)
#
#
# Indices 1 2 3 4 5 6 
#
# 1 179.8217 59.7700 61.9043 0.0000 0.0000 0.0000
# 2 59.7700 92.8738 55.3441 0.0000 0.0000 0.0000
# 3 61.9043 55.3441 89.2060 0.0000 0.0000 0.0000
# 4 0.0000 0.0000 0.0000 44.3024 0.0000 0.0000
# 5 0.0000 0.0000 0.0000 0.0000 36.1965 0.0000
# 6 0.0000 0.0000 0.0000 0.0000 0.0000 38.8836
#
#
#
# Elastic Compliance Matrix: (Units=1/GPa)
#
#
# Indices 1 2 3 4 5 6 
#
# 1 0.007748 -0.002828 -0.003622 0.000000 0.000000 0.000000
# 2 -0.002828 0.018115 -0.009276 0.000000 0.000000 0.000000
# 3 -0.003622 -0.009276 0.019479 0.000000 0.000000 0.000000
# 4 0.000000 0.000000 0.000000 0.022572 0.000000 0.000000
# 5 0.000000 0.000000 0.000000 0.000000 0.027627 0.000000
# 6 0.000000 0.000000 0.000000 0.000000 0.000000 0.025718
#
#
# Mechanical properties :
#
#
# Convention : Reuss Voigt Hill
#
# Bulk Modulus (GPa) = 71.99989 79.54872 75.77431
# Shear Modulus (GPa) = 31.77808 36.20206 33.99007
#
# Velocity S-wave (km/s) = 4.06979 4.34385 4.20905
# Velocity P-wave (km/s) = 7.72086 8.16215 7.94457
#
# Compressibility (1/GPa) = 0.01388891
#
# Stress axis : x y z
#
# Youngs Moduli (GPa) = 129.06634 55.20298 51.33765
#
# Poissons Ratio (x) = 0.15610 0.18596
# Poissons Ratio (y) = 0.36496 0.47623
# Poissons Ratio (z) = 0.46752 0.51208
#
# Static dielectric constant tensor:
#      x y z
#    x 3.928470 0.000000 0.000000 
#    y 0.000000 3.573540 0.000000 
#    z 0.000000 0.000000 3.387210 
# 
# 
# High freq. dielectric constant tensor:
#      x y z
#    x 1.772570 0.000000 0.000000 
#    y 0.000000 1.755970 0.000000 
#    z 0.000000 0.000000 1.741260 
# 
# From -- ./inp_files/6334.got.cif
#   From: 2010.03.12/outbox.cif.g09.slc.cpg/sg53_4_cif.got.tgz:6334.got - 2010.04.16 14:36:59.
