data_PCOD8220560
_publ_section_title
;
Structure prediction by ZEFSAII (Michael W. Deem and Ramdas Pophale) SiO2 
 PCOD8220560
Probable space group: P M N A
;
_chemical_formula_sum "Si O2"
_cell_formula_units_Z 64
_cell_length_a 8.816170
_cell_length_b 20.699898
_cell_length_c 19.281265
_cell_angle_alpha 90.000000
_cell_angle_beta 90.000000
_cell_angle_gamma 90.000000
_cell_volume 3518.711699
_symmetry_space_group_name_H-M "P M N A"
_symmetry_group_IT_number 53
_symmetry_cell_setting 'orthorhombic'
loop_
_space_group_symop_operation_xyz
x,y,z
1/2-x,-y,1/2+z
x,-y,-z
1/2-x,y,1/2-z
-x,-y,-z
1/2+x,y,1/2-z
-x,y,z
1/2+x,-y,1/2+z
loop_
_atom_site_type_symbol
_atom_site_label
_atom_site_fract_x
_atom_site_fract_y
_atom_site_fract_z
Si Si1 0.820808 0.107671 0.418463
Si Si2 0.322052 0.746500 0.922523
Si Si3 0.321727 0.110352 0.566924
Si Si4 0.821542 0.001358 0.175118
Si Si5 0.320426 0.364020 0.174625
Si Si6 0.320910 0.642363 0.174839
Si Si7 0.680693 0.755426 0.076852
Si Si8 0.823429 0.496752 0.676122
O O1 0.780092 0.181394 0.397997
O O2 0.754735 0.090325 0.494148
O O3 0.000000 0.096204 0.421577
O O4 0.747398 0.065836 0.357914
O O5 0.500000 0.735973 0.921634
O O6 0.247770 0.692186 0.873088
O O7 0.262795 0.735921 0.000374
O O8 0.500000 0.115876 0.554104
O O9 0.280947 0.057311 0.624232
O O10 0.256841 0.177017 0.597690
O O11 0.750000 0.987696 0.250000
O O12 0.000000 0.010488 0.183948
O O13 0.250000 0.357127 0.250000
O O14 0.500000 0.355857 0.181797
O O15 0.279755 0.434741 0.139676
O O16 0.250000 0.650511 0.250000
O O17 0.500000 0.649458 0.181906
O O18 0.257267 0.699297 0.126741
O O19 0.277512 0.571856 0.140201
O O20 0.500000 0.764195 0.079901
O O21 0.750000 0.497222 0.750000
O O22 0.000000 0.495852 0.689247
#
# Coordination Sequence:
#
# PCOD8220560 Si02
#       8
#     8   8   8   8   8   8   8   8
#     4  10  20  36  58  79 102 135 170 203 246 301
#     4   8  16  31  49  70  96 126 159 196 238 285
#     4  10  21  37  56  77 101 131 169 208 245 294
#     4  11  24  39  55  78 107 134 164 207 252 293
#     4   9  16  28  46  67  93 124 159 198 239 284
#     4   9  17  29  46  69  95 124 161 202 244 291
#     4   9  18  33  51  70  96 129 163 200 243 293
#     4   8  14  25  42  64  90 122 158 195 237 286
#
# _framework density 18.188476999999999
#
# number of rings (size 3 to 8) (size 9 to 14) (size 15 to 20)
#    0.000    2.750    0.000    2.250    0.000    5.000 
#    0.000    7.500    0.000    3.750    0.000    0.000 
#    0.000   14.000    0.000    0.000    0.000    0.000 
#
# Total GULP energy -793001.517128 kJ/mol
# GULP energy per Si atom -12390.648705 kJ/mol
# Density = 1.814708 g / cm^3
# Si number density = 18.188477 Si / 1000 Ang^3
#
#
#
# Elastic Constant Matrix: (Units=GPa)
#
#
# Indices 1 2 3 4 5 6 
#
# 1 39.2913 35.1380 26.5582 0.0000 0.0000 0.0000
# 2 35.1380 147.9011 67.6105 0.0000 0.0000 0.0000
# 3 26.5582 67.6105 78.3393 0.0000 0.0000 0.0000
# 4 0.0000 0.0000 0.0000 29.1460 0.0000 0.0000
# 5 0.0000 0.0000 0.0000 0.0000 25.4002 0.0000
# 6 0.0000 0.0000 0.0000 0.0000 0.0000 21.6342
#
#
#
# Elastic Compliance Matrix: (Units=1/GPa)
#
#
# Indices 1 2 3 4 5 6 
#
# 1 0.034939 -0.004767 -0.007731 0.000000 0.000000 0.000000
# 2 -0.004767 0.011817 -0.008583 0.000000 0.000000 0.000000
# 3 -0.007731 -0.008583 0.022793 0.000000 0.000000 0.000000
# 4 0.000000 0.000000 0.000000 0.034310 0.000000 0.000000
# 5 0.000000 0.000000 0.000000 0.000000 0.039370 0.000000
# 6 0.000000 0.000000 0.000000 0.000000 0.000000 0.046223
#
#
# Mechanical properties :
#
#
# Convention : Reuss Voigt Hill
#
# Bulk Modulus (GPa) = 36.51139 58.23834 47.37487
# Shear Modulus (GPa) = 20.76896 24.31775 22.54335
#
# Velocity S-wave (km/s) = 3.38283 3.66045 3.52437
# Velocity P-wave (km/s) = 5.94773 7.06782 6.53183
#
# Compressibility (1/GPa) = 0.02738871
#
# Stress axis : x y z
#
# Youngs Moduli (GPa) = 28.62091 84.62211 43.87237
#
# Poissons Ratio (x) = 0.40337 0.33918
# Poissons Ratio (y) = 0.13643 0.37655
# Poissons Ratio (z) = 0.22127 0.72630
#
# Static dielectric constant tensor:
#      x y z
#    x 3.319180 0.000000 0.000000 
#    y 0.000000 4.014770 0.000000 
#    z 0.000000 0.000000 3.275360 
# 
# 
# High freq. dielectric constant tensor:
#      x y z
#    x 1.693550 0.000000 0.000000 
#    y 0.000000 1.728560 0.000000 
#    z 0.000000 0.000000 1.681170 
# 
# From -- ./inp_files/26903.got.cif
#   From: 2010.03.12/outbox.cif.g09.slc.cpg/sg53_14_cif.got.tgz:26903.got - 2010.04.16 14:36:59.
