data_PCOD8220459
_publ_section_title
;
Structure prediction by ZEFSAII (Michael W. Deem and Ramdas Pophale) SiO2 
 PCOD8220459
Probable space group: P M N A
;
_chemical_formula_sum "Si O2"
_cell_formula_units_Z 56
_cell_length_a 8.875225
_cell_length_b 19.305273
_cell_length_c 16.026119
_cell_angle_alpha 90.000000
_cell_angle_beta 90.000000
_cell_angle_gamma 90.000000
_cell_volume 2745.893459
_symmetry_space_group_name_H-M "P M N A"
_symmetry_group_IT_number 53
_symmetry_cell_setting 'orthorhombic'
loop_
_space_group_symop_operation_xyz
x,y,z
1/2-x,-y,1/2+z
x,-y,-z
1/2-x,y,1/2-z
-x,-y,-z
1/2+x,y,1/2-z
-x,y,z
1/2+x,-y,1/2+z
loop_
_atom_site_type_symbol
_atom_site_label
_atom_site_fract_x
_atom_site_fract_y
_atom_site_fract_z
Si Si1 0.677394 0.287613 0.591392
Si Si2 0.823354 0.418414 0.660209
Si Si3 0.679132 0.078627 0.999595
Si Si4 0.327453 0.154865 0.164212
Si Si5 0.326290 0.291235 0.074947
Si Si6 0.174347 0.427284 0.337945
Si Si7 0.679422 0.159061 0.834807
O O1 0.500000 0.286285 0.606045
O O2 0.742360 0.365221 0.598907
O O3 0.721452 0.262766 0.498921
O O4 0.757153 0.237172 0.657576
O O5 0.750000 0.410263 0.750000
O O6 0.794869 0.496135 0.624722
O O7 0.000000 0.402015 0.666221
O O8 0.500000 0.083153 0.000116
O O9 0.742323 0.115712 0.083269
O O10 0.737234 0.115148 0.914675
O O11 0.737573 0.000000 0.000000
O O12 0.250000 0.131589 0.250000
O O13 0.500000 0.133137 0.173438
O O14 0.308864 0.237543 0.151332
O O15 0.500000 0.292949 0.043997
O O16 0.266870 0.367467 0.100407
O O17 0.250000 0.418005 0.250000
O O18 0.000000 0.414726 0.322026
O O19 0.750000 0.126740 0.750000
O O20 0.500000 0.159932 0.827987
#
# Coordination Sequence:
#
# PCOD8220459 Si02
#       7
#     8   8   8   8   8   8   8
#     4  12  24  37  56  83 113 150 197 250 299 348
#     4  10  20  36  55  78 109 148 191 240 295 353
#     4   9  19  38  63  90 123 162 198 235 289 354
#     4  10  20  36  60  89 120 158 197 239 290 345
#     4  10  20  37  57  81 113 152 195 240 296 354
#     4   9  19  34  55  79 109 147 191 240 293 354
#     4  11  22  40  64  90 122 160 201 246 294 353
#
# _framework density 20.394091
#
# number of rings (size 3 to 8) (size 9 to 14) (size 15 to 20)
#    0.000    1.857    1.429    3.000    0.000    2.857 
#    0.000    2.857    0.000    3.000    0.000    0.000 
#    0.000    0.000    0.000    0.000    0.000    0.000 
#
# Total GULP energy -694364.204741 kJ/mol
# GULP energy per Si atom -12399.360799 kJ/mol
# Density = 2.034767 g / cm^3
# Si number density = 20.394091 Si / 1000 Ang^3
#
#
#
# Elastic Constant Matrix: (Units=GPa)
#
#
# Indices 1 2 3 4 5 6 
#
# 1 76.4827 33.5005 42.3869 0.0000 0.0000 0.0000
# 2 33.5005 118.3320 55.3967 0.0000 0.0000 0.0000
# 3 42.3869 55.3967 143.2188 0.0000 0.0000 0.0000
# 4 0.0000 0.0000 0.0000 31.8477 0.0000 0.0000
# 5 0.0000 0.0000 0.0000 0.0000 35.5083 0.0000
# 6 0.0000 0.0000 0.0000 0.0000 0.0000 18.8213
#
#
#
# Elastic Compliance Matrix: (Units=1/GPa)
#
#
# Indices 1 2 3 4 5 6 
#
# 1 0.016415 -0.002898 -0.003737 0.000000 0.000000 0.000000
# 2 -0.002898 0.010831 -0.003332 0.000000 0.000000 0.000000
# 3 -0.003737 -0.003332 0.009377 0.000000 0.000000 0.000000
# 4 0.000000 0.000000 0.000000 0.031399 0.000000 0.000000
# 5 0.000000 0.000000 0.000000 0.000000 0.028162 0.000000
# 6 0.000000 0.000000 0.000000 0.000000 0.000000 0.053131
#
#
# Mechanical properties :
#
#
# Convention : Reuss Voigt Hill
#
# Bulk Modulus (GPa) = 59.91722 66.73353 63.32538
# Shear Modulus (GPa) = 28.60189 31.01874 29.81032
#
# Velocity S-wave (km/s) = 3.74901 3.90419 3.82738
# Velocity P-wave (km/s) = 6.94144 7.28811 7.11689
#
# Compressibility (1/GPa) = 0.01668969
#
# Stress axis : x y z
#
# Youngs Moduli (GPa) = 60.91851 92.32845 106.64162
#
# Poissons Ratio (x) = 0.26753 0.39857
# Poissons Ratio (y) = 0.17652 0.35531
# Poissons Ratio (z) = 0.22768 0.30762
#
# Static dielectric constant tensor:
#      x y z
#    x 3.463570 0.000000 0.000000 
#    y 0.000000 3.890120 0.000000 
#    z 0.000000 0.000000 3.646430 
# 
# 
# High freq. dielectric constant tensor:
#      x y z
#    x 1.773780 0.000000 0.000000 
#    y 0.000000 1.801610 0.000000 
#    z 0.000000 0.000000 1.797520 
# 
# From -- ./inp_files/20505.got.cif
#   From: 2010.03.12/outbox.cif.g09.slc.cpg/sg53_11_cif.got.tgz:20505.got - 2010.04.16 14:36:59.
