data_PCOD8220950
_publ_section_title
;
Structure prediction by ZEFSAII (Michael W. Deem and Ramdas Pophale) SiO2 
 PCOD8220950
Probable space group: P M N A
;
_chemical_formula_sum "Si O2"
_cell_formula_units_Z 64
_cell_length_a 8.905964
_cell_length_b 19.614589
_cell_length_c 18.525025
_cell_angle_alpha 90.000000
_cell_angle_beta 90.000000
_cell_angle_gamma 90.000000
_cell_volume 3236.077773
_symmetry_space_group_name_H-M "P M N A"
_symmetry_group_IT_number 53
_symmetry_cell_setting 'orthorhombic'
loop_
_space_group_symop_operation_xyz
x,y,z
1/2-x,-y,1/2+z
x,-y,-z
1/2-x,y,1/2-z
-x,-y,-z
1/2+x,y,1/2-z
-x,y,z
1/2+x,-y,1/2+z
loop_
_atom_site_type_symbol
_atom_site_label
_atom_site_fract_x
_atom_site_fract_y
_atom_site_fract_z
Si Si1 0.323918 0.130568 0.928796
Si Si2 0.175765 0.711321 0.432848
Si Si3 0.676071 0.778235 0.674660
Si Si4 0.324739 0.902312 0.574240
Si Si5 0.827974 0.663840 0.590183
Si Si6 0.177304 0.608100 0.172103
Si Si7 0.823668 0.029785 0.826279
Si Si8 0.672746 0.492702 0.082195
O O1 0.500000 0.119266 0.921372
O O2 0.280502 0.209694 0.932040
O O3 0.243360 0.099086 0.859039
O O4 0.267114 0.092846 0.000503
O O5 0.226031 0.679184 0.508992
O O6 0.268840 0.674568 0.370707
O O7 0.000000 0.699270 0.418957
O O8 0.750000 0.797716 0.750000
O O9 0.500000 0.777504 0.686596
O O10 0.725324 0.834657 0.616663
O O11 0.728735 0.704489 0.647548
O O12 0.500000 0.900828 0.554886
O O13 0.282711 0.967583 0.621395
O O14 0.807594 0.584639 0.608254
O O15 0.000000 0.687276 0.598944
O O16 0.250000 0.609292 0.250000
O O17 0.224253 0.539076 0.131939
O O18 0.000000 0.609864 0.180139
O O19 0.750000 0.013780 0.750000
O O20 0.000000 0.038367 0.815752
O O21 0.500000 0.517083 0.088644
O O22 0.727033 0.500000 0.000000
#
# Coordination Sequence:
#
# PCOD8220950 Si02
#       8
#     8   8   8   8   8   8   8   8
#     4  11  23  39  65  95 123 159 205 254 304 369
#     4  10  21  41  65  91 123 161 204 250 307 367
#     4  11  23  38  59  88 124 160 201 248 300 358
#     4  10  22  40  62  90 123 162 203 253 306 362
#     4  10  20  38  64  90 120 160 200 245 302 363
#     4  12  26  42  64  93 127 164 208 258 308 365
#     4  11  24  42  62  87 124 164 206 255 310 367
#     4  10  20  39  66  91 121 160 201 248 304 363
#
# _framework density 19.777028000000001
#
# number of rings (size 3 to 8) (size 9 to 14) (size 15 to 20)
#    0.000    1.375    2.500    3.000    0.000    6.250 
#    0.000    0.000    0.000    0.000    0.000    0.000 
#    0.000    0.000    0.000    0.000    0.000    0.000 
#
# Total GULP energy -794062.625550 kJ/mol
# GULP energy per Si atom -12407.228524 kJ/mol
# Density = 1.973201 g / cm^3
# Si number density = 19.777028 Si / 1000 Ang^3
#
#
#
# Elastic Constant Matrix: (Units=GPa)
#
#
# Indices 1 2 3 4 5 6 
#
# 1 97.1122 46.8688 55.5716 0.0000 0.0000 0.0000
# 2 46.8688 101.0125 41.9624 0.0000 0.0000 0.0000
# 3 55.5716 41.9624 106.6021 0.0000 0.0000 0.0000
# 4 0.0000 0.0000 0.0000 20.5267 0.0000 0.0000
# 5 0.0000 0.0000 0.0000 0.0000 44.8235 0.0000
# 6 0.0000 0.0000 0.0000 0.0000 0.0000 31.9853
#
#
#
# Elastic Compliance Matrix: (Units=1/GPa)
#
#
# Indices 1 2 3 4 5 6 
#
# 1 0.016461 -0.004869 -0.006664 0.000000 0.000000 0.000000
# 2 -0.004869 0.013275 -0.002687 0.000000 0.000000 0.000000
# 3 -0.006664 -0.002687 0.013913 0.000000 0.000000 0.000000
# 4 0.000000 0.000000 0.000000 0.048717 0.000000 0.000000
# 5 0.000000 0.000000 0.000000 0.000000 0.022310 0.000000
# 6 0.000000 0.000000 0.000000 0.000000 0.000000 0.031264
#
#
# Mechanical properties :
#
#
# Convention : Reuss Voigt Hill
#
# Bulk Modulus (GPa) = 65.75869 65.94803 65.85336
# Shear Modulus (GPa) = 27.86270 30.15535 29.00903
#
# Velocity S-wave (km/s) = 3.75753 3.90906 3.83404
# Velocity P-wave (km/s) = 7.22133 7.33434 7.27805
#
# Compressibility (1/GPa) = 0.01520712
#
# Stress axis : x y z
#
# Youngs Moduli (GPa) = 60.74950 75.32715 71.87690
#
# Poissons Ratio (x) = 0.36679 0.47902
# Poissons Ratio (y) = 0.29580 0.19316
# Poissons Ratio (z) = 0.40486 0.20243
#
# Static dielectric constant tensor:
#      x y z
#    x 3.540280 0.000000 0.000000 
#    y 0.000000 3.798980 0.000000 
#    z 0.000000 0.000000 3.628120 
# 
# 
# High freq. dielectric constant tensor:
#      x y z
#    x 1.769340 0.000000 0.000000 
#    y 0.000000 1.784040 0.000000 
#    z 0.000000 0.000000 1.775820 
# 
# From -- ./inp_files/26807.got.cif
#   From: 2010.03.12/outbox.cif.g09.slc.cpg/sg53_14_cif.got.tgz:26807.got - 2010.04.16 14:36:59.
