data_PCOD8220089
_publ_section_title
;
Structure prediction by ZEFSAII (Michael W. Deem and Ramdas Pophale) SiO2 
 PCOD8220089
Probable space group: P M N A
;
_chemical_formula_sum "Si O2"
_cell_formula_units_Z 32
_cell_length_a 8.836594
_cell_length_b 7.724953
_cell_length_c 26.344374
_cell_angle_alpha 90.000000
_cell_angle_beta 90.000000
_cell_angle_gamma 90.000000
_cell_volume 1798.326859
_symmetry_space_group_name_H-M "P M N A"
_symmetry_group_IT_number 53
_symmetry_cell_setting 'orthorhombic'
loop_
_space_group_symop_operation_xyz
x,y,z
1/2-x,-y,1/2+z
x,-y,-z
1/2-x,y,1/2-z
-x,-y,-z
1/2+x,y,1/2-z
-x,y,z
1/2+x,-y,1/2+z
loop_
_atom_site_type_symbol
_atom_site_label
_atom_site_fract_x
_atom_site_fract_y
_atom_site_fract_z
Si Si1 0.828659 0.435601 0.053093
Si Si2 0.320171 0.942067 0.303639
Si Si3 0.829277 0.423313 0.843806
Si Si4 0.822693 0.243828 0.364145
O O1 0.828667 0.592811 0.094363
O O2 0.728980 0.279399 0.077346
O O3 0.000000 0.368700 0.043591
O O4 0.756552 0.500000 0.000000
O O5 0.250000 0.994441 0.250000
O O6 0.500000 0.950221 0.301078
O O7 0.262598 0.750300 0.319031
O O8 0.261979 0.073001 0.345963
O O9 0.727273 0.591048 0.829011
O O10 0.000000 0.456634 0.824281
O O11 0.000000 0.214882 0.360472
#
# Coordination Sequence:
#
# PCOD8220089 Si02
#       4
#     8   8   8   8
#     4   8  15  33  58  79 104 141 181 219 264 314
#     4  11  22  37  56  77 106 139 179 222 263 315
#     4   8  18  36  55  77 105 139 179 222 264 311
#     4  10  20  34  54  80 112 141 174 217 266 318
#
# _framework density 17.794318000000001
#
# number of rings (size 3 to 8) (size 9 to 14) (size 15 to 20)
#    1.500    1.250    0.000    2.250    0.000    3.500 
#    0.000    3.750    0.000    7.500    0.000    0.000 
#    0.000    0.000    0.000    0.000    0.000    0.000 
#
# Total GULP energy -396421.051813 kJ/mol
# GULP energy per Si atom -12388.157869 kJ/mol
# Density = 1.775382 g / cm^3
# Si number density = 17.794318 Si / 1000 Ang^3
#
#
#
# Elastic Constant Matrix: (Units=GPa)
#
#
# Indices 1 2 3 4 5 6 
#
# 1 79.0868 28.4654 12.3113 0.0000 0.0000 0.0000
# 2 28.4654 66.4207 -3.1281 0.0000 0.0000 0.0000
# 3 12.3113 -3.1281 44.1717 0.0000 0.0000 0.0000
# 4 0.0000 0.0000 0.0000 24.3847 0.0000 0.0000
# 5 0.0000 0.0000 0.0000 0.0000 24.9233 0.0000
# 6 0.0000 0.0000 0.0000 0.0000 0.0000 18.8973
#
#
#
# Elastic Compliance Matrix: (Units=1/GPa)
#
#
# Indices 1 2 3 4 5 6 
#
# 1 0.015961 -0.007073 -0.004949 0.000000 0.000000 0.000000
# 2 -0.007073 0.018241 0.003263 0.000000 0.000000 0.000000
# 3 -0.004949 0.003263 0.024249 0.000000 0.000000 0.000000
# 4 0.000000 0.000000 0.000000 0.041009 0.000000 0.000000
# 5 0.000000 0.000000 0.000000 0.000000 0.040123 0.000000
# 6 0.000000 0.000000 0.000000 0.000000 0.000000 0.052918
#
#
# Mechanical properties :
#
#
# Convention : Reuss Voigt Hill
#
# Bulk Modulus (GPa) = 24.43090 29.44183 26.93636
# Shear Modulus (GPa) = 22.35501 23.77643 23.06572
#
# Velocity S-wave (km/s) = 3.54828 3.65935 3.60424
# Velocity P-wave (km/s) = 5.52688 5.86822 5.70011
#
# Compressibility (1/GPa) = 0.04093177
#
# Stress axis : x y z
#
# Youngs Moduli (GPa) = 62.65411 54.82291 41.23800
#
# Poissons Ratio (x) = 0.38777 0.20410
# Poissons Ratio (y) = 0.44317 -0.13457
# Poissons Ratio (z) = 0.31010 -0.17890
#
# Static dielectric constant tensor:
#      x y z
#    x 3.147250 0.000000 0.000000 
#    y 0.000000 3.137590 0.000000 
#    z 0.000000 0.000000 3.194830 
# 
# 
# High freq. dielectric constant tensor:
#      x y z
#    x 1.685850 0.000000 0.000000 
#    y 0.000000 1.669860 0.000000 
#    z 0.000000 0.000000 1.672990 
# 
# From -- ./inp_files/35928.got.cif
#   From: 2010.03.12/outbox.cif.g09.slc.cpg/sg53_18_cif.got.tgz:35928.got - 2010.04.16 14:36:59.
