data_PCOD8220008
_publ_section_title
;
Structure prediction by ZEFSAII (Michael W. Deem and Ramdas Pophale) SiO2 
 PCOD8220008
Probable space group: P M N A
;
_chemical_formula_sum "Si O2"
_cell_formula_units_Z 28
_cell_length_a 21.140964
_cell_length_b 12.873153
_cell_length_c 5.040184
_cell_angle_alpha 90.000000
_cell_angle_beta 90.000000
_cell_angle_gamma 90.000000
_cell_volume 1371.690431
_symmetry_space_group_name_H-M "P M N A"
_symmetry_group_IT_number 53
_symmetry_cell_setting 'orthorhombic'
loop_
_space_group_symop_operation_xyz
x,y,z
1/2-x,-y,1/2+z
x,-y,-z
1/2-x,y,1/2-z
-x,-y,-z
1/2+x,y,1/2-z
-x,y,z
1/2+x,-y,1/2+z
loop_
_atom_site_type_symbol
_atom_site_label
_atom_site_fract_x
_atom_site_fract_y
_atom_site_fract_z
Si Si1 0.321770 0.785765 0.678986
Si Si2 0.500000 0.426989 0.753017
Si Si3 0.398492 0.252893 0.803924
Si Si4 0.288656 0.000000 0.500000
Si Si5 0.500000 0.074994 0.750303
O O1 0.250000 0.755253 0.750000
O O2 0.341179 0.733618 0.402858
O O3 0.329285 0.909917 0.637841
O O4 0.370672 0.749815 0.901479
O O5 0.500000 0.500000 0.500000
O O6 0.438688 0.355690 0.765123
O O7 0.500000 0.500000 0.000000
O O8 0.438238 0.148346 0.748371
O O9 0.250000 0.949786 0.250000
O O10 0.500000 0.000000 0.500000
O O11 0.500000 0.000000 0.000000
#
# Coordination Sequence:
#
# PCOD8220008 Si02
#       5
#     8   4   8   4   4
#     4  11  22  38  60  90 134 170 208 251 293 369
#     4  11  24  47  74  91 115 153 215 278 324 381
#     4  11  24  40  64  94 120 163 215 251 322 372
#     4  10  20  34  52  83 126 185 224 228 274 350
#     4  11  24  39  56  86 126 167 199 256 306 351
#
# _framework density 20.412768
#
# number of rings (size 3 to 8) (size 9 to 14) (size 15 to 20)
#    0.000    1.143    0.000    7.714    6.000    4.571 
#    0.000    0.000    0.000   17.143    0.000    0.000 
#    0.000    0.000    0.000    0.000    0.000    0.000 
#
# Total GULP energy -347141.721018 kJ/mol
# GULP energy per Si atom -12397.918608 kJ/mol
# Density = 2.036631 g / cm^3
# Si number density = 20.412768 Si / 1000 Ang^3
#
#
#
# Elastic Constant Matrix: (Units=GPa)
#
#
# Indices 1 2 3 4 5 6 
#
# 1 91.5492 45.1119 29.7322 0.0000 0.0000 0.0000
# 2 45.1119 127.2318 53.7334 0.0000 0.0000 0.0000
# 3 29.7322 53.7334 148.0592 0.0000 0.0000 0.0000
# 4 0.0000 0.0000 0.0000 38.0306 0.0000 0.0000
# 5 0.0000 0.0000 0.0000 0.0000 43.2561 0.0000
# 6 0.0000 0.0000 0.0000 0.0000 0.0000 14.6732
#
#
#
# Elastic Compliance Matrix: (Units=1/GPa)
#
#
# Indices 1 2 3 4 5 6 
#
# 1 0.013397 -0.004268 -0.001141 0.000000 0.000000 0.000000
# 2 -0.004268 0.010642 -0.003005 0.000000 0.000000 0.000000
# 3 -0.001141 -0.003005 0.008074 0.000000 0.000000 0.000000
# 4 0.000000 0.000000 0.000000 0.026295 0.000000 0.000000
# 5 0.000000 0.000000 0.000000 0.000000 0.023118 0.000000
# 6 0.000000 0.000000 0.000000 0.000000 0.000000 0.068151
#
#
# Mechanical properties :
#
#
# Convention : Reuss Voigt Hill
#
# Bulk Modulus (GPa) = 65.42852 69.33280 67.38066
# Shear Modulus (GPa) = 29.13744 35.07618 32.10681
#
# Velocity S-wave (km/s) = 3.78221 4.14979 3.97026
# Velocity P-wave (km/s) = 7.15512 7.54984 7.35513
#
# Compressibility (1/GPa) = 0.01528385
#
# Stress axis : x y z
#
# Youngs Moduli (GPa) = 74.64428 93.96627 123.85635
#
# Poissons Ratio (x) = 0.40105 0.14136
# Poissons Ratio (y) = 0.31859 0.37221
# Poissons Ratio (z) = 0.08519 0.28238
#
# Static dielectric constant tensor:
#      x y z
#    x 3.627750 0.000000 0.000000 
#    y 0.000000 3.603450 0.000000 
#    z 0.000000 0.000000 3.991520 
# 
# 
# High freq. dielectric constant tensor:
#      x y z
#    x 1.801060 0.000000 0.000000 
#    y 0.000000 1.773990 0.000000 
#    z 0.000000 0.000000 1.827450 
# 
# From -- ./inp_files/2590.got.cif
#   From: 2010.03.12/outbox.cif.g09.slc.cpg/sg53_2_cif.got.tgz:2590.got - 2010.04.16 14:36:59.
