data_PCOD8220414
_publ_section_title
;
Structure prediction by ZEFSAII (Michael W. Deem and Ramdas Pophale) SiO2 
 PCOD8220414
Probable space group: P M N A
;
_chemical_formula_sum "Si O2"
_cell_formula_units_Z 48
_cell_length_a 8.425475
_cell_length_b 10.090819
_cell_length_c 28.132149
_cell_angle_alpha 90.000000
_cell_angle_beta 90.000000
_cell_angle_gamma 90.000000
_cell_volume 2391.793710
_symmetry_space_group_name_H-M "P M N A"
_symmetry_group_IT_number 53
_symmetry_cell_setting 'orthorhombic'
loop_
_space_group_symop_operation_xyz
x,y,z
1/2-x,-y,1/2+z
x,-y,-z
1/2-x,y,1/2-z
-x,-y,-z
1/2+x,y,1/2-z
-x,y,z
1/2+x,-y,1/2+z
loop_
_atom_site_type_symbol
_atom_site_label
_atom_site_fract_x
_atom_site_fract_y
_atom_site_fract_z
Si Si1 0.818929 0.504862 0.897507
Si Si2 0.183631 0.256338 0.551235
Si Si3 0.182650 0.758233 0.557717
Si Si4 0.685540 0.902009 0.199099
Si Si5 0.317696 0.011236 0.603773
Si Si6 0.184661 0.386300 0.798897
O O1 0.789465 0.365045 0.922705
O O2 0.703102 0.615665 0.917973
O O3 0.786205 0.490057 0.841179
O O4 0.000000 0.547108 0.906810
O O5 0.237899 0.250297 0.496698
O O6 0.000000 0.296486 0.555619
O O7 0.209485 0.113734 0.574840
O O8 0.291078 0.864355 0.584226
O O9 0.000000 0.801797 0.561329
O O10 0.750000 0.949019 0.250000
O O11 0.500000 0.928918 0.196003
O O12 0.719572 0.747442 0.190054
O O13 0.772478 0.988761 0.159193
O O14 0.500000 0.051808 0.597272
O O15 0.250000 0.450569 0.750000
O O16 0.000000 0.348903 0.793720
#
# Coordination Sequence:
#
# PCOD8220414 Si02
#       6
#     8   8   8   8   8   8
#     4  11  23  39  61  90 123 158 201 248 300 359
#     4  11  23  40  63  89 118 158 205 251 300 358
#     4  11  25  42  60  86 122 161 203 249 304 363
#     4  11  21  36  61  90 121 155 196 246 298 352
#     4  12  24  40  62  90 122 158 202 249 302 360
#     4  10  20  35  58  89 120 153 196 245 294 350
#
# _framework density 20.068619999999999
#
# number of rings (size 3 to 8) (size 9 to 14) (size 15 to 20)
#    0.000    1.000    1.667    7.000    0.000    8.667 
#    0.000    0.833    0.000    2.000    0.000    0.000 
#    0.000    0.000    0.000    0.000    0.000    0.000 
#
# Total GULP energy -595572.404883 kJ/mol
# GULP energy per Si atom -12407.758435 kJ/mol
# Density = 2.002294 g / cm^3
# Si number density = 20.068620 Si / 1000 Ang^3
#
#
#
# Elastic Constant Matrix: (Units=GPa)
#
#
# Indices 1 2 3 4 5 6 
#
# 1 73.0589 10.7905 39.8843 0.0000 0.0000 0.0000
# 2 10.7905 75.3757 44.2449 0.0000 0.0000 0.0000
# 3 39.8843 44.2449 154.5548 0.0000 0.0000 0.0000
# 4 0.0000 0.0000 0.0000 4.5029 0.0000 0.0000
# 5 0.0000 0.0000 0.0000 0.0000 20.2364 0.0000
# 6 0.0000 0.0000 0.0000 0.0000 0.0000 32.0518
#
#
#
# Elastic Compliance Matrix: (Units=1/GPa)
#
#
# Indices 1 2 3 4 5 6 
#
# 1 0.015934 0.000159 -0.004157 0.000000 0.000000 0.000000
# 2 0.000159 0.015948 -0.004607 0.000000 0.000000 0.000000
# 3 -0.004157 -0.004607 0.008862 0.000000 0.000000 0.000000
# 4 0.000000 0.000000 0.000000 0.222077 0.000000 0.000000
# 5 0.000000 0.000000 0.000000 0.000000 0.049416 0.000000
# 6 0.000000 0.000000 0.000000 0.000000 0.000000 0.031199
#
#
# Mechanical properties :
#
#
# Convention : Reuss Voigt Hill
#
# Bulk Modulus (GPa) = 42.49137 54.75875 48.62506
# Shear Modulus (GPa) = 13.56889 25.22956 19.39922
#
# Velocity S-wave (km/s) = 2.60306 3.54950 3.11246
# Velocity P-wave (km/s) = 5.50032 6.64406 6.09906
#
# Compressibility (1/GPa) = 0.02353419
#
# Stress axis : x y z
#
# Youngs Moduli (GPa) = 62.76012 62.70329 112.84359
#
# Poissons Ratio (x) = -0.00999 0.46914
# Poissons Ratio (y) = -0.01000 0.51983
# Poissons Ratio (z) = 0.26092 0.28885
#
# Static dielectric constant tensor:
#      x y z
#    x 3.637150 0.000000 0.000000 
#    y 0.000000 3.296970 0.000000 
#    z 0.000000 0.000000 3.997790 
# 
# 
# High freq. dielectric constant tensor:
#      x y z
#    x 1.796830 0.000000 0.000000 
#    y 0.000000 1.757710 0.000000 
#    z 0.000000 0.000000 1.802600 
# 
# From -- ./inp_files/37709.got.cif
#   From: 2010.03.12/outbox.cif.g09.slc.cpg/sg53_19_cif.got.tgz:37709.got - 2010.04.16 14:36:59.
