data_PCOD8220255
_publ_section_title
;
Structure prediction by ZEFSAII (Michael W. Deem and Ramdas Pophale) SiO2 
 PCOD8220255
Probable space group: P M N A
;
_chemical_formula_sum "Si O2"
_cell_formula_units_Z 64
_cell_length_a 14.910028
_cell_length_b 22.864434
_cell_length_c 10.086502
_cell_angle_alpha 90.000000
_cell_angle_beta 90.000000
_cell_angle_gamma 90.000000
_cell_volume 3438.582852
_symmetry_space_group_name_H-M "P M N A"
_symmetry_group_IT_number 53
_symmetry_cell_setting 'orthorhombic'
loop_
_space_group_symop_operation_xyz
x,y,z
1/2-x,-y,1/2+z
x,-y,-z
1/2-x,y,1/2-z
-x,-y,-z
1/2+x,y,1/2-z
-x,y,z
1/2+x,-y,1/2+z
loop_
_atom_site_type_symbol
_atom_site_label
_atom_site_fract_x
_atom_site_fract_y
_atom_site_fract_z
Si Si1 0.249703 0.856452 0.094559
Si Si2 0.895395 0.361956 0.000087
Si Si3 0.896923 0.052687 0.902921
Si Si4 0.605687 0.636501 0.030074
Si Si5 0.895772 0.445402 0.761894
Si Si6 0.396879 0.052885 0.903309
Si Si7 0.749740 0.726151 0.407815
Si Si8 0.894735 0.574583 0.742698
O O1 0.250000 0.848013 0.250000
O O2 0.161153 0.891810 0.051153
O O3 0.338567 0.891595 0.050997
O O4 0.248679 0.791754 0.031505
O O5 0.858370 0.382785 0.142566
O O6 0.000000 0.343984 0.000312
O O7 0.878079 0.416880 0.903891
O O8 0.840170 0.305466 0.956923
O O9 0.876208 0.035028 0.749765
O O10 0.000000 0.070573 0.920745
O O11 0.870544 0.000000 0.000000
O O12 0.500000 0.650674 0.042766
O O13 0.629736 0.602379 0.896924
O O14 0.644631 0.596375 0.148431
O O15 0.660066 0.696803 0.034988
O O16 0.851235 0.509814 0.754822
O O17 0.000000 0.451457 0.728757
O O18 0.500000 0.070855 0.921078
O O19 0.370699 0.000000 0.000000
O O20 0.750000 0.725714 0.250000
O O21 0.000000 0.568380 0.765030
#
# Coordination Sequence:
#
# PCOD8220255 Si02
#       8
#     8   8   8   8   8   8   8   8
#     4   9  19  33  51  76 105 137 175 216 248 287
#     4  10  20  35  55  76 102 136 170 214 268 315
#     4   9  17  31  54  82 109 135 165 205 254 301
#     4  10  20  35  55  76 102 136 170 214 268 315
#     4   9  16  31  55  81 102 127 167 214 268 324
#     4   9  17  31  54  82 109 135 165 205 254 301
#     4  11  22  36  53  76 104 137 186 225 247 298
#     4   9  18  33  55  79 104 131 165 214 272 330
#
# _framework density 18.612317999999998
#
# number of rings (size 3 to 8) (size 9 to 14) (size 15 to 20)
#    0.000    2.500    1.250    1.125    0.000    4.500 
#    0.000    6.250    5.500    0.000    0.000    0.000 
#    0.000    0.000    0.000    0.000    0.000    0.000 
#
# Total GULP energy -793502.429980 kJ/mol
# GULP energy per Si atom -12398.475468 kJ/mol
# Density = 1.856996 g / cm^3
# Si number density = 18.612318 Si / 1000 Ang^3
#
#
#
# Elastic Constant Matrix: (Units=GPa)
#
#
# Indices 1 2 3 4 5 6 
#
# 1 84.8477 63.8778 20.0024 0.0000 0.0000 0.0000
# 2 63.8778 157.0056 30.9889 0.0000 0.0000 0.0000
# 3 20.0024 30.9889 61.8784 0.0000 0.0000 0.0000
# 4 0.0000 0.0000 0.0000 23.3356 0.0000 0.0000
# 5 0.0000 0.0000 0.0000 0.0000 15.9030 0.0000
# 6 0.0000 0.0000 0.0000 0.0000 0.0000 14.2364
#
#
#
# Elastic Compliance Matrix: (Units=1/GPa)
#
#
# Indices 1 2 3 4 5 6 
#
# 1 0.017278 -0.006577 -0.002291 0.000000 0.000000 0.000000
# 2 -0.006577 0.009572 -0.002667 0.000000 0.000000 0.000000
# 3 -0.002291 -0.002667 0.018237 0.000000 0.000000 0.000000
# 4 0.000000 0.000000 0.000000 0.042853 0.000000 0.000000
# 5 0.000000 0.000000 0.000000 0.000000 0.062881 0.000000
# 6 0.000000 0.000000 0.000000 0.000000 0.000000 0.070242
#
#
# Mechanical properties :
#
#
# Convention : Reuss Voigt Hill
#
# Bulk Modulus (GPa) = 45.42377 59.27445 52.34911
# Shear Modulus (GPa) = 19.88287 23.28584 21.58436
#
# Velocity S-wave (km/s) = 3.27198 3.54092 3.40910
# Velocity P-wave (km/s) = 6.22356 6.97378 6.60932
#
# Compressibility (1/GPa) = 0.02201491
#
# Stress axis : x y z
#
# Youngs Moduli (GPa) = 57.87842 104.47569 54.83301
#
# Poissons Ratio (x) = 0.68716 0.12563
# Poissons Ratio (y) = 0.38068 0.14626
# Poissons Ratio (z) = 0.13261 0.27868
#
# Static dielectric constant tensor:
#      x y z
#    x 3.371410 0.000000 0.000000 
#    y 0.000000 3.527580 0.000000 
#    z 0.000000 0.000000 3.403730 
# 
# 
# High freq. dielectric constant tensor:
#      x y z
#    x 1.723810 0.000000 0.000000 
#    y 0.000000 1.710100 0.000000 
#    z 0.000000 0.000000 1.712940 
# 
# From -- ./inp_files/8912.got.cif
#   From: 2010.03.12/outbox.cif.g09.slc.cpg/sg53_5_cif.got.tgz:8912.got - 2010.04.16 14:36:59.
