data_PCOD8220294
_publ_section_title
;
Structure prediction by ZEFSAII (Michael W. Deem and Ramdas Pophale) SiO2 
 PCOD8220294
Probable space group: P M N A
;
_chemical_formula_sum "Si O2"
_cell_formula_units_Z 56
_cell_length_a 18.869072
_cell_length_b 16.977584
_cell_length_c 8.972359
_cell_angle_alpha 90.000000
_cell_angle_beta 90.000000
_cell_angle_gamma 90.000000
_cell_volume 2874.306465
_symmetry_space_group_name_H-M "P M N A"
_symmetry_group_IT_number 53
_symmetry_cell_setting 'orthorhombic'
loop_
_space_group_symop_operation_xyz
x,y,z
1/2-x,-y,1/2+z
x,-y,-z
1/2-x,y,1/2-z
-x,-y,-z
1/2+x,y,1/2-z
-x,y,z
1/2+x,-y,1/2+z
loop_
_atom_site_type_symbol
_atom_site_label
_atom_site_fract_x
_atom_site_fract_y
_atom_site_fract_z
Si Si1 0.580562 0.805090 0.210476
Si Si2 0.682422 0.205467 0.350743
Si Si3 0.918736 0.908819 0.027760
Si Si4 0.811551 0.297886 0.860804
Si Si5 0.318731 0.519442 0.334572
Si Si6 0.917442 0.439666 0.378452
Si Si7 0.082888 0.260653 0.404066
O O1 0.500000 0.778190 0.198431
O O2 0.589402 0.890224 0.292676
O O3 0.615716 0.745124 0.324263
O O4 0.610611 0.795188 0.041380
O O5 0.750000 0.178457 0.250000
O O6 0.644132 0.133200 0.435317
O O7 0.707849 0.273339 0.468451
O O8 0.622433 0.239925 0.245745
O O9 0.000000 0.884905 0.979715
O O10 0.906404 0.000000 0.000000
O O11 0.750000 0.267705 0.750000
O O12 0.830072 0.387526 0.826296
O O13 0.302416 0.500000 0.500000
O O14 0.250000 0.490284 0.250000
O O15 0.383691 0.465988 0.277906
O O16 0.886476 0.500000 0.500000
O O17 0.899047 0.352192 0.436316
O O18 0.000000 0.450362 0.354942
O O19 0.000000 0.247843 0.374378
#
# Coordination Sequence:
#
# PCOD8220294 Si02
#       7
#     8   8   8   8   8   8   8
#     4   9  18  34  58  82 104 138 182 224 269 329
#     4  11  22  36  57  84 113 144 180 229 285 335
#     4   9  19  39  63  85 113 149 187 226 274 337
#     4  10  21  36  53  74 104 143 186 226 272 334
#     4  11  23  36  51  73 102 141 186 231 278 332
#     4  10  21  36  54  77 108 144 182 232 288 334
#     4  10  20  35  55  81 111 143 184 231 281 338
#
# _framework density 19.482962000000001
#
# number of rings (size 3 to 8) (size 9 to 14) (size 15 to 20)
#    0.000    2.000    0.000    3.429    0.000    7.143 
#    0.000    5.000    0.000    3.429    0.000    0.000 
#    0.000    0.000    0.000    0.000    0.000    0.000 
#
# Total GULP energy -693917.548203 kJ/mol
# GULP energy per Si atom -12391.384789 kJ/mol
# Density = 1.943862 g / cm^3
# Si number density = 19.482962 Si / 1000 Ang^3
#
#
#
# Elastic Constant Matrix: (Units=GPa)
#
#
# Indices 1 2 3 4 5 6 
#
# 1 58.6768 40.9538 50.6619 0.0000 0.0000 0.0000
# 2 40.9538 86.3739 51.7052 0.0000 0.0000 0.0000
# 3 50.6619 51.7052 149.8204 0.0000 0.0000 0.0000
# 4 0.0000 0.0000 0.0000 26.4299 0.0000 0.0000
# 5 0.0000 0.0000 0.0000 0.0000 45.6744 0.0000
# 6 0.0000 0.0000 0.0000 0.0000 0.0000 20.9852
#
#
#
# Elastic Compliance Matrix: (Units=1/GPa)
#
#
# Indices 1 2 3 4 5 6 
#
# 1 0.029844 -0.010221 -0.006564 0.000000 0.000000 0.000000
# 2 -0.010221 0.018093 -0.002788 0.000000 0.000000 0.000000
# 3 -0.006564 -0.002788 0.009857 0.000000 0.000000 0.000000
# 4 0.000000 0.000000 0.000000 0.037836 0.000000 0.000000
# 5 0.000000 0.000000 0.000000 0.000000 0.021894 0.000000
# 6 0.000000 0.000000 0.000000 0.000000 0.000000 0.047653
#
#
# Mechanical properties :
#
#
# Convention : Reuss Voigt Hill
#
# Bulk Modulus (GPa) = 53.62800 64.61255 59.12027
# Shear Modulus (GPa) = 23.74875 28.72124 26.23500
#
# Velocity S-wave (km/s) = 3.49513 3.84366 3.67353
# Velocity P-wave (km/s) = 6.62369 7.27557 6.95727
#
# Compressibility (1/GPa) = 0.01864698
#
# Stress axis : x y z
#
# Youngs Moduli (GPa) = 33.50770 55.27135 101.45532
#
# Poissons Ratio (x) = 0.56491 0.66599
# Poissons Ratio (y) = 0.34247 0.28284
# Poissons Ratio (z) = 0.21996 0.15409
#
# Static dielectric constant tensor:
#      x y z
#    x 3.631710 0.000000 0.000000 
#    y 0.000000 3.385100 0.000000 
#    z 0.000000 0.000000 3.809980 
# 
# 
# High freq. dielectric constant tensor:
#      x y z
#    x 1.765740 0.000000 0.000000 
#    y 0.000000 1.738050 0.000000 
#    z 0.000000 0.000000 1.768480 
# 
# From -- ./inp_files/11164.got.cif
#   From: 2010.03.12/outbox.cif.g09.slc.cpg/sg53_6_cif.got.tgz:11164.got - 2010.04.16 14:36:59.
