data_PCOD8220921
_publ_section_title
;
Structure prediction by ZEFSAII (Michael W. Deem and Ramdas Pophale) SiO2 
 PCOD8220921
Probable space group: P M N A
;
_chemical_formula_sum "Si O2"
_cell_formula_units_Z 56
_cell_length_a 14.070887
_cell_length_b 13.432577
_cell_length_c 14.717176
_cell_angle_alpha 90.000000
_cell_angle_beta 90.000000
_cell_angle_gamma 90.000000
_cell_volume 2781.668020
_symmetry_space_group_name_H-M "P M N A"
_symmetry_group_IT_number 53
_symmetry_cell_setting 'orthorhombic'
loop_
_space_group_symop_operation_xyz
x,y,z
1/2-x,-y,1/2+z
x,-y,-z
1/2-x,y,1/2-z
-x,-y,-z
1/2+x,y,1/2-z
-x,y,z
1/2+x,-y,1/2+z
loop_
_atom_site_type_symbol
_atom_site_label
_atom_site_fract_x
_atom_site_fract_y
_atom_site_fract_z
Si Si1 0.606245 0.758741 0.755093
Si Si2 0.251353 0.519049 0.353453
Si Si3 0.613612 0.019398 0.254072
Si Si4 0.107035 0.368473 0.075091
Si Si5 0.754814 0.715982 0.441312
Si Si6 0.887726 0.367852 0.418868
Si Si7 0.745713 0.053335 0.900754
O O1 0.500000 0.777175 0.789944
O O2 0.650825 0.867071 0.740156
O O3 0.608640 0.695569 0.665284
O O4 0.656301 0.698235 0.836177
O O5 0.250000 0.484440 0.250000
O O6 0.343707 0.474890 0.405381
O O7 0.253017 0.638912 0.357274
O O8 0.158804 0.476856 0.406568
O O9 0.500000 0.005310 0.257595
O O10 0.658445 0.968687 0.343795
O O11 0.653499 0.976601 0.158791
O O12 0.000000 0.388180 0.041416
O O13 0.162504 0.302160 0.002647
O O14 0.853203 0.688681 0.491570
O O15 0.758626 0.828460 0.410076
O O16 0.000000 0.382006 0.418797
O O17 0.745646 0.000000 0.000000
#
# Coordination Sequence:
#
# PCOD8220921 Si02
#       7
#     8   8   8   8   8   8   8
#     4   9  17  33  61  89 112 147 195 251 300 339
#     4  11  23  37  57  82 122 158 188 238 298 357
#     4  10  23  41  62  90 126 162 208 265 313 368
#     4  10  20  38  61  89 117 150 198 244 296 357
#     4  11  25  37  58  87 119 160 196 248 294 352
#     4  10  20  38  61  89 117 150 198 244 296 357
#     4  11  24  42  65  92 123 167 216 256 316 371
#
# _framework density 20.131806000000001
#
# number of rings (size 3 to 8) (size 9 to 14) (size 15 to 20)
#    0.000    1.714    1.429    3.429    2.000    7.429 
#    0.000    0.000    0.000    0.000    0.000    0.000 
#    0.000    0.000    0.000    0.000    0.000    0.000 
#
# Total GULP energy -694164.280467 kJ/mol
# GULP energy per Si atom -12395.790723 kJ/mol
# Density = 2.008598 g / cm^3
# Si number density = 20.131806 Si / 1000 Ang^3
#
#
#
# Elastic Constant Matrix: (Units=GPa)
#
#
# Indices 1 2 3 4 5 6 
#
# 1 139.4397 32.6023 33.5176 0.0000 0.0000 0.0000
# 2 32.6023 157.9333 30.0860 0.0000 0.0000 0.0000
# 3 33.5176 30.0860 91.7921 0.0000 0.0000 0.0000
# 4 0.0000 0.0000 0.0000 25.0486 0.0000 0.0000
# 5 0.0000 0.0000 0.0000 0.0000 177.4302 0.0000
# 6 0.0000 0.0000 0.0000 0.0000 0.0000 11.1383
#
#
#
# Elastic Compliance Matrix: (Units=1/GPa)
#
#
# Indices 1 2 3 4 5 6 
#
# 1 0.008062 -0.001177 -0.002558 0.000000 0.000000 0.000000
# 2 -0.001177 0.006925 -0.001840 0.000000 0.000000 0.000000
# 3 -0.002558 -0.001840 0.012431 0.000000 0.000000 0.000000
# 4 0.000000 0.000000 0.000000 0.039922 0.000000 0.000000
# 5 0.000000 0.000000 0.000000 0.000000 0.005636 0.000000
# 6 0.000000 0.000000 0.000000 0.000000 0.000000 0.089781
#
#
# Mechanical properties :
#
#
# Convention : Reuss Voigt Hill
#
# Bulk Modulus (GPa) = 61.46908 64.61967 63.04437
# Shear Modulus (GPa) = 27.88159 62.25403 45.06781
#
# Velocity S-wave (km/s) = 3.72553 5.56690 4.73656
# Velocity P-wave (km/s) = 7.00755 8.57254 7.82925
#
# Compressibility (1/GPa) = 0.01626834
#
# Stress axis : x y z
#
# Youngs Moduli (GPa) = 124.04507 144.39874 80.44194
#
# Poissons Ratio (x) = 0.16994 0.20576
# Poissons Ratio (y) = 0.14599 0.14802
# Poissons Ratio (z) = 0.31730 0.26571
#
# Static dielectric constant tensor:
#      x y z
#    x 3.774170 0.000000 0.000000 
#    y 0.000000 3.759690 0.000000 
#    z 0.000000 0.000000 3.721130 
# 
# 
# High freq. dielectric constant tensor:
#      x y z
#    x 1.787730 0.000000 0.000000 
#    y 0.000000 1.791510 0.000000 
#    z 0.000000 0.000000 1.790060 
# 
# From -- ./inp_files/22942.got.cif
#   From: 2010.03.12/outbox.cif.g09.slc.cpg/sg53_12_cif.got.tgz:22942.got - 2010.04.16 14:36:59.
