data_PCOD8220506
_publ_section_title
;
Structure prediction by ZEFSAII (Michael W. Deem and Ramdas Pophale) SiO2 
 PCOD8220506
Probable space group: P M N A
;
_chemical_formula_sum "Si O2"
_cell_formula_units_Z 48
_cell_length_a 9.053759
_cell_length_b 30.036915
_cell_length_c 9.514010
_cell_angle_alpha 90.000000
_cell_angle_beta 90.000000
_cell_angle_gamma 90.000000
_cell_volume 2587.306378
_symmetry_space_group_name_H-M "P M N A"
_symmetry_group_IT_number 53
_symmetry_cell_setting 'orthorhombic'
loop_
_space_group_symop_operation_xyz
x,y,z
1/2-x,-y,1/2+z
x,-y,-z
1/2-x,y,1/2-z
-x,-y,-z
1/2+x,y,1/2-z
-x,y,z
1/2+x,-y,1/2+z
loop_
_atom_site_type_symbol
_atom_site_label
_atom_site_fract_x
_atom_site_fract_y
_atom_site_fract_z
Si Si1 0.673436 0.116222 0.892395
Si Si2 0.828503 0.783110 0.389978
Si Si3 0.326259 0.959849 0.899968
Si Si4 0.174881 0.706057 0.600130
Si Si5 0.329467 0.535871 0.392665
Si Si6 0.826690 0.362588 0.898349
O O1 0.750000 0.099027 0.750000
O O2 0.500000 0.112233 0.866779
O O3 0.723233 0.166747 0.926789
O O4 0.722140 0.085962 0.023824
O O5 0.750000 0.765013 0.250000
O O6 0.787620 0.751818 0.519998
O O7 0.000000 0.781701 0.356067
O O8 0.250000 0.963378 0.750000
O O9 0.500000 0.961846 0.873956
O O10 0.274166 0.000000 0.000000
O O11 0.250000 0.709998 0.750000
O O12 0.247367 0.665205 0.518672
O O13 0.000000 0.698184 0.614753
O O14 0.262710 0.500000 0.500000
O O15 0.250000 0.525750 0.250000
O O16 0.500000 0.526651 0.367210
O O17 0.301904 0.586277 0.443559
O O18 0.750000 0.351997 0.750000
O O19 0.000000 0.350660 0.887076
#
# Coordination Sequence:
#
# PCOD8220506 Si02
#       6
#     8   8   8   8   8   8
#     4   9  18  34  54  77 104 133 170 212 254 304
#     4   9  19  35  55  77 102 135 172 211 255 306
#     4  10  21  35  52  76 105 136 171 212 256 304
#     4  11  23  37  53  76 106 138 174 217 264 310
#     4   9  19  35  54  78 106 136 171 210 253 303
#     4  10  20  36  57  79 105 138 176 215 257 308
#
# _framework density 18.552112000000001
#
# number of rings (size 3 to 8) (size 9 to 14) (size 15 to 20)
#    0.000    2.333    0.000    2.000    0.000    6.000 
#    0.000    1.667    0.000    0.000    0.000    0.000 
#    0.000    0.000    0.000    0.000    0.000    0.000 
#
# Total GULP energy -595260.169622 kJ/mol
# GULP energy per Si atom -12401.253534 kJ/mol
# Density = 1.850989 g / cm^3
# Si number density = 18.552112 Si / 1000 Ang^3
#
#
#
# Elastic Constant Matrix: (Units=GPa)
#
#
# Indices 1 2 3 4 5 6 
#
# 1 72.7771 57.1188 73.5338 0.0000 0.0000 0.0000
# 2 57.1188 119.2760 95.9653 0.0000 0.0000 0.0000
# 3 73.5338 95.9653 170.7819 0.0000 0.0000 0.0000
# 4 0.0000 0.0000 0.0000 35.3916 0.0000 0.0000
# 5 0.0000 0.0000 0.0000 0.0000 38.6491 0.0000
# 6 0.0000 0.0000 0.0000 0.0000 0.0000 21.8789
#
#
#
# Elastic Compliance Matrix: (Units=1/GPa)
#
#
# Indices 1 2 3 4 5 6 
#
# 1 0.026812 -0.006482 -0.007902 0.000000 0.000000 0.000000
# 2 -0.006482 0.016869 -0.006688 0.000000 0.000000 0.000000
# 3 -0.007902 -0.006688 0.013016 0.000000 0.000000 0.000000
# 4 0.000000 0.000000 0.000000 0.028255 0.000000 0.000000
# 5 0.000000 0.000000 0.000000 0.000000 0.025874 0.000000
# 6 0.000000 0.000000 0.000000 0.000000 0.000000 0.045706
#
#
# Mechanical properties :
#
#
# Convention : Reuss Voigt Hill
#
# Bulk Modulus (GPa) = 68.71532 90.67456 79.69494
# Shear Modulus (GPa) = 24.56663 28.26507 26.41585
#
# Velocity S-wave (km/s) = 3.64290 3.90750 3.77752
# Velocity P-wave (km/s) = 7.40363 8.32705 7.87888
#
# Compressibility (1/GPa) = 0.01455280
#
# Stress axis : x y z
#
# Youngs Moduli (GPa) = 37.29613 59.28062 76.82835
#
# Poissons Ratio (x) = 0.38426 0.60712
# Poissons Ratio (y) = 0.24175 0.51383
# Poissons Ratio (z) = 0.29473 0.39647
#
# Static dielectric constant tensor:
#      x y z
#    x 3.416410 0.000000 0.000000 
#    y 0.000000 3.745820 0.000000 
#    z 0.000000 0.000000 3.558060 
# 
# 
# High freq. dielectric constant tensor:
#      x y z
#    x 1.720250 0.000000 0.000000 
#    y 0.000000 1.733640 0.000000 
#    z 0.000000 0.000000 1.717290 
# 
# From -- ./inp_files/6619.got.cif
#   From: 2010.03.12/outbox.cif.g09.slc.cpg/sg53_4_cif.got.tgz:6619.got - 2010.04.16 14:36:59.
