data_PCOD8220623
_publ_section_title
;
Structure prediction by ZEFSAII (Michael W. Deem and Ramdas Pophale) SiO2 
 PCOD8220623
Probable space group: P M N A
;
_chemical_formula_sum "Si O2"
_cell_formula_units_Z 60
_cell_length_a 17.921700
_cell_length_b 13.350653
_cell_length_c 12.354681
_cell_angle_alpha 90.000000
_cell_angle_beta 90.000000
_cell_angle_gamma 90.000000
_cell_volume 2956.060020
_symmetry_space_group_name_H-M "P M N A"
_symmetry_group_IT_number 53
_symmetry_cell_setting 'orthorhombic'
loop_
_space_group_symop_operation_xyz
x,y,z
1/2-x,-y,1/2+z
x,-y,-z
1/2-x,y,1/2-z
-x,-y,-z
1/2+x,y,1/2-z
-x,y,z
1/2+x,-y,1/2+z
loop_
_atom_site_type_symbol
_atom_site_label
_atom_site_fract_x
_atom_site_fract_y
_atom_site_fract_z
Si Si1 0.917151 0.456327 0.619125
Si Si2 0.260438 0.864919 0.077650
Si Si3 0.919058 0.117826 0.497511
Si Si4 0.163086 0.601161 0.782433
Si Si5 0.795302 0.925999 0.849877
Si Si6 0.807622 0.500000 0.000000
Si Si7 0.723648 0.348714 0.862734
Si Si8 0.586815 0.811823 0.753868
O O1 0.920135 0.500000 0.500000
O O2 0.882971 0.542039 0.693201
O O3 0.866412 0.355538 0.626873
O O4 0.000000 0.426990 0.658426
O O5 0.239135 0.761178 0.134171
O O6 0.223132 0.955685 0.143200
O O7 0.350709 0.861400 0.078285
O O8 0.229843 0.868194 0.956458
O O9 0.899424 0.160807 0.379138
O O10 0.000000 0.163321 0.534939
O O11 0.927641 0.000000 0.500000
O O12 0.250000 0.603114 0.750000
O O13 0.130806 0.713041 0.782939
O O14 0.146540 0.546931 0.898927
O O15 0.750000 0.878727 0.750000
O O16 0.881839 0.903143 0.821880
O O17 0.754912 0.410538 0.962320
O O18 0.750000 0.399051 0.750000
O O19 0.500000 0.799248 0.727969
#
# Coordination Sequence:
#
# PCOD8220623 Si02
#       8
#     8   8   8   8   8   4   8   8
#     4  11  23  40  62  92 132 169 209 268 337 392
#     4  11  23  36  63  94 122 164 222 257 324 387
#     4  10  20  36  58  91 132 163 199 266 334 387
#     4  12  23  41  68  99 131 170 227 277 328 394
#     4  11  20  40  62  93 123 165 212 268 311 380
#     4  12  22  42  68  92 124 174 224 272 322 374
#     4  12  23  41  62  92 127 167 213 267 321 382
#     4  11  24  39  63  96 129 168 215 268 333 396
#
# _framework density 20.297286
#
# number of rings (size 3 to 8) (size 9 to 14) (size 15 to 20)
#    0.000    0.800    6.000    2.000    3.733    0.533 
#    0.000    2.667    0.000    2.400    0.000    0.000 
#    0.000    0.000    0.000    0.000    0.000    0.000 
#
# Total GULP energy -743580.014875 kJ/mol
# GULP energy per Si atom -12393.000248 kJ/mol
# Density = 2.025109 g / cm^3
# Si number density = 20.297286 Si / 1000 Ang^3
#
#
#
# Elastic Constant Matrix: (Units=GPa)
#
#
# Indices 1 2 3 4 5 6 
#
# 1 102.8870 53.9808 37.7892 0.0000 0.0000 0.0000
# 2 53.9808 116.8703 36.5597 0.0000 0.0000 0.0000
# 3 37.7892 36.5597 96.7025 0.0000 0.0000 0.0000
# 4 0.0000 0.0000 0.0000 27.3195 0.0000 0.0000
# 5 0.0000 0.0000 0.0000 0.0000 15.4757 0.0000
# 6 0.0000 0.0000 0.0000 0.0000 0.0000 29.0166
#
#
#
# Elastic Compliance Matrix: (Units=1/GPa)
#
#
# Indices 1 2 3 4 5 6 
#
# 1 0.013731 -0.005289 -0.003366 0.000000 0.000000 0.000000
# 2 -0.005289 0.011741 -0.002372 0.000000 0.000000 0.000000
# 3 -0.003366 -0.002372 0.012553 0.000000 0.000000 0.000000
# 4 0.000000 0.000000 0.000000 0.036604 0.000000 0.000000
# 5 0.000000 0.000000 0.000000 0.000000 0.064618 0.000000
# 6 0.000000 0.000000 0.000000 0.000000 0.000000 0.034463
#
#
# Mechanical properties :
#
#
# Convention : Reuss Voigt Hill
#
# Bulk Modulus (GPa) = 62.61416 63.67989 63.14702
# Shear Modulus (GPa) = 24.86473 26.90436 25.88455
#
# Velocity S-wave (km/s) = 3.50384 3.64471 3.57497
# Velocity P-wave (km/s) = 6.87638 7.01096 6.94400
#
# Compressibility (1/GPa) = 0.01597083
#
# Stress axis : x y z
#
# Youngs Moduli (GPa) = 72.82973 85.16802 79.66086
#
# Poissons Ratio (x) = 0.45046 0.26814
# Poissons Ratio (y) = 0.38520 0.18897
# Poissons Ratio (z) = 0.24515 0.20204
#
# Static dielectric constant tensor:
#      x y z
#    x 4.043970 0.000000 0.000000 
#    y 0.000000 3.919510 0.000000 
#    z 0.000000 0.000000 4.046720 
# 
# 
# High freq. dielectric constant tensor:
#      x y z
#    x 1.785480 0.000000 0.000000 
#    y 0.000000 1.798630 0.000000 
#    z 0.000000 0.000000 1.792430 
# 
# From -- ./inp_files/17035.got.cif
#   From: 2010.03.12/outbox.cif.g09.slc.cpg/sg53_9_cif.got.tgz:17035.got - 2010.04.16 14:36:59.
