data_PCOD8220031
_publ_section_title
;
Structure prediction by ZEFSAII (Michael W. Deem and Ramdas Pophale) SiO2 
 PCOD8220031
Probable space group: P M N A
;
_chemical_formula_sum "Si O2"
_cell_formula_units_Z 64
_cell_length_a 9.363024
_cell_length_b 12.012710
_cell_length_c 31.417477
_cell_angle_alpha 90.000000
_cell_angle_beta 90.000000
_cell_angle_gamma 90.000000
_cell_volume 3533.689901
_symmetry_space_group_name_H-M "P M N A"
_symmetry_group_IT_number 53
_symmetry_cell_setting 'orthorhombic'
loop_
_space_group_symop_operation_xyz
x,y,z
1/2-x,-y,1/2+z
x,-y,-z
1/2-x,y,1/2-z
-x,-y,-z
1/2+x,y,1/2-z
-x,y,z
1/2+x,-y,1/2+z
loop_
_atom_site_type_symbol
_atom_site_label
_atom_site_fract_x
_atom_site_fract_y
_atom_site_fract_z
Si Si1 0.660892 0.887586 0.020057
Si Si2 0.832328 0.512780 0.792172
Si Si3 0.667521 0.618396 0.373290
Si Si4 0.333389 0.898125 0.625589
Si Si5 0.664812 0.230427 0.290809
Si Si6 0.834638 0.856694 0.103092
Si Si7 0.337123 0.250279 0.061733
Si Si8 0.668772 0.529031 0.548157
O O1 0.500000 0.912573 0.035755
O O2 0.754584 0.849966 0.058974
O O3 0.664419 0.786788 0.987046
O O4 0.726478 0.000000 0.000000
O O5 0.750000 0.472512 0.750000
O O6 0.767361 0.445999 0.832576
O O7 0.800105 0.641876 0.801649
O O8 0.000000 0.491173 0.785060
O O9 0.500000 0.602108 0.369670
O O10 0.712753 0.748217 0.369823
O O11 0.715315 0.568595 0.419125
O O12 0.500000 0.874427 0.615763
O O13 0.285767 0.844568 0.669871
O O14 0.237262 0.846692 0.588729
O O15 0.301449 0.030204 0.628671
O O16 0.750000 0.187895 0.250000
O O17 0.500000 0.213169 0.280435
O O18 0.000000 0.847393 0.091510
O O19 0.500000 0.267855 0.077566
O O20 0.248987 0.363094 0.065824
O O21 0.717772 0.500000 0.500000
O O22 0.500000 0.552622 0.549335
#
# Coordination Sequence:
#
# PCOD8220031 Si02
#       8
#     8   8   8   8   8   8   8   8
#     4  10  20  35  50  69 104 143 173 209 261 309
#     4   9  17  32  54  75 100 132 168 211 260 315
#     4   9  18  34  54  77 106 139 171 215 273 313
#     4  10  20  34  53  78 105 132 170 216 257 301
#     4   9  18  33  53  77 103 132 164 207 262 314
#     4  10  20  34  55  79 101 134 181 221 251 303
#     4  11  22  34  52  76 104 137 174 215 260 310
#     4  10  20  35  55  77 105 139 176 218 265 319
#
# _framework density 18.111378999999999
#
# number of rings (size 3 to 8) (size 9 to 14) (size 15 to 20)
#    0.000    2.250    1.250    1.875    0.000    5.000 
#    0.000    5.000    0.000    0.000    0.000    0.000 
#    0.000    0.000    0.000    0.000    0.000    0.000 
#
# Total GULP energy -793599.359564 kJ/mol
# GULP energy per Si atom -12399.989993 kJ/mol
# Density = 1.807016 g / cm^3
# Si number density = 18.111379 Si / 1000 Ang^3
#
#
#
# Elastic Constant Matrix: (Units=GPa)
#
#
# Indices 1 2 3 4 5 6 
#
# 1 47.2008 35.8978 38.5527 0.0000 0.0000 0.0000
# 2 35.8978 118.2800 62.1888 0.0000 0.0000 0.0000
# 3 38.5527 62.1888 134.9178 0.0000 0.0000 0.0000
# 4 0.0000 0.0000 0.0000 31.2882 0.0000 0.0000
# 5 0.0000 0.0000 0.0000 0.0000 28.1177 0.0000
# 6 0.0000 0.0000 0.0000 0.0000 0.0000 20.6300
#
#
#
# Elastic Compliance Matrix: (Units=1/GPa)
#
#
# Indices 1 2 3 4 5 6 
#
# 1 0.030753 -0.006221 -0.005920 0.000000 0.000000 0.000000
# 2 -0.006221 0.012417 -0.003946 0.000000 0.000000 0.000000
# 3 -0.005920 -0.003946 0.010922 0.000000 0.000000 0.000000
# 4 0.000000 0.000000 0.000000 0.031961 0.000000 0.000000
# 5 0.000000 0.000000 0.000000 0.000000 0.035565 0.000000
# 6 0.000000 0.000000 0.000000 0.000000 0.000000 0.048473
#
#
# Mechanical properties :
#
#
# Convention : Reuss Voigt Hill
#
# Bulk Modulus (GPa) = 45.62350 63.74193 54.68272
# Shear Modulus (GPa) = 23.85826 26.92446 25.39136
#
# Velocity S-wave (km/s) = 3.63341 3.85983 3.74833
# Velocity P-wave (km/s) = 6.54580 7.42531 6.99938
#
# Compressibility (1/GPa) = 0.02191853
#
# Stress axis : x y z
#
# Youngs Moduli (GPa) = 32.51755 80.53339 91.55426
#
# Poissons Ratio (x) = 0.50097 0.54202
# Poissons Ratio (y) = 0.20228 0.36127
# Poissons Ratio (z) = 0.19251 0.31779
#
# Static dielectric constant tensor:
#      x y z
#    x 3.227160 0.000000 0.000000 
#    y 0.000000 3.483080 0.000000 
#    z 0.000000 0.000000 3.361320 
# 
# 
# High freq. dielectric constant tensor:
#      x y z
#    x 1.685190 0.000000 0.000000 
#    y 0.000000 1.706110 0.000000 
#    z 0.000000 0.000000 1.695160 
# 
# From -- ./inp_files/38287.got.cif
#   From: 2010.03.12/outbox.cif.g09.slc.cpg/sg53_20_cif.got.tgz:38287.got - 2010.04.16 14:36:59.
