data_PCOD8220976
_publ_section_title
;
Structure prediction by ZEFSAII (Michael W. Deem and Ramdas Pophale) SiO2 
 PCOD8220976
Probable space group: P M N A
;
_chemical_formula_sum "Si O2"
_cell_formula_units_Z 64
_cell_length_a 18.421993
_cell_length_b 16.457114
_cell_length_c 11.113440
_cell_angle_alpha 90.000000
_cell_angle_beta 90.000000
_cell_angle_gamma 90.000000
_cell_volume 3369.293155
_symmetry_space_group_name_H-M "P M N A"
_symmetry_group_IT_number 53
_symmetry_cell_setting 'orthorhombic'
loop_
_space_group_symop_operation_xyz
x,y,z
1/2-x,-y,1/2+z
x,-y,-z
1/2-x,y,1/2-z
-x,-y,-z
1/2+x,y,1/2-z
-x,y,z
1/2+x,-y,1/2+z
loop_
_atom_site_type_symbol
_atom_site_label
_atom_site_fract_x
_atom_site_fract_y
_atom_site_fract_z
Si Si1 0.083352 0.607236 0.887256
Si Si2 0.154139 0.141801 0.585395
Si Si3 0.832967 0.715754 0.257294
Si Si4 0.680517 0.849500 0.435272
Si Si5 0.915403 0.875672 0.668383
Si Si6 0.084227 0.958740 0.206029
Si Si7 0.173129 0.240762 0.183958
Si Si8 0.581660 0.571007 0.334216
O O1 0.144213 0.671198 0.850498
O O2 0.104702 0.523210 0.820303
O O3 0.000000 0.632609 0.855528
O O4 0.090419 0.597366 0.028950
O O5 0.146140 0.238281 0.617309
O O6 0.239184 0.121700 0.603157
O O7 0.128609 0.114870 0.454665
O O8 0.105628 0.091998 0.677253
O O9 0.750000 0.690804 0.250000
O O10 0.850676 0.776447 0.146903
O O11 0.874098 0.630494 0.252325
O O12 0.628759 0.927779 0.411395
O O13 0.680846 0.820236 0.572073
O O14 0.888374 0.793284 0.728270
O O15 0.000000 0.870351 0.637464
O O16 0.898033 0.948086 0.761603
O O17 0.000000 0.946422 0.176291
O O18 0.250000 0.248678 0.250000
O O19 0.500000 0.580743 0.290798
#
# Coordination Sequence:
#
# PCOD8220976 Si02
#       8
#     8   8   8   8   8   8   8   8
#     4   9  19  35  56  82 114 147 185 242 292 340
#     4  10  20  39  58  85 118 152 192 236 287 346
#     4   9  18  32  58  82 114 145 183 239 291 334
#     4  10  21  39  57  84 116 146 194 250 286 341
#     4  11  24  40  57  84 119 155 194 233 284 353
#     4  10  22  39  61  85 112 149 192 245 296 339
#     4  12  23  38  59  82 115 155 196 234 292 354
#     4   9  17  32  56  86 112 141 189 239 290 341
#
# _framework density 18.995080999999999
#
# number of rings (size 3 to 8) (size 9 to 14) (size 15 to 20)
#    0.000    2.000    2.500    3.000    0.000    6.500 
#    2.250    1.250    0.000    0.750    0.000    2.625 
#    0.000    0.000    0.000    0.000    0.000    0.000 
#
# Total GULP energy -793347.780634 kJ/mol
# GULP energy per Si atom -12396.059072 kJ/mol
# Density = 1.895185 g / cm^3
# Si number density = 18.995081 Si / 1000 Ang^3
#
#
#
# Elastic Constant Matrix: (Units=GPa)
#
#
# Indices 1 2 3 4 5 6 
#
# 1 101.2565 70.7368 40.8102 0.0000 0.0000 0.0000
# 2 70.7368 94.1750 21.2290 0.0000 0.0000 0.0000
# 3 40.8102 21.2290 57.0808 0.0000 0.0000 0.0000
# 4 0.0000 0.0000 0.0000 23.7963 0.0000 0.0000
# 5 0.0000 0.0000 0.0000 0.0000 28.4937 0.0000
# 6 0.0000 0.0000 0.0000 0.0000 0.0000 25.4715
#
#
#
# Elastic Compliance Matrix: (Units=1/GPa)
#
#
# Indices 1 2 3 4 5 6 
#
# 1 0.027546 -0.017738 -0.013097 0.000000 0.000000 0.000000
# 2 -0.017738 0.023013 0.004123 0.000000 0.000000 0.000000
# 3 -0.013097 0.004123 0.025349 0.000000 0.000000 0.000000
# 4 0.000000 0.000000 0.000000 0.042023 0.000000 0.000000
# 5 0.000000 0.000000 0.000000 0.000000 0.035095 0.000000
# 6 0.000000 0.000000 0.000000 0.000000 0.000000 0.039260
#
#
# Mechanical properties :
#
#
# Convention : Reuss Voigt Hill
#
# Bulk Modulus (GPa) = 44.47598 57.56269 51.01933
# Shear Modulus (GPa) = 19.74678 23.53473 21.64075
#
# Velocity S-wave (km/s) = 3.22774 3.52375 3.37899
# Velocity P-wave (km/s) = 6.11199 6.85022 6.49161
#
# Compressibility (1/GPa) = 0.02248405
#
# Stress axis : x y z
#
# Youngs Moduli (GPa) = 36.30242 43.45446 39.44856
#
# Poissons Ratio (x) = 0.77081 0.51667
# Poissons Ratio (y) = 0.64394 -0.16266
# Poissons Ratio (z) = 0.47546 -0.17918
#
# Static dielectric constant tensor:
#      x y z
#    x 3.481630 0.000000 0.000000 
#    y 0.000000 3.607710 0.000000 
#    z 0.000000 0.000000 3.416810 
# 
# 
# High freq. dielectric constant tensor:
#      x y z
#    x 1.742690 0.000000 0.000000 
#    y 0.000000 1.736650 0.000000 
#    z 0.000000 0.000000 1.724290 
# 
# From -- ./inp_files/16247.got.cif
#   From: 2010.03.12/outbox.cif.g09.slc.cpg/sg53_9_cif.got.tgz:16247.got - 2010.04.16 14:36:59.
