data_PCOD8220927
_publ_section_title
;
Structure prediction by ZEFSAII (Michael W. Deem and Ramdas Pophale) SiO2 
 PCOD8220927
Probable space group: P M N A
;
_chemical_formula_sum "Si O2"
_cell_formula_units_Z 64
_cell_length_a 14.042665
_cell_length_b 8.705451
_cell_length_c 23.604023
_cell_angle_alpha 90.000000
_cell_angle_beta 90.000000
_cell_angle_gamma 90.000000
_cell_volume 2885.538279
_symmetry_space_group_name_H-M "P M N A"
_symmetry_group_IT_number 53
_symmetry_cell_setting 'orthorhombic'
loop_
_space_group_symop_operation_xyz
x,y,z
1/2-x,-y,1/2+z
x,-y,-z
1/2-x,y,1/2-z
-x,-y,-z
1/2+x,y,1/2-z
-x,y,z
1/2+x,-y,1/2+z
loop_
_atom_site_type_symbol
_atom_site_label
_atom_site_fract_x
_atom_site_fract_y
_atom_site_fract_z
Si Si1 0.890191 0.730369 0.090124
Si Si2 0.738403 0.749277 0.638598
Si Si3 0.887597 0.771674 0.263103
Si Si4 0.896442 0.451439 0.407870
Si Si5 0.732631 0.087554 0.669499
Si Si6 0.798866 0.165675 0.012070
Si Si7 0.391715 0.490059 0.314757
Si Si8 0.104853 0.265669 0.522846
O O1 0.820526 0.866232 0.111899
O O2 0.871439 0.577042 0.125934
O O3 0.000000 0.780259 0.096640
O O4 0.859594 0.708975 0.024456
O O5 0.827045 0.632877 0.635716
O O6 0.693680 0.776741 0.576371
O O7 0.666367 0.668278 0.682622
O O8 0.768607 0.912216 0.664982
O O9 0.846730 0.896760 0.218817
O O10 0.825632 0.802489 0.319874
O O11 0.865528 0.601560 0.238093
O O12 0.000000 0.796919 0.273441
O O13 0.867173 0.626620 0.423275
O O14 0.902657 0.364454 0.466597
O O15 0.000000 0.453746 0.377958
O O16 0.690389 0.147500 0.987857
O O17 0.846715 0.000000 0.000000
O O18 0.500000 0.440354 0.309295
O O19 0.000000 0.187677 0.533475
#
# Coordination Sequence:
#
# PCOD8220927 Si02
#       8
#     8   8   8   8   8   8   8   8
#     4  10  21  39  58  81 124 177 210 241 297 365
#     4  11  21  34  58  94 126 162 207 259 304 354
#     4   9  20  42  67  87 114 155 202 259 324 385
#     4   8  15  29  49  76 111 153 198 245 297 340
#     4  10  20  38  62  88 119 158 201 244 317 386
#     4  11  21  34  50  86 134 173 216 248 292 363
#     4   9  20  38  62  89 116 155 208 263 313 366
#     4   8  15  29  49  69 104 162 212 248 289 334
#
# _framework density 22.179570999999999
#
# number of rings (size 3 to 8) (size 9 to 14) (size 15 to 20)
#    0.000    2.500    1.250    2.625    0.000    4.000 
#    0.000    6.875    0.000    9.000    0.000    0.000 
#    0.000    0.000    0.000    0.000    0.000    0.000 
#
# Total GULP energy -792995.536127 kJ/mol
# GULP energy per Si atom -12390.555252 kJ/mol
# Density = 2.212909 g / cm^3
# Si number density = 22.179571 Si / 1000 Ang^3
#
#
#
# Elastic Constant Matrix: (Units=GPa)
#
#
# Indices 1 2 3 4 5 6 
#
# 1 111.1119 36.1925 34.5191 0.0000 0.0000 0.0000
# 2 36.1925 79.2447 27.2382 0.0000 0.0000 0.0000
# 3 34.5191 27.2382 53.1669 0.0000 0.0000 0.0000
# 4 0.0000 0.0000 0.0000 22.5027 0.0000 0.0000
# 5 0.0000 0.0000 0.0000 0.0000 16.7833 0.0000
# 6 0.0000 0.0000 0.0000 0.0000 0.0000 24.7936
#
#
#
# Elastic Compliance Matrix: (Units=1/GPa)
#
#
# Indices 1 2 3 4 5 6 
#
# 1 0.011983 -0.003397 -0.006040 0.000000 0.000000 0.000000
# 2 -0.003397 0.016279 -0.006135 0.000000 0.000000 0.000000
# 3 -0.006040 -0.006135 0.025873 0.000000 0.000000 0.000000
# 4 0.000000 0.000000 0.000000 0.044439 0.000000 0.000000
# 5 0.000000 0.000000 0.000000 0.000000 0.059583 0.000000
# 6 0.000000 0.000000 0.000000 0.000000 0.000000 0.040333
#
#
# Mechanical properties :
#
#
# Convention : Reuss Voigt Hill
#
# Bulk Modulus (GPa) = 43.49239 48.82481 46.15860
# Shear Modulus (GPa) = 21.07070 22.52082 21.79576
#
# Velocity S-wave (km/s) = 3.08556 3.18997 3.13820
# Velocity P-wave (km/s) = 5.68736 5.96901 5.82988
#
# Compressibility (1/GPa) = 0.02299253
#
# Stress axis : x y z
#
# Youngs Moduli (GPa) = 83.45355 61.42836 38.65045
#
# Poissons Ratio (x) = 0.20866 0.23344
# Poissons Ratio (y) = 0.28347 0.23711
# Poissons Ratio (z) = 0.50403 0.37684
#
# Static dielectric constant tensor:
#      x y z
#    x 4.322930 0.000000 0.000000 
#    y 0.000000 3.718680 0.000000 
#    z 0.000000 0.000000 3.872090 
# 
# 
# High freq. dielectric constant tensor:
#      x y z
#    x 1.873870 0.000000 0.000000 
#    y 0.000000 1.848170 0.000000 
#    z 0.000000 0.000000 1.858850 
# 
# From -- ./inp_files/35330.got.cif
#   From: 2010.03.12/outbox.cif.g09.slc.cpg/sg53_18_cif.got.tgz:35330.got - 2010.04.16 14:36:59.
