data_PCOD8220051
_publ_section_title
;
Structure prediction by ZEFSAII (Michael W. Deem and Ramdas Pophale) SiO2 
 PCOD8220051
Probable space group: P M N A
;
_chemical_formula_sum "Si O2"
_cell_formula_units_Z 64
_cell_length_a 8.725105
_cell_length_b 16.225251
_cell_length_c 24.179271
_cell_angle_alpha 90.000000
_cell_angle_beta 90.000000
_cell_angle_gamma 90.000000
_cell_volume 3422.987308
_symmetry_space_group_name_H-M "P M N A"
_symmetry_group_IT_number 53
_symmetry_cell_setting 'orthorhombic'
loop_
_space_group_symop_operation_xyz
x,y,z
1/2-x,-y,1/2+z
x,-y,-z
1/2-x,y,1/2-z
-x,-y,-z
1/2+x,y,1/2-z
-x,y,z
1/2+x,-y,1/2+z
loop_
_atom_site_type_symbol
_atom_site_label
_atom_site_fract_x
_atom_site_fract_y
_atom_site_fract_z
Si Si1 0.827691 0.617940 0.403654
Si Si2 0.317835 0.980585 0.691829
Si Si3 0.318109 0.715290 0.587323
Si Si4 0.179579 0.465913 0.057235
Si Si5 0.818077 0.882117 0.379070
Si Si6 0.671044 0.264793 0.805924
Si Si7 0.181298 0.769800 0.478292
Si Si8 0.317292 0.198837 0.192127
O O1 0.723583 0.536418 0.399067
O O2 0.822493 0.654030 0.342613
O O3 0.764768 0.686362 0.446925
O O4 0.000000 0.593220 0.420242
O O5 0.250000 0.015569 0.750000
O O6 0.500000 0.976761 0.696490
O O7 0.251258 0.890782 0.680113
O O8 0.268537 0.034858 0.638719
O O9 0.500000 0.719686 0.595712
O O10 0.255591 0.623276 0.574091
O O11 0.269379 0.775135 0.536664
O O12 0.234135 0.741092 0.643278
O O13 0.000000 0.456662 0.051608
O O14 0.252319 0.500000 0.000000
O O15 0.753994 0.812531 0.337342
O O16 0.777200 0.850704 0.441271
O O17 0.000000 0.894795 0.374335
O O18 0.750000 0.288549 0.750000
O O19 0.500000 0.238185 0.792098
O O20 0.000000 0.767286 0.488255
O O21 0.250000 0.233169 0.250000
O O22 0.500000 0.193958 0.195635
#
# Coordination Sequence:
#
# PCOD8220051 Si02
#       8
#     8   8   8   8   8   8   8   8
#     4   9  18  32  50  74 105 140 182 226 267 316
#     4  11  21  35  57  84 112 144 186 230 276 325
#     4  11  22  37  58  84 115 145 182 227 275 331
#     4  10  20  34  53  81 111 140 176 222 271 320
#     4   9  18  33  52  78 113 146 184 229 272 321
#     4   9  18  31  47  71 104 143 182 221 266 318
#     4   9  18  33  53  79 112 149 184 224 274 325
#     4  11  23  42  65  86 110 141 182 227 279 329
#
# _framework density 18.697120000000002
#
# number of rings (size 3 to 8) (size 9 to 14) (size 15 to 20)
#    0.000    2.125    1.250    5.250    0.000    3.750 
#    0.000    3.750    0.000    5.250    0.000    0.000 
#    0.000    0.000    0.000    0.000    0.000    0.000 
#
# Total GULP energy -793380.651832 kJ/mol
# GULP energy per Si atom -12396.572685 kJ/mol
# Density = 1.865456 g / cm^3
# Si number density = 18.697120 Si / 1000 Ang^3
#
#
#
# Elastic Constant Matrix: (Units=GPa)
#
#
# Indices 1 2 3 4 5 6 
#
# 1 84.4994 39.5395 48.0059 0.0000 0.0000 0.0000
# 2 39.5395 93.5864 56.6155 0.0000 0.0000 0.0000
# 3 48.0059 56.6155 125.2119 0.0000 0.0000 0.0000
# 4 0.0000 0.0000 0.0000 54.4414 0.0000 0.0000
# 5 0.0000 0.0000 0.0000 0.0000 33.1494 0.0000
# 6 0.0000 0.0000 0.0000 0.0000 0.0000 28.1419
#
#
#
# Elastic Compliance Matrix: (Units=1/GPa)
#
#
# Indices 1 2 3 4 5 6 
#
# 1 0.016282 -0.004271 -0.004311 0.000000 0.000000 0.000000
# 2 -0.004271 0.015829 -0.005520 0.000000 0.000000 0.000000
# 3 -0.004311 -0.005520 0.012135 0.000000 0.000000 0.000000
# 4 0.000000 0.000000 0.000000 0.018368 0.000000 0.000000
# 5 0.000000 0.000000 0.000000 0.000000 0.030166 0.000000
# 6 0.000000 0.000000 0.000000 0.000000 0.000000 0.035534
#
#
# Mechanical properties :
#
#
# Convention : Reuss Voigt Hill
#
# Bulk Modulus (GPa) = 62.33521 65.73551 64.03536
# Shear Modulus (GPa) = 30.88954 33.75566 32.32260
#
# Velocity S-wave (km/s) = 4.06901 4.25360 4.16233
# Velocity P-wave (km/s) = 7.44901 7.70445 7.57781
#
# Compressibility (1/GPa) = 0.01604230
#
# Stress axis : x y z
#
# Youngs Moduli (GPa) = 61.41639 63.17560 82.40462
#
# Poissons Ratio (x) = 0.26982 0.35529
# Poissons Ratio (y) = 0.26230 0.45485
# Poissons Ratio (z) = 0.26480 0.34871
#
# Static dielectric constant tensor:
#      x y z
#    x 3.316720 0.000000 0.000000 
#    y 0.000000 3.402160 0.000000 
#    z 0.000000 0.000000 3.367950 
# 
# 
# High freq. dielectric constant tensor:
#      x y z
#    x 1.721870 0.000000 0.000000 
#    y 0.000000 1.715690 0.000000 
#    z 0.000000 0.000000 1.720490 
# 
# From -- ./inp_files/34203.got.cif
#   From: 2010.03.12/outbox.cif.g09.slc.cpg/sg53_18_cif.got.tgz:34203.got - 2010.04.16 14:36:59.
