data_PCOD8220315
_publ_section_title
;
Structure prediction by ZEFSAII (Michael W. Deem and Ramdas Pophale) SiO2 
 PCOD8220315
Probable space group: P M N A
;
_chemical_formula_sum "Si O2"
_cell_formula_units_Z 48
_cell_length_a 8.860620
_cell_length_b 12.633800
_cell_length_c 23.345737
_cell_angle_alpha 90.000000
_cell_angle_beta 90.000000
_cell_angle_gamma 90.000000
_cell_volume 2613.398863
_symmetry_space_group_name_H-M "P M N A"
_symmetry_group_IT_number 53
_symmetry_cell_setting 'orthorhombic'
loop_
_space_group_symop_operation_xyz
x,y,z
1/2-x,-y,1/2+z
x,-y,-z
1/2-x,y,1/2-z
-x,-y,-z
1/2+x,y,1/2-z
-x,y,z
1/2+x,-y,1/2+z
loop_
_atom_site_type_symbol
_atom_site_label
_atom_site_fract_x
_atom_site_fract_y
_atom_site_fract_z
Si Si1 0.674740 0.310492 0.872433
Si Si2 0.179234 0.119853 0.188941
Si Si3 0.677872 0.620037 0.002915
Si Si4 0.822031 0.498229 0.810108
Si Si5 0.823662 0.901928 0.309764
Si Si6 0.322413 0.687796 0.609634
O O1 0.500000 0.341960 0.865180
O O2 0.770205 0.382469 0.829499
O O3 0.703534 0.188615 0.856732
O O4 0.729235 0.328051 0.937349
O O5 0.250000 0.150008 0.250000
O O6 0.229664 0.207872 0.143430
O O7 0.000000 0.113631 0.195330
O O8 0.244099 0.007943 0.167019
O O9 0.500000 0.621729 0.995303
O O10 0.748248 0.690310 0.952702
O O11 0.739947 0.500000 0.000000
O O12 0.750000 0.529580 0.750000
O O13 0.766173 0.584134 0.856354
O O14 0.000000 0.499944 0.802709
O O15 0.750000 0.865861 0.250000
O O16 0.000000 0.923826 0.299549
O O17 0.500000 0.685383 0.601795
#
# Coordination Sequence:
#
# PCOD8220315 Si02
#       6
#     8   8   8   8   8   8
#     4  10  21  37  55  80 110 141 181 224 269 322
#     4  10  20  36  57  81 110 142 181 223 271 324
#     4  10  20  36  58  80 106 145 186 224 268 319
#     4  11  22  34  52  79 110 141 175 218 271 324
#     4  10  20  35  56  80 109 141 178 221 269 322
#     4  10  22  37  54  80 110 142 180 223 269 322
#
# _framework density 18.366886000000001
#
# number of rings (size 3 to 8) (size 9 to 14) (size 15 to 20)
#    0.000    1.833    1.667    3.500    0.000    5.667 
#    0.000    0.833    0.000    5.000    0.000    0.000 
#    0.000    0.000    0.000    0.000    0.000    0.000 
#
# Total GULP energy -595404.812203 kJ/mol
# GULP energy per Si atom -12404.266921 kJ/mol
# Density = 1.832508 g / cm^3
# Si number density = 18.366886 Si / 1000 Ang^3
#
#
#
# Elastic Constant Matrix: (Units=GPa)
#
#
# Indices 1 2 3 4 5 6 
#
# 1 64.1079 36.2118 35.0526 0.0000 0.0000 0.0000
# 2 36.2118 113.8684 57.0027 0.0000 0.0000 0.0000
# 3 35.0526 57.0027 113.0407 0.0000 0.0000 0.0000
# 4 0.0000 0.0000 0.0000 34.4395 0.0000 0.0000
# 5 0.0000 0.0000 0.0000 0.0000 32.0625 0.0000
# 6 0.0000 0.0000 0.0000 0.0000 0.0000 19.7130
#
#
#
# Elastic Compliance Matrix: (Units=1/GPa)
#
#
# Indices 1 2 3 4 5 6 
#
# 1 0.020324 -0.004426 -0.004071 0.000000 0.000000 0.000000
# 2 -0.004426 0.012711 -0.005038 0.000000 0.000000 0.000000
# 3 -0.004071 -0.005038 0.012649 0.000000 0.000000 0.000000
# 4 0.000000 0.000000 0.000000 0.029036 0.000000 0.000000
# 5 0.000000 0.000000 0.000000 0.000000 0.031189 0.000000
# 6 0.000000 0.000000 0.000000 0.000000 0.000000 0.050728
#
#
# Mechanical properties :
#
#
# Convention : Reuss Voigt Hill
#
# Bulk Modulus (GPa) = 53.71481 60.83903 57.27692
# Shear Modulus (GPa) = 26.32810 28.09299 27.21055
#
# Velocity S-wave (km/s) = 3.79021 3.91518 3.85320
# Velocity P-wave (km/s) = 6.96155 7.32355 7.14484
#
# Compressibility (1/GPa) = 0.01861684
#
# Stress axis : x y z
#
# Youngs Moduli (GPa) = 49.20218 78.67013 79.05832
#
# Poissons Ratio (x) = 0.34817 0.32182
# Poissons Ratio (y) = 0.21775 0.39826
# Poissons Ratio (z) = 0.20028 0.39630
#
# Static dielectric constant tensor:
#      x y z
#    x 3.354020 0.000000 0.000000 
#    y 0.000000 3.437480 0.000000 
#    z 0.000000 0.000000 3.408000 
# 
# 
# High freq. dielectric constant tensor:
#      x y z
#    x 1.715450 0.000000 0.000000 
#    y 0.000000 1.713790 0.000000 
#    z 0.000000 0.000000 1.710710 
# 
# From -- ./inp_files/33861.got.cif
#   From: 2010.03.12/outbox.cif.g09.slc.cpg/sg53_17_cif.got.tgz:33861.got - 2010.04.16 14:36:59.
