data_PCOD8220058
_publ_section_title
;
Structure prediction by ZEFSAII (Michael W. Deem and Ramdas Pophale) SiO2 
 PCOD8220058
Probable space group: P M N A
;
_chemical_formula_sum "Si O2"
_cell_formula_units_Z 32
_cell_length_a 24.927553
_cell_length_b 14.172874
_cell_length_c 4.970370
_cell_angle_alpha 90.000000
_cell_angle_beta 90.000000
_cell_angle_gamma 90.000000
_cell_volume 1756.007206
_symmetry_space_group_name_H-M "P M N A"
_symmetry_group_IT_number 53
_symmetry_cell_setting 'orthorhombic'
loop_
_space_group_symop_operation_xyz
x,y,z
1/2-x,-y,1/2+z
x,-y,-z
1/2-x,y,1/2-z
-x,-y,-z
1/2+x,y,1/2-z
-x,y,z
1/2+x,-y,1/2+z
loop_
_atom_site_type_symbol
_atom_site_label
_atom_site_fract_x
_atom_site_fract_y
_atom_site_fract_z
Si Si1 0.786349 0.500000 0.000000
Si Si2 0.845278 0.799589 0.285060
Si Si3 0.313126 0.690653 0.722270
Si Si4 0.250000 0.062590 0.750000
Si Si5 0.439828 0.936343 0.259100
O O1 0.750000 0.538525 0.250000
O O2 0.823542 0.416035 0.116755
O O3 0.841671 0.711626 0.492797
O O4 0.799556 0.875390 0.357864
O O5 0.903862 0.845099 0.297748
O O6 0.837127 0.764658 0.984144
O O7 0.250000 0.705771 0.750000
O O8 0.269944 0.000000 0.500000
O O9 0.500000 0.901331 0.331823
O O10 0.415908 0.000000 0.500000
O O11 0.440680 0.000000 0.000000
#
# Coordination Sequence:
#
# PCOD8220058 Si02
#       5
#     4   8   8   4   8
#     4  10  20  34  54  76 107 146 177 210 268 320
#     4  12  21  34  53  77 107 140 177 219 262 313
#     4  11  20  35  51  79 109 139 172 217 261 326
#     4  12  22  32  46  70 108 142 168 202 260 320
#     4  10  21  38  56  75 102 140 187 230 261 299
#
# _framework density 18.223161000000001
#
# number of rings (size 3 to 8) (size 9 to 14) (size 15 to 20)
#    0.000    1.000    2.500    7.500    0.000    0.000 
#    0.000    0.000    0.000    0.000    0.000    5.250 
#    0.000    0.000    0.000    0.000    0.000    0.000 
#
# Total GULP energy -396873.305624 kJ/mol
# GULP energy per Si atom -12402.290801 kJ/mol
# Density = 1.818168 g / cm^3
# Si number density = 18.223161 Si / 1000 Ang^3
#
#
#
# Elastic Constant Matrix: (Units=GPa)
#
#
# Indices 1 2 3 4 5 6 
#
# 1 83.8273 42.6494 14.4124 0.0000 0.0000 0.0000
# 2 42.6494 92.4381 23.1537 0.0000 0.0000 0.0000
# 3 14.4124 23.1537 97.9261 0.0000 0.0000 0.0000
# 4 0.0000 0.0000 0.0000 45.4784 0.0000 0.0000
# 5 0.0000 0.0000 0.0000 0.0000 24.1843 0.0000
# 6 0.0000 0.0000 0.0000 0.0000 0.0000 33.1914
#
#
#
# Elastic Compliance Matrix: (Units=1/GPa)
#
#
# Indices 1 2 3 4 5 6 
#
# 1 0.015625 -0.007051 -0.000633 0.000000 0.000000 0.000000
# 2 -0.007051 0.014681 -0.002433 0.000000 0.000000 0.000000
# 3 -0.000633 -0.002433 0.010880 0.000000 0.000000 0.000000
# 4 0.000000 0.000000 0.000000 0.021988 0.000000 0.000000
# 5 0.000000 0.000000 0.000000 0.000000 0.041349 0.000000
# 6 0.000000 0.000000 0.000000 0.000000 0.000000 0.030128
#
#
# Mechanical properties :
#
#
# Convention : Reuss Voigt Hill
#
# Bulk Modulus (GPa) = 47.72660 48.29139 48.00899
# Shear Modulus (GPa) = 30.88898 33.50255 32.19576
#
# Velocity S-wave (km/s) = 4.12155 4.29238 4.20783
# Velocity P-wave (km/s) = 6.99261 7.15007 7.07178
#
# Compressibility (1/GPa) = 0.02095267
#
# Stress axis : x y z
#
# Youngs Moduli (GPa) = 63.99859 68.11663 91.90972
#
# Poissons Ratio (x) = 0.48028 0.05814
# Poissons Ratio (y) = 0.45124 0.22365
# Poissons Ratio (z) = 0.04048 0.16576
#
# Static dielectric constant tensor:
#      x y z
#    x 3.220060 0.000000 0.000000 
#    y 0.000000 3.413310 0.000000 
#    z 0.000000 0.000000 3.893570 
# 
# 
# High freq. dielectric constant tensor:
#      x y z
#    x 1.661990 0.000000 0.000000 
#    y 0.000000 1.698630 0.000000 
#    z 0.000000 0.000000 1.735920 
# 
# From -- ./inp_files/3565.got.cif
#   From: 2010.03.12/outbox.cif.g09.slc.cpg/sg53_2_cif.got.tgz:3565.got - 2010.04.16 14:36:59.
