data_PCOD8220793
_publ_section_title
;
Structure prediction by ZEFSAII (Michael W. Deem and Ramdas Pophale) SiO2 
 PCOD8220793
Probable space group: P M N A
;
_chemical_formula_sum "Si O2"
_cell_formula_units_Z 40
_cell_length_a 8.809715
_cell_length_b 9.039015
_cell_length_c 25.533508
_cell_angle_alpha 90.000000
_cell_angle_beta 90.000000
_cell_angle_gamma 90.000000
_cell_volume 2033.262504
_symmetry_space_group_name_H-M "P M N A"
_symmetry_group_IT_number 53
_symmetry_cell_setting 'orthorhombic'
loop_
_space_group_symop_operation_xyz
x,y,z
1/2-x,-y,1/2+z
x,-y,-z
1/2-x,y,1/2-z
-x,-y,-z
1/2+x,y,1/2-z
-x,y,z
1/2+x,-y,1/2+z
loop_
_atom_site_type_symbol
_atom_site_label
_atom_site_fract_x
_atom_site_fract_y
_atom_site_fract_z
Si Si1 0.325460 0.672690 0.503957
Si Si2 0.822947 0.843761 0.100969
Si Si3 0.678938 0.322925 0.803982
Si Si4 0.178763 0.341715 0.303764
Si Si5 0.678313 0.842172 0.903981
O O1 0.294295 0.500000 0.500000
O O2 0.500000 0.707074 0.518865
O O3 0.281870 0.744487 0.448797
O O4 0.214094 0.735680 0.547739
O O5 0.731635 0.783885 0.150223
O O6 0.000000 0.838552 0.113917
O O7 0.772882 0.009494 0.088549
O O8 0.750000 0.264388 0.750000
O O9 0.500000 0.313788 0.799119
O O10 0.734564 0.490750 0.815155
O O11 0.250000 0.280873 0.250000
O O12 0.233325 0.237697 0.350885
O O13 0.000000 0.337703 0.297572
O O14 0.500000 0.876985 0.902695
#
# Coordination Sequence:
#
# PCOD8220793 Si02
#       5
#     8   8   8   8   8
#     4  10  22  40  61  84 111 146 189 235 284 340
#     4  11  23  38  57  83 115 150 188 231 281 336
#     4  10  20  37  60  85 113 146 187 232 279 331
#     4   9  20  37  58  84 112 145 186 231 277 329
#     4  11  23  38  57  84 117 150 187 233 284 337
#
# _framework density 19.672816999999998
#
# number of rings (size 3 to 8) (size 9 to 14) (size 15 to 20)
#    0.000    1.800    0.000    3.600    0.000    7.600 
#    0.000    2.000    0.000    0.000    0.000    0.000 
#    0.000    0.000    0.000    0.000    0.000    0.000 
#
# Total GULP energy -496244.113432 kJ/mol
# GULP energy per Si atom -12406.102836 kJ/mol
# Density = 1.962804 g / cm^3
# Si number density = 19.672817 Si / 1000 Ang^3
#
#
#
# Elastic Constant Matrix: (Units=GPa)
#
#
# Indices 1 2 3 4 5 6 
#
# 1 50.8947 22.0615 42.4095 0.0000 0.0000 0.0000
# 2 22.0615 101.1410 59.4680 0.0000 0.0000 0.0000
# 3 42.4095 59.4680 136.3043 0.0000 0.0000 0.0000
# 4 0.0000 0.0000 0.0000 -7.2806 0.0000 0.0000
# 5 0.0000 0.0000 0.0000 0.0000 36.7095 0.0000
# 6 0.0000 0.0000 0.0000 0.0000 0.0000 30.0483
#
#
#
# Elastic Compliance Matrix: (Units=1/GPa)
#
#
# Indices 1 2 3 4 5 6 
#
# 1 0.026645 -0.001261 -0.007740 0.000000 0.000000 0.000000
# 2 -0.001261 0.013358 -0.005436 0.000000 0.000000 0.000000
# 3 -0.007740 -0.005436 0.012116 0.000000 0.000000 0.000000
# 4 0.000000 0.000000 0.000000 -0.137352 0.000000 0.000000
# 5 0.000000 0.000000 0.000000 0.000000 0.027241 0.000000
# 6 0.000000 0.000000 0.000000 0.000000 0.000000 0.033280
#
#
# Mechanical properties :
#
#
# Convention : Reuss Voigt Hill
#
# Bulk Modulus (GPa) = 43.01862 59.57978 51.29920
# Shear Modulus (GPa) = 419.81229 22.85551 221.33390
#
# Velocity S-wave (km/s) = 14.62397 3.41219 10.61846
# Velocity P-wave (km/s) = 17.52318 6.77312 13.28414
#
# Compressibility (1/GPa) = 0.02324575
#
# Stress axis : x y z
#
# Youngs Moduli (GPa) = 37.53103 74.85986 82.53360
#
# Poissons Ratio (x) = 0.09440 0.63881
# Poissons Ratio (y) = 0.04733 0.44863
# Poissons Ratio (z) = 0.29049 0.40692
#
# Static dielectric constant tensor:
#      x y z
#    x 3.528530 0.000000 0.000000 
#    y 0.000000 3.656080 0.000000 
#    z 0.000000 0.000000 3.680030 
# 
# 
# High freq. dielectric constant tensor:
#      x y z
#    x 1.768860 0.000000 0.000000 
#    y 0.000000 1.771700 0.000000 
#    z 0.000000 0.000000 1.779430 
# 
# From -- ./inp_files/33602.got.cif
#   From: 2010.03.12/outbox.cif.g09.slc.cpg/sg53_17_cif.got.tgz:33602.got - 2010.04.16 14:36:59.
