data_PCOD8220847
_publ_section_title
;
Structure prediction by ZEFSAII (Michael W. Deem and Ramdas Pophale) SiO2 
 PCOD8220847
Probable space group: P M N A
;
_chemical_formula_sum "Si O2"
_cell_formula_units_Z 56
_cell_length_a 14.432849
_cell_length_b 15.275706
_cell_length_c 11.383747
_cell_angle_alpha 90.000000
_cell_angle_beta 90.000000
_cell_angle_gamma 90.000000
_cell_volume 2509.796991
_symmetry_space_group_name_H-M "P M N A"
_symmetry_group_IT_number 53
_symmetry_cell_setting 'orthorhombic'
loop_
_space_group_symop_operation_xyz
x,y,z
1/2-x,-y,1/2+z
x,-y,-z
1/2-x,y,1/2-z
-x,-y,-z
1/2+x,y,1/2-z
-x,y,z
1/2+x,-y,1/2+z
loop_
_atom_site_type_symbol
_atom_site_label
_atom_site_fract_x
_atom_site_fract_y
_atom_site_fract_z
Si Si1 0.896357 0.328296 0.218334
Si Si2 0.891174 0.484868 0.870345
Si Si3 0.105110 0.740318 0.530748
Si Si4 0.710942 0.181212 0.416034
Si Si5 0.601232 0.332318 0.789397
Si Si6 0.602344 0.021685 0.363722
Si Si7 0.342696 0.835191 0.320688
O O1 0.868064 0.427906 0.199866
O O2 0.896261 0.322366 0.358151
O O3 0.821412 0.266665 0.155086
O O4 0.000000 0.307679 0.168563
O O5 0.846402 0.403013 0.795567
O O6 0.000000 0.465510 0.885330
O O7 0.847205 0.500000 0.000000
O O8 0.177792 0.818608 0.561973
O O9 0.145771 0.686026 0.418554
O O10 0.000000 0.776974 0.505928
O O11 0.678915 0.096949 0.338856
O O12 0.661319 0.177189 0.540498
O O13 0.500000 0.371684 0.815039
O O14 0.587963 0.239159 0.724230
O O15 0.500000 0.055783 0.326594
O O16 0.604147 0.000000 0.500000
O O17 0.624401 0.933725 0.289961
O O18 0.250000 0.814883 0.250000
#
# Coordination Sequence:
#
# PCOD8220847 Si02
#       7
#     8   8   8   8   8   8   8
#     4  10  21  37  62  91 122 162 212 266 322 377
#     4   9  18  34  59  93 124 157 205 261 320 376
#     4  10  22  39  60  88 124 172 218 253 312 389
#     4  11  21  39  64  88 127 161 209 266 317 372
#     4  10  20  37  62  88 126 170 209 261 322 382
#     4   9  20  37  61  92 120 154 202 256 320 380
#     4  11  21  36  59  91 126 161 208 262 319 381
#
# _framework density 22.312560000000001
#
# number of rings (size 3 to 8) (size 9 to 14) (size 15 to 20)
#    0.000    2.000    1.429    2.143    0.000    4.571 
#    0.000    4.286    3.143    4.714    0.000    0.000 
#    0.000    0.000    0.000    0.000    0.000    0.000 
#
# Total GULP energy -693832.053112 kJ/mol
# GULP energy per Si atom -12389.858091 kJ/mol
# Density = 2.226178 g / cm^3
# Si number density = 22.312560 Si / 1000 Ang^3
#
#
#
# Elastic Constant Matrix: (Units=GPa)
#
#
# Indices 1 2 3 4 5 6 
#
# 1 91.6165 47.9325 22.8913 0.0000 0.0000 0.0000
# 2 47.9325 164.7301 56.7194 0.0000 0.0000 0.0000
# 3 22.8913 56.7194 116.3808 0.0000 0.0000 0.0000
# 4 0.0000 0.0000 0.0000 19.8095 0.0000 0.0000
# 5 0.0000 0.0000 0.0000 0.0000 20.1792 0.0000
# 6 0.0000 0.0000 0.0000 0.0000 0.0000 16.6118
#
#
#
# Elastic Compliance Matrix: (Units=1/GPa)
#
#
# Indices 1 2 3 4 5 6 
#
# 1 0.012945 -0.003473 -0.000854 0.000000 0.000000 0.000000
# 2 -0.003473 0.008226 -0.003326 0.000000 0.000000 0.000000
# 3 -0.000854 -0.003326 0.010381 0.000000 0.000000 0.000000
# 4 0.000000 0.000000 0.000000 0.050481 0.000000 0.000000
# 5 0.000000 0.000000 0.000000 0.000000 0.049556 0.000000
# 6 0.000000 0.000000 0.000000 0.000000 0.000000 0.060198
#
#
# Mechanical properties :
#
#
# Convention : Reuss Voigt Hill
#
# Bulk Modulus (GPa) = 61.54712 69.75708 65.65210
# Shear Modulus (GPa) = 23.52839 27.66571 25.59705
#
# Velocity S-wave (km/s) = 3.25082 3.52506 3.39071
# Velocity P-wave (km/s) = 6.46021 6.92095 6.69455
#
# Compressibility (1/GPa) = 0.01624771
#
# Stress axis : x y z
#
# Youngs Moduli (GPa) = 77.24809 121.56184 96.32610
#
# Poissons Ratio (x) = 0.42216 0.08224
# Poissons Ratio (y) = 0.26827 0.32039
# Poissons Ratio (z) = 0.06595 0.40432
#
# Static dielectric constant tensor:
#      x y z
#    x 4.015330 0.000000 0.000000 
#    y 0.000000 4.096880 0.000000 
#    z 0.000000 0.000000 4.126870 
# 
# 
# High freq. dielectric constant tensor:
#      x y z
#    x 1.866330 0.000000 0.000000 
#    y 0.000000 1.864820 0.000000 
#    z 0.000000 0.000000 1.881980 
# 
# From -- ./inp_files/16062.got.cif
#   From: 2010.03.12/outbox.cif.g09.slc.cpg/sg53_9_cif.got.tgz:16062.got - 2010.04.16 14:36:59.
