data_PCOD8220410
_publ_section_title
;
Structure prediction by ZEFSAII (Michael W. Deem and Ramdas Pophale) SiO2 
 PCOD8220410
Probable space group: P M N A
;
_chemical_formula_sum "Si O2"
_cell_formula_units_Z 64
_cell_length_a 8.815995
_cell_length_b 20.726408
_cell_length_c 18.509066
_cell_angle_alpha 90.000000
_cell_angle_beta 90.000000
_cell_angle_gamma 90.000000
_cell_volume 3382.048897
_symmetry_space_group_name_H-M "P M N A"
_symmetry_group_IT_number 53
_symmetry_cell_setting 'orthorhombic'
loop_
_space_group_symop_operation_xyz
x,y,z
1/2-x,-y,1/2+z
x,-y,-z
1/2-x,y,1/2-z
-x,-y,-z
1/2+x,y,1/2-z
-x,y,z
1/2+x,-y,1/2+z
loop_
_atom_site_type_symbol
_atom_site_label
_atom_site_fract_x
_atom_site_fract_y
_atom_site_fract_z
Si Si1 0.821473 0.117968 0.828393
Si Si2 0.675016 0.100647 0.324209
Si Si3 0.324892 0.003213 0.915378
Si Si4 0.178086 0.567700 0.034931
Si Si5 0.322537 0.311450 0.035669
Si Si6 0.825330 0.243621 0.609984
Si Si7 0.677408 0.618727 0.174279
Si Si8 0.675843 0.251673 0.325096
O O1 0.750000 0.108674 0.750000
O O2 0.766192 0.062508 0.881928
O O3 0.780898 0.186852 0.862381
O O4 0.000000 0.113277 0.819845
O O5 0.750000 0.077518 0.250000
O O6 0.500000 0.080525 0.322853
O O7 0.697767 0.175987 0.336970
O O8 0.761427 0.064702 0.387902
O O9 0.500000 0.011162 0.894421
O O10 0.299355 0.000000 0.000000
O O11 0.254825 0.572276 0.113258
O O12 0.000000 0.575257 0.045225
O O13 0.223687 0.500000 0.000000
O O14 0.236389 0.622870 0.981600
O O15 0.500000 0.326759 0.038850
O O16 0.264663 0.287002 0.111926
O O17 0.289978 0.257808 0.974136
O O18 0.785942 0.306937 0.656335
O O19 0.000000 0.223135 0.620705
O O20 0.750000 0.599351 0.250000
O O21 0.500000 0.606277 0.177533
O O22 0.750000 0.273858 0.250000
O O23 0.500000 0.271419 0.325605
#
# Coordination Sequence:
#
# PCOD8220410 Si02
#       8
#     8   8   8   8   8   8   8   8
#     4  12  25  40  60  83 113 149 187 233 283 339
#     4  10  21  38  60  84 110 144 186 233 284 342
#     4  11  25  42  59  80 109 147 187 234 286 339
#     4  10  21  38  60  86 118 156 197 239 283 336
#     4  10  21  37  60  87 118 154 190 235 285 339
#     4   9  20  37  57  85 117 150 188 229 281 339
#     4  10  20  35  58  87 119 155 193 238 285 338
#     4  10  21  37  59  87 117 150 190 238 290 343
#
# _framework density 18.923438999999998
#
# number of rings (size 3 to 8) (size 9 to 14) (size 15 to 20)
#    0.000    1.750    0.000    4.875    1.750    7.500 
#    0.000    0.625    0.000    3.000    0.000    0.000 
#    0.000    0.000    0.000    0.000    0.000    0.000 
#
# Total GULP energy -793915.335148 kJ/mol
# GULP energy per Si atom -12404.927112 kJ/mol
# Density = 1.888037 g / cm^3
# Si number density = 18.923439 Si / 1000 Ang^3
#
#
#
# Elastic Constant Matrix: (Units=GPa)
#
#
# Indices 1 2 3 4 5 6 
#
# 1 97.3800 48.4227 67.7563 0.0000 0.0000 0.0000
# 2 48.4227 78.0735 57.8349 0.0000 0.0000 0.0000
# 3 67.7563 57.8349 138.8925 0.0000 0.0000 0.0000
# 4 0.0000 0.0000 0.0000 20.0779 0.0000 0.0000
# 5 0.0000 0.0000 0.0000 0.0000 37.8529 0.0000
# 6 0.0000 0.0000 0.0000 0.0000 0.0000 33.3411
#
#
#
# Elastic Compliance Matrix: (Units=1/GPa)
#
#
# Indices 1 2 3 4 5 6 
#
# 1 0.017617 -0.006594 -0.005849 0.000000 0.000000 0.000000
# 2 -0.006594 0.020990 -0.005523 0.000000 0.000000 0.000000
# 3 -0.005849 -0.005523 0.012353 0.000000 0.000000 0.000000
# 4 0.000000 0.000000 0.000000 0.049806 0.000000 0.000000
# 5 0.000000 0.000000 0.000000 0.000000 0.026418 0.000000
# 6 0.000000 0.000000 0.000000 0.000000 0.000000 0.029993
#
#
# Mechanical properties :
#
#
# Convention : Reuss Voigt Hill
#
# Bulk Modulus (GPa) = 66.54250 73.59708 70.06979
# Shear Modulus (GPa) = 25.23741 27.60985 26.42363
#
# Velocity S-wave (km/s) = 3.65589 3.82387 3.74082
# Velocity P-wave (km/s) = 7.28431 7.64673 7.46771
#
# Compressibility (1/GPa) = 0.01502799
#
# Stress axis : x y z
#
# Youngs Moduli (GPa) = 56.76202 47.64211 80.95321
#
# Poissons Ratio (x) = 0.31416 0.47346
# Poissons Ratio (y) = 0.37430 0.44713
# Poissons Ratio (z) = 0.33197 0.26314
#
# Static dielectric constant tensor:
#      x y z
#    x 3.616320 0.000000 0.000000 
#    y 0.000000 3.384500 0.000000 
#    z 0.000000 0.000000 3.564810 
# 
# 
# High freq. dielectric constant tensor:
#      x y z
#    x 1.752440 0.000000 0.000000 
#    y 0.000000 1.726370 0.000000 
#    z 0.000000 0.000000 1.746670 
# 
# From -- ./inp_files/26998.got.cif
#   From: 2010.03.12/outbox.cif.g09.slc.cpg/sg53_14_cif.got.tgz:26998.got - 2010.04.16 14:36:59.
