data_PCOD8220935
_publ_section_title
;
Structure prediction by ZEFSAII (Michael W. Deem and Ramdas Pophale) SiO2 
 PCOD8220935
Probable space group: P M N A
;
_chemical_formula_sum "Si O2"
_cell_formula_units_Z 32
_cell_length_a 18.222371
_cell_length_b 8.321166
_cell_length_c 10.188413
_cell_angle_alpha 90.000000
_cell_angle_beta 90.000000
_cell_angle_gamma 90.000000
_cell_volume 1544.883062
_symmetry_space_group_name_H-M "P M N A"
_symmetry_group_IT_number 53
_symmetry_cell_setting 'orthorhombic'
loop_
_space_group_symop_operation_xyz
x,y,z
1/2-x,-y,1/2+z
x,-y,-z
1/2-x,y,1/2-z
-x,-y,-z
1/2+x,y,1/2-z
-x,y,z
1/2+x,-y,1/2+z
loop_
_atom_site_type_symbol
_atom_site_label
_atom_site_fract_x
_atom_site_fract_y
_atom_site_fract_z
Si Si1 0.689302 0.719555 0.602939
Si Si2 0.585026 0.197781 0.884648
Si Si3 0.350491 0.148942 0.144016
Si Si4 0.678463 0.354443 0.681335
O O1 0.631610 0.795279 0.706932
O O2 0.766085 0.812747 0.611868
O O3 0.698705 0.535664 0.645481
O O4 0.659171 0.737551 0.454682
O O5 0.500000 0.161993 0.861903
O O6 0.610773 0.335866 0.782896
O O7 0.633631 0.039859 0.860287
O O8 0.599719 0.245820 0.037102
O O9 0.750000 0.276629 0.750000
#
# Coordination Sequence:
#
# PCOD8220935 Si02
#       4
#     8   8   8   8
#     4  10  22  36  65  98 115 155 212 264 312 339
#     4  11  25  41  61  91 129 172 202 246 316 378
#     4  10  20  38  62  91 128 153 210 257 301 366
#     4  11  21  40  64  92 126 157 209 261 303 371
#
# _framework density 20.713543000000001
#
# number of rings (size 3 to 8) (size 9 to 14) (size 15 to 20)
#    0.000    1.500    5.000    1.500    3.500    2.000 
#    0.000   10.000    0.000    0.000    0.000    0.000 
#    0.000    0.000    0.000    0.000    0.000    0.000 
#
# Total GULP energy -396547.144397 kJ/mol
# GULP energy per Si atom -12392.098262 kJ/mol
# Density = 2.066640 g / cm^3
# Si number density = 20.713543 Si / 1000 Ang^3
#
#
#
# Elastic Constant Matrix: (Units=GPa)
#
#
# Indices 1 2 3 4 5 6 
#
# 1 98.8729 46.6998 50.5786 0.0000 0.0000 0.0000
# 2 46.6998 50.2729 37.2957 0.0000 0.0000 0.0000
# 3 50.5786 37.2957 189.7638 0.0000 0.0000 0.0000
# 4 0.0000 0.0000 0.0000 33.1291 0.0000 0.0000
# 5 0.0000 0.0000 0.0000 0.0000 25.5380 0.0000
# 6 0.0000 0.0000 0.0000 0.0000 0.0000 5.0801
#
#
#
# Elastic Compliance Matrix: (Units=1/GPa)
#
#
# Indices 1 2 3 4 5 6 
#
# 1 0.018544 -0.015874 -0.001823 0.000000 0.000000 0.000000
# 2 -0.015874 0.036875 -0.003016 0.000000 0.000000 0.000000
# 3 -0.001823 -0.003016 0.006348 0.000000 0.000000 0.000000
# 4 0.000000 0.000000 0.000000 0.030185 0.000000 0.000000
# 5 0.000000 0.000000 0.000000 0.000000 0.039157 0.000000
# 6 0.000000 0.000000 0.000000 0.000000 0.000000 0.196848
#
#
# Mechanical properties :
#
#
# Convention : Reuss Voigt Hill
#
# Bulk Modulus (GPa) = 49.16120 67.56198 58.36159
# Shear Modulus (GPa) = 13.29209 26.37181 19.83195
#
# Velocity S-wave (km/s) = 2.53595 3.57202 3.09761
# Velocity P-wave (km/s) = 5.68859 7.04986 6.40549
#
# Compressibility (1/GPa) = 0.02034125
#
# Stress axis : x y z
#
# Youngs Moduli (GPa) = 53.92609 27.11896 157.52037
#
# Poissons Ratio (x) = 0.43048 0.28713
# Poissons Ratio (y) = 0.85600 0.47514
# Poissons Ratio (z) = 0.09830 0.08180
#
# Static dielectric constant tensor:
#      x y z
#    x 3.307650 0.000000 0.000000 
#    y 0.000000 3.518930 0.000000 
#    z 0.000000 0.000000 4.943840 
# 
# 
# High freq. dielectric constant tensor:
#      x y z
#    x 1.763560 0.000000 0.000000 
#    y 0.000000 1.795550 0.000000 
#    z 0.000000 0.000000 1.844940 
# 
# From -- ./inp_files/16533.got.cif
#   From: 2010.03.12/outbox.cif.g09.slc.cpg/sg53_9_cif.got.tgz:16533.got - 2010.04.16 14:36:59.
