data_PCOD8220276
_publ_section_title
;
Structure prediction by ZEFSAII (Michael W. Deem and Ramdas Pophale) SiO2 
 PCOD8220276
Probable space group: P M N A
;
_chemical_formula_sum "Si O2"
_cell_formula_units_Z 48
_cell_length_a 8.861721
_cell_length_b 30.919324
_cell_length_c 9.125083
_cell_angle_alpha 90.000000
_cell_angle_beta 90.000000
_cell_angle_gamma 90.000000
_cell_volume 2500.258350
_symmetry_space_group_name_H-M "P M N A"
_symmetry_group_IT_number 53
_symmetry_cell_setting 'orthorhombic'
loop_
_space_group_symop_operation_xyz
x,y,z
1/2-x,-y,1/2+z
x,-y,-z
1/2-x,y,1/2-z
-x,-y,-z
1/2+x,y,1/2-z
-x,y,z
1/2+x,-y,1/2+z
loop_
_atom_site_type_symbol
_atom_site_label
_atom_site_fract_x
_atom_site_fract_y
_atom_site_fract_z
Si Si1 0.678353 0.124241 0.908499
Si Si2 0.821013 0.711737 0.406248
Si Si3 0.821788 0.958652 0.591188
Si Si4 0.677312 0.205954 0.092547
Si Si5 0.177423 0.540339 0.906979
Si Si6 0.678834 0.622721 0.405686
O O1 0.750000 0.120821 0.750000
O O2 0.500000 0.124405 0.889043
O O3 0.733020 0.083890 0.005567
O O4 0.736282 0.167692 0.987804
O O5 0.750000 0.723830 0.250000
O O6 0.775589 0.748567 0.521210
O O7 0.750600 0.667108 0.466352
O O8 0.000000 0.707100 0.388278
O O9 0.750000 0.959425 0.750000
O O10 0.000000 0.959230 0.610672
O O11 0.765006 0.000000 0.500000
O O12 0.750000 0.201256 0.250000
O O13 0.500000 0.202330 0.112983
O O14 0.250000 0.538770 0.750000
O O15 0.000000 0.536485 0.888748
O O16 0.240429 0.500000 0.000000
O O17 0.224215 0.584989 0.983459
O O18 0.750000 0.610754 0.250000
O O19 0.500000 0.627998 0.388694
#
# Coordination Sequence:
#
# PCOD8220276 Si02
#       6
#     8   8   8   8   8   8
#     4  10  21  37  56  80 108 139 179 222 266 318
#     4  10  20  35  55  79 106 138 177 217 261 313
#     4  10  21  36  55  81 111 142 179 221 265 317
#     4  10  22  37  54  78 107 140 178 220 265 315
#     4  10  22  38  56  80 108 139 176 216 260 311
#     4  10  20  35  56  81 108 139 176 216 261 312
#
# _framework density 19.198017
#
# number of rings (size 3 to 8) (size 9 to 14) (size 15 to 20)
#    0.000    2.000    0.000    4.000    0.000    5.333 
#    0.000    3.333    0.000    0.000    0.000    0.000 
#    0.000    0.000    0.000    0.000    0.000    0.000 
#
# Total GULP energy -595358.242483 kJ/mol
# GULP energy per Si atom -12403.296718 kJ/mol
# Density = 1.915432 g / cm^3
# Si number density = 19.198017 Si / 1000 Ang^3
#
#
#
# Elastic Constant Matrix: (Units=GPa)
#
#
# Indices 1 2 3 4 5 6 
#
# 1 50.4070 53.0923 49.2301 0.0000 0.0000 0.0000
# 2 53.0923 175.5769 111.2879 0.0000 0.0000 0.0000
# 3 49.2301 111.2879 179.3007 0.0000 0.0000 0.0000
# 4 0.0000 0.0000 0.0000 42.0580 0.0000 0.0000
# 5 0.0000 0.0000 0.0000 0.0000 38.9409 0.0000
# 6 0.0000 0.0000 0.0000 0.0000 0.0000 18.4070
#
#
#
# Elastic Compliance Matrix: (Units=1/GPa)
#
#
# Indices 1 2 3 4 5 6 
#
# 1 0.031132 -0.006588 -0.004459 0.000000 0.000000 0.000000
# 2 -0.006588 0.010783 -0.004884 0.000000 0.000000 0.000000
# 3 -0.004459 -0.004884 0.009833 0.000000 0.000000 0.000000
# 4 0.000000 0.000000 0.000000 0.023777 0.000000 0.000000
# 5 0.000000 0.000000 0.000000 0.000000 0.025680 0.000000
# 6 0.000000 0.000000 0.000000 0.000000 0.000000 0.054327
#
#
# Mechanical properties :
#
#
# Convention : Reuss Voigt Hill
#
# Bulk Modulus (GPa) = 50.28510 92.50060 71.39285
# Shear Modulus (GPa) = 25.77015 32.65947 29.21481
#
# Velocity S-wave (km/s) = 3.66776 4.12902 3.90521
# Velocity P-wave (km/s) = 6.64728 8.42726 7.58963
#
# Compressibility (1/GPa) = 0.01988661
#
# Stress axis : x y z
#
# Youngs Moduli (GPa) = 32.12134 92.73549 101.69754
#
# Poissons Ratio (x) = 0.61090 0.45347
# Poissons Ratio (y) = 0.21160 0.49672
# Poissons Ratio (z) = 0.14323 0.45294
#
# Static dielectric constant tensor:
#      x y z
#    x 3.432090 0.000000 0.000000 
#    y 0.000000 3.952680 0.000000 
#    z 0.000000 0.000000 3.445400 
# 
# 
# High freq. dielectric constant tensor:
#      x y z
#    x 1.742200 0.000000 0.000000 
#    y 0.000000 1.768420 0.000000 
#    z 0.000000 0.000000 1.751820 
# 
# From -- ./inp_files/6643.got.cif
#   From: 2010.03.12/outbox.cif.g09.slc.cpg/sg53_4_cif.got.tgz:6643.got - 2010.04.16 14:36:59.
