data_PCOD8220700
_publ_section_title
;
Structure prediction by ZEFSAII (Michael W. Deem and Ramdas Pophale) SiO2 
 PCOD8220700
Probable space group: P M N A
;
_chemical_formula_sum "Si O2"
_cell_formula_units_Z 64
_cell_length_a 28.111513
_cell_length_b 11.771875
_cell_length_c 9.271451
_cell_angle_alpha 90.000000
_cell_angle_beta 90.000000
_cell_angle_gamma 90.000000
_cell_volume 3068.156935
_symmetry_space_group_name_H-M "P M N A"
_symmetry_group_IT_number 53
_symmetry_cell_setting 'orthorhombic'
loop_
_space_group_symop_operation_xyz
x,y,z
1/2-x,-y,1/2+z
x,-y,-z
1/2-x,y,1/2-z
-x,-y,-z
1/2+x,y,1/2-z
-x,y,z
1/2+x,-y,1/2+z
loop_
_atom_site_type_symbol
_atom_site_label
_atom_site_fract_x
_atom_site_fract_y
_atom_site_fract_z
Si Si1 0.873566 0.760966 0.001358
Si Si2 0.112643 0.097304 0.730648
Si Si3 0.446850 0.698763 0.105379
Si Si4 0.708850 0.988462 0.155637
Si Si5 0.584443 0.449928 0.646562
Si Si6 0.196261 0.758279 0.751009
Si Si7 0.126357 0.404467 0.391616
Si Si8 0.553513 0.085223 0.366302
O O1 0.868455 0.864904 0.112527
O O2 0.879237 0.645130 0.090049
O O3 0.826155 0.744193 0.909067
O O4 0.919502 0.796013 0.902685
O O5 0.078851 0.187903 0.655863
O O6 0.160596 0.083800 0.638238
O O7 0.083065 0.979533 0.741109
O O8 0.500000 0.729000 0.056627
O O9 0.450808 0.609267 0.238830
O O10 0.420458 0.646784 0.967425
O O11 0.750000 0.928010 0.250000
O O12 0.694995 0.108973 0.221135
O O13 0.732444 0.000000 0.000000
O O14 0.559412 0.500000 0.500000
O O15 0.613247 0.547500 0.732710
O O16 0.250000 0.710456 0.750000
O O17 0.166499 0.690545 0.629843
O O18 0.147250 0.500000 0.500000
O O19 0.500000 0.115952 0.313717
O O20 0.549672 0.000000 0.500000
#
# Coordination Sequence:
#
# PCOD8220700 Si02
#       8
#     8   8   8   8   8   8   8   8
#     4  10  20  36  61  92 127 158 204 266 310 369
#     4  10  20  37  64  88 128 167 209 254 309 373
#     4  10  22  40  64  92 126 169 211 258 321 384
#     4  11  25  39  65  94 129 169 211 256 312 380
#     4  10  20  37  64  87 122 160 207 265 315 375
#     4  11  23  40  65  92 127 162 210 264 322 372
#     4  10  22  43  66  87 126 162 209 262 326 378
#     4   9  17  31  55  87 123 164 202 244 304 368
#
# _framework density 20.859428000000001
#
# number of rings (size 3 to 8) (size 9 to 14) (size 15 to 20)
#    0.000    1.875    2.500    1.125    3.500    5.500 
#    2.250    0.625    0.000    1.500    0.000    0.000 
#    0.000    0.000    0.000    0.000    0.000    0.000 
#
# Total GULP energy -793337.063999 kJ/mol
# GULP energy per Si atom -12395.891625 kJ/mol
# Density = 2.081195 g / cm^3
# Si number density = 20.859428 Si / 1000 Ang^3
#
#
#
# Elastic Constant Matrix: (Units=GPa)
#
#
# Indices 1 2 3 4 5 6 
#
# 1 157.2701 39.7309 46.0553 0.0000 0.0000 0.0000
# 2 39.7309 65.3003 21.7611 0.0000 0.0000 0.0000
# 3 46.0553 21.7611 100.7652 0.0000 0.0000 0.0000
# 4 0.0000 0.0000 0.0000 28.6832 0.0000 0.0000
# 5 0.0000 0.0000 0.0000 0.0000 26.9529 0.0000
# 6 0.0000 0.0000 0.0000 0.0000 0.0000 19.7975
#
#
#
# Elastic Compliance Matrix: (Units=1/GPa)
#
#
# Indices 1 2 3 4 5 6 
#
# 1 0.008225 -0.004043 -0.002886 0.000000 0.000000 0.000000
# 2 -0.004043 0.018488 -0.002145 0.000000 0.000000 0.000000
# 3 -0.002886 -0.002145 0.011706 0.000000 0.000000 0.000000
# 4 0.000000 0.000000 0.000000 0.034864 0.000000 0.000000
# 5 0.000000 0.000000 0.000000 0.000000 0.037102 0.000000
# 6 0.000000 0.000000 0.000000 0.000000 0.000000 0.050512
#
#
# Mechanical properties :
#
#
# Convention : Reuss Voigt Hill
#
# Bulk Modulus (GPa) = 49.32887 59.82559 54.57723
# Shear Modulus (GPa) = 26.91043 29.47260 28.19151
#
# Velocity S-wave (km/s) = 3.59567 3.76295 3.68026
# Velocity P-wave (km/s) = 6.39828 6.90090 6.65434
#
# Compressibility (1/GPa) = 0.02027210
#
# Stress axis : x y z
#
# Youngs Moduli (GPa) = 121.58120 54.08828 85.42281
#
# Poissons Ratio (x) = 0.21865 0.24655
# Poissons Ratio (y) = 0.49149 0.18324
# Poissons Ratio (z) = 0.35091 0.11602
#
# Static dielectric constant tensor:
#      x y z
#    x 3.699950 0.000000 0.000000 
#    y 0.000000 3.797950 0.000000 
#    z 0.000000 0.000000 3.846650 
# 
# 
# High freq. dielectric constant tensor:
#      x y z
#    x 1.801050 0.000000 0.000000 
#    y 0.000000 1.814590 0.000000 
#    z 0.000000 0.000000 1.818400 
# 
# From -- ./inp_files/13243.got.cif
#   From: 2010.03.12/outbox.cif.g09.slc.cpg/sg53_7_cif.got.tgz:13243.got - 2010.04.16 14:36:59.
