data_PCOD8220965
_publ_section_title
;
Structure prediction by ZEFSAII (Michael W. Deem and Ramdas Pophale) SiO2 
 PCOD8220965
Probable space group: P M N A
;
_chemical_formula_sum "Si O2"
_cell_formula_units_Z 56
_cell_length_a 14.931296
_cell_length_b 16.412269
_cell_length_c 10.841919
_cell_angle_alpha 90.000000
_cell_angle_beta 90.000000
_cell_angle_gamma 90.000000
_cell_volume 2656.882143
_symmetry_space_group_name_H-M "P M N A"
_symmetry_group_IT_number 53
_symmetry_cell_setting 'orthorhombic'
loop_
_space_group_symop_operation_xyz
x,y,z
1/2-x,-y,1/2+z
x,-y,-z
1/2-x,y,1/2-z
-x,-y,-z
1/2+x,y,1/2-z
-x,y,z
1/2+x,-y,1/2+z
loop_
_atom_site_type_symbol
_atom_site_label
_atom_site_fract_x
_atom_site_fract_y
_atom_site_fract_z
Si Si1 0.100242 0.301210 0.104701
Si Si2 0.658359 0.783486 0.186323
Si Si3 0.900392 0.661196 0.506491
Si Si4 0.741683 0.558241 0.609470
Si Si5 0.597917 0.167089 0.564876
Si Si6 0.721967 0.905710 0.984924
Si Si7 0.899680 0.814120 0.681276
O O1 0.171919 0.369542 0.132064
O O2 0.117692 0.217563 0.181070
O O3 0.000000 0.336171 0.129157
O O4 0.112434 0.263382 0.968851
O O5 0.750000 0.757336 0.250000
O O6 0.619492 0.699979 0.128284
O O7 0.597327 0.829047 0.286968
O O8 0.668960 0.852990 0.084482
O O9 0.834390 0.589747 0.550641
O O10 0.891193 0.732312 0.603654
O O11 0.000000 0.623442 0.504542
O O12 0.702854 0.500000 0.500000
O O13 0.750000 0.519636 0.750000
O O14 0.500000 0.135758 0.520654
O O15 0.672000 0.109026 0.502018
O O16 0.678352 0.878418 0.853963
O O17 0.701155 0.000000 0.000000
O O18 0.000000 0.852128 0.666219
#
# Coordination Sequence:
#
# PCOD8220965 Si02
#       7
#     8   8   8   8   8   8   8
#     4  10  21  41  67  91 116 161 219 265 313 384
#     4   9  18  36  61  88 119 158 210 260 317 373
#     4  10  20  38  66  90 115 162 214 255 302 381
#     4  12  26  41  63  94 133 171 205 270 339 398
#     4  10  21  37  59  88 122 161 203 253 316 381
#     4  10  21  36  57  88 123 162 206 260 315 369
#     4   9  18  36  64  90 111 152 211 258 302 362
#
# _framework density 21.077335999999999
#
# number of rings (size 3 to 8) (size 9 to 14) (size 15 to 20)
#    0.000    2.000    1.429    3.000    0.000    3.429 
#    7.714    0.000    0.000    0.000    0.000    0.000 
#    0.000    0.000    0.000    0.000    0.000    0.000 
#
# Total GULP energy -693810.129497 kJ/mol
# GULP energy per Si atom -12389.466598 kJ/mol
# Density = 2.102936 g / cm^3
# Si number density = 21.077336 Si / 1000 Ang^3
#
#
#
# Elastic Constant Matrix: (Units=GPa)
#
#
# Indices 1 2 3 4 5 6 
#
# 1 108.3717 34.6562 31.0917 0.0000 0.0000 0.0000
# 2 34.6562 56.4691 27.9379 0.0000 0.0000 0.0000
# 3 31.0917 27.9379 74.6374 0.0000 0.0000 0.0000
# 4 0.0000 0.0000 0.0000 14.7142 0.0000 0.0000
# 5 0.0000 0.0000 0.0000 0.0000 23.6552 0.0000
# 6 0.0000 0.0000 0.0000 0.0000 0.0000 13.2256
#
#
#
# Elastic Compliance Matrix: (Units=1/GPa)
#
#
# Indices 1 2 3 4 5 6 
#
# 1 0.011918 -0.005962 -0.002733 0.000000 0.000000 0.000000
# 2 -0.005962 0.024716 -0.006768 0.000000 0.000000 0.000000
# 3 -0.002733 -0.006768 0.017070 0.000000 0.000000 0.000000
# 4 0.000000 0.000000 0.000000 0.067961 0.000000 0.000000
# 5 0.000000 0.000000 0.000000 0.000000 0.042274 0.000000
# 6 0.000000 0.000000 0.000000 0.000000 0.000000 0.075611
#
#
# Mechanical properties :
#
#
# Convention : Reuss Voigt Hill
#
# Bulk Modulus (GPa) = 43.90199 47.42775 45.66487
# Shear Modulus (GPa) = 17.98106 20.03850 19.00978
#
# Velocity S-wave (km/s) = 2.92395 3.08671 3.00643
# Velocity P-wave (km/s) = 5.68098 5.93753 5.81068
#
# Compressibility (1/GPa) = 0.02277801
#
# Stress axis : x y z
#
# Youngs Moduli (GPa) = 83.90460 40.45887 58.58243
#
# Poissons Ratio (x) = 0.24123 0.16011
# Poissons Ratio (y) = 0.50027 0.39649
# Poissons Ratio (z) = 0.22931 0.27383
#
# Static dielectric constant tensor:
#      x y z
#    x 3.992950 0.000000 0.000000 
#    y 0.000000 3.378940 0.000000 
#    z 0.000000 0.000000 4.611240 
# 
# 
# High freq. dielectric constant tensor:
#      x y z
#    x 1.836340 0.000000 0.000000 
#    y 0.000000 1.778040 0.000000 
#    z 0.000000 0.000000 1.843220 
# 
# From -- ./inp_files/16053.got.cif
#   From: 2010.03.12/outbox.cif.g09.slc.cpg/sg53_9_cif.got.tgz:16053.got - 2010.04.16 14:36:59.
