data_PCOD8220802
_publ_section_title
;
Structure prediction by ZEFSAII (Michael W. Deem and Ramdas Pophale) SiO2 
 PCOD8220802
Probable space group: P M N A
;
_chemical_formula_sum "Si O2"
_cell_formula_units_Z 48
_cell_length_a 8.889873
_cell_length_b 30.151857
_cell_length_c 9.127084
_cell_angle_alpha 90.000000
_cell_angle_beta 90.000000
_cell_angle_gamma 90.000000
_cell_volume 2446.479996
_symmetry_space_group_name_H-M "P M N A"
_symmetry_group_IT_number 53
_symmetry_cell_setting 'orthorhombic'
loop_
_space_group_symop_operation_xyz
x,y,z
1/2-x,-y,1/2+z
x,-y,-z
1/2-x,y,1/2-z
-x,-y,-z
1/2+x,y,1/2-z
-x,y,z
1/2+x,-y,1/2+z
loop_
_atom_site_type_symbol
_atom_site_label
_atom_site_fract_x
_atom_site_fract_y
_atom_site_fract_z
Si Si1 0.325566 0.285125 0.898121
Si Si2 0.673754 0.457180 0.401598
Si Si3 0.677966 0.385649 0.902234
Si Si4 0.176172 0.958553 0.907465
Si Si5 0.322355 0.872268 0.406742
Si Si6 0.322823 0.204184 0.092520
O O1 0.250000 0.267213 0.750000
O O2 0.500000 0.284141 0.863690
O O3 0.273245 0.335009 0.935956
O O4 0.285568 0.253642 0.034902
O O5 0.696350 0.500000 0.500000
O O6 0.750000 0.469446 0.250000
O O7 0.500000 0.445078 0.379571
O O8 0.757076 0.414759 0.467436
O O9 0.750000 0.401809 0.750000
O O10 0.500000 0.391709 0.892369
O O11 0.250000 0.957345 0.750000
O O12 0.000000 0.963893 0.883936
O O13 0.217612 0.913799 0.991698
O O14 0.240140 0.000000 0.000000
O O15 0.250000 0.881323 0.250000
O O16 0.500000 0.865166 0.390032
O O17 0.248676 0.829167 0.477076
O O18 0.250000 0.197329 0.250000
O O19 0.500000 0.195407 0.104415
#
# Coordination Sequence:
#
# PCOD8220802 Si02
#       6
#     8   8   8   8   8   8
#     4   9  20  37  58  84 113 148 188 231 279 334
#     4  11  24  40  59  84 114 149 188 231 281 335
#     4  10  20  37  60  86 116 149 188 232 280 333
#     4  10  22  39  59  85 116 150 189 233 282 336
#     4  11  23  39  60  86 115 149 191 236 285 340
#     4  11  23  39  58  83 116 152 191 235 285 337
#
# _framework density 19.620024999999998
#
# number of rings (size 3 to 8) (size 9 to 14) (size 15 to 20)
#    0.000    1.667    0.000    4.000    0.000    9.667 
#    0.000    1.667    0.000    0.000    0.000    0.000 
#    0.000    0.000    0.000    0.000    0.000    0.000 
#
# Total GULP energy -595437.495106 kJ/mol
# GULP energy per Si atom -12404.947815 kJ/mol
# Density = 1.957537 g / cm^3
# Si number density = 19.620025 Si / 1000 Ang^3
#
#
#
# Elastic Constant Matrix: (Units=GPa)
#
#
# Indices 1 2 3 4 5 6 
#
# 1 95.8967 54.9194 66.1966 0.0000 0.0000 0.0000
# 2 54.9194 99.0529 53.2419 0.0000 0.0000 0.0000
# 3 66.1966 53.2419 147.0670 0.0000 0.0000 0.0000
# 4 0.0000 0.0000 0.0000 18.3082 0.0000 0.0000
# 5 0.0000 0.0000 0.0000 0.0000 39.8396 0.0000
# 6 0.0000 0.0000 0.0000 0.0000 0.0000 23.1821
#
#
#
# Elastic Compliance Matrix: (Units=1/GPa)
#
#
# Indices 1 2 3 4 5 6 
#
# 1 0.018488 -0.007173 -0.005725 0.000000 0.000000 0.000000
# 2 -0.007173 0.015318 -0.002317 0.000000 0.000000 0.000000
# 3 -0.005725 -0.002317 0.010215 0.000000 0.000000 0.000000
# 4 0.000000 0.000000 0.000000 0.054620 0.000000 0.000000
# 5 0.000000 0.000000 0.000000 0.000000 0.025101 0.000000
# 6 0.000000 0.000000 0.000000 0.000000 0.000000 0.043137
#
#
# Mechanical properties :
#
#
# Convention : Reuss Voigt Hill
#
# Bulk Modulus (GPa) = 73.57555 76.74804 75.16180
# Shear Modulus (GPa) = 24.77231 27.44323 26.10777
#
# Velocity S-wave (km/s) = 3.55717 3.74403 3.65179
# Velocity P-wave (km/s) = 7.37922 7.60871 7.49484
#
# Compressibility (1/GPa) = 0.01359147
#
# Stress axis : x y z
#
# Youngs Moduli (GPa) = 54.09025 65.28215 97.89503
#
# Poissons Ratio (x) = 0.46829 0.56041
# Poissons Ratio (y) = 0.38801 0.22680
# Poissons Ratio (z) = 0.30964 0.15124
#
# Static dielectric constant tensor:
#      x y z
#    x 3.665140 0.000000 0.000000 
#    y 0.000000 3.853280 0.000000 
#    z 0.000000 0.000000 3.569830 
# 
# 
# High freq. dielectric constant tensor:
#      x y z
#    x 1.772890 0.000000 0.000000 
#    y 0.000000 1.779000 0.000000 
#    z 0.000000 0.000000 1.771490 
# 
# From -- ./inp_files/6646.got.cif
#   From: 2010.03.12/outbox.cif.g09.slc.cpg/sg53_4_cif.got.tgz:6646.got - 2010.04.16 14:36:59.
