data_PCOD8220668
_publ_section_title
;
Structure prediction by ZEFSAII (Michael W. Deem and Ramdas Pophale) SiO2 
 PCOD8220668
Probable space group: P M N A
;
_chemical_formula_sum "Si O2"
_cell_formula_units_Z 40
_cell_length_a 9.493668
_cell_length_b 23.970441
_cell_length_c 8.757922
_cell_angle_alpha 90.000000
_cell_angle_beta 90.000000
_cell_angle_gamma 90.000000
_cell_volume 1993.017615
_symmetry_space_group_name_H-M "P M N A"
_symmetry_group_IT_number 53
_symmetry_cell_setting 'orthorhombic'
loop_
_space_group_symop_operation_xyz
x,y,z
1/2-x,-y,1/2+z
x,-y,-z
1/2-x,y,1/2-z
-x,-y,-z
1/2+x,y,1/2-z
-x,y,z
1/2+x,-y,1/2+z
loop_
_atom_site_type_symbol
_atom_site_label
_atom_site_fract_x
_atom_site_fract_y
_atom_site_fract_z
Si Si1 0.500000 0.559305 0.576042
Si Si2 0.252358 0.362780 0.429953
Si Si3 0.662685 0.944997 0.099717
Si Si4 0.337668 0.253623 0.600550
Si Si5 0.835531 0.856501 0.906526
Si Si6 0.000000 0.561292 0.567729
O O1 0.500000 0.500000 0.500000
O O2 0.372824 0.595934 0.520053
O O3 0.500000 0.549887 0.754543
O O4 0.250000 0.348219 0.250000
O O5 0.261555 0.306054 0.523690
O O6 0.124412 0.399567 0.486970
O O7 0.750000 0.960319 0.250000
O O8 0.500000 0.925694 0.133980
O O9 0.751992 0.897439 0.017464
O O10 0.657840 0.000000 0.000000
O O11 0.250000 0.236364 0.750000
O O12 0.500000 0.266735 0.643358
O O13 0.331476 0.204337 0.478973
O O14 0.750000 0.855256 0.750000
O O15 0.000000 0.875154 0.882110
O O16 0.000000 0.500000 0.500000
#
# Coordination Sequence:
#
# PCOD8220668 Si02
#       6
#     4   8   8   8   8   4
#     4  10  20  36  60  82 118 158 191 246 301 360
#     4  10  21  40  60  85 118 157 200 246 304 367
#     4  11  24  42  66  98 136 177 222 271 322 377
#     4  11  25  42  62  91 124 160 204 257 311 369
#     4  11  24  43  67  96 130 170 215 264 320 381
#     4  10  22  36  58  90 116 150 201 246 301 368
#
# _framework density 20.070067999999999
#
# number of rings (size 3 to 8) (size 9 to 14) (size 15 to 20)
#    0.000    1.400    1.000    3.600    1.400    8.000 
#    0.000    0.000    0.000    0.000    0.000    0.000 
#    0.000    0.000    0.000    0.000    0.000    0.000 
#
# Total GULP energy -495802.826128 kJ/mol
# GULP energy per Si atom -12395.070653 kJ/mol
# Density = 2.002439 g / cm^3
# Si number density = 20.070068 Si / 1000 Ang^3
#
#
#
# Elastic Constant Matrix: (Units=GPa)
#
#
# Indices 1 2 3 4 5 6 
#
# 1 188.1647 53.8662 53.0738 0.0000 0.0000 0.0000
# 2 53.8662 100.3955 23.5083 0.0000 0.0000 0.0000
# 3 53.0738 23.5083 83.2986 0.0000 0.0000 0.0000
# 4 0.0000 0.0000 0.0000 42.3830 0.0000 0.0000
# 5 0.0000 0.0000 0.0000 0.0000 36.7266 0.0000
# 6 0.0000 0.0000 0.0000 0.0000 0.0000 42.2533
#
#
#
# Elastic Compliance Matrix: (Units=1/GPa)
#
#
# Indices 1 2 3 4 5 6 
#
# 1 0.007235 -0.003001 -0.003763 0.000000 0.000000 0.000000
# 2 -0.003001 0.011910 -0.001449 0.000000 0.000000 0.000000
# 3 -0.003763 -0.001449 0.014812 0.000000 0.000000 0.000000
# 4 0.000000 0.000000 0.000000 0.023594 0.000000 0.000000
# 5 0.000000 0.000000 0.000000 0.000000 0.027228 0.000000
# 6 0.000000 0.000000 0.000000 0.000000 0.000000 0.023667
#
#
# Mechanical properties :
#
#
# Convention : Reuss Voigt Hill
#
# Bulk Modulus (GPa) = 57.04291 70.30616 63.67454
# Shear Modulus (GPa) = 38.25115 40.36660 39.30888
#
# Velocity S-wave (km/s) = 4.37038 4.48960 4.43039
# Velocity P-wave (km/s) = 7.34510 7.87285 7.61355
#
# Compressibility (1/GPa) = 0.01753066
#
# Stress axis : x y z
#
# Youngs Moduli (GPa) = 138.21962 83.96330 67.51494
#
# Poissons Ratio (x) = 0.25195 0.25405
# Poissons Ratio (y) = 0.41476 0.09785
# Poissons Ratio (z) = 0.52010 0.12169
#
# Static dielectric constant tensor:
#      x y z
#    x 4.149330 0.000000 0.000000 
#    y 0.000000 3.870630 0.000000 
#    z 0.000000 0.000000 3.698680 
# 
# 
# High freq. dielectric constant tensor:
#      x y z
#    x 1.807770 0.000000 0.000000 
#    y 0.000000 1.797800 0.000000 
#    z 0.000000 0.000000 1.783070 
# 
# From -- ./inp_files/6353.got.cif
#   From: 2010.03.12/outbox.cif.g09.slc.cpg/sg53_4_cif.got.tgz:6353.got - 2010.04.16 14:36:59.
