data_PCOD8220316
_publ_section_title
;
Structure prediction by ZEFSAII (Michael W. Deem and Ramdas Pophale) SiO2 
 PCOD8220316
Probable space group: P M N A
;
_chemical_formula_sum "Si O2"
_cell_formula_units_Z 64
_cell_length_a 8.978392
_cell_length_b 25.204648
_cell_length_c 14.301884
_cell_angle_alpha 90.000000
_cell_angle_beta 90.000000
_cell_angle_gamma 90.000000
_cell_volume 3236.476446
_symmetry_space_group_name_H-M "P M N A"
_symmetry_group_IT_number 53
_symmetry_cell_setting 'orthorhombic'
loop_
_space_group_symop_operation_xyz
x,y,z
1/2-x,-y,1/2+z
x,-y,-z
1/2-x,y,1/2-z
-x,-y,-z
1/2+x,y,1/2-z
-x,y,z
1/2+x,-y,1/2+z
loop_
_atom_site_type_symbol
_atom_site_label
_atom_site_fract_x
_atom_site_fract_y
_atom_site_fract_z
Si Si1 0.172230 0.373474 0.541061
Si Si2 0.676400 0.981170 0.649673
Si Si3 0.675267 0.592075 0.843250
Si Si4 0.173561 0.718459 0.151019
Si Si5 0.827453 0.824151 0.041785
Si Si6 0.171893 0.472939 0.659055
Si Si7 0.328916 0.136492 0.345761
Si Si8 0.322959 0.916996 0.148532
O O1 0.218753 0.371322 0.431909
O O2 0.271939 0.334790 0.601941
O O3 0.200923 0.434158 0.572216
O O4 0.000000 0.357734 0.555429
O O5 0.750000 0.987307 0.750000
O O6 0.500000 0.990736 0.650888
O O7 0.753839 0.030575 0.595020
O O8 0.718070 0.922054 0.614938
O O9 0.750000 0.616064 0.750000
O O10 0.500000 0.592519 0.829000
O O11 0.733637 0.532025 0.862078
O O12 0.250000 0.728291 0.250000
O O13 0.211708 0.766763 0.082126
O O14 0.000000 0.713119 0.170239
O O15 0.717072 0.866038 0.087644
O O16 0.000000 0.839711 0.060997
O O17 0.796330 0.822554 0.929777
O O18 0.250000 0.448177 0.750000
O O19 0.000000 0.476642 0.683214
O O20 0.250000 0.153934 0.250000
O O21 0.500000 0.134598 0.317508
O O22 0.250000 0.908504 0.250000
O O23 0.500000 0.922364 0.157660
#
# Coordination Sequence:
#
# PCOD8220316 Si02
#       8
#     8   8   8   8   8   8   8   8
#     4  10  20  35  56  80 109 145 185 226 270 321
#     4   9  16  29  50  76 107 141 173 210 259 315
#     4   9  18  33  53  79 112 149 185 223 267 316
#     4  11  24  41  61  82 108 139 176 223 271 320
#     4  10  22  40  58  78 105 140 180 222 269 318
#     4   9  17  30  50  78 111 146 182 221 268 320
#     4   9  19  36  58  81 107 139 176 218 264 314
#     4  11  21  33  52  79 110 143 178 218 264 319
#
# _framework density 19.774591000000001
#
# number of rings (size 3 to 8) (size 9 to 14) (size 15 to 20)
#    0.000    2.250    0.000    3.750    0.000    7.000 
#    0.000    3.125    0.000    6.750    0.000    0.000 
#    0.000    0.000    0.000    0.000    0.000    0.000 
#
# Total GULP energy -793296.022435 kJ/mol
# GULP energy per Si atom -12395.250351 kJ/mol
# Density = 1.972958 g / cm^3
# Si number density = 19.774591 Si / 1000 Ang^3
#
#
#
# Elastic Constant Matrix: (Units=GPa)
#
#
# Indices 1 2 3 4 5 6 
#
# 1 78.6346 33.5387 43.7585 0.0000 0.0000 0.0000
# 2 33.5387 67.1048 39.7612 0.0000 0.0000 0.0000
# 3 43.7585 39.7612 114.8144 0.0000 0.0000 0.0000
# 4 0.0000 0.0000 0.0000 30.7783 0.0000 0.0000
# 5 0.0000 0.0000 0.0000 0.0000 30.1542 0.0000
# 6 0.0000 0.0000 0.0000 0.0000 0.0000 -305.3371
#
#
#
# Elastic Compliance Matrix: (Units=1/GPa)
#
#
# Indices 1 2 3 4 5 6 
#
# 1 0.017979 -0.006197 -0.004706 0.000000 0.000000 0.000000
# 2 -0.006197 0.020886 -0.004871 0.000000 0.000000 0.000000
# 3 -0.004706 -0.004871 0.012190 0.000000 0.000000 0.000000
# 4 0.000000 0.000000 0.000000 0.032490 0.000000 0.000000
# 5 0.000000 0.000000 0.000000 0.000000 0.033163 0.000000
# 6 0.000000 0.000000 0.000000 0.000000 0.000000 -0.003275
#
#
# Mechanical properties :
#
#
# Convention : Reuss Voigt Hill
#
# Bulk Modulus (GPa) = 51.26589 54.96340 53.11464
# Shear Modulus (GPa) = 33.00679 -39.31456 -3.15389
#
# Velocity S-wave (km/s) = 4.08996 -4.46369 -1.26427
# Velocity P-wave (km/s) = 6.94875 1.13547 4.97867
#
# Compressibility (1/GPa) = 0.01950615
#
# Stress axis : x y z
#
# Youngs Moduli (GPa) = 55.61993 47.87976 82.03364
#
# Poissons Ratio (x) = 0.29673 0.38605
# Poissons Ratio (y) = 0.34470 0.39958
# Poissons Ratio (z) = 0.26175 0.23322
#
# Static dielectric constant tensor:
#      x y z
#    x 3.559060 0.000000 0.000000 
#    y 0.000000 3.717480 0.000000 
#    z 0.000000 0.000000 3.642540 
# 
# 
# High freq. dielectric constant tensor:
#      x y z
#    x 1.765580 0.000000 0.000000 
#    y 0.000000 1.757310 0.000000 
#    z 0.000000 0.000000 1.771450 
# 
# From -- ./inp_files/21009.got.cif
#   From: 2010.03.12/outbox.cif.g09.slc.cpg/sg53_11_cif.got.tgz:21009.got - 2010.04.16 14:36:59.
