data_PCOD8220528
_publ_section_title
;
Structure prediction by ZEFSAII (Michael W. Deem and Ramdas Pophale) SiO2 
 PCOD8220528
Probable space group: P M N A
;
_chemical_formula_sum "Si O2"
_cell_formula_units_Z 48
_cell_length_a 8.742519
_cell_length_b 30.515706
_cell_length_c 9.461365
_cell_angle_alpha 90.000000
_cell_angle_beta 90.000000
_cell_angle_gamma 90.000000
_cell_volume 2524.142120
_symmetry_space_group_name_H-M "P M N A"
_symmetry_group_IT_number 53
_symmetry_cell_setting 'orthorhombic'
loop_
_space_group_symop_operation_xyz
x,y,z
1/2-x,-y,1/2+z
x,-y,-z
1/2-x,y,1/2-z
-x,-y,-z
1/2+x,y,1/2-z
-x,y,z
1/2+x,-y,1/2+z
loop_
_atom_site_type_symbol
_atom_site_label
_atom_site_fract_x
_atom_site_fract_y
_atom_site_fract_z
Si Si1 0.818457 0.369227 0.403055
Si Si2 0.319078 0.135841 0.598382
Si Si3 0.679706 0.963441 0.396618
Si Si4 0.180117 0.539961 0.900057
Si Si5 0.180111 0.710798 0.404645
Si Si6 0.181525 0.207892 0.404656
O O1 0.750000 0.357745 0.250000
O O2 0.755398 0.415595 0.459717
O O3 0.764516 0.332985 0.515447
O O4 0.000000 0.371039 0.388605
O O5 0.250000 0.149649 0.750000
O O6 0.500000 0.143246 0.604892
O O7 0.274028 0.085907 0.559981
O O8 0.246299 0.163790 0.473114
O O9 0.750000 0.976660 0.250000
O O10 0.500000 0.967426 0.385693
O O11 0.748642 0.000000 0.500000
O O12 0.250000 0.527905 0.750000
O O13 0.000000 0.547202 0.886623
O O14 0.223798 0.500000 0.000000
O O15 0.250000 0.713272 0.250000
O O16 0.235411 0.751944 0.497183
O O17 0.000000 0.711144 0.387444
O O18 0.250000 0.214795 0.250000
O O19 0.000000 0.204999 0.392711
#
# Coordination Sequence:
#
# PCOD8220528 Si02
#       6
#     8   8   8   8   8   8
#     4  10  20  36  57  81 108 140 179 221 267 316
#     4  10  20  36  57  81 110 144 183 226 272 323
#     4   9  19  35  54  78 108 142 180 222 269 320
#     4  10  21  36  55  80 109 143 181 220 266 317
#     4  10  23  39  57  82 110 142 179 220 267 320
#     4  11  23  39  58  82 111 144 182 223 272 325
#
# _framework density 19.016362000000001
#
# number of rings (size 3 to 8) (size 9 to 14) (size 15 to 20)
#    0.000    2.000    0.000    4.000    0.000    7.667 
#    0.000    5.000    0.000    0.000    0.000    0.000 
#    0.000    0.000    0.000    0.000    0.000    0.000 
#
# Total GULP energy -595275.714417 kJ/mol
# GULP energy per Si atom -12401.577384 kJ/mol
# Density = 1.897308 g / cm^3
# Si number density = 19.016362 Si / 1000 Ang^3
#
#
#
# Elastic Constant Matrix: (Units=GPa)
#
#
# Indices 1 2 3 4 5 6 
#
# 1 65.1866 48.9620 51.4131 0.0000 0.0000 0.0000
# 2 48.9620 152.2025 109.4926 0.0000 0.0000 0.0000
# 3 51.4131 109.4926 156.8057 0.0000 0.0000 0.0000
# 4 0.0000 0.0000 0.0000 44.5057 0.0000 0.0000
# 5 0.0000 0.0000 0.0000 0.0000 35.1472 0.0000
# 6 0.0000 0.0000 0.0000 0.0000 0.0000 28.9846
#
#
#
# Elastic Compliance Matrix: (Units=1/GPa)
#
#
# Indices 1 2 3 4 5 6 
#
# 1 0.021703 -0.003742 -0.004503 0.000000 0.000000 0.000000
# 2 -0.003742 0.013847 -0.008442 0.000000 0.000000 0.000000
# 3 -0.004503 -0.008442 0.013748 0.000000 0.000000 0.000000
# 4 0.000000 0.000000 0.000000 0.022469 0.000000 0.000000
# 5 0.000000 0.000000 0.000000 0.000000 0.028452 0.000000
# 6 0.000000 0.000000 0.000000 0.000000 0.000000 0.034501
#
#
# Mechanical properties :
#
#
# Convention : Reuss Voigt Hill
#
# Bulk Modulus (GPa) = 62.79723 88.21445 75.50584
# Shear Modulus (GPa) = 28.83466 32.68264 30.75865
#
# Velocity S-wave (km/s) = 3.89820 4.15017 4.02616
# Velocity P-wave (km/s) = 7.30450 8.33394 7.83615
#
# Compressibility (1/GPa) = 0.01592427
#
# Stress axis : x y z
#
# Youngs Moduli (GPa) = 46.07700 72.21701 72.73563
#
# Poissons Ratio (x) = 0.27027 0.32750
# Poissons Ratio (y) = 0.17244 0.61403
# Poissons Ratio (z) = 0.20747 0.60966
#
# Static dielectric constant tensor:
#      x y z
#    x 3.506590 0.000000 0.000000 
#    y 0.000000 3.803270 0.000000 
#    z 0.000000 0.000000 3.494620 
# 
# 
# High freq. dielectric constant tensor:
#      x y z
#    x 1.746360 0.000000 0.000000 
#    y 0.000000 1.754980 0.000000 
#    z 0.000000 0.000000 1.739440 
# 
# From -- ./inp_files/6744.got.cif
#   From: 2010.03.12/outbox.cif.g09.slc.cpg/sg53_4_cif.got.tgz:6744.got - 2010.04.16 14:36:59.
