data_PCOD8220259
_publ_section_title
;
Structure prediction by ZEFSAII (Michael W. Deem and Ramdas Pophale) SiO2 
 PCOD8220259
Probable space group: P M N A
;
_chemical_formula_sum "Si O2"
_cell_formula_units_Z 64
_cell_length_a 8.684820
_cell_length_b 19.344537
_cell_length_c 20.351347
_cell_angle_alpha 90.000000
_cell_angle_beta 90.000000
_cell_angle_gamma 90.000000
_cell_volume 3419.104075
_symmetry_space_group_name_H-M "P M N A"
_symmetry_group_IT_number 53
_symmetry_cell_setting 'orthorhombic'
loop_
_space_group_symop_operation_xyz
x,y,z
1/2-x,-y,1/2+z
x,-y,-z
1/2-x,y,1/2-z
-x,-y,-z
1/2+x,y,1/2-z
-x,y,z
1/2+x,-y,1/2+z
loop_
_atom_site_type_symbol
_atom_site_label
_atom_site_fract_x
_atom_site_fract_y
_atom_site_fract_z
Si Si1 0.682660 0.072814 0.320076
Si Si2 0.680081 0.579951 0.682536
Si Si3 0.320282 0.832394 0.930671
Si Si4 0.182002 0.424046 0.818084
Si Si5 0.679040 0.831388 0.430326
Si Si6 0.817649 0.074934 0.680145
Si Si7 0.678452 0.329270 0.564006
Si Si8 0.176532 0.671098 0.572108
O O1 0.750000 0.096178 0.250000
O O2 0.500000 0.068728 0.315109
O O3 0.731947 0.128302 0.373565
O O4 0.748339 0.998592 0.341108
O O5 0.750000 0.609358 0.750000
O O6 0.500000 0.579088 0.691543
O O7 0.740800 0.502176 0.668580
O O8 0.722055 0.629690 0.623406
O O9 0.500000 0.851442 0.930679
O O10 0.291838 0.751848 0.917734
O O11 0.247340 0.854961 0.999874
O O12 0.250000 0.395596 0.750000
O O13 0.242600 0.375149 0.876258
O O14 0.000000 0.420116 0.813652
O O15 0.500000 0.851730 0.427453
O O16 0.772854 0.869112 0.373707
O O17 0.705207 0.750431 0.418408
O O18 0.750000 0.098943 0.750000
O O19 0.000000 0.068491 0.685918
O O20 0.500000 0.344417 0.549348
O O21 0.775008 0.351669 0.500634
O O22 0.000000 0.651883 0.583472
#
# Coordination Sequence:
#
# PCOD8220259 Si02
#       8
#     8   8   8   8   8   8   8   8
#     4  11  22  38  59  83 110 141 178 221 267 318
#     4  10  20  35  55  77 106 140 178 221 267 317
#     4  10  21  38  57  80 109 142 179 221 267 318
#     4   9  19  35  54  78 106 140 178 220 267 317
#     4  10  20  36  57  82 110 142 180 223 268 318
#     4  11  22  38  58  81 111 145 180 221 266 316
#     4   9  19  36  56  78 108 142 178 219 267 318
#     4  10  21  36  55  79 108 140 178 220 265 316
#
# _framework density 18.718354000000001
#
# number of rings (size 3 to 8) (size 9 to 14) (size 15 to 20)
#    0.000    2.000    0.000    4.500    0.000    5.000 
#    0.000    6.250    0.000    0.000    0.000    0.000 
#    0.000    0.000    0.000    0.000    0.000    0.000 
#
# Total GULP energy -793868.173956 kJ/mol
# GULP energy per Si atom -12404.190218 kJ/mol
# Density = 1.867575 g / cm^3
# Si number density = 18.718354 Si / 1000 Ang^3
#
#
#
# Elastic Constant Matrix: (Units=GPa)
#
#
# Indices 1 2 3 4 5 6 
#
# 1 105.2773 39.3307 51.6797 0.0000 0.0000 0.0000
# 2 39.3307 66.3087 70.1465 0.0000 0.0000 0.0000
# 3 51.6797 70.1465 139.3813 0.0000 0.0000 0.0000
# 4 0.0000 0.0000 0.0000 32.7403 0.0000 0.0000
# 5 0.0000 0.0000 0.0000 0.0000 39.2414 0.0000
# 6 0.0000 0.0000 0.0000 0.0000 0.0000 50.9989
#
#
#
# Elastic Compliance Matrix: (Units=1/GPa)
#
#
# Indices 1 2 3 4 5 6 
#
# 1 0.012439 -0.005345 -0.001922 0.000000 0.000000 0.000000
# 2 -0.005345 0.034548 -0.015405 0.000000 0.000000 0.000000
# 3 -0.001922 -0.015405 0.015640 0.000000 0.000000 0.000000
# 4 0.000000 0.000000 0.000000 0.030543 0.000000 0.000000
# 5 0.000000 0.000000 0.000000 0.000000 0.025483 0.000000
# 6 0.000000 0.000000 0.000000 0.000000 0.000000 0.019608
#
#
# Mechanical properties :
#
#
# Convention : Reuss Voigt Hill
#
# Bulk Modulus (GPa) = 57.86048 70.36457 64.11253
# Shear Modulus (GPa) = 26.40357 34.58347 30.49352
#
# Velocity S-wave (km/s) = 3.75983 4.30300 4.04055
# Velocity P-wave (km/s) = 7.05880 7.89687 7.48957
#
# Compressibility (1/GPa) = 0.01728295
#
# Stress axis : x y z
#
# Youngs Moduli (GPa) = 80.39177 28.94514 63.93677
#
# Poissons Ratio (x) = 0.15470 0.12291
# Poissons Ratio (y) = 0.42965 0.98497
# Poissons Ratio (z) = 0.15455 0.44591
#
# Static dielectric constant tensor:
#      x y z
#    x 3.508470 0.000000 0.000000 
#    y 0.000000 3.433280 0.000000 
#    z 0.000000 0.000000 3.514910 
# 
# 
# High freq. dielectric constant tensor:
#      x y z
#    x 1.739150 0.000000 0.000000 
#    y 0.000000 1.722250 0.000000 
#    z 0.000000 0.000000 1.736180 
# 
# From -- ./inp_files/31289.got.cif
#   From: 2010.03.12/outbox.cif.g09.slc.cpg/sg53_16_cif.got.tgz:31289.got - 2010.04.16 14:36:59.
