data_PCOD8220384
_publ_section_title
;
Structure prediction by ZEFSAII (Michael W. Deem and Ramdas Pophale) SiO2 
 PCOD8220384
Probable space group: P M N A
;
_chemical_formula_sum "Si O2"
_cell_formula_units_Z 40
_cell_length_a 9.079334
_cell_length_b 7.749195
_cell_length_c 28.403954
_cell_angle_alpha 90.000000
_cell_angle_beta 90.000000
_cell_angle_gamma 90.000000
_cell_volume 1998.432035
_symmetry_space_group_name_H-M "P M N A"
_symmetry_group_IT_number 53
_symmetry_cell_setting 'orthorhombic'
loop_
_space_group_symop_operation_xyz
x,y,z
1/2-x,-y,1/2+z
x,-y,-z
1/2-x,y,1/2-z
-x,-y,-z
1/2+x,y,1/2-z
-x,y,z
1/2+x,-y,1/2+z
loop_
_atom_site_type_symbol
_atom_site_label
_atom_site_fract_x
_atom_site_fract_y
_atom_site_fract_z
Si Si1 0.330922 0.913450 0.854408
Si Si2 0.330161 0.924439 0.048345
Si Si3 0.668798 0.577798 0.451923
Si Si4 0.830230 0.429934 0.147104
Si Si5 0.325379 0.739818 0.199835
O O1 0.500000 0.868098 0.843161
O O2 0.229924 0.756264 0.836814
O O3 0.307497 0.937832 0.910229
O O4 0.282212 0.086266 0.827620
O O5 0.500000 0.877415 0.041155
O O6 0.250514 0.750335 0.063128
O O7 0.262666 0.000000 0.000000
O O8 0.737729 0.500000 0.500000
O O9 0.500000 0.626520 0.460926
O O10 0.686997 0.443043 0.409348
O O11 0.735762 0.576838 0.171836
O O12 0.000000 0.447194 0.162704
O O13 0.250000 0.748929 0.250000
O O14 0.500000 0.719580 0.204941
#
# Coordination Sequence:
#
# PCOD8220384 Si02
#       5
#     8   8   8   8   8
#     4  10  22  40  62  90 125 164 205 257 312 366
#     4  10  20  35  57  87 121 161 208 254 305 363
#     4  10  21  36  55  85 125 166 208 252 304 364
#     4  11  23  39  63  93 126 166 209 255 309 371
#     4  11  24  44  68  92 123 161 206 260 315 369
#
# _framework density 20.015691
#
# number of rings (size 3 to 8) (size 9 to 14) (size 15 to 20)
#    0.000    1.600    2.000    2.400    0.000    4.800 
#    0.000    2.000    0.000    0.000    0.000    0.000 
#    0.000    0.000    0.000    0.000    0.000    0.000 
#
# Total GULP energy -496158.066174 kJ/mol
# GULP energy per Si atom -12403.951654 kJ/mol
# Density = 1.997013 g / cm^3
# Si number density = 20.015691 Si / 1000 Ang^3
#
#
#
# Elastic Constant Matrix: (Units=GPa)
#
#
# Indices 1 2 3 4 5 6 
#
# 1 89.2902 66.6302 41.9008 0.0000 0.0000 0.0000
# 2 66.6302 143.5134 40.8252 0.0000 0.0000 0.0000
# 3 41.9008 40.8252 112.3389 0.0000 0.0000 0.0000
# 4 0.0000 0.0000 0.0000 25.6124 0.0000 0.0000
# 5 0.0000 0.0000 0.0000 0.0000 9.3275 0.0000
# 6 0.0000 0.0000 0.0000 0.0000 0.0000 25.8580
#
#
#
# Elastic Compliance Matrix: (Units=1/GPa)
#
#
# Indices 1 2 3 4 5 6 
#
# 1 0.018823 -0.007519 -0.004288 0.000000 0.000000 0.000000
# 2 -0.007519 0.010775 -0.001111 0.000000 0.000000 0.000000
# 3 -0.004288 -0.001111 0.010905 0.000000 0.000000 0.000000
# 4 0.000000 0.000000 0.000000 0.039044 0.000000 0.000000
# 5 0.000000 0.000000 0.000000 0.000000 0.107209 0.000000
# 6 0.000000 0.000000 0.000000 0.000000 0.000000 0.038673
#
#
# Mechanical properties :
#
#
# Convention : Reuss Voigt Hill
#
# Bulk Modulus (GPa) = 68.18625 71.53943 69.86284
# Shear Modulus (GPa) = 19.51952 25.21199 22.36576
#
# Velocity S-wave (km/s) = 3.12622 3.55295 3.34640
# Velocity P-wave (km/s) = 6.86814 7.25607 7.06477
#
# Compressibility (1/GPa) = 0.01466571
#
# Stress axis : x y z
#
# Youngs Moduli (GPa) = 53.12763 92.80674 91.70227
#
# Poissons Ratio (x) = 0.69783 0.39322
# Poissons Ratio (y) = 0.39947 0.10190
# Poissons Ratio (z) = 0.22781 0.10313
#
# Static dielectric constant tensor:
#      x y z
#    x 3.604830 0.000000 0.000000 
#    y 0.000000 3.531300 0.000000 
#    z 0.000000 0.000000 3.805970 
# 
# 
# High freq. dielectric constant tensor:
#      x y z
#    x 1.779160 0.000000 0.000000 
#    y 0.000000 1.783880 0.000000 
#    z 0.000000 0.000000 1.785800 
# 
# From -- ./inp_files/36049.got.cif
#   From: 2010.03.12/outbox.cif.g09.slc.cpg/sg53_19_cif.got.tgz:36049.got - 2010.04.16 14:36:59.
