data_PCOD8220903
_publ_section_title
;
Structure prediction by ZEFSAII (Michael W. Deem and Ramdas Pophale) SiO2 
 PCOD8220903
Probable space group: P M N A
;
_chemical_formula_sum "Si O2"
_cell_formula_units_Z 48
_cell_length_a 9.447693
_cell_length_b 28.843966
_cell_length_c 9.238446
_cell_angle_alpha 90.000000
_cell_angle_beta 90.000000
_cell_angle_gamma 90.000000
_cell_volume 2517.559087
_symmetry_space_group_name_H-M "P M N A"
_symmetry_group_IT_number 53
_symmetry_cell_setting 'orthorhombic'
loop_
_space_group_symop_operation_xyz
x,y,z
1/2-x,-y,1/2+z
x,-y,-z
1/2-x,y,1/2-z
-x,-y,-z
1/2+x,y,1/2-z
-x,y,z
1/2+x,-y,1/2+z
loop_
_atom_site_type_symbol
_atom_site_label
_atom_site_fract_x
_atom_site_fract_y
_atom_site_fract_z
Si Si1 0.243892 0.612909 0.581221
Si Si2 0.500000 0.449997 0.426773
Si Si3 0.000000 0.545913 0.590173
Si Si4 0.164788 0.957783 0.103686
Si Si5 0.838667 0.879174 0.888979
Si Si6 0.167809 0.228510 0.103170
Si Si7 0.328128 0.296701 0.901291
O O1 0.250000 0.626200 0.750000
O O2 0.377389 0.584599 0.526178
O O3 0.129799 0.575647 0.540745
O O4 0.213382 0.659716 0.497818
O O5 0.500000 0.500000 0.500000
O O6 0.500000 0.464054 0.259737
O O7 0.000000 0.500000 0.500000
O O8 0.250000 0.962604 0.250000
O O9 0.000000 0.958687 0.142776
O O10 0.208467 0.909707 0.025992
O O11 0.206523 0.000000 0.000000
O O12 0.750000 0.894137 0.750000
O O13 0.816895 0.825709 0.929270
O O14 0.000000 0.890040 0.848276
O O15 0.250000 0.242173 0.250000
O O16 0.000000 0.243000 0.111277
O O17 0.253401 0.252363 0.973401
O O18 0.250000 0.303965 0.750000
O O19 0.500000 0.290800 0.887606
#
# Coordination Sequence:
#
# PCOD8220903 Si02
#       7
#     8   4   4   8   8   8   8
#     4  10  22  40  62  86 116 154 194 234 286 350
#     4  10  22  36  60  92 118 150 192 236 283 342
#     4  10  20  38  60  84 118 154 190 232 281 340
#     4  10  21  36  55  82 117 156 200 249 299 354
#     4   9  19  36  58  87 118 152 197 243 292 351
#     4  10  21  39  64  90 120 158 198 243 295 357
#     4  12  26  42  61  88 120 155 198 249 303 355
#
# _framework density 19.066087
#
# number of rings (size 3 to 8) (size 9 to 14) (size 15 to 20)
#    0.000    1.833    0.833    2.500    2.333    3.667 
#    0.000    1.667    0.000    0.000    0.000    0.000 
#    0.000    0.000    0.000    0.000    0.000    0.000 
#
# Total GULP energy -594925.251413 kJ/mol
# GULP energy per Si atom -12394.276071 kJ/mol
# Density = 1.902269 g / cm^3
# Si number density = 19.066087 Si / 1000 Ang^3
#
#
#
# Elastic Constant Matrix: (Units=GPa)
#
#
# Indices 1 2 3 4 5 6 
#
# 1 153.4211 61.7356 67.9357 0.0000 0.0000 0.0000
# 2 61.7356 109.6288 68.2184 0.0000 0.0000 0.0000
# 3 67.9357 68.2184 115.4600 0.0000 0.0000 0.0000
# 4 0.0000 0.0000 0.0000 35.9259 0.0000 0.0000
# 5 0.0000 0.0000 0.0000 0.0000 33.0001 0.0000
# 6 0.0000 0.0000 0.0000 0.0000 0.0000 40.6004
#
#
#
# Elastic Compliance Matrix: (Units=1/GPa)
#
#
# Indices 1 2 3 4 5 6 
#
# 1 0.009370 -0.002919 -0.003789 0.000000 0.000000 0.000000
# 2 -0.002919 0.015335 -0.007343 0.000000 0.000000 0.000000
# 3 -0.003789 -0.007343 0.015229 0.000000 0.000000 0.000000
# 4 0.000000 0.000000 0.000000 0.027835 0.000000 0.000000
# 5 0.000000 0.000000 0.000000 0.000000 0.030303 0.000000
# 6 0.000000 0.000000 0.000000 0.000000 0.000000 0.024630
#
#
# Mechanical properties :
#
#
# Convention : Reuss Voigt Hill
#
# Bulk Modulus (GPa) = 84.51304 86.03214 85.27259
# Shear Modulus (GPa) = 32.31075 33.94662 33.12869
#
# Velocity S-wave (km/s) = 4.12110 4.22414 4.17294
# Velocity P-wave (km/s) = 8.18946 8.30736 8.24862
#
# Compressibility (1/GPa) = 0.01183249
#
# Stress axis : x y z
#
# Youngs Moduli (GPa) = 106.72027 65.21145 65.66594
#
# Poissons Ratio (x) = 0.19036 0.24878
# Poissons Ratio (y) = 0.31154 0.48217
# Poissons Ratio (z) = 0.40432 0.47883
#
# Static dielectric constant tensor:
#      x y z
#    x 3.801130 0.000000 0.000000 
#    y 0.000000 3.569540 0.000000 
#    z 0.000000 0.000000 3.387590 
# 
# 
# High freq. dielectric constant tensor:
#      x y z
#    x 1.758200 0.000000 0.000000 
#    y 0.000000 1.756820 0.000000 
#    z 0.000000 0.000000 1.735770 
# 
# From -- ./inp_files/6766.got.cif
#   From: 2010.03.12/outbox.cif.g09.slc.cpg/sg53_4_cif.got.tgz:6766.got - 2010.04.16 14:36:59.
