data_PCOD8220609
_publ_section_title
;
Structure prediction by ZEFSAII (Michael W. Deem and Ramdas Pophale) SiO2 
 PCOD8220609
Probable space group: P M N A
;
_chemical_formula_sum "Si O2"
_cell_formula_units_Z 40
_cell_length_a 8.636855
_cell_length_b 25.522522
_cell_length_c 9.216346
_cell_angle_alpha 90.000000
_cell_angle_beta 90.000000
_cell_angle_gamma 90.000000
_cell_volume 2031.598980
_symmetry_space_group_name_H-M "P M N A"
_symmetry_group_IT_number 53
_symmetry_cell_setting 'orthorhombic'
loop_
_space_group_symop_operation_xyz
x,y,z
1/2-x,-y,1/2+z
x,-y,-z
1/2-x,y,1/2-z
-x,-y,-z
1/2+x,y,1/2-z
-x,y,z
1/2+x,-y,1/2+z
loop_
_atom_site_type_symbol
_atom_site_label
_atom_site_fract_x
_atom_site_fract_y
_atom_site_fract_z
Si Si1 0.682415 0.048600 0.908205
Si Si2 0.683473 0.649829 0.091974
Si Si3 0.817285 0.450685 0.409584
Si Si4 0.683506 0.741231 0.593436
Si Si5 0.316623 0.853062 0.903767
O O1 0.750000 0.046066 0.750000
O O2 0.500000 0.043878 0.898425
O O3 0.732172 0.103225 0.980671
O O4 0.750319 0.000000 0.000000
O O5 0.750000 0.638581 0.250000
O O6 0.500000 0.655752 0.099804
O O7 0.735547 0.602088 0.989746
O O8 0.756881 0.702546 0.029762
O O9 0.751776 0.500000 0.500000
O O10 0.750000 0.451399 0.250000
O O11 0.000000 0.454154 0.397401
O O12 0.750000 0.724741 0.750000
O O13 0.500000 0.739749 0.602140
O O14 0.739925 0.798736 0.547245
O O15 0.250000 0.871522 0.750000
O O16 0.500000 0.845579 0.891299
#
# Coordination Sequence:
#
# PCOD8220609 Si02
#       5
#     8   8   8   8   8
#     4  10  22  38  57  83 113 146 185 229 277 333
#     4  11  23  39  59  85 117 152 193 237 285 339
#     4  10  22  39  60  87 117 150 189 233 282 338
#     4  11  22  38  60  85 115 151 192 236 285 338
#     4  10  20  36  58  84 114 147 188 233 280 336
#
# _framework density 19.688925000000001
#
# number of rings (size 3 to 8) (size 9 to 14) (size 15 to 20)
#    0.000    1.600    0.000    6.000    0.000    6.400 
#    0.000    2.000    0.000    0.000    0.000    0.000 
#    0.000    0.000    0.000    0.000    0.000    0.000 
#
# Total GULP energy -496187.113999 kJ/mol
# GULP energy per Si atom -12404.677850 kJ/mol
# Density = 1.964411 g / cm^3
# Si number density = 19.688925 Si / 1000 Ang^3
#
#
#
# Elastic Constant Matrix: (Units=GPa)
#
#
# Indices 1 2 3 4 5 6 
#
# 1 85.1415 54.3980 50.1574 0.0000 0.0000 0.0000
# 2 54.3980 140.3006 103.0668 0.0000 0.0000 0.0000
# 3 50.1574 103.0668 179.5689 0.0000 0.0000 0.0000
# 4 0.0000 0.0000 0.0000 51.2729 0.0000 0.0000
# 5 0.0000 0.0000 0.0000 0.0000 39.3313 0.0000
# 6 0.0000 0.0000 0.0000 0.0000 0.0000 10.8359
#
#
#
# Elastic Compliance Matrix: (Units=1/GPa)
#
#
# Indices 1 2 3 4 5 6 
#
# 1 0.015861 -0.005006 -0.001557 0.000000 0.000000 0.000000
# 2 -0.005006 0.013904 -0.006582 0.000000 0.000000 0.000000
# 3 -0.001557 -0.006582 0.009782 0.000000 0.000000 0.000000
# 4 0.000000 0.000000 0.000000 0.019503 0.000000 0.000000
# 5 0.000000 0.000000 0.000000 0.000000 0.025425 0.000000
# 6 0.000000 0.000000 0.000000 0.000000 0.000000 0.092286
#
#
# Mechanical properties :
#
#
# Convention : Reuss Voigt Hill
#
# Bulk Modulus (GPa) = 75.43578 91.13949 83.28763
# Shear Modulus (GPa) = 24.09998 33.44726 28.77362
#
# Velocity S-wave (km/s) = 3.50242 4.12610 3.82699
# Velocity P-wave (km/s) = 7.39952 8.31203 7.86901
#
# Compressibility (1/GPa) = 0.01325631
#
# Stress axis : x y z
#
# Youngs Moduli (GPa) = 63.04908 71.92351 102.23149
#
# Poissons Ratio (x) = 0.36003 0.15919
# Poissons Ratio (y) = 0.31560 0.67289
# Poissons Ratio (z) = 0.09817 0.47340
#
# Static dielectric constant tensor:
#      x y z
#    x 3.595910 0.000000 0.000000 
#    y 0.000000 3.884050 0.000000 
#    z 0.000000 0.000000 3.729900 
# 
# 
# High freq. dielectric constant tensor:
#      x y z
#    x 1.771610 0.000000 0.000000 
#    y 0.000000 1.785430 0.000000 
#    z 0.000000 0.000000 1.773650 
# 
# From -- ./inp_files/6279.got.cif
#   From: 2010.03.12/outbox.cif.g09.slc.cpg/sg53_4_cif.got.tgz:6279.got - 2010.04.16 14:36:59.
