data_PCOD8220117
_publ_section_title
;
Structure prediction by ZEFSAII (Michael W. Deem and Ramdas Pophale) SiO2 
 PCOD8220117
Probable space group: P M N A
;
_chemical_formula_sum "Si O2"
_cell_formula_units_Z 40
_cell_length_a 8.493984
_cell_length_b 11.591102
_cell_length_c 21.434134
_cell_angle_alpha 90.000000
_cell_angle_beta 90.000000
_cell_angle_gamma 90.000000
_cell_volume 2110.289838
_symmetry_space_group_name_H-M "P M N A"
_symmetry_group_IT_number 53
_symmetry_cell_setting 'orthorhombic'
loop_
_space_group_symop_operation_xyz
x,y,z
1/2-x,-y,1/2+z
x,-y,-z
1/2-x,y,1/2-z
-x,-y,-z
1/2+x,y,1/2-z
-x,y,z
1/2+x,-y,1/2+z
loop_
_atom_site_type_symbol
_atom_site_label
_atom_site_fract_x
_atom_site_fract_y
_atom_site_fract_z
Si Si1 0.682093 0.551011 0.920392
Si Si2 0.184619 0.078286 0.557390
Si Si3 0.316039 0.970394 0.681111
Si Si4 0.680972 0.727788 0.814398
Si Si5 0.816020 0.671235 0.038614
O O1 0.500000 0.549591 0.941423
O O2 0.706048 0.617611 0.856802
O O3 0.746758 0.420694 0.911303
O O4 0.786397 0.617155 0.971020
O O5 0.254620 0.050300 0.625320
O O6 0.222812 0.210095 0.543023
O O7 0.000000 0.058397 0.561541
O O8 0.252583 0.000000 0.500000
O O9 0.250000 0.002613 0.750000
O O10 0.500000 0.986835 0.685324
O O11 0.273703 0.839844 0.661648
O O12 0.750000 0.684258 0.750000
O O13 0.500000 0.765163 0.808294
O O14 0.000000 0.692647 0.050139
#
# Coordination Sequence:
#
# PCOD8220117 Si02
#       5
#     8   8   8   8   8
#     4  10  20  36  56  78 108 144 179 219 271 326
#     4  11  23  39  59  83 113 148 187 231 279 332
#     4  11  22  37  58  83 114 149 186 229 277 331
#     4  10  20  34  55  81 108 141 180 221 266 317
#     4  11  22  35  55  82 109 140 179 224 274 325
#
# _framework density 18.954743000000001
#
# number of rings (size 3 to 8) (size 9 to 14) (size 15 to 20)
#    0.000    1.400    0.000    9.000    0.000    9.600 
#    0.000    1.000    0.000    2.400    0.000    0.000 
#    0.000    0.000    0.000    0.000    0.000    0.000 
#
# Total GULP energy -495946.573881 kJ/mol
# GULP energy per Si atom -12398.664347 kJ/mol
# Density = 1.891160 g / cm^3
# Si number density = 18.954743 Si / 1000 Ang^3
#
#
#
# Elastic Constant Matrix: (Units=GPa)
#
#
# Indices 1 2 3 4 5 6 
#
# 1 98.7344 21.3962 32.1231 0.0000 0.0000 0.0000
# 2 21.3962 121.6919 54.1749 0.0000 0.0000 0.0000
# 3 32.1231 54.1749 88.4205 0.0000 0.0000 0.0000
# 4 0.0000 0.0000 0.0000 31.9447 0.0000 0.0000
# 5 0.0000 0.0000 0.0000 0.0000 20.1256 0.0000
# 6 0.0000 0.0000 0.0000 0.0000 0.0000 32.0050
#
#
#
# Elastic Compliance Matrix: (Units=1/GPa)
#
#
# Indices 1 2 3 4 5 6 
#
# 1 0.011490 -0.000223 -0.004038 0.000000 0.000000 0.000000
# 2 -0.000223 0.011304 -0.006845 0.000000 0.000000 0.000000
# 3 -0.004038 -0.006845 0.016970 0.000000 0.000000 0.000000
# 4 0.000000 0.000000 0.000000 0.031304 0.000000 0.000000
# 5 0.000000 0.000000 0.000000 0.000000 0.049688 0.000000
# 6 0.000000 0.000000 0.000000 0.000000 0.000000 0.031245
#
#
# Mechanical properties :
#
#
# Convention : Reuss Voigt Hill
#
# Bulk Modulus (GPa) = 56.96897 58.24835 57.60866
# Shear Modulus (GPa) = 27.76791 30.22522 28.99657
#
# Velocity S-wave (km/s) = 3.83163 3.99758 3.91548
# Velocity P-wave (km/s) = 7.04952 7.21834 7.13443
#
# Compressibility (1/GPa) = 0.01755342
#
# Stress axis : x y z
#
# Youngs Moduli (GPa) = 87.03083 88.46538 58.92582
#
# Poissons Ratio (x) = 0.01969 0.23794
# Poissons Ratio (y) = 0.01937 0.40335
# Poissons Ratio (z) = 0.35143 0.60554
#
# Static dielectric constant tensor:
#      x y z
#    x 3.619410 0.000000 0.000000 
#    y 0.000000 3.603610 0.000000 
#    z 0.000000 0.000000 3.620710 
# 
# 
# High freq. dielectric constant tensor:
#      x y z
#    x 1.753290 0.000000 0.000000 
#    y 0.000000 1.737610 0.000000 
#    z 0.000000 0.000000 1.732780 
# 
# From -- ./inp_files/30346.got.cif
#   From: 2010.03.12/outbox.cif.g09.slc.cpg/sg53_16_cif.got.tgz:30346.got - 2010.04.16 14:36:59.
