data_PCOD8220810
_publ_section_title
;
Structure prediction by ZEFSAII (Michael W. Deem and Ramdas Pophale) SiO2 
 PCOD8220810
Probable space group: P M N A
;
_chemical_formula_sum "Si O2"
_cell_formula_units_Z 64
_cell_length_a 9.167037
_cell_length_b 11.742719
_cell_length_c 30.625292
_cell_angle_alpha 90.000000
_cell_angle_beta 90.000000
_cell_angle_gamma 90.000000
_cell_volume 3296.688331
_symmetry_space_group_name_H-M "P M N A"
_symmetry_group_IT_number 53
_symmetry_cell_setting 'orthorhombic'
loop_
_space_group_symop_operation_xyz
x,y,z
1/2-x,-y,1/2+z
x,-y,-z
1/2-x,y,1/2-z
-x,-y,-z
1/2+x,y,1/2-z
-x,y,z
1/2+x,-y,1/2+z
loop_
_atom_site_type_symbol
_atom_site_label
_atom_site_fract_x
_atom_site_fract_y
_atom_site_fract_z
Si Si1 0.328281 0.504802 0.049915
Si Si2 0.830612 0.250239 0.583764
Si Si3 0.170650 0.039493 0.953314
Si Si4 0.327080 0.512944 0.292965
Si Si5 0.170883 0.630718 0.877447
Si Si6 0.830246 0.106733 0.129466
Si Si7 0.166125 0.736341 0.316528
Si Si8 0.667532 0.010449 0.792043
O O1 0.500000 0.483911 0.053381
O O2 0.280184 0.625846 0.068674
O O3 0.251174 0.408356 0.078677
O O4 0.274616 0.500000 0.000000
O O5 0.789466 0.236543 0.634074
O O6 0.000000 0.229959 0.574928
O O7 0.743554 0.159199 0.556248
O O8 0.210418 0.943400 0.917848
O O9 0.000000 0.061997 0.955121
O O10 0.231248 0.000000 0.000000
O O11 0.250000 0.459401 0.250000
O O12 0.500000 0.509399 0.286575
O O13 0.277138 0.441791 0.335390
O O14 0.275802 0.643533 0.297118
O O15 0.212776 0.761239 0.869118
O O16 0.000000 0.615170 0.885239
O O17 0.736345 0.039633 0.164494
O O18 0.000000 0.088547 0.140324
O O19 0.000000 0.689383 0.313961
O O20 0.182930 0.853207 0.290336
O O21 0.750000 0.959451 0.750000
O O22 0.500000 0.972419 0.790117
#
# Coordination Sequence:
#
# PCOD8220810 Si02
#       8
#     8   8   8   8   8   8   8   8
#     4  10  22  39  60  88 120 155 195 240 291 344
#     4  10  20  37  60  87 120 153 190 240 290 341
#     4  10  22  38  59  88 119 155 197 241 291 345
#     4  11  23  38  59  86 115 149 192 235 287 346
#     4  10  23  41  60  85 116 154 196 240 289 342
#     4  10  22  41  60  82 118 155 194 243 288 340
#     4  10  20  37  60  87 119 152 189 237 290 342
#     4  11  23  39  60  87 116 149 192 236 289 348
#
# _framework density 19.413423000000002
#
# number of rings (size 3 to 8) (size 9 to 14) (size 15 to 20)
#    0.000    1.750    2.500    1.125    1.750    5.000 
#    0.000    1.250    0.000    0.000    0.000    0.000 
#    0.000    0.000    0.000    0.000    0.000    0.000 
#
# Total GULP energy -793879.263990 kJ/mol
# GULP energy per Si atom -12404.363500 kJ/mol
# Density = 1.936924 g / cm^3
# Si number density = 19.413423 Si / 1000 Ang^3
#
#
#
# Elastic Constant Matrix: (Units=GPa)
#
#
# Indices 1 2 3 4 5 6 
#
# 1 67.4194 36.5000 53.1723 0.0000 0.0000 0.0000
# 2 36.5000 78.7575 28.9740 0.0000 0.0000 0.0000
# 3 53.1723 28.9740 123.5130 0.0000 0.0000 0.0000
# 4 0.0000 0.0000 0.0000 23.3630 0.0000 0.0000
# 5 0.0000 0.0000 0.0000 0.0000 33.9533 0.0000
# 6 0.0000 0.0000 0.0000 0.0000 0.0000 8.0103
#
#
#
# Elastic Compliance Matrix: (Units=1/GPa)
#
#
# Indices 1 2 3 4 5 6 
#
# 1 0.027392 -0.009146 -0.009647 0.000000 0.000000 0.000000
# 2 -0.009146 0.016950 -0.000039 0.000000 0.000000 0.000000
# 3 -0.009647 -0.000039 0.012258 0.000000 0.000000 0.000000
# 4 0.000000 0.000000 0.000000 0.042803 0.000000 0.000000
# 5 0.000000 0.000000 0.000000 0.000000 0.029452 0.000000
# 6 0.000000 0.000000 0.000000 0.000000 0.000000 0.124840
#
#
# Mechanical properties :
#
#
# Convention : Reuss Voigt Hill
#
# Bulk Modulus (GPa) = 52.80542 56.33141 54.56842
# Shear Modulus (GPa) = 16.79702 23.13488 19.96595
#
# Velocity S-wave (km/s) = 2.94467 3.45584 3.21044
# Velocity P-wave (km/s) = 6.23064 6.70846 6.47396
#
# Compressibility (1/GPa) = 0.01893745
#
# Stress axis : x y z
#
# Youngs Moduli (GPa) = 36.50652 58.99643 81.57645
#
# Poissons Ratio (x) = 0.53958 0.78696
# Poissons Ratio (y) = 0.33389 0.00317
# Poissons Ratio (z) = 0.35218 0.00229
#
# Static dielectric constant tensor:
#      x y z
#    x 3.442370 0.000000 0.000000 
#    y 0.000000 3.485250 0.000000 
#    z 0.000000 0.000000 3.679470 
# 
# 
# High freq. dielectric constant tensor:
#      x y z
#    x 1.750320 0.000000 0.000000 
#    y 0.000000 1.753890 0.000000 
#    z 0.000000 0.000000 1.771950 
# 
# From -- ./inp_files/38251.got.cif
#   From: 2010.03.12/outbox.cif.g09.slc.cpg/sg53_20_cif.got.tgz:38251.got - 2010.04.16 14:36:59.
