data_PCOD8220932
_publ_section_title
;
Structure prediction by ZEFSAII (Michael W. Deem and Ramdas Pophale) SiO2 
 PCOD8220932
Probable space group: P M N A
;
_chemical_formula_sum "Si O2"
_cell_formula_units_Z 56
_cell_length_a 16.992497
_cell_length_b 19.402587
_cell_length_c 8.570274
_cell_angle_alpha 90.000000
_cell_angle_beta 90.000000
_cell_angle_gamma 90.000000
_cell_volume 2825.605637
_symmetry_space_group_name_H-M "P M N A"
_symmetry_group_IT_number 53
_symmetry_cell_setting 'orthorhombic'
loop_
_space_group_symop_operation_xyz
x,y,z
1/2-x,-y,1/2+z
x,-y,-z
1/2-x,y,1/2-z
-x,-y,-z
1/2+x,y,1/2-z
-x,y,z
1/2+x,-y,1/2+z
loop_
_atom_site_type_symbol
_atom_site_label
_atom_site_fract_x
_atom_site_fract_y
_atom_site_fract_z
Si Si1 0.835374 0.793574 0.565741
Si Si2 0.770871 0.424758 0.069902
Si Si3 0.908578 0.927863 0.065236
Si Si4 0.408939 0.073565 0.929557
Si Si5 0.848747 0.207963 0.084852
Si Si6 0.176029 0.673942 0.353513
Si Si7 0.410271 0.657318 0.445542
O O1 0.853401 0.870072 0.507861
O O2 0.743221 0.777200 0.573100
O O3 0.875273 0.784716 0.734916
O O4 0.867238 0.736617 0.444115
O O5 0.750000 0.428186 0.250000
O O6 0.778378 0.500000 0.000000
O O7 0.703549 0.384177 0.975198
O O8 0.855211 0.387469 0.058482
O O9 0.891123 0.925674 0.247456
O O10 0.000000 0.919289 0.026340
O O11 0.862603 0.868433 0.976610
O O12 0.876410 0.000000 0.000000
O O13 0.500000 0.090621 0.965547
O O14 0.385440 0.000000 0.000000
O O15 0.897970 0.261694 0.981697
O O16 0.250000 0.700790 0.250000
O O17 0.111665 0.642465 0.235196
O O18 0.500000 0.635807 0.474997
#
# Coordination Sequence:
#
# PCOD8220932 Si02
#       7
#     8   8   8   8   8   8   8
#     4  11  22  36  59  84 115 157 203 251 300 368
#     4  11  22  42  70  96 126 171 211 248 304 367
#     4  10  21  37  56  76 106 150 195 244 307 371
#     4  10  22  38  56  81 113 150 198 257 315 368
#     4  11  22  37  57  85 119 155 201 251 304 365
#     4  10  20  38  62  89 122 161 203 250 297 366
#     4  11  23  39  63  95 130 165 205 259 313 362
#
# _framework density 19.818759
#
# number of rings (size 3 to 8) (size 9 to 14) (size 15 to 20)
#    0.000    1.429    2.857    4.286    0.000    4.857 
#    0.000    2.143    0.000    1.714    0.000    0.000 
#    0.000    0.000    0.000    0.000    0.000    0.000 
#
# Total GULP energy -694598.469918 kJ/mol
# GULP energy per Si atom -12403.544106 kJ/mol
# Density = 1.977365 g / cm^3
# Si number density = 19.818759 Si / 1000 Ang^3
#
#
#
# Elastic Constant Matrix: (Units=GPa)
#
#
# Indices 1 2 3 4 5 6 
#
# 1 74.2902 27.6518 37.3973 0.0000 0.0000 0.0000
# 2 27.6518 114.3495 41.2836 0.0000 0.0000 0.0000
# 3 37.3973 41.2836 125.0025 0.0000 0.0000 0.0000
# 4 0.0000 0.0000 0.0000 41.7285 0.0000 0.0000
# 5 0.0000 0.0000 0.0000 0.0000 16.6773 0.0000
# 6 0.0000 0.0000 0.0000 0.0000 0.0000 19.8082
#
#
#
# Elastic Compliance Matrix: (Units=1/GPa)
#
#
# Indices 1 2 3 4 5 6 
#
# 1 0.016453 -0.002500 -0.004097 0.000000 0.000000 0.000000
# 2 -0.002500 0.010309 -0.002657 0.000000 0.000000 0.000000
# 3 -0.004097 -0.002657 0.010103 0.000000 0.000000 0.000000
# 4 0.000000 0.000000 0.000000 0.023964 0.000000 0.000000
# 5 0.000000 0.000000 0.000000 0.000000 0.059962 0.000000
# 6 0.000000 0.000000 0.000000 0.000000 0.000000 0.050484
#
#
# Mechanical properties :
#
#
# Convention : Reuss Voigt Hill
#
# Bulk Modulus (GPa) = 54.47047 58.47861 56.47454
# Shear Modulus (GPa) = 25.52301 29.46344 27.49322
#
# Velocity S-wave (km/s) = 3.59252 3.85989 3.72860
# Velocity P-wave (km/s) = 6.68971 7.03105 6.86250
#
# Compressibility (1/GPa) = 0.01835857
#
# Stress axis : x y z
#
# Youngs Moduli (GPa) = 60.77741 97.00500 98.98110
#
# Poissons Ratio (x) = 0.24248 0.40551
# Poissons Ratio (y) = 0.15192 0.26297
# Poissons Ratio (z) = 0.24900 0.25772
#
# Static dielectric constant tensor:
#      x y z
#    x 3.413780 0.000000 0.000000 
#    y 0.000000 3.623120 0.000000 
#    z 0.000000 0.000000 3.946900 
# 
# 
# High freq. dielectric constant tensor:
#      x y z
#    x 1.747780 0.000000 0.000000 
#    y 0.000000 1.775540 0.000000 
#    z 0.000000 0.000000 1.792980 
# 
# From -- ./inp_files/10191.got.cif
#   From: 2010.03.12/outbox.cif.g09.slc.cpg/sg53_6_cif.got.tgz:10191.got - 2010.04.16 14:36:59.
