data_PCOD8220147
_publ_section_title
;
Structure prediction by ZEFSAII (Michael W. Deem and Ramdas Pophale) SiO2 
 PCOD8220147
Probable space group: P M N A
;
_chemical_formula_sum "Si O2"
_cell_formula_units_Z 56
_cell_length_a 8.937082
_cell_length_b 22.012527
_cell_length_c 14.347527
_cell_angle_alpha 90.000000
_cell_angle_beta 90.000000
_cell_angle_gamma 90.000000
_cell_volume 2822.556831
_symmetry_space_group_name_H-M "P M N A"
_symmetry_group_IT_number 53
_symmetry_cell_setting 'orthorhombic'
loop_
_space_group_symop_operation_xyz
x,y,z
1/2-x,-y,1/2+z
x,-y,-z
1/2-x,y,1/2-z
-x,-y,-z
1/2+x,y,1/2-z
-x,y,z
1/2+x,-y,1/2+z
loop_
_atom_site_type_symbol
_atom_site_label
_atom_site_fract_x
_atom_site_fract_y
_atom_site_fract_z
Si Si1 0.821848 0.604395 0.841545
Si Si2 0.821140 0.647064 0.042489
Si Si3 0.838253 0.478398 0.895854
Si Si4 0.325745 0.244210 0.849942
Si Si5 0.325717 0.126238 0.969514
Si Si6 0.826737 0.032351 0.844639
Si Si7 0.673208 0.889468 0.655100
O O1 0.750000 0.635866 0.750000
O O2 0.754617 0.534729 0.845416
O O3 0.000000 0.602654 0.833454
O O4 0.774894 0.641757 0.933611
O O5 0.758289 0.587864 0.100361
O O6 0.744249 0.706124 0.082464
O O7 0.000000 0.650904 0.052284
O O8 0.000000 0.468978 0.847553
O O9 0.866892 0.500000 0.000000
O O10 0.250000 0.246010 0.750000
O O11 0.500000 0.257560 0.837713
O O12 0.295200 0.179312 0.896044
O O13 0.500000 0.114084 0.985352
O O14 0.249363 0.065049 0.931913
O O15 0.251567 0.143924 0.068276
O O16 0.750000 0.055542 0.750000
O O17 0.000000 0.050349 0.840680
O O18 0.802859 0.961095 0.857541
O O19 0.750000 0.866508 0.750000
O O20 0.500000 0.871415 0.658206
#
# Coordination Sequence:
#
# PCOD8220147 Si02
#       7
#     8   8   8   8   8   8   8
#     4   9  17  30  51  80 112 144 177 217 266 320
#     4   9  18  35  57  78 105 144 184 222 268 319
#     4   7  12  26  48  73 102 136 174 215 260 311
#     4  11  25  42  59  80 106 138 179 226 271 318
#     4  11  23  38  57  81 110 146 186 228 273 320
#     4  10  20  34  55  85 117 148 182 222 271 325
#     4  10  21  37  58  85 116 147 180 221 270 325
#
# _framework density 19.840167999999998
#
# number of rings (size 3 to 8) (size 9 to 14) (size 15 to 20)
#    0.000    2.429    0.000    4.286    0.000    8.000 
#    0.000    2.857    0.000    4.286    0.000    0.000 
#    0.000    0.000    0.000    0.000    0.000    0.000 
#
# Total GULP energy -694068.982042 kJ/mol
# GULP energy per Si atom -12394.088965 kJ/mol
# Density = 1.979501 g / cm^3
# Si number density = 19.840168 Si / 1000 Ang^3
#
#
#
# Elastic Constant Matrix: (Units=GPa)
#
#
# Indices 1 2 3 4 5 6 
#
# 1 95.6115 34.0031 58.2689 0.0000 0.0000 0.0000
# 2 34.0031 42.0675 25.4904 0.0000 0.0000 0.0000
# 3 58.2689 25.4904 141.9584 0.0000 0.0000 0.0000
# 4 0.0000 0.0000 0.0000 23.2887 0.0000 0.0000
# 5 0.0000 0.0000 0.0000 0.0000 37.6524 0.0000
# 6 0.0000 0.0000 0.0000 0.0000 0.0000 4.8271
#
#
#
# Elastic Compliance Matrix: (Units=1/GPa)
#
#
# Indices 1 2 3 4 5 6 
#
# 1 0.017571 -0.011033 -0.005231 0.000000 0.000000 0.000000
# 2 -0.011033 0.033601 -0.001505 0.000000 0.000000 0.000000
# 3 -0.005231 -0.001505 0.009462 0.000000 0.000000 0.000000
# 4 0.000000 0.000000 0.000000 0.042939 0.000000 0.000000
# 5 0.000000 0.000000 0.000000 0.000000 0.026559 0.000000
# 6 0.000000 0.000000 0.000000 0.000000 0.000000 0.207163
#
#
# Mechanical properties :
#
#
# Convention : Reuss Voigt Hill
#
# Bulk Modulus (GPa) = 39.84705 57.24025 48.54365
# Shear Modulus (GPa) = 13.11659 23.94529 18.53094
#
# Velocity S-wave (km/s) = 2.57400 3.47783 3.05948
# Velocity P-wave (km/s) = 5.38160 6.71121 6.08284
#
# Compressibility (1/GPa) = 0.02509596
#
# Stress axis : x y z
#
# Youngs Moduli (GPa) = 56.91322 29.76109 105.68901
#
# Poissons Ratio (x) = 0.32834 0.55287
# Poissons Ratio (y) = 0.62790 0.15906
# Poissons Ratio (z) = 0.29772 0.04479
#
# Static dielectric constant tensor:
#      x y z
#    x 3.452550 0.000000 0.000000 
#    y 0.000000 3.546130 0.000000 
#    z 0.000000 0.000000 3.784730 
# 
# 
# High freq. dielectric constant tensor:
#      x y z
#    x 1.759900 0.000000 0.000000 
#    y 0.000000 1.756700 0.000000 
#    z 0.000000 0.000000 1.782450 
# 
# From -- ./inp_files/20581.got.cif
#   From: 2010.03.12/outbox.cif.g09.slc.cpg/sg53_11_cif.got.tgz:20581.got - 2010.04.16 14:36:59.
