data_PCOD8220428
_publ_section_title
;
Structure prediction by ZEFSAII (Michael W. Deem and Ramdas Pophale) SiO2 
 PCOD8220428
Probable space group: P M N A
;
_chemical_formula_sum "Si O2"
_cell_formula_units_Z 48
_cell_length_a 17.739843
_cell_length_b 14.984405
_cell_length_c 9.523126
_cell_angle_alpha 90.000000
_cell_angle_beta 90.000000
_cell_angle_gamma 90.000000
_cell_volume 2531.446802
_symmetry_space_group_name_H-M "P M N A"
_symmetry_group_IT_number 53
_symmetry_cell_setting 'orthorhombic'
loop_
_space_group_symop_operation_xyz
x,y,z
1/2-x,-y,1/2+z
x,-y,-z
1/2-x,y,1/2-z
-x,-y,-z
1/2+x,y,1/2-z
-x,y,z
1/2+x,-y,1/2+z
loop_
_atom_site_type_symbol
_atom_site_label
_atom_site_fract_x
_atom_site_fract_y
_atom_site_fract_z
Si Si1 0.415992 0.849042 0.509927
Si Si2 0.735217 0.082237 0.587624
Si Si3 0.163784 0.263690 0.229376
Si Si4 0.321879 0.264701 0.964567
Si Si5 0.190740 0.602829 0.010968
Si Si6 0.082471 0.689408 0.204784
O O1 0.500000 0.892643 0.527061
O O2 0.355129 0.915965 0.441744
O O3 0.385303 0.815100 0.660643
O O4 0.422836 0.764758 0.410928
O O5 0.750000 0.064102 0.750000
O O6 0.773721 0.173650 0.537831
O O7 0.770356 0.000000 0.500000
O O8 0.250000 0.231615 0.250000
O O9 0.133647 0.278780 0.387968
O O10 0.161116 0.354783 0.136550
O O11 0.264680 0.345427 0.938809
O O12 0.382387 0.265837 0.842133
O O13 0.129846 0.609218 0.136407
O O14 0.212019 0.500000 0.000000
O O15 0.000000 0.652045 0.243353
#
# Coordination Sequence:
#
# PCOD8220428 Si02
#       6
#     8   8   8   8   8   8
#     4  10  20  38  60  83 115 154 193 238 295 355
#     4  12  24  38  63  89 116 156 200 250 295 356
#     4   9  18  33  58  83 115 148 194 240 287 344
#     4  11  20  38  59  87 117 148 202 248 295 347
#     4  10  20  35  60  88 114 153 201 244 286 353
#     4  10  20  36  60  83 118 160 192 239 302 357
#
# _framework density 18.961489
#
# number of rings (size 3 to 8) (size 9 to 14) (size 15 to 20)
#    0.000    1.667    6.667    0.500    2.333    5.333 
#    0.000    0.000    0.000    4.500    0.000    0.000 
#    0.000    0.000    0.000    0.000    0.000    0.000 
#
# Total GULP energy -594953.237054 kJ/mol
# GULP energy per Si atom -12394.859105 kJ/mol
# Density = 1.891833 g / cm^3
# Si number density = 18.961489 Si / 1000 Ang^3
#
#
#
# Elastic Constant Matrix: (Units=GPa)
#
#
# Indices 1 2 3 4 5 6 
#
# 1 113.7202 34.1496 58.0289 0.0000 0.0000 0.0000
# 2 34.1496 91.3334 29.2876 0.0000 0.0000 0.0000
# 3 58.0289 29.2876 129.3788 0.0000 0.0000 0.0000
# 4 0.0000 0.0000 0.0000 18.4282 0.0000 0.0000
# 5 0.0000 0.0000 0.0000 0.0000 14.5678 0.0000
# 6 0.0000 0.0000 0.0000 0.0000 0.0000 -1.6525
#
#
#
# Elastic Compliance Matrix: (Units=1/GPa)
#
#
# Indices 1 2 3 4 5 6 
#
# 1 0.012124 -0.003008 -0.004757 0.000000 0.000000 0.000000
# 2 -0.003008 0.012552 -0.001492 0.000000 0.000000 0.000000
# 3 -0.004757 -0.001492 0.010201 0.000000 0.000000 0.000000
# 4 0.000000 0.000000 0.000000 0.054265 0.000000 0.000000
# 5 0.000000 0.000000 0.000000 0.000000 0.068645 0.000000
# 6 0.000000 0.000000 0.000000 0.000000 0.000000 -0.605133
#
#
# Mechanical properties :
#
#
# Convention : Reuss Voigt Hill
#
# Bulk Modulus (GPa) = 61.11535 64.15163 62.63349
# Shear Modulus (GPa) = -11.80976 20.46645 4.32834
#
# Velocity S-wave (km/s) = -2.49836 3.28894 1.51250
# Velocity P-wave (km/s) = 4.89682 6.95190 6.01281
#
# Compressibility (1/GPa) = 0.01636250
#
# Stress axis : x y z
#
# Youngs Moduli (GPa) = 82.48002 79.66818 98.03258
#
# Poissons Ratio (x) = 0.23963 0.46634
# Poissons Ratio (y) = 0.24808 0.14630
# Poissons Ratio (z) = 0.39236 0.11889
#
# Static dielectric constant tensor:
#      x y z
#    x 3.748070 0.000000 0.000000 
#    y 0.000000 3.176180 0.000000 
#    z 0.000000 0.000000 3.938570 
# 
# 
# High freq. dielectric constant tensor:
#      x y z
#    x 1.721470 0.000000 0.000000 
#    y 0.000000 1.712290 0.000000 
#    z 0.000000 0.000000 1.751910 
# 
# From -- ./inp_files/9898.got.cif
#   From: 2010.03.12/outbox.cif.g09.slc.cpg/sg53_5_cif.got.tgz:9898.got - 2010.04.16 14:36:59.
