data_PCOD8220762
_publ_section_title
;
Structure prediction by ZEFSAII (Michael W. Deem and Ramdas Pophale) SiO2 
 PCOD8220762
Probable space group: P M N A
;
_chemical_formula_sum "Si O2"
_cell_formula_units_Z 64
_cell_length_a 8.820051
_cell_length_b 14.422074
_cell_length_c 25.246728
_cell_angle_alpha 90.000000
_cell_angle_beta 90.000000
_cell_angle_gamma 90.000000
_cell_volume 3211.470353
_symmetry_space_group_name_H-M "P M N A"
_symmetry_group_IT_number 53
_symmetry_cell_setting 'orthorhombic'
loop_
_space_group_symop_operation_xyz
x,y,z
1/2-x,-y,1/2+z
x,-y,-z
1/2-x,y,1/2-z
-x,-y,-z
1/2+x,y,1/2-z
-x,y,z
1/2+x,-y,1/2+z
loop_
_atom_site_type_symbol
_atom_site_label
_atom_site_fract_x
_atom_site_fract_y
_atom_site_fract_z
Si Si1 0.820643 0.173930 0.697385
Si Si2 0.180046 0.728884 0.410423
Si Si3 0.821064 0.779555 0.804352
Si Si4 0.323280 0.472839 0.942776
Si Si5 0.175006 0.338404 0.396408
Si Si6 0.329651 0.962794 0.552069
Si Si7 0.829705 0.763232 0.985737
Si Si8 0.181236 0.986127 0.833202
O O1 0.750000 0.221666 0.750000
O O2 0.763984 0.231193 0.646069
O O3 0.000000 0.174276 0.701564
O O4 0.761918 0.067920 0.698278
O O5 0.240771 0.623646 0.419031
O O6 0.258335 0.788753 0.457067
O O7 0.000000 0.737691 0.414573
O O8 0.750000 0.741352 0.750000
O O9 0.772017 0.711738 0.851594
O O10 0.765826 0.885637 0.812172
O O11 0.000000 0.774821 0.800719
O O12 0.500000 0.458837 0.952800
O O13 0.295127 0.550901 0.897502
O O14 0.248733 0.500000 0.000000
O O15 0.222488 0.309233 0.455831
O O16 0.000000 0.313935 0.386869
O O17 0.500000 0.004083 0.550655
O O18 0.333069 0.852254 0.552007
O O19 0.254900 0.995529 0.606693
O O20 0.240430 0.000000 0.500000
O O21 0.000000 0.724059 0.992584
O O22 0.000000 0.995441 0.830145
#
# Coordination Sequence:
#
# PCOD8220762 Si02
#       8
#     8   8   8   8   8   8   8   8
#     4  11  24  40  60  84 114 150 194 245 288 336
#     4  10  21  39  60  86 116 150 194 240 289 348
#     4  11  23  40  60  85 117 154 198 243 289 342
#     4   9  17  34  61  87 114 153 192 228 282 351
#     4  11  21  36  60  86 117 155 192 235 288 343
#     4   9  17  30  49  76 112 153 188 223 276 336
#     4  11  20  33  55  85 120 153 188 234 287 344
#     4  10  20  37  59  83 115 153 195 237 280 339
#
# _framework density 19.928566
#
# number of rings (size 3 to 8) (size 9 to 14) (size 15 to 20)
#    0.000    1.750    2.500    2.625    0.000    4.000 
#    0.000    2.500    0.000    4.125    0.000    0.000 
#    0.000    0.000    0.000    0.000    0.000    0.000 
#
# Total GULP energy -793368.578717 kJ/mol
# GULP energy per Si atom -12396.384042 kJ/mol
# Density = 1.988321 g / cm^3
# Si number density = 19.928566 Si / 1000 Ang^3
#
#
#
# Elastic Constant Matrix: (Units=GPa)
#
#
# Indices 1 2 3 4 5 6 
#
# 1 50.8355 18.7057 31.8823 0.0000 0.0000 0.0000
# 2 18.7057 72.3152 33.3379 0.0000 0.0000 0.0000
# 3 31.8823 33.3379 142.0112 0.0000 0.0000 0.0000
# 4 0.0000 0.0000 0.0000 19.0326 0.0000 0.0000
# 5 0.0000 0.0000 0.0000 0.0000 31.5442 0.0000
# 6 0.0000 0.0000 0.0000 0.0000 0.0000 17.2231
#
#
#
# Elastic Compliance Matrix: (Units=1/GPa)
#
#
# Indices 1 2 3 4 5 6 
#
# 1 0.023966 -0.004170 -0.004402 0.000000 0.000000 0.000000
# 2 -0.004170 0.016232 -0.002874 0.000000 0.000000 0.000000
# 3 -0.004402 -0.002874 0.008705 0.000000 0.000000 0.000000
# 4 0.000000 0.000000 0.000000 0.052541 0.000000 0.000000
# 5 0.000000 0.000000 0.000000 0.000000 0.031702 0.000000
# 6 0.000000 0.000000 0.000000 0.000000 0.000000 0.058062
#
#
# Mechanical properties :
#
#
# Convention : Reuss Voigt Hill
#
# Bulk Modulus (GPa) = 38.44545 48.11260 43.27903
# Shear Modulus (GPa) = 22.44464 25.64238 24.04351
#
# Velocity S-wave (km/s) = 3.35961 3.59097 3.47722
# Velocity P-wave (km/s) = 5.86369 6.43338 6.15513
#
# Compressibility (1/GPa) = 0.02601088
#
# Stress axis : x y z
#
# Youngs Moduli (GPa) = 41.72524 61.60613 114.88114
#
# Poissons Ratio (x) = 0.25691 0.50566
# Poissons Ratio (y) = 0.17400 0.33021
# Poissons Ratio (z) = 0.18366 0.17708
#
# Static dielectric constant tensor:
#      x y z
#    x 3.326370 0.000000 0.000000 
#    y 0.000000 3.645750 0.000000 
#    z 0.000000 0.000000 3.806360 
# 
# 
# High freq. dielectric constant tensor:
#      x y z
#    x 1.751980 0.000000 0.000000 
#    y 0.000000 1.770080 0.000000 
#    z 0.000000 0.000000 1.786640 
# 
# From -- ./inp_files/34302.got.cif
#   From: 2010.03.12/outbox.cif.g09.slc.cpg/sg53_18_cif.got.tgz:34302.got - 2010.04.16 14:36:59.
