data_PCOD8220455
_publ_section_title
;
Structure prediction by ZEFSAII (Michael W. Deem and Ramdas Pophale) SiO2 
 PCOD8220455
Probable space group: P M N A
;
_chemical_formula_sum "Si O2"
_cell_formula_units_Z 48
_cell_length_a 9.516745
_cell_length_b 9.799139
_cell_length_c 28.760636
_cell_angle_alpha 90.000000
_cell_angle_beta 90.000000
_cell_angle_gamma 90.000000
_cell_volume 2682.099198
_symmetry_space_group_name_H-M "P M N A"
_symmetry_group_IT_number 53
_symmetry_cell_setting 'orthorhombic'
loop_
_space_group_symop_operation_xyz
x,y,z
1/2-x,-y,1/2+z
x,-y,-z
1/2-x,y,1/2-z
-x,-y,-z
1/2+x,y,1/2-z
-x,y,z
1/2+x,-y,1/2+z
loop_
_atom_site_type_symbol
_atom_site_label
_atom_site_fract_x
_atom_site_fract_y
_atom_site_fract_z
Si Si1 0.163668 0.034493 0.295873
Si Si2 0.836419 0.532689 0.379237
Si Si3 0.834730 0.782559 0.616811
Si Si4 0.838135 0.276973 0.705559
Si Si5 0.160798 0.869538 0.972485
Si Si6 0.659949 0.389193 0.535335
O O1 0.250000 0.075999 0.250000
O O2 0.211853 0.131072 0.338163
O O3 0.000000 0.056069 0.284529
O O4 0.195873 0.877982 0.310500
O O5 0.791833 0.374659 0.374498
O O6 0.795388 0.613896 0.333095
O O7 0.753317 0.610179 0.419152
O O8 0.000000 0.546101 0.390631
O O9 0.754913 0.840250 0.572204
O O10 0.000000 0.798060 0.607557
O O11 0.750000 0.319103 0.750000
O O12 0.000000 0.290290 0.719149
O O13 0.000000 0.888845 0.955624
O O14 0.172530 0.754417 0.010962
O O15 0.218425 0.000000 0.000000
O O16 0.721846 0.500000 0.500000
O O17 0.500000 0.425709 0.549067
#
# Coordination Sequence:
#
# PCOD8220455 Si02
#       6
#     8   8   8   8   8   8
#     4   9  19  36  55  76 104 137 173 215 262 311
#     4  10  21  35  54  80 108 139 175 216 261 310
#     4  10  21  36  54  79 109 139 175 217 261 311
#     4   9  19  36  55  77 105 136 173 216 261 311
#     4  10  22  38  54  77 108 140 176 219 262 309
#     4  10  20  36  55  76 106 141 176 214 258 308
#
# _framework density 17.896431
#
# number of rings (size 3 to 8) (size 9 to 14) (size 15 to 20)
#    0.000    2.333    1.667    0.000    2.333    3.333 
#    0.000    0.000    0.000    0.000    0.000    0.000 
#    0.000    0.000    0.000    0.000    0.000    0.000 
#
# Total GULP energy -595266.397699 kJ/mol
# GULP energy per Si atom -12401.383285 kJ/mol
# Density = 1.785570 g / cm^3
# Si number density = 17.896431 Si / 1000 Ang^3
#
#
#
# Elastic Constant Matrix: (Units=GPa)
#
#
# Indices 1 2 3 4 5 6 
#
# 1 53.9161 35.2566 68.4336 0.0000 0.0000 0.0000
# 2 35.2566 101.4013 69.2923 0.0000 0.0000 0.0000
# 3 68.4336 69.2923 146.9851 0.0000 0.0000 0.0000
# 4 0.0000 0.0000 0.0000 33.2967 0.0000 0.0000
# 5 0.0000 0.0000 0.0000 0.0000 43.3015 0.0000
# 6 0.0000 0.0000 0.0000 0.0000 0.0000 25.9030
#
#
#
# Elastic Compliance Matrix: (Units=1/GPa)
#
#
# Indices 1 2 3 4 5 6 
#
# 1 0.045612 -0.001988 -0.020299 0.000000 0.000000 0.000000
# 2 -0.001988 0.014635 -0.005974 0.000000 0.000000 0.000000
# 3 -0.020299 -0.005974 0.019070 0.000000 0.000000 0.000000
# 4 0.000000 0.000000 0.000000 0.030033 0.000000 0.000000
# 5 0.000000 0.000000 0.000000 0.000000 0.023094 0.000000
# 6 0.000000 0.000000 0.000000 0.000000 0.000000 0.038606
#
#
# Mechanical properties :
#
#
# Convention : Reuss Voigt Hill
#
# Bulk Modulus (GPa) = 43.86681 72.02972 57.94827
# Shear Modulus (GPa) = 21.26121 29.12156 25.19138
#
# Velocity S-wave (km/s) = 3.45050 4.03827 3.75590
# Velocity P-wave (km/s) = 6.35919 7.87902 7.15955
#
# Compressibility (1/GPa) = 0.02279628
#
# Stress axis : x y z
#
# Youngs Moduli (GPa) = 21.92413 68.32846 52.43703
#
# Poissons Ratio (x) = 0.13582 1.06442
# Poissons Ratio (y) = 0.04358 0.31326
# Poissons Ratio (z) = 0.44504 0.40819
#
# Static dielectric constant tensor:
#      x y z
#    x 3.298400 0.000000 0.000000 
#    y 0.000000 3.489850 0.000000 
#    z 0.000000 0.000000 3.244230 
# 
# 
# High freq. dielectric constant tensor:
#      x y z
#    x 1.687800 0.000000 0.000000 
#    y 0.000000 1.705670 0.000000 
#    z 0.000000 0.000000 1.692410 
# 
# From -- ./inp_files/34874.got.cif
#   From: 2010.03.12/outbox.cif.g09.slc.cpg/sg53_18_cif.got.tgz:34874.got - 2010.04.16 14:36:59.
