data_PCOD8220111
_publ_section_title
;
Structure prediction by ZEFSAII (Michael W. Deem and Ramdas Pophale) SiO2 
 PCOD8220111
Probable space group: P M N A
;
_chemical_formula_sum "Si O2"
_cell_formula_units_Z 64
_cell_length_a 8.767905
_cell_length_b 21.033553
_cell_length_c 18.623202
_cell_angle_alpha 90.000000
_cell_angle_beta 90.000000
_cell_angle_gamma 90.000000
_cell_volume 3434.494535
_symmetry_space_group_name_H-M "P M N A"
_symmetry_group_IT_number 53
_symmetry_cell_setting 'orthorhombic'
loop_
_space_group_symop_operation_xyz
x,y,z
1/2-x,-y,1/2+z
x,-y,-z
1/2-x,y,1/2-z
-x,-y,-z
1/2+x,y,1/2-z
-x,y,z
1/2+x,-y,1/2+z
loop_
_atom_site_type_symbol
_atom_site_label
_atom_site_fract_x
_atom_site_fract_y
_atom_site_fract_z
Si Si1 0.679365 0.693081 0.532783
Si Si2 0.180196 0.878101 0.326815
Si Si3 0.680403 0.564717 0.461913
Si Si4 0.818818 0.251445 0.884333
Si Si5 0.175025 0.001125 0.416389
Si Si6 0.818662 0.378348 0.675212
Si Si7 0.819009 0.245996 0.176373
Si Si8 0.177895 0.101803 0.178033
O O1 0.500000 0.696120 0.541259
O O2 0.731864 0.621559 0.514883
O O3 0.728341 0.739876 0.467862
O O4 0.750684 0.715303 0.608605
O O5 0.250000 0.895402 0.250000
O O6 0.254892 0.814659 0.357085
O O7 0.224161 0.934572 0.381043
O O8 0.000000 0.868353 0.319983
O O9 0.731870 0.500000 0.500000
O O10 0.500000 0.566918 0.447098
O O11 0.765752 0.572353 0.386234
O O12 0.745862 0.307944 0.838355
O O13 0.000000 0.254270 0.873786
O O14 0.000000 0.015806 0.398473
O O15 0.207638 0.000000 0.500000
O O16 0.275970 0.058953 0.388599
O O17 0.750000 0.403689 0.750000
O O18 0.000000 0.376222 0.678792
O O19 0.750000 0.274284 0.250000
O O20 0.763716 0.173517 0.165593
O O21 0.000000 0.251356 0.180558
O O22 0.250000 0.072423 0.250000
O O23 0.000000 0.100654 0.188149
#
# Coordination Sequence:
#
# PCOD8220111 Si02
#       8
#     8   8   8   8   8   8   8   8
#     4   8  16  32  54  78 107 140 175 217 263 316
#     4  11  23  38  55  77 106 140 176 216 269 325
#     4   9  18  35  58  82 111 150 189 225 273 325
#     4  10  20  35  57  82 109 141 178 223 274 326
#     4  10  23  40  55  75 106 140 175 222 273 322
#     4  11  21  35  56  82 114 147 186 229 272 325
#     4   9  18  33  52  77 105 135 173 219 268 316
#     4  10  20  34  55  77 100 133 176 221 268 325
#
# _framework density 18.634474000000001
#
# number of rings (size 3 to 8) (size 9 to 14) (size 15 to 20)
#    0.000    2.250    0.000    3.750    1.750    3.000 
#    0.000    3.750    0.000    1.500    0.000    0.000 
#    0.000    0.000    0.000    0.000    0.000    0.000 
#
# Total GULP energy -793654.313112 kJ/mol
# GULP energy per Si atom -12400.848642 kJ/mol
# Density = 1.859206 g / cm^3
# Si number density = 18.634474 Si / 1000 Ang^3
#
#
#
# Elastic Constant Matrix: (Units=GPa)
#
#
# Indices 1 2 3 4 5 6 
#
# 1 74.6715 40.2250 50.7952 0.0000 0.0000 0.0000
# 2 40.2250 105.0276 78.0425 0.0000 0.0000 0.0000
# 3 50.7952 78.0425 152.0827 0.0000 0.0000 0.0000
# 4 0.0000 0.0000 0.0000 23.9819 0.0000 0.0000
# 5 0.0000 0.0000 0.0000 0.0000 30.2761 0.0000
# 6 0.0000 0.0000 0.0000 0.0000 0.0000 19.0985
#
#
#
# Elastic Compliance Matrix: (Units=1/GPa)
#
#
# Indices 1 2 3 4 5 6 
#
# 1 0.018308 -0.003989 -0.004068 0.000000 0.000000 0.000000
# 2 -0.003989 0.016259 -0.007011 0.000000 0.000000 0.000000
# 3 -0.004068 -0.007011 0.011532 0.000000 0.000000 0.000000
# 4 0.000000 0.000000 0.000000 0.041698 0.000000 0.000000
# 5 0.000000 0.000000 0.000000 0.000000 0.033029 0.000000
# 6 0.000000 0.000000 0.000000 0.000000 0.000000 0.052360
#
#
# Mechanical properties :
#
#
# Convention : Reuss Voigt Hill
#
# Bulk Modulus (GPa) = 62.64616 74.43411 68.54014
# Shear Modulus (GPa) = 23.96439 25.51922 24.74180
#
# Velocity S-wave (km/s) = 3.59001 3.70464 3.64777
# Velocity P-wave (km/s) = 7.13271 7.63742 7.38938
#
# Compressibility (1/GPa) = 0.01596267
#
# Stress axis : x y z
#
# Youngs Moduli (GPa) = 54.62080 61.50527 86.71775
#
# Poissons Ratio (x) = 0.24536 0.35274
# Poissons Ratio (y) = 0.21790 0.60797
# Poissons Ratio (z) = 0.22218 0.43121
#
# Static dielectric constant tensor:
#      x y z
#    x 3.316710 0.000000 0.000000 
#    y 0.000000 3.428210 0.000000 
#    z 0.000000 0.000000 3.705280 
# 
# 
# High freq. dielectric constant tensor:
#      x y z
#    x 1.715010 0.000000 0.000000 
#    y 0.000000 1.713960 0.000000 
#    z 0.000000 0.000000 1.735640 
# 
# From -- ./inp_files/26803.got.cif
#   From: 2010.03.12/outbox.cif.g09.slc.cpg/sg53_14_cif.got.tgz:26803.got - 2010.04.16 14:36:59.
