data_PCOD8220555
_publ_section_title
;
Structure prediction by ZEFSAII (Michael W. Deem and Ramdas Pophale) SiO2 
 PCOD8220555
Probable space group: P M N A
;
_chemical_formula_sum "Si O2"
_cell_formula_units_Z 56
_cell_length_a 9.175881
_cell_length_b 18.734113
_cell_length_c 16.012630
_cell_angle_alpha 90.000000
_cell_angle_beta 90.000000
_cell_angle_gamma 90.000000
_cell_volume 2752.602987
_symmetry_space_group_name_H-M "P M N A"
_symmetry_group_IT_number 53
_symmetry_cell_setting 'orthorhombic'
loop_
_space_group_symop_operation_xyz
x,y,z
1/2-x,-y,1/2+z
x,-y,-z
1/2-x,y,1/2-z
-x,-y,-z
1/2+x,y,1/2-z
-x,y,z
1/2+x,-y,1/2+z
loop_
_atom_site_type_symbol
_atom_site_label
_atom_site_fract_x
_atom_site_fract_y
_atom_site_fract_z
Si Si1 0.165678 0.424394 0.326677
Si Si2 0.663082 0.711997 0.926918
Si Si3 0.329139 0.294167 0.586271
Si Si4 0.666231 0.152722 0.167138
Si Si5 0.669120 0.459998 0.585594
Si Si6 0.174408 0.169012 0.665871
Si Si7 0.327021 0.080452 0.997520
O O1 0.250000 0.388415 0.250000
O O2 0.182588 0.370652 0.403939
O O3 0.236735 0.501009 0.344259
O O4 0.000000 0.436759 0.301463
O O5 0.500000 0.725165 0.964169
O O6 0.682191 0.761865 0.845417
O O7 0.782236 0.734015 0.995095
O O8 0.500000 0.281530 0.600223
O O9 0.285693 0.377363 0.589077
O O10 0.237404 0.249394 0.653911
O O11 0.750000 0.127702 0.250000
O O12 0.500000 0.129055 0.180603
O O13 0.730799 0.117468 0.082467
O O14 0.708750 0.500000 0.500000
O O15 0.500000 0.469399 0.606167
O O16 0.250000 0.137842 0.750000
O O17 0.225368 0.120597 0.586950
O O18 0.000000 0.170832 0.676363
O O19 0.500000 0.081795 0.997725
O O20 0.265977 0.000000 0.000000
#
# Coordination Sequence:
#
# PCOD8220555 Si02
#       7
#     8   8   8   8   8   8   8
#     4  11  23  36  55  81 114 151 192 241 296 357
#     4  10  20  36  57  84 116 154 196 241 297 357
#     4  11  22  37  62  89 115 153 201 253 305 359
#     4  10  20  36  58  88 122 157 196 238 289 347
#     4  10  21  38  57  80 111 148 193 246 305 361
#     4  11  23  42  66  92 125 162 207 256 301 360
#     4   9  19  38  64  91 124 165 199 236 295 359
#
# _framework density 20.344379
#
# number of rings (size 3 to 8) (size 9 to 14) (size 15 to 20)
#    0.000    1.714    2.857    1.714    0.000    3.714 
#    0.000    0.000    0.000    3.000    0.000    0.000 
#    0.000    0.000    0.000    0.000    0.000    0.000 
#
# Total GULP energy -694247.970053 kJ/mol
# GULP energy per Si atom -12397.285180 kJ/mol
# Density = 2.029807 g / cm^3
# Si number density = 20.344379 Si / 1000 Ang^3
#
#
#
# Elastic Constant Matrix: (Units=GPa)
#
#
# Indices 1 2 3 4 5 6 
#
# 1 72.5533 36.2366 52.8340 0.0000 0.0000 0.0000
# 2 36.2366 115.2491 48.4814 0.0000 0.0000 0.0000
# 3 52.8340 48.4814 135.4437 0.0000 0.0000 0.0000
# 4 0.0000 0.0000 0.0000 19.5889 0.0000 0.0000
# 5 0.0000 0.0000 0.0000 0.0000 39.9473 0.0000
# 6 0.0000 0.0000 0.0000 0.0000 0.0000 18.8433
#
#
#
# Elastic Compliance Matrix: (Units=1/GPa)
#
#
# Indices 1 2 3 4 5 6 
#
# 1 0.020459 -0.003621 -0.006685 0.000000 0.000000 0.000000
# 2 -0.003621 0.010856 -0.002473 0.000000 0.000000 0.000000
# 3 -0.006685 -0.002473 0.010876 0.000000 0.000000 0.000000
# 4 0.000000 0.000000 0.000000 0.051049 0.000000 0.000000
# 5 0.000000 0.000000 0.000000 0.000000 0.025033 0.000000
# 6 0.000000 0.000000 0.000000 0.000000 0.000000 0.053069
#
#
# Mechanical properties :
#
#
# Convention : Reuss Voigt Hill
#
# Bulk Modulus (GPa) = 60.12019 66.48333 63.30176
# Shear Modulus (GPa) = 24.69807 28.05550 26.37679
#
# Velocity S-wave (km/s) = 3.48803 3.71756 3.60462
# Velocity P-wave (km/s) = 6.77032 7.15380 6.96470
#
# Compressibility (1/GPa) = 0.01663335
#
# Stress axis : x y z
#
# Youngs Moduli (GPa) = 48.87771 92.11705 91.94504
#
# Poissons Ratio (x) = 0.33353 0.61463
# Poissons Ratio (y) = 0.17697 0.22742
# Poissons Ratio (z) = 0.32673 0.22784
#
# Static dielectric constant tensor:
#      x y z
#    x 3.501720 0.000000 0.000000 
#    y 0.000000 3.767370 0.000000 
#    z 0.000000 0.000000 3.666720 
# 
# 
# High freq. dielectric constant tensor:
#      x y z
#    x 1.777360 0.000000 0.000000 
#    y 0.000000 1.793280 0.000000 
#    z 0.000000 0.000000 1.794020 
# 
# From -- ./inp_files/20546.got.cif
#   From: 2010.03.12/outbox.cif.g09.slc.cpg/sg53_11_cif.got.tgz:20546.got - 2010.04.16 14:36:59.
