data_PCOD8220530
_publ_section_title
;
Structure prediction by ZEFSAII (Michael W. Deem and Ramdas Pophale) SiO2 
 PCOD8220530
Probable space group: P M N A
;
_chemical_formula_sum "Si O2"
_cell_formula_units_Z 48
_cell_length_a 9.026384
_cell_length_b 12.516012
_cell_length_c 23.279588
_cell_angle_alpha 90.000000
_cell_angle_beta 90.000000
_cell_angle_gamma 90.000000
_cell_volume 2629.995868
_symmetry_space_group_name_H-M "P M N A"
_symmetry_group_IT_number 53
_symmetry_cell_setting 'orthorhombic'
loop_
_space_group_symop_operation_xyz
x,y,z
1/2-x,-y,1/2+z
x,-y,-z
1/2-x,y,1/2-z
-x,-y,-z
1/2+x,y,1/2-z
-x,y,z
1/2+x,-y,1/2+z
loop_
_atom_site_type_symbol
_atom_site_label
_atom_site_fract_x
_atom_site_fract_y
_atom_site_fract_z
Si Si1 0.675160 0.378158 0.809268
Si Si2 0.171820 0.620347 0.692546
Si Si3 0.173576 0.202225 0.879267
Si Si4 0.829836 0.815290 0.616434
Si Si5 0.826562 0.008134 0.189345
Si Si6 0.829849 0.122198 0.509980
O O1 0.750000 0.340707 0.750000
O O2 0.500000 0.362473 0.804012
O O3 0.720854 0.500191 0.823438
O O4 0.737906 0.307439 0.860815
O O5 0.250000 0.662252 0.750000
O O6 0.213793 0.698525 0.640289
O O7 0.000000 0.623037 0.706527
O O8 0.222749 0.172625 0.943142
O O9 0.000000 0.226560 0.879363
O O10 0.214578 0.107758 0.835315
O O11 0.727051 0.904403 0.644204
O O12 0.804709 0.811655 0.548327
O O13 0.000000 0.844092 0.630946
O O14 0.750000 0.026001 0.250000
O O15 0.000000 0.021925 0.198107
O O16 0.000000 0.129002 0.531037
O O17 0.783761 0.000000 0.500000
#
# Coordination Sequence:
#
# PCOD8220530 Si02
#       6
#     8   8   8   8   8   8
#     4  10  20  36  58  82 110 143 181 224 274 327
#     4   9  19  35  56  82 110 142 178 222 272 326
#     4  11  23  37  55  80 110 145 185 228 273 324
#     4  10  20  36  57  81 110 142 182 224 271 328
#     4  11  23  35  51  78 110 141 175 220 273 325
#     4  10  20  36  58  81 107 147 188 226 273 325
#
# _framework density 18.250979999999998
#
# number of rings (size 3 to 8) (size 9 to 14) (size 15 to 20)
#    0.000    1.833    1.667    2.500    0.000    7.000 
#    0.000    0.833    0.000    5.000    0.000    0.000 
#    0.000    0.000    0.000    0.000    0.000    0.000 
#
# Total GULP energy -595424.122745 kJ/mol
# GULP energy per Si atom -12404.669224 kJ/mol
# Density = 1.820944 g / cm^3
# Si number density = 18.250980 Si / 1000 Ang^3
#
#
#
# Elastic Constant Matrix: (Units=GPa)
#
#
# Indices 1 2 3 4 5 6 
#
# 1 66.7138 44.4520 40.2849 0.0000 0.0000 0.0000
# 2 44.4520 92.7437 41.5396 0.0000 0.0000 0.0000
# 3 40.2849 41.5396 86.3604 0.0000 0.0000 0.0000
# 4 0.0000 0.0000 0.0000 27.9520 0.0000 0.0000
# 5 0.0000 0.0000 0.0000 0.0000 35.1282 0.0000
# 6 0.0000 0.0000 0.0000 0.0000 0.0000 24.8090
#
#
#
# Elastic Compliance Matrix: (Units=1/GPa)
#
#
# Indices 1 2 3 4 5 6 
#
# 1 0.025458 -0.008773 -0.007656 0.000000 0.000000 0.000000
# 2 -0.008773 0.016766 -0.003972 0.000000 0.000000 0.000000
# 3 -0.007656 -0.003972 0.017061 0.000000 0.000000 0.000000
# 4 0.000000 0.000000 0.000000 0.035776 0.000000 0.000000
# 5 0.000000 0.000000 0.000000 0.000000 0.028467 0.000000
# 6 0.000000 0.000000 0.000000 0.000000 0.000000 0.040308
#
#
# Mechanical properties :
#
#
# Convention : Reuss Voigt Hill
#
# Bulk Modulus (GPa) = 54.10186 55.37455 54.73820
# Shear Modulus (GPa) = 23.71929 25.54729 24.63329
#
# Velocity S-wave (km/s) = 3.60893 3.74542 3.67781
# Velocity P-wave (km/s) = 6.86101 7.00790 6.93484
#
# Compressibility (1/GPa) = 0.01848365
#
# Stress axis : x y z
#
# Youngs Moduli (GPa) = 39.28093 59.64276 58.61250
#
# Poissons Ratio (x) = 0.52324 0.44871
# Poissons Ratio (y) = 0.34461 0.23283
# Poissons Ratio (z) = 0.30072 0.23692
#
# Static dielectric constant tensor:
#      x y z
#    x 3.390900 0.000000 0.000000 
#    y 0.000000 3.510310 0.000000 
#    z 0.000000 0.000000 3.346820 
# 
# 
# High freq. dielectric constant tensor:
#      x y z
#    x 1.711990 0.000000 0.000000 
#    y 0.000000 1.708450 0.000000 
#    z 0.000000 0.000000 1.705280 
# 
# From -- ./inp_files/33863.got.cif
#   From: 2010.03.12/outbox.cif.g09.slc.cpg/sg53_17_cif.got.tgz:33863.got - 2010.04.16 14:36:59.
