data_PCOD8220301
_publ_section_title
;
Structure prediction by ZEFSAII (Michael W. Deem and Ramdas Pophale) SiO2 
 PCOD8220301
Probable space group: P M N A
;
_chemical_formula_sum "Si O2"
_cell_formula_units_Z 64
_cell_length_a 9.020567
_cell_length_b 12.754797
_cell_length_c 27.366340
_cell_angle_alpha 90.000000
_cell_angle_beta 90.000000
_cell_angle_gamma 90.000000
_cell_volume 3148.647957
_symmetry_space_group_name_H-M "P M N A"
_symmetry_group_IT_number 53
_symmetry_cell_setting 'orthorhombic'
loop_
_space_group_symop_operation_xyz
x,y,z
1/2-x,-y,1/2+z
x,-y,-z
1/2-x,y,1/2-z
-x,-y,-z
1/2+x,y,1/2-z
-x,y,z
1/2+x,-y,1/2+z
loop_
_atom_site_type_symbol
_atom_site_label
_atom_site_fract_x
_atom_site_fract_y
_atom_site_fract_z
Si Si1 0.173329 0.168326 0.573160
Si Si2 0.337769 0.731962 0.295272
Si Si3 0.325617 0.849730 0.800778
Si Si4 0.332057 0.117313 0.481536
Si Si5 0.333844 0.632915 0.392310
Si Si6 0.323083 0.054519 0.655274
Si Si7 0.828482 0.459372 0.445360
Si Si8 0.829564 0.768299 0.596061
O O1 0.223218 0.180306 0.517187
O O2 0.212694 0.281782 0.593341
O O3 0.261746 0.073434 0.600181
O O4 0.000000 0.145863 0.577545
O O5 0.250000 0.687308 0.250000
O O6 0.500000 0.759690 0.276339
O O7 0.340538 0.637060 0.333791
O O8 0.272497 0.840495 0.316427
O O9 0.250000 0.811005 0.750000
O O10 0.500000 0.865546 0.791137
O O11 0.297810 0.766057 0.845139
O O12 0.254238 0.959388 0.817107
O O13 0.500000 0.158606 0.484677
O O14 0.271315 0.138709 0.426801
O O15 0.320887 0.000000 0.500000
O O16 0.500000 0.656343 0.413293
O O17 0.277611 0.520159 0.408416
O O18 0.500000 0.038666 0.652233
O O19 0.789924 0.500000 0.500000
O O20 0.790880 0.338618 0.433086
O O21 0.000000 0.482370 0.433906
O O22 0.000000 0.798480 0.587778
#
# Coordination Sequence:
#
# PCOD8220301 Si02
#       8
#     8   8   8   8   8   8   8   8
#     4  11  21  34  55  83 117 156 193 231 281 341
#     4   9  19  33  51  78 112 147 184 230 280 332
#     4  11  23  39  59  83 114 155 200 246 294 345
#     4  11  23  37  56  84 118 154 190 232 285 343
#     4  10  21  37  56  82 113 144 184 232 282 336
#     4  10  20  35  55  83 119 155 198 248 291 342
#     4  10  21  39  63  88 112 143 186 235 290 352
#     4  10  23  41  60  86 118 150 193 247 298 355
#
# _framework density 20.326186
#
# number of rings (size 3 to 8) (size 9 to 14) (size 15 to 20)
#    0.000    1.750    0.000    5.250    0.000    9.750 
#    0.000    0.625    0.000    3.000    0.000    0.000 
#    0.000    0.000    0.000    0.000    0.000    0.000 
#
# Total GULP energy -793229.947992 kJ/mol
# GULP energy per Si atom -12394.217937 kJ/mol
# Density = 2.027992 g / cm^3
# Si number density = 20.326186 Si / 1000 Ang^3
#
#
#
# Elastic Constant Matrix: (Units=GPa)
#
#
# Indices 1 2 3 4 5 6 
#
# 1 118.9232 43.0314 61.7591 0.0000 0.0000 0.0000
# 2 43.0314 75.4003 43.0926 0.0000 0.0000 0.0000
# 3 61.7591 43.0926 129.3720 0.0000 0.0000 0.0000
# 4 0.0000 0.0000 0.0000 27.0930 0.0000 0.0000
# 5 0.0000 0.0000 0.0000 0.0000 37.7619 0.0000
# 6 0.0000 0.0000 0.0000 0.0000 0.0000 53.5228
#
#
#
# Elastic Compliance Matrix: (Units=1/GPa)
#
#
# Indices 1 2 3 4 5 6 
#
# 1 0.012319 -0.004532 -0.004371 0.000000 0.000000 0.000000
# 2 -0.004532 0.018048 -0.003848 0.000000 0.000000 0.000000
# 3 -0.004371 -0.003848 0.011098 0.000000 0.000000 0.000000
# 4 0.000000 0.000000 0.000000 0.036910 0.000000 0.000000
# 5 0.000000 0.000000 0.000000 0.000000 0.026482 0.000000
# 6 0.000000 0.000000 0.000000 0.000000 0.000000 0.018684
#
#
# Mechanical properties :
#
#
# Convention : Reuss Voigt Hill
#
# Bulk Modulus (GPa) = 62.64751 68.82907 65.73829
# Shear Modulus (GPa) = 32.39095 35.39636 33.89366
#
# Velocity S-wave (km/s) = 3.99627 4.17756 4.08792
# Velocity P-wave (km/s) = 7.22368 7.56340 7.39549
#
# Compressibility (1/GPa) = 0.01596233
#
# Stress axis : x y z
#
# Youngs Moduli (GPa) = 81.17747 55.40643 90.10596
#
# Poissons Ratio (x) = 0.25112 0.39385
# Poissons Ratio (y) = 0.36792 0.34674
# Poissons Ratio (z) = 0.35483 0.21321
#
# Static dielectric constant tensor:
#      x y z
#    x 3.710350 0.000000 0.000000 
#    y 0.000000 3.433880 0.000000 
#    z 0.000000 0.000000 4.098590 
# 
# 
# High freq. dielectric constant tensor:
#      x y z
#    x 1.801220 0.000000 0.000000 
#    y 0.000000 1.768940 0.000000 
#    z 0.000000 0.000000 1.800700 
# 
# From -- ./inp_files/38176.got.cif
#   From: 2010.03.12/outbox.cif.g09.slc.cpg/sg53_20_cif.got.tgz:38176.got - 2010.04.16 14:36:59.
