data_PCOD8220023
_publ_section_title
;
Structure prediction by ZEFSAII (Michael W. Deem and Ramdas Pophale) SiO2 
 PCOD8220023
Probable space group: P M N A
;
_chemical_formula_sum "Si O2"
_cell_formula_units_Z 64
_cell_length_a 9.132149
_cell_length_b 20.019397
_cell_length_c 18.705487
_cell_angle_alpha 90.000000
_cell_angle_beta 90.000000
_cell_angle_gamma 90.000000
_cell_volume 3419.739309
_symmetry_space_group_name_H-M "P M N A"
_symmetry_group_IT_number 53
_symmetry_cell_setting 'orthorhombic'
loop_
_space_group_symop_operation_xyz
x,y,z
1/2-x,-y,1/2+z
x,-y,-z
1/2-x,y,1/2-z
-x,-y,-z
1/2+x,y,1/2-z
-x,y,z
1/2+x,-y,1/2+z
loop_
_atom_site_type_symbol
_atom_site_label
_atom_site_fract_x
_atom_site_fract_y
_atom_site_fract_z
Si Si1 0.672199 0.002156 0.825903
Si Si2 0.829813 0.614363 0.679007
Si Si3 0.173091 0.118157 0.423278
Si Si4 0.669787 0.608305 0.322014
Si Si5 0.172135 0.235309 0.322487
Si Si6 0.170149 0.493083 0.581812
Si Si7 0.672320 0.867389 0.084140
Si Si8 0.329300 0.236393 0.677250
O O1 0.750000 0.998686 0.750000
O O2 0.500000 0.993780 0.813187
O O3 0.709839 0.071601 0.863909
O O4 0.734885 0.943638 0.877050
O O5 0.750000 0.589751 0.750000
O O6 0.780937 0.689219 0.656844
O O7 0.786758 0.563869 0.616424
O O8 0.000000 0.612818 0.696185
O O9 0.223417 0.187484 0.386791
O O10 0.231290 0.115810 0.504553
O O11 0.000000 0.111676 0.425492
O O12 0.750000 0.585304 0.250000
O O13 0.500000 0.591832 0.312551
O O14 0.734694 0.567126 0.387541
O O15 0.697522 0.685852 0.338125
O O16 0.250000 0.211851 0.250000
O O17 0.000000 0.229055 0.309351
O O18 0.212059 0.500000 0.500000
O O19 0.000000 0.475917 0.593517
O O20 0.500000 0.851180 0.083223
O O21 0.759072 0.802698 0.111132
O O22 0.250000 0.213858 0.750000
O O23 0.500000 0.219065 0.684791
#
# Coordination Sequence:
#
# PCOD8220023 Si02
#       8
#     8   8   8   8   8   8   8   8
#     4  10  20  34  53  77 104 135 175 218 257 303
#     4   9  18  32  50  73  99 129 167 209 252 300
#     4   9  18  33  53  76 103 137 173 209 254 308
#     4  10  21  37  57  79 104 137 177 220 264 313
#     4   9  17  31  51  73  98 130 169 209 250 301
#     4  10  21  35  52  77 108 139 173 216 263 313
#     4  10  20  34  54  78 105 138 173 212 259 310
#     4  10  21  37  56  79 106 136 174 218 262 312
#
# _framework density 18.714876
#
# number of rings (size 3 to 8) (size 9 to 14) (size 15 to 20)
#    0.000    2.375    0.000    2.250    0.000    7.250 
#    0.000    3.750    0.000    4.500    0.000    0.000 
#    0.000    0.000    0.000    0.000    0.000    0.000 
#
# Total GULP energy -793758.833877 kJ/mol
# GULP energy per Si atom -12402.481779 kJ/mol
# Density = 1.867228 g / cm^3
# Si number density = 18.714876 Si / 1000 Ang^3
#
#
#
# Elastic Constant Matrix: (Units=GPa)
#
#
# Indices 1 2 3 4 5 6 
#
# 1 60.0067 48.3054 54.9386 0.0000 0.0000 0.0000
# 2 48.3054 101.4076 76.5769 0.0000 0.0000 0.0000
# 3 54.9386 76.5769 158.5090 0.0000 0.0000 0.0000
# 4 0.0000 0.0000 0.0000 28.7852 0.0000 0.0000
# 5 0.0000 0.0000 0.0000 0.0000 31.4256 0.0000
# 6 0.0000 0.0000 0.0000 0.0000 0.0000 24.5591
#
#
#
# Elastic Compliance Matrix: (Units=1/GPa)
#
#
# Indices 1 2 3 4 5 6 
#
# 1 0.029752 -0.010053 -0.005455 0.000000 0.000000 0.000000
# 2 -0.010053 0.018922 -0.005657 0.000000 0.000000 0.000000
# 3 -0.005455 -0.005657 0.010932 0.000000 0.000000 0.000000
# 4 0.000000 0.000000 0.000000 0.034740 0.000000 0.000000
# 5 0.000000 0.000000 0.000000 0.000000 0.031821 0.000000
# 6 0.000000 0.000000 0.000000 0.000000 0.000000 0.040718
#
#
# Mechanical properties :
#
#
# Convention : Reuss Voigt Hill
#
# Bulk Modulus (GPa) = 57.88396 75.50724 66.69560
# Shear Modulus (GPa) = 23.25865 26.29413 24.77639
#
# Velocity S-wave (km/s) = 3.52915 3.75238 3.64247
# Velocity P-wave (km/s) = 6.89949 7.69464 7.30789
#
# Compressibility (1/GPa) = 0.01727594
#
# Stress axis : x y z
#
# Youngs Moduli (GPa) = 33.61138 52.84973 91.47052
#
# Poissons Ratio (x) = 0.53128 0.49900
# Poissons Ratio (y) = 0.33789 0.51744
# Poissons Ratio (z) = 0.18336 0.29897
#
# Static dielectric constant tensor:
#      x y z
#    x 3.268300 0.000000 0.000000 
#    y 0.000000 3.606360 0.000000 
#    z 0.000000 0.000000 3.607520 
# 
# 
# High freq. dielectric constant tensor:
#      x y z
#    x 1.708320 0.000000 0.000000 
#    y 0.000000 1.739640 0.000000 
#    z 0.000000 0.000000 1.727950 
# 
# From -- ./inp_files/26846.got.cif
#   From: 2010.03.12/outbox.cif.g09.slc.cpg/sg53_14_cif.got.tgz:26846.got - 2010.04.16 14:36:59.
