data_PCOD8220911
_publ_section_title
;
Structure prediction by ZEFSAII (Michael W. Deem and Ramdas Pophale) SiO2 
 PCOD8220911
Probable space group: P M N A
;
_chemical_formula_sum "Si O2"
_cell_formula_units_Z 24
_cell_length_a 27.641799
_cell_length_b 8.535347
_cell_length_c 4.949230
_cell_angle_alpha 90.000000
_cell_angle_beta 90.000000
_cell_angle_gamma 90.000000
_cell_volume 1167.683446
_symmetry_space_group_name_H-M "P M N A"
_symmetry_group_IT_number 53
_symmetry_cell_setting 'orthorhombic'
loop_
_space_group_symop_operation_xyz
x,y,z
1/2-x,-y,1/2+z
x,-y,-z
1/2-x,y,1/2-z
-x,-y,-z
1/2+x,y,1/2-z
-x,y,z
1/2+x,-y,1/2+z
loop_
_atom_site_type_symbol
_atom_site_label
_atom_site_fract_x
_atom_site_fract_y
_atom_site_fract_z
Si Si1 0.601688 0.321710 0.406674
Si Si2 0.250000 0.107292 0.750000
Si Si3 0.000000 0.386346 0.245834
Si Si4 0.351715 0.821248 0.088817
O O1 0.606714 0.500000 0.500000
O O2 0.548602 0.281989 0.279603
O O3 0.611842 0.211792 0.663921
O O4 0.639225 0.291207 0.165680
O O5 0.203586 0.213282 0.677739
O O6 0.265993 0.000000 0.500000
O O7 0.000000 0.500000 0.500000
O O8 0.000000 0.500000 0.000000
O O9 0.358751 0.000000 0.000000
#
# Coordination Sequence:
#
# PCOD8220911 Si02
#       4
#     8   4   4   8
#     4  11  22  39  62  89 118 155 197 243 291 348
#     4  10  20  38  62  86 116 162 200 228 288 372
#     4  10  20  38  61  84 115 162 199 226 287 372
#     4  11  22  39  62  89 118 155 197 243 291 348
#
# _framework density 20.553518
#
# number of rings (size 3 to 8) (size 9 to 14) (size 15 to 20)
#    0.000    1.333    0.000   10.000    0.000    0.000 
#    0.000    8.333    0.000    4.000    0.000    0.000 
#    0.000    0.000    0.000    0.000    0.000    0.000 
#
# Total GULP energy -297557.877673 kJ/mol
# GULP energy per Si atom -12398.244903 kJ/mol
# Density = 2.050674 g / cm^3
# Si number density = 20.553518 Si / 1000 Ang^3
#
#
#
# Elastic Constant Matrix: (Units=GPa)
#
#
# Indices 1 2 3 4 5 6 
#
# 1 151.0926 74.4950 70.5934 0.0000 0.0000 0.0000
# 2 74.4950 64.7718 44.2303 0.0000 0.0000 0.0000
# 3 70.5934 44.2303 169.1088 0.0000 0.0000 0.0000
# 4 0.0000 0.0000 0.0000 49.9176 0.0000 0.0000
# 5 0.0000 0.0000 0.0000 0.0000 43.1313 0.0000
# 6 0.0000 0.0000 0.0000 0.0000 0.0000 42.0802
#
#
#
# Elastic Compliance Matrix: (Units=1/GPa)
#
#
# Indices 1 2 3 4 5 6 
#
# 1 0.015971 -0.016820 -0.002268 0.000000 0.000000 0.000000
# 2 -0.016820 0.036510 -0.002528 0.000000 0.000000 0.000000
# 3 -0.002268 -0.002528 0.007521 0.000000 0.000000 0.000000
# 4 0.000000 0.000000 0.000000 0.020033 0.000000 0.000000
# 5 0.000000 0.000000 0.000000 0.000000 0.023185 0.000000
# 6 0.000000 0.000000 0.000000 0.000000 0.000000 0.023764
#
#
# Mechanical properties :
#
#
# Convention : Reuss Voigt Hill
#
# Bulk Modulus (GPa) = 59.62647 84.84562 72.23605
# Shear Modulus (GPa) = 28.44068 40.06944 34.25506
#
# Velocity S-wave (km/s) = 3.72390 4.42012 4.08686
# Velocity P-wave (km/s) = 6.89661 8.21097 7.58232
#
# Compressibility (1/GPa) = 0.01677107
#
# Stress axis : x y z
#
# Youngs Moduli (GPa) = 62.61424 27.39009 132.95866
#
# Poissons Ratio (x) = 0.46069 0.30151
# Poissons Ratio (y) = 1.05315 0.33609
# Poissons Ratio (z) = 0.14199 0.06924
#
# Static dielectric constant tensor:
#      x y z
#    x -20.863750 0.000000 0.000000 
#    y 0.000000 3.400660 0.000000 
#    z 0.000000 0.000000 3.960410 
# 
# 
# High freq. dielectric constant tensor:
#      x y z
#    x 1.815020 0.000000 0.000000 
#    y 0.000000 1.763940 0.000000 
#    z 0.000000 0.000000 1.837440 
# 
# From -- ./inp_files/3268.got.cif
#   From: 2010.03.12/outbox.cif.g09.slc.cpg/sg53_2_cif.got.tgz:3268.got - 2010.04.16 14:36:59.
