data_PCOD8220127
_publ_section_title
;
Structure prediction by ZEFSAII (Michael W. Deem and Ramdas Pophale) SiO2 
 PCOD8220127
Probable space group: P M N A
;
_chemical_formula_sum "Si O2"
_cell_formula_units_Z 32
_cell_length_a 8.961394
_cell_length_b 10.177359
_cell_length_c 18.259949
_cell_angle_alpha 90.000000
_cell_angle_beta 90.000000
_cell_angle_gamma 90.000000
_cell_volume 1665.368043
_symmetry_space_group_name_H-M "P M N A"
_symmetry_group_IT_number 53
_symmetry_cell_setting 'orthorhombic'
loop_
_space_group_symop_operation_xyz
x,y,z
1/2-x,-y,1/2+z
x,-y,-z
1/2-x,y,1/2-z
-x,-y,-z
1/2+x,y,1/2-z
-x,y,z
1/2+x,-y,1/2+z
loop_
_atom_site_type_symbol
_atom_site_label
_atom_site_fract_x
_atom_site_fract_y
_atom_site_fract_z
Si Si1 0.676758 0.733023 0.406476
Si Si2 0.335919 0.978172 0.586005
Si Si3 0.673081 0.726266 0.938527
Si Si4 0.825466 0.497996 0.675423
O O1 0.500000 0.711133 0.407131
O O2 0.717478 0.882039 0.380907
O O3 0.735992 0.702022 0.487586
O O4 0.753905 0.639694 0.347815
O O5 0.500000 0.939873 0.616519
O O6 0.346959 0.000000 0.500000
O O7 0.221735 0.860333 0.603286
O O8 0.500000 0.736189 0.958748
O O9 0.708228 0.605343 0.886082
O O10 0.750000 0.547104 0.750000
O O11 0.000000 0.478075 0.688121
#
# Coordination Sequence:
#
# PCOD8220127 Si02
#       4
#     8   8   8   8
#     4  10  20  35  57  83 109 140 177 217 264 317
#     4   8  16  31  52  80 109 136 171 215 263 315
#     4  10  20  34  55  83 110 138 176 221 266 314
#     4  11  24  39  54  76 107 142 181 222 265 315
#
# _framework density 19.214971999999999
#
# number of rings (size 3 to 8) (size 9 to 14) (size 15 to 20)
#    0.000    2.250    0.000    4.500    0.000   12.500 
#    0.000    1.250    0.000    3.000    0.000    0.000 
#    0.000    0.000    0.000    0.000    0.000    0.000 
#
# Total GULP energy -396769.814278 kJ/mol
# GULP energy per Si atom -12399.056696 kJ/mol
# Density = 1.917124 g / cm^3
# Si number density = 19.214972 Si / 1000 Ang^3
#
#
#
# Elastic Constant Matrix: (Units=GPa)
#
#
# Indices 1 2 3 4 5 6 
#
# 1 89.0363 39.7949 28.4685 0.0000 0.0000 0.0000
# 2 39.7949 92.2486 10.1100 0.0000 0.0000 0.0000
# 3 28.4685 10.1100 42.3506 0.0000 0.0000 0.0000
# 4 0.0000 0.0000 0.0000 7.3863 0.0000 0.0000
# 5 0.0000 0.0000 0.0000 0.0000 21.2400 0.0000
# 6 0.0000 0.0000 0.0000 0.0000 0.0000 17.3481
#
#
#
# Elastic Compliance Matrix: (Units=1/GPa)
#
#
# Indices 1 2 3 4 5 6 
#
# 1 0.017308 -0.006358 -0.010117 0.000000 0.000000 0.000000
# 2 -0.006358 0.013467 0.001059 0.000000 0.000000 0.000000
# 3 -0.010117 0.001059 0.030160 0.000000 0.000000 0.000000
# 4 0.000000 0.000000 0.000000 0.135385 0.000000 0.000000
# 5 0.000000 0.000000 0.000000 0.000000 0.047081 0.000000
# 6 0.000000 0.000000 0.000000 0.000000 0.000000 0.057643
#
#
# Mechanical properties :
#
#
# Convention : Reuss Voigt Hill
#
# Bulk Modulus (GPa) = 33.21845 42.26471 37.74158
# Shear Modulus (GPa) = 14.62376 18.87903 16.75140
#
# Velocity S-wave (km/s) = 2.76173 3.13791 2.95581
# Velocity P-wave (km/s) = 5.24355 5.93061 5.59763
#
# Compressibility (1/GPa) = 0.03010375
#
# Stress axis : x y z
#
# Youngs Moduli (GPa) = 57.77808 74.25666 33.15631
#
# Poissons Ratio (x) = 0.47209 0.33543
# Poissons Ratio (y) = 0.36733 -0.03511
# Poissons Ratio (z) = 0.58452 -0.07862
#
# Static dielectric constant tensor:
#      x y z
#    x 3.621070 0.000000 0.000000 
#    y 0.000000 4.069230 0.000000 
#    z 0.000000 0.000000 3.170820 
# 
# 
# High freq. dielectric constant tensor:
#      x y z
#    x 1.758150 0.000000 0.000000 
#    y 0.000000 1.764220 0.000000 
#    z 0.000000 0.000000 1.709430 
# 
# From -- ./inp_files/19613.got.cif
#   From: 2010.03.12/outbox.cif.g09.slc.cpg/sg53_10_cif.got.tgz:19613.got - 2010.04.16 14:36:59.
