data_PCOD8220784
_publ_section_title
;
Structure prediction by ZEFSAII (Michael W. Deem and Ramdas Pophale) SiO2 
 PCOD8220784
Probable space group: P M N A
;
_chemical_formula_sum "Si O2"
_cell_formula_units_Z 48
_cell_length_a 8.753860
_cell_length_b 18.361927
_cell_length_c 15.227689
_cell_angle_alpha 90.000000
_cell_angle_beta 90.000000
_cell_angle_gamma 90.000000
_cell_volume 2447.664289
_symmetry_space_group_name_H-M "P M N A"
_symmetry_group_IT_number 53
_symmetry_cell_setting 'orthorhombic'
loop_
_space_group_symop_operation_xyz
x,y,z
1/2-x,-y,1/2+z
x,-y,-z
1/2-x,y,1/2-z
-x,-y,-z
1/2+x,y,1/2-z
-x,y,z
1/2+x,-y,1/2+z
loop_
_atom_site_type_symbol
_atom_site_label
_atom_site_fract_x
_atom_site_fract_y
_atom_site_fract_z
Si Si1 0.680219 0.097990 0.658113
Si Si2 0.675638 0.332274 0.001903
Si Si3 0.819609 0.593491 0.157865
Si Si4 0.320992 0.931195 0.658829
Si Si5 0.819077 0.561900 0.657893
Si Si6 0.676137 0.164721 0.008999
O O1 0.750000 0.123689 0.750000
O O2 0.500000 0.109004 0.659796
O O3 0.753141 0.149282 0.585509
O O4 0.725579 0.014371 0.638556
O O5 0.500000 0.348651 0.977619
O O6 0.729635 0.380957 0.083662
O O7 0.778662 0.348726 0.917246
O O8 0.698971 0.249263 0.030748
O O9 0.750000 0.620842 0.250000
O O10 0.749459 0.515846 0.130902
O O11 0.000000 0.586278 0.167978
O O12 0.250000 0.904087 0.750000
O O13 0.500000 0.922678 0.666954
O O14 0.263194 0.881442 0.581089
O O15 0.750000 0.589200 0.750000
O O16 0.000000 0.554822 0.667207
O O17 0.500000 0.141869 0.009265
#
# Coordination Sequence:
#
# PCOD8220784 Si02
#       6
#     8   8   8   8   8   8
#     4  10  21  38  60  85 112 146 188 234 282 332
#     4  10  23  40  56  80 115 152 186 225 276 330
#     4  11  22  37  60  86 111 143 185 231 277 328
#     4  10  21  38  60  85 113 146 188 234 280 332
#     4  10  20  37  60  83 111 145 183 229 276 325
#     4  11  23  38  57  83 116 152 188 228 279 336
#
# _framework density 19.610531999999999
#
# number of rings (size 3 to 8) (size 9 to 14) (size 15 to 20)
#    0.000    1.667    0.000    5.500    0.000   10.000 
#    0.000    1.667    0.000    0.000    0.000    0.000 
#    0.000    0.000    0.000    0.000    0.000    0.000 
#
# Total GULP energy -595484.799350 kJ/mol
# GULP energy per Si atom -12405.933320 kJ/mol
# Density = 1.956590 g / cm^3
# Si number density = 19.610532 Si / 1000 Ang^3
#
#
#
# Elastic Constant Matrix: (Units=GPa)
#
#
# Indices 1 2 3 4 5 6 
#
# 1 81.5484 15.1109 24.4873 0.0000 0.0000 0.0000
# 2 15.1109 40.4110 20.5561 0.0000 0.0000 0.0000
# 3 24.4873 20.5561 90.9894 0.0000 0.0000 0.0000
# 4 0.0000 0.0000 0.0000 3.2949 0.0000 0.0000
# 5 0.0000 0.0000 0.0000 0.0000 40.4361 0.0000
# 6 0.0000 0.0000 0.0000 0.0000 0.0000 31.7860
#
#
#
# Elastic Compliance Matrix: (Units=1/GPa)
#
#
# Indices 1 2 3 4 5 6 
#
# 1 0.013813 -0.003699 -0.002882 0.000000 0.000000 0.000000
# 2 -0.003699 0.028949 -0.005545 0.000000 0.000000 0.000000
# 3 -0.002882 -0.005545 0.013018 0.000000 0.000000 0.000000
# 4 0.000000 0.000000 0.000000 0.303500 0.000000 0.000000
# 5 0.000000 0.000000 0.000000 0.000000 0.024730 0.000000
# 6 0.000000 0.000000 0.000000 0.000000 0.000000 0.031460
#
#
# Mechanical properties :
#
#
# Convention : Reuss Voigt Hill
#
# Bulk Modulus (GPa) = 31.71596 37.02861 34.37228
# Shear Modulus (GPa) = 11.10534 25.28970 18.19752
#
# Velocity S-wave (km/s) = 2.38228 3.59499 3.04953
# Velocity P-wave (km/s) = 4.87596 6.01290 5.47403
#
# Compressibility (1/GPa) = 0.03152987
#
# Stress axis : x y z
#
# Youngs Moduli (GPa) = 72.39304 34.54293 76.81400
#
# Poissons Ratio (x) = 0.12779 0.22136
# Poissons Ratio (y) = 0.26781 0.42590
# Poissons Ratio (z) = 0.20862 0.19153
#
# Static dielectric constant tensor:
#      x y z
#    x 3.683650 0.000000 0.000000 
#    y 0.000000 3.538640 0.000000 
#    z 0.000000 0.000000 3.705220 
# 
# 
# High freq. dielectric constant tensor:
#      x y z
#    x 1.777270 0.000000 0.000000 
#    y 0.000000 1.757070 0.000000 
#    z 0.000000 0.000000 1.776640 
# 
# From -- ./inp_files/20181.got.cif
#   From: 2010.03.12/outbox.cif.g09.slc.cpg/sg53_11_cif.got.tgz:20181.got - 2010.04.16 14:36:59.
