data_PCOD8220433
_publ_section_title
;
Structure prediction by ZEFSAII (Michael W. Deem and Ramdas Pophale) SiO2 
 PCOD8220433
Probable space group: P M N A
;
_chemical_formula_sum "Si O2"
_cell_formula_units_Z 64
_cell_length_a 32.367768
_cell_length_b 12.207758
_cell_length_c 8.225990
_cell_angle_alpha 90.000000
_cell_angle_beta 90.000000
_cell_angle_gamma 90.000000
_cell_volume 3250.400239
_symmetry_space_group_name_H-M "P M N A"
_symmetry_group_IT_number 53
_symmetry_cell_setting 'orthorhombic'
loop_
_space_group_symop_operation_xyz
x,y,z
1/2-x,-y,1/2+z
x,-y,-z
1/2-x,y,1/2-z
-x,-y,-z
1/2+x,y,1/2-z
-x,y,z
1/2+x,-y,1/2+z
loop_
_atom_site_type_symbol
_atom_site_label
_atom_site_fract_x
_atom_site_fract_y
_atom_site_fract_z
Si Si1 0.577119 0.192208 0.188900
Si Si2 0.569537 0.872663 0.482124
Si Si3 0.546228 0.753840 0.155527
Si Si4 0.138495 0.615449 0.687900
Si Si5 0.654287 0.039671 0.177660
Si Si6 0.841523 0.823109 0.113517
Si Si7 0.372213 0.373751 0.821593
Si Si8 0.795535 0.769623 0.810549
O O1 0.548997 0.179885 0.353212
O O2 0.598170 0.310220 0.208984
O O3 0.608679 0.089592 0.194826
O O4 0.552906 0.183490 0.017098
O O5 0.550571 0.835132 0.309935
O O6 0.617603 0.835433 0.497068
O O7 0.562713 0.000000 0.500000
O O8 0.500000 0.704615 0.156653
O O9 0.579287 0.656859 0.171189
O O10 0.148764 0.616158 0.496987
O O11 0.129965 0.493876 0.759656
O O12 0.177591 0.660586 0.785267
O O13 0.662363 0.937117 0.293716
O O14 0.688778 0.130906 0.202050
O O15 0.661958 0.000000 0.000000
O O16 0.846006 0.718627 0.230175
O O17 0.801238 0.804028 0.000288
O O18 0.750000 0.741769 0.750000
#
# Coordination Sequence:
#
# PCOD8220433 Si02
#       8
#     8   8   8   8   8   8   8   8
#     4  10  20  35  61  85 116 163 206 250 295 361
#     4  11  19  35  60  84 118 165 209 245 288 367
#     4  10  23  39  56  90 127 155 201 261 316 360
#     4   9  18  40  59  86 110 151 208 248 292 364
#     4  11  20  35  61  86 117 160 211 247 286 356
#     4  11  19  36  60  89 115 159 209 245 294 357
#     4   9  20  38  65  80 110 157 206 250 292 362
#     4  11  23  37  56  89 126 151 187 251 310 360
#
# _framework density 19.689882000000001
#
# number of rings (size 3 to 8) (size 9 to 14) (size 15 to 20)
#    0.000    1.750    3.750    3.375    0.000    2.250 
#    0.000   10.000    0.000    0.750    0.000    0.000 
#    0.000    0.000    0.000    0.000    0.000    0.000 
#
# Total GULP energy -793070.052191 kJ/mol
# GULP energy per Si atom -12391.719565 kJ/mol
# Density = 1.964507 g / cm^3
# Si number density = 19.689882 Si / 1000 Ang^3
#
#
#
# Elastic Constant Matrix: (Units=GPa)
#
#
# Indices 1 2 3 4 5 6 
#
# 1 68.4276 12.6670 15.2803 0.0000 0.0000 0.0000
# 2 12.6670 118.1054 21.0977 0.0000 0.0000 0.0000
# 3 15.2803 21.0977 104.9837 0.0000 0.0000 0.0000
# 4 0.0000 0.0000 0.0000 17.7965 0.0000 0.0000
# 5 0.0000 0.0000 0.0000 0.0000 8.2089 0.0000
# 6 0.0000 0.0000 0.0000 0.0000 0.0000 9.6538
#
#
#
# Elastic Compliance Matrix: (Units=1/GPa)
#
#
# Indices 1 2 3 4 5 6 
#
# 1 0.015292 -0.001289 -0.001967 0.000000 0.000000 0.000000
# 2 -0.001289 0.008891 -0.001599 0.000000 0.000000 0.000000
# 3 -0.001967 -0.001599 0.010133 0.000000 0.000000 0.000000
# 4 0.000000 0.000000 0.000000 0.056191 0.000000 0.000000
# 5 0.000000 0.000000 0.000000 0.000000 0.121819 0.000000
# 6 0.000000 0.000000 0.000000 0.000000 0.000000 0.103586
#
#
# Mechanical properties :
#
#
# Convention : Reuss Voigt Hill
#
# Bulk Modulus (GPa) = 40.63996 43.28963 41.96479
# Shear Modulus (GPa) = 14.97800 23.29663 19.13731
#
# Velocity S-wave (km/s) = 2.76106 3.44347 3.12097
# Velocity P-wave (km/s) = 5.55423 6.15170 5.86058
#
# Compressibility (1/GPa) = 0.02460633
#
# Stress axis : x y z
#
# Youngs Moduli (GPa) = 65.39482 112.47459 98.68838
#
# Poissons Ratio (x) = 0.14495 0.19409
# Poissons Ratio (y) = 0.08428 0.15782
# Poissons Ratio (z) = 0.12861 0.17986
#
# Static dielectric constant tensor:
#      x y z
#    x 3.302990 0.000000 0.000000 
#    y 0.000000 3.646530 0.000000 
#    z 0.000000 0.000000 3.996870 
# 
# 
# High freq. dielectric constant tensor:
#      x y z
#    x 1.722210 0.000000 0.000000 
#    y 0.000000 1.768350 0.000000 
#    z 0.000000 0.000000 1.791150 
# 
# From -- ./inp_files/13265.got.cif
#   From: 2010.03.12/outbox.cif.g09.slc.cpg/sg53_7_cif.got.tgz:13265.got - 2010.04.16 14:36:59.
