data_PCOD8220440
_publ_section_title
;
Structure prediction by ZEFSAII (Michael W. Deem and Ramdas Pophale) SiO2 
 PCOD8220440
Probable space group: P M N A
;
_chemical_formula_sum "Si O2"
_cell_formula_units_Z 64
_cell_length_a 27.295914
_cell_length_b 10.212751
_cell_length_c 12.681704
_cell_angle_alpha 90.000000
_cell_angle_beta 90.000000
_cell_angle_gamma 90.000000
_cell_volume 3535.232628
_symmetry_space_group_name_H-M "P M N A"
_symmetry_group_IT_number 53
_symmetry_cell_setting 'orthorhombic'
loop_
_space_group_symop_operation_xyz
x,y,z
1/2-x,-y,1/2+z
x,-y,-z
1/2-x,y,1/2-z
-x,-y,-z
1/2+x,y,1/2-z
-x,y,z
1/2+x,-y,1/2+z
loop_
_atom_site_type_symbol
_atom_site_label
_atom_site_fract_x
_atom_site_fract_y
_atom_site_fract_z
Si Si1 0.138230 0.479701 0.717170
Si Si2 0.666837 0.382991 0.566533
Si Si3 0.826841 0.870317 0.938584
Si Si4 0.212950 0.141262 0.465752
Si Si5 0.361890 0.212694 0.213794
Si Si6 0.270652 0.346644 0.862628
Si Si7 0.554004 0.378891 0.923089
Si Si8 0.442880 0.133173 0.060879
O O1 0.142368 0.390570 0.820150
O O2 0.131218 0.633318 0.738444
O O3 0.187662 0.458193 0.648520
O O4 0.090784 0.414938 0.668025
O O5 0.643684 0.500000 0.500000
O O6 0.653856 0.247031 0.511346
O O7 0.725267 0.408050 0.574341
O O8 0.768491 0.866211 0.925129
O O9 0.850138 0.862759 0.822259
O O10 0.843937 0.000000 0.000000
O O11 0.181620 0.198334 0.370025
O O12 0.206982 0.227344 0.571078
O O13 0.192823 0.000000 0.500000
O O14 0.411444 0.147921 0.167762
O O15 0.250000 0.294226 0.750000
O O16 0.500000 0.351230 0.875124
O O17 0.551469 0.500000 0.000000
O O18 0.572981 0.251576 0.984805
O O19 0.500000 0.140599 0.092224
O O20 0.430204 0.000000 0.000000
#
# Coordination Sequence:
#
# PCOD8220440 Si02
#       8
#     8   8   8   8   8   8   8   8
#     4  11  22  33  56  84 107 147 190 231 270 327
#     4  10  20  36  53  75 110 144 187 231 272 317
#     4  10  23  39  55  78 112 152 186 233 281 329
#     4  10  22  35  51  78 115 149 185 232 273 332
#     4  12  22  34  58  84 107 145 194 229 277 331
#     4   9  21  33  51  77 110 147 183 226 277 321
#     4  10  20  36  57  84 115 142 173 219 282 339
#     4  10  22  39  59  86 117 143 173 224 283 337
#
# _framework density 18.103475
#
# number of rings (size 3 to 8) (size 9 to 14) (size 15 to 20)
#    0.000    1.750    2.500    1.500    3.500    6.000 
#    0.000    0.000    0.000    1.500    0.000    0.000 
#    0.000    0.000    0.000    0.000    0.000    0.000 
#
# Total GULP energy -793545.854728 kJ/mol
# GULP energy per Si atom -12399.153980 kJ/mol
# Density = 1.806227 g / cm^3
# Si number density = 18.103475 Si / 1000 Ang^3
#
#
#
# Elastic Constant Matrix: (Units=GPa)
#
#
# Indices 1 2 3 4 5 6 
#
# 1 75.3855 30.0589 49.5666 0.0000 0.0000 0.0000
# 2 30.0589 120.5824 56.0000 0.0000 0.0000 0.0000
# 3 49.5666 56.0000 111.9215 0.0000 0.0000 0.0000
# 4 0.0000 0.0000 0.0000 33.0372 0.0000 0.0000
# 5 0.0000 0.0000 0.0000 0.0000 28.7237 0.0000
# 6 0.0000 0.0000 0.0000 0.0000 0.0000 19.2582
#
#
#
# Elastic Compliance Matrix: (Units=1/GPa)
#
#
# Indices 1 2 3 4 5 6 
#
# 1 0.018820 -0.001069 -0.007800 0.000000 0.000000 0.000000
# 2 -0.001069 0.010864 -0.004962 0.000000 0.000000 0.000000
# 3 -0.007800 -0.004962 0.014872 0.000000 0.000000 0.000000
# 4 0.000000 0.000000 0.000000 0.030269 0.000000 0.000000
# 5 0.000000 0.000000 0.000000 0.000000 0.034814 0.000000
# 6 0.000000 0.000000 0.000000 0.000000 0.000000 0.051926
#
#
# Mechanical properties :
#
#
# Convention : Reuss Voigt Hill
#
# Bulk Modulus (GPa) = 59.19451 64.34893 61.77172
# Shear Modulus (GPa) = 25.65954 27.68810 26.67382
#
# Velocity S-wave (km/s) = 3.76890 3.91504 3.84267
# Velocity P-wave (km/s) = 7.19085 7.48725 7.34055
#
# Compressibility (1/GPa) = 0.01689346
#
# Stress axis : x y z
#
# Youngs Moduli (GPa) = 53.13526 92.04530 67.24004
#
# Poissons Ratio (x) = 0.09841 0.52446
# Poissons Ratio (y) = 0.05681 0.33367
# Poissons Ratio (z) = 0.41445 0.45677
#
# Static dielectric constant tensor:
#      x y z
#    x 3.381580 0.000000 0.000000 
#    y 0.000000 3.469980 0.000000 
#    z 0.000000 0.000000 3.304650 
# 
# 
# High freq. dielectric constant tensor:
#      x y z
#    x 1.683790 0.000000 0.000000 
#    y 0.000000 1.711340 0.000000 
#    z 0.000000 0.000000 1.698770 
# 
# From -- ./inp_files/19042.got.cif
#   From: 2010.03.12/outbox.cif.g09.slc.cpg/sg53_10_cif.got.tgz:19042.got - 2010.04.16 14:36:59.
