data_PCOD8220866
_publ_section_title
;
Structure prediction by ZEFSAII (Michael W. Deem and Ramdas Pophale) SiO2 
 PCOD8220866
Probable space group: P M N A
;
_chemical_formula_sum "Si O2"
_cell_formula_units_Z 56
_cell_length_a 8.699149
_cell_length_b 20.642892
_cell_length_c 15.298596
_cell_angle_alpha 90.000000
_cell_angle_beta 90.000000
_cell_angle_gamma 90.000000
_cell_volume 2747.254453
_symmetry_space_group_name_H-M "P M N A"
_symmetry_group_IT_number 53
_symmetry_cell_setting 'orthorhombic'
loop_
_space_group_symop_operation_xyz
x,y,z
1/2-x,-y,1/2+z
x,-y,-z
1/2-x,y,1/2-z
-x,-y,-z
1/2+x,y,1/2-z
-x,y,z
1/2+x,-y,1/2+z
loop_
_atom_site_type_symbol
_atom_site_label
_atom_site_fract_x
_atom_site_fract_y
_atom_site_fract_z
Si Si1 0.682012 0.785871 0.492950
Si Si2 0.680353 0.993698 0.899568
Si Si3 0.818764 0.350776 0.512169
Si Si4 0.321932 0.561170 0.341746
Si Si5 0.819520 0.122187 0.838575
Si Si6 0.178220 0.590989 0.841671
Si Si7 0.318288 0.148401 0.157581
O O1 0.500000 0.787763 0.501899
O O2 0.736484 0.715751 0.461388
O O3 0.742379 0.837406 0.421381
O O4 0.756274 0.801994 0.585884
O O5 0.500000 0.004419 0.886071
O O6 0.769943 0.047592 0.845256
O O7 0.736359 0.924262 0.864931
O O8 0.728205 0.000000 0.000000
O O9 0.768161 0.405149 0.580276
O O10 0.769513 0.371065 0.415532
O O11 0.000000 0.341475 0.515688
O O12 0.250000 0.583618 0.250000
O O13 0.500000 0.581190 0.343891
O O14 0.299759 0.485132 0.356118
O O15 0.750000 0.152321 0.750000
O O16 0.000000 0.127427 0.832329
O O17 0.250000 0.612963 0.750000
O O18 0.000000 0.610725 0.844837
O O19 0.250000 0.169959 0.250000
O O20 0.500000 0.153233 0.160040
#
# Coordination Sequence:
#
# PCOD8220866 Si02
#       7
#     8   8   8   8   8   8   8
#     4  11  25  44  62  85 118 159 206 254 301 356
#     4  10  20  37  63  92 123 156 192 244 302 358
#     4  12  25  40  62  90 123 164 206 250 302 361
#     4  10  21  39  64  94 127 162 201 249 302 355
#     4  11  24  40  63  90 119 156 199 248 301 360
#     4  10  21  39  64  94 127 161 201 250 301 357
#     4  11  23  40  63  90 121 157 199 246 302 362
#
# _framework density 20.383984999999999
#
# number of rings (size 3 to 8) (size 9 to 14) (size 15 to 20)
#    0.000    1.286    1.429    4.286    0.000    8.857 
#    0.000    4.286    0.000    0.000    0.000    0.000 
#    0.000    0.000    0.000    0.000    0.000    0.000 
#
# Total GULP energy -694816.738197 kJ/mol
# GULP energy per Si atom -12407.441754 kJ/mol
# Density = 2.033759 g / cm^3
# Si number density = 20.383985 Si / 1000 Ang^3
#
#
#
# Elastic Constant Matrix: (Units=GPa)
#
#
# Indices 1 2 3 4 5 6 
#
# 1 72.9167 20.5664 37.2649 0.0000 0.0000 0.0000
# 2 20.5664 51.0904 17.1842 0.0000 0.0000 0.0000
# 3 37.2649 17.1842 111.4216 0.0000 0.0000 0.0000
# 4 0.0000 0.0000 0.0000 9.9882 0.0000 0.0000
# 5 0.0000 0.0000 0.0000 0.0000 38.6591 0.0000
# 6 0.0000 0.0000 0.0000 0.0000 0.0000 32.3606
#
#
#
# Elastic Compliance Matrix: (Units=1/GPa)
#
#
# Indices 1 2 3 4 5 6 
#
# 1 0.017883 -0.005471 -0.005137 0.000000 0.000000 0.000000
# 2 -0.005471 0.022318 -0.001612 0.000000 0.000000 0.000000
# 3 -0.005137 -0.001612 0.010942 0.000000 0.000000 0.000000
# 4 0.000000 0.000000 0.000000 0.100118 0.000000 0.000000
# 5 0.000000 0.000000 0.000000 0.000000 0.025867 0.000000
# 6 0.000000 0.000000 0.000000 0.000000 0.000000 0.030902
#
#
# Mechanical properties :
#
#
# Convention : Reuss Voigt Hill
#
# Bulk Modulus (GPa) = 37.45082 42.82886 40.13984
# Shear Modulus (GPa) = 20.71507 26.89579 23.80543
#
# Velocity S-wave (km/s) = 3.19131 3.63637 3.42109
# Velocity P-wave (km/s) = 5.65614 6.21994 5.94472
#
# Compressibility (1/GPa) = 0.02670168
#
# Stress axis : x y z
#
# Youngs Moduli (GPa) = 55.91990 44.80748 91.39363
#
# Poissons Ratio (x) = 0.24513 0.46950
# Poissons Ratio (y) = 0.30593 0.14735
# Poissons Ratio (z) = 0.28727 0.07224
#
# Static dielectric constant tensor:
#      x y z
#    x 3.714170 0.000000 0.000000 
#    y 0.000000 3.680390 0.000000 
#    z 0.000000 0.000000 3.892700 
# 
# 
# High freq. dielectric constant tensor:
#      x y z
#    x 1.805380 0.000000 0.000000 
#    y 0.000000 1.792850 0.000000 
#    z 0.000000 0.000000 1.812580 
# 
# From -- ./inp_files/20491.got.cif
#   From: 2010.03.12/outbox.cif.g09.slc.cpg/sg53_11_cif.got.tgz:20491.got - 2010.04.16 14:36:59.
