data_PCOD8220478
_publ_section_title
;
Structure prediction by ZEFSAII (Michael W. Deem and Ramdas Pophale) SiO2 
 PCOD8220478
Probable space group: P M N A
;
_chemical_formula_sum "Si O2"
_cell_formula_units_Z 48
_cell_length_a 8.731869
_cell_length_b 30.781996
_cell_length_c 9.366679
_cell_angle_alpha 90.000000
_cell_angle_beta 90.000000
_cell_angle_gamma 90.000000
_cell_volume 2517.616789
_symmetry_space_group_name_H-M "P M N A"
_symmetry_group_IT_number 53
_symmetry_cell_setting 'orthorhombic'
loop_
_space_group_symop_operation_xyz
x,y,z
1/2-x,-y,1/2+z
x,-y,-z
1/2-x,y,1/2-z
-x,-y,-z
1/2+x,y,1/2-z
-x,y,z
1/2+x,-y,1/2+z
loop_
_atom_site_type_symbol
_atom_site_label
_atom_site_fract_x
_atom_site_fract_y
_atom_site_fract_z
Si Si1 0.819045 0.206783 0.597140
Si Si2 0.176685 0.037376 0.097842
Si Si3 0.818785 0.541071 0.092411
Si Si4 0.178511 0.134198 0.095006
Si Si5 0.680457 0.377908 0.406519
Si Si6 0.181502 0.297042 0.904250
O O1 0.750000 0.196116 0.750000
O O2 0.775398 0.167194 0.497585
O O3 0.748580 0.251658 0.537732
O O4 0.000000 0.211721 0.607930
O O5 0.250000 0.034133 0.250000
O O6 0.200677 0.085554 0.031633
O O7 0.000000 0.027053 0.118968
O O8 0.252627 0.000000 0.000000
O O9 0.750000 0.539405 0.250000
O O10 0.000000 0.541562 0.109238
O O11 0.762976 0.500000 0.000000
O O12 0.759212 0.583451 0.007985
O O13 0.250000 0.136240 0.250000
O O14 0.000000 0.147330 0.098719
O O15 0.750000 0.381635 0.250000
O O16 0.500000 0.381031 0.389530
O O17 0.730794 0.333028 0.480725
O O18 0.250000 0.309121 0.750000
O O19 0.000000 0.293602 0.888202
#
# Coordination Sequence:
#
# PCOD8220478 Si02
#       6
#     8   8   8   8   8   8
#     4  11  22  37  57  81 109 142 181 224 272 323
#     4   9  19  35  54  78 107 139 176 218 263 314
#     4  10  21  37  57  83 113 145 183 224 268 319
#     4  10  20  36  56  79 109 143 180 221 268 321
#     4  10  22  37  55  81 111 143 181 224 267 319
#     4  10  20  36  56  79 107 139 179 223 269 321
#
# _framework density 19.065650000000002
#
# number of rings (size 3 to 8) (size 9 to 14) (size 15 to 20)
#    0.000    2.000    0.000    4.500    0.000    4.667 
#    0.000    3.333    0.000    0.000    0.000    0.000 
#    0.000    0.000    0.000    0.000    0.000    0.000 
#
# Total GULP energy -595199.179749 kJ/mol
# GULP energy per Si atom -12399.982911 kJ/mol
# Density = 1.902226 g / cm^3
# Si number density = 19.065650 Si / 1000 Ang^3
#
#
#
# Elastic Constant Matrix: (Units=GPa)
#
#
# Indices 1 2 3 4 5 6 
#
# 1 74.5179 45.7721 37.7383 0.0000 0.0000 0.0000
# 2 45.7721 148.9150 83.4907 0.0000 0.0000 0.0000
# 3 37.7383 83.4907 119.5704 0.0000 0.0000 0.0000
# 4 0.0000 0.0000 0.0000 84.9039 0.0000 0.0000
# 5 0.0000 0.0000 0.0000 0.0000 35.4007 0.0000
# 6 0.0000 0.0000 0.0000 0.0000 0.0000 40.7885
#
#
#
# Elastic Compliance Matrix: (Units=1/GPa)
#
#
# Indices 1 2 3 4 5 6 
#
# 1 0.017110 -0.003667 -0.002840 0.000000 0.000000 0.000000
# 2 -0.003667 0.011821 -0.007097 0.000000 0.000000 0.000000
# 3 -0.002840 -0.007097 0.014215 0.000000 0.000000 0.000000
# 4 0.000000 0.000000 0.000000 0.011778 0.000000 0.000000
# 5 0.000000 0.000000 0.000000 0.000000 0.028248 0.000000
# 6 0.000000 0.000000 0.000000 0.000000 0.000000 0.024517
#
#
# Mechanical properties :
#
#
# Convention : Reuss Voigt Hill
#
# Bulk Modulus (GPa) = 62.73866 75.22284 68.98075
# Shear Modulus (GPa) = 35.66084 43.95209 39.80647
#
# Velocity S-wave (km/s) = 4.32953 4.80657 4.57427
# Velocity P-wave (km/s) = 7.61388 8.38716 8.00986
#
# Compressibility (1/GPa) = 0.01593914
#
# Stress axis : x y z
#
# Youngs Moduli (GPa) = 58.44473 84.59260 70.34813
#
# Poissons Ratio (x) = 0.31021 0.19977
# Poissons Ratio (y) = 0.21432 0.49926
# Poissons Ratio (z) = 0.16597 0.60035
#
# Static dielectric constant tensor:
#      x y z
#    x 3.498160 0.000000 0.000000 
#    y 0.000000 3.931290 0.000000 
#    z 0.000000 0.000000 3.435400 
# 
# 
# High freq. dielectric constant tensor:
#      x y z
#    x 1.743920 0.000000 0.000000 
#    y 0.000000 1.760060 0.000000 
#    z 0.000000 0.000000 1.738700 
# 
# From -- ./inp_files/6711.got.cif
#   From: 2010.03.12/outbox.cif.g09.slc.cpg/sg53_4_cif.got.tgz:6711.got - 2010.04.16 14:36:59.
