data_PCOD8220876
_publ_section_title
;
Structure prediction by ZEFSAII (Michael W. Deem and Ramdas Pophale) SiO2 
 PCOD8220876
Probable space group: P M N A
;
_chemical_formula_sum "Si O2"
_cell_formula_units_Z 56
_cell_length_a 19.223058
_cell_length_b 16.171498
_cell_length_c 9.355792
_cell_angle_alpha 90.000000
_cell_angle_beta 90.000000
_cell_angle_gamma 90.000000
_cell_volume 2908.394305
_symmetry_space_group_name_H-M "P M N A"
_symmetry_group_IT_number 53
_symmetry_cell_setting 'orthorhombic'
loop_
_space_group_symop_operation_xyz
x,y,z
1/2-x,-y,1/2+z
x,-y,-z
1/2-x,y,1/2-z
-x,-y,-z
1/2+x,y,1/2-z
-x,y,z
1/2+x,-y,1/2+z
loop_
_atom_site_type_symbol
_atom_site_label
_atom_site_fract_x
_atom_site_fract_y
_atom_site_fract_z
Si Si1 0.420646 0.228497 0.798795
Si Si2 0.733711 0.424708 0.586081
Si Si3 0.858670 0.339525 0.479359
Si Si4 0.500000 0.579125 0.899088
Si Si5 0.827528 0.199918 0.268696
Si Si6 0.080716 0.907091 0.525009
Si Si7 0.123512 0.290777 0.991603
Si Si8 0.000000 0.587223 0.924623
O O1 0.500000 0.256139 0.824293
O O2 0.369693 0.295128 0.869198
O O3 0.404282 0.228538 0.630829
O O4 0.407063 0.140259 0.874676
O O5 0.696267 0.500000 0.500000
O O6 0.750000 0.447084 0.750000
O O7 0.807767 0.415665 0.506191
O O8 0.689873 0.340812 0.568398
O O9 0.821415 0.280516 0.366332
O O10 0.932757 0.365620 0.420846
O O11 0.500000 0.553499 0.735753
O O12 0.500000 0.500000 0.000000
O O13 0.750000 0.162673 0.250000
O O14 0.876642 0.132205 0.343769
O O15 0.858930 0.227552 0.117617
O O16 0.000000 0.904397 0.570315
O O17 0.106899 0.000000 0.500000
O O18 0.067006 0.358148 0.038584
O O19 0.000000 0.500000 0.000000
#
# Coordination Sequence:
#
# PCOD8220876 Si02
#       8
#     8   8   8   4   8   8   8   4
#     4  10  20  37  66  91 118 156 198 248 306 365
#     4  12  27  40  58  83 121 167 213 272 320 364
#     4  11  22  40  60  84 115 160 215 256 305 376
#     4  12  26  38  60  84 115 162 217 267 316 370
#     4  11  23  40  66  93 124 167 205 251 307 382
#     4   9  21  43  72 101 129 159 201 250 307 379
#     4  12  24  40  61  89 125 162 212 259 314 375
#     4  12  28  40  56  86 125 163 207 280 327 355
#
# _framework density 19.254611000000001
#
# number of rings (size 3 to 8) (size 9 to 14) (size 15 to 20)
#    0.000    1.000    5.714    0.857    6.000    2.286 
#    0.000    2.143    0.000    2.571    0.000    0.000 
#    0.000    0.000    0.000    0.000    0.000    0.000 
#
# Total GULP energy -694363.410431 kJ/mol
# GULP energy per Si atom -12399.346615 kJ/mol
# Density = 1.921079 g / cm^3
# Si number density = 19.254611 Si / 1000 Ang^3
#
#
#
# Elastic Constant Matrix: (Units=GPa)
#
#
# Indices 1 2 3 4 5 6 
#
# 1 94.5812 34.9539 37.6381 0.0000 0.0000 0.0000
# 2 34.9539 105.3827 57.0086 0.0000 0.0000 0.0000
# 3 37.6381 57.0086 157.2434 0.0000 0.0000 0.0000
# 4 0.0000 0.0000 0.0000 21.6758 0.0000 0.0000
# 5 0.0000 0.0000 0.0000 0.0000 28.0959 0.0000
# 6 0.0000 0.0000 0.0000 0.0000 0.0000 27.4404
#
#
#
# Elastic Compliance Matrix: (Units=1/GPa)
#
#
# Indices 1 2 3 4 5 6 
#
# 1 0.012467 -0.003136 -0.001847 0.000000 0.000000 0.000000
# 2 -0.003136 0.012593 -0.003815 0.000000 0.000000 0.000000
# 3 -0.001847 -0.003815 0.008185 0.000000 0.000000 0.000000
# 4 0.000000 0.000000 0.000000 0.046134 0.000000 0.000000
# 5 0.000000 0.000000 0.000000 0.000000 0.035592 0.000000
# 6 0.000000 0.000000 0.000000 0.000000 0.000000 0.036443
#
#
# Mechanical properties :
#
#
# Convention : Reuss Voigt Hill
#
# Bulk Modulus (GPa) = 63.90280 68.48981 66.19630
# Shear Modulus (GPa) = 28.69826 30.61621 29.65723
#
# Velocity S-wave (km/s) = 3.86484 3.99190 3.92888
# Velocity P-wave (km/s) = 7.29221 7.54286 7.41860
#
# Compressibility (1/GPa) = 0.01564877
#
# Stress axis : x y z
#
# Youngs Moduli (GPa) = 80.21246 79.40828 122.17665
#
# Poissons Ratio (x) = 0.24901 0.22569
# Poissons Ratio (y) = 0.25153 0.46611
# Poissons Ratio (z) = 0.14817 0.30295
#
# Static dielectric constant tensor:
#      x y z
#    x 3.833090 0.000000 0.000000 
#    y 0.000000 3.341660 0.000000 
#    z 0.000000 0.000000 4.058870 
# 
# 
# High freq. dielectric constant tensor:
#      x y z
#    x 1.761180 0.000000 0.000000 
#    y 0.000000 1.726050 0.000000 
#    z 0.000000 0.000000 1.761690 
# 
# From -- ./inp_files/11105.got.cif
#   From: 2010.03.12/outbox.cif.g09.slc.cpg/sg53_6_cif.got.tgz:11105.got - 2010.04.16 14:36:59.
