data_PCOD8220929
_publ_section_title
;
Structure prediction by ZEFSAII (Michael W. Deem and Ramdas Pophale) SiO2 
 PCOD8220929
Probable space group: P M N A
;
_chemical_formula_sum "Si O2"
_cell_formula_units_Z 48
_cell_length_a 8.337183
_cell_length_b 9.373188
_cell_length_c 30.270266
_cell_angle_alpha 90.000000
_cell_angle_beta 90.000000
_cell_angle_gamma 90.000000
_cell_volume 2365.499712
_symmetry_space_group_name_H-M "P M N A"
_symmetry_group_IT_number 53
_symmetry_cell_setting 'orthorhombic'
loop_
_space_group_symop_operation_xyz
x,y,z
1/2-x,-y,1/2+z
x,-y,-z
1/2-x,y,1/2-z
-x,-y,-z
1/2+x,y,1/2-z
-x,y,z
1/2+x,-y,1/2+z
loop_
_atom_site_type_symbol
_atom_site_label
_atom_site_fract_x
_atom_site_fract_y
_atom_site_fract_z
Si Si1 0.689169 0.339224 0.203124
Si Si2 0.190191 0.662545 0.297380
Si Si3 0.816023 0.167808 0.879325
Si Si4 0.314225 0.351991 0.955090
Si Si5 0.187245 0.856438 0.623585
Si Si6 0.812871 0.342120 0.050398
O O1 0.750000 0.279225 0.250000
O O2 0.500000 0.339025 0.203325
O O3 0.751247 0.500408 0.195241
O O4 0.754011 0.239269 0.164003
O O5 0.250000 0.717937 0.250000
O O6 0.272079 0.762440 0.333035
O O7 0.000000 0.675297 0.301283
O O8 0.707722 0.231704 0.918320
O O9 0.000000 0.198438 0.890742
O O10 0.787620 0.000273 0.876327
O O11 0.500000 0.365959 0.967587
O O12 0.251197 0.501997 0.935993
O O13 0.216059 0.310687 0.998816
O O14 0.215737 0.774410 0.577942
O O15 0.000000 0.891278 0.629050
O O16 0.000000 0.331018 0.061189
#
# Coordination Sequence:
#
# PCOD8220929 Si02
#       6
#     8   8   8   8   8   8
#     4   9  20  37  61  87 114 147 191 239 287 342
#     4  10  20  38  62  89 117 152 195 243 295 353
#     4  12  25  40  58  86 120 157 198 246 298 352
#     4  11  22  40  64  89 117 155 197 241 292 351
#     4  11  23  40  59  85 120 160 198 239 293 356
#     4  11  22  39  63  92 120 151 193 244 293 346
#
# _framework density 20.291696000000002
#
# number of rings (size 3 to 8) (size 9 to 14) (size 15 to 20)
#    0.000    1.333    0.000    7.500    0.000    4.667 
#    0.000    5.000    0.000    0.000    0.000    0.000 
#    0.000    0.000    0.000    0.000    0.000    0.000 
#
# Total GULP energy -595524.813117 kJ/mol
# GULP energy per Si atom -12406.766940 kJ/mol
# Density = 2.024551 g / cm^3
# Si number density = 20.291696 Si / 1000 Ang^3
#
#
#
# Elastic Constant Matrix: (Units=GPa)
#
#
# Indices 1 2 3 4 5 6 
#
# 1 68.6021 8.1579 10.2361 0.0000 0.0000 0.0000
# 2 8.1579 112.2515 71.4520 0.0000 0.0000 0.0000
# 3 10.2361 71.4520 106.4414 0.0000 0.0000 0.0000
# 4 0.0000 0.0000 0.0000 31.4944 0.0000 0.0000
# 5 0.0000 0.0000 0.0000 0.0000 35.2143 0.0000
# 6 0.0000 0.0000 0.0000 0.0000 0.0000 29.3888
#
#
#
# Elastic Compliance Matrix: (Units=1/GPa)
#
#
# Indices 1 2 3 4 5 6 
#
# 1 0.014795 -0.000296 -0.001224 0.000000 0.000000 0.000000
# 2 -0.000296 0.015561 -0.010417 0.000000 0.000000 0.000000
# 3 -0.001224 -0.010417 0.016506 0.000000 0.000000 0.000000
# 4 0.000000 0.000000 0.000000 0.031752 0.000000 0.000000
# 5 0.000000 0.000000 0.000000 0.000000 0.028398 0.000000
# 6 0.000000 0.000000 0.000000 0.000000 0.000000 0.034027
#
#
# Mechanical properties :
#
#
# Convention : Reuss Voigt Hill
#
# Bulk Modulus (GPa) = 43.50404 51.88742 47.69573
# Shear Modulus (GPa) = 28.97306 32.38278 30.67792
#
# Velocity S-wave (km/s) = 3.78276 3.99916 3.89246
# Velocity P-wave (km/s) = 6.36906 6.85205 6.61497
#
# Compressibility (1/GPa) = 0.02298637
#
# Stress axis : x y z
#
# Youngs Moduli (GPa) = 67.59194 64.26276 60.58573
#
# Poissons Ratio (x) = 0.01903 0.07416
# Poissons Ratio (y) = 0.02001 0.63115
# Poissons Ratio (z) = 0.08273 0.66945
#
# Static dielectric constant tensor:
#      x y z
#    x 3.669130 0.000000 0.000000 
#    y 0.000000 3.693320 0.000000 
#    z 0.000000 0.000000 4.096880 
# 
# 
# High freq. dielectric constant tensor:
#      x y z
#    x 1.801380 0.000000 0.000000 
#    y 0.000000 1.787450 0.000000 
#    z 0.000000 0.000000 1.803450 
# 
# From -- ./inp_files/37720.got.cif
#   From: 2010.03.12/outbox.cif.g09.slc.cpg/sg53_19_cif.got.tgz:37720.got - 2010.04.16 14:36:59.
