data_PCOD8220727
_publ_section_title
;
Structure prediction by ZEFSAII (Michael W. Deem and Ramdas Pophale) SiO2 
 PCOD8220727
Probable space group: P M N A
;
_chemical_formula_sum "Si O2"
_cell_formula_units_Z 64
_cell_length_a 8.367989
_cell_length_b 19.883997
_cell_length_c 20.166477
_cell_angle_alpha 90.000000
_cell_angle_beta 90.000000
_cell_angle_gamma 90.000000
_cell_volume 3355.481316
_symmetry_space_group_name_H-M "P M N A"
_symmetry_group_IT_number 53
_symmetry_cell_setting 'orthorhombic'
loop_
_space_group_symop_operation_xyz
x,y,z
1/2-x,-y,1/2+z
x,-y,-z
1/2-x,y,1/2-z
-x,-y,-z
1/2+x,y,1/2-z
-x,y,z
1/2+x,-y,1/2+z
loop_
_atom_site_type_symbol
_atom_site_label
_atom_site_fract_x
_atom_site_fract_y
_atom_site_fract_z
Si Si1 0.686487 0.077587 0.322050
Si Si2 0.810857 0.575878 0.820676
Si Si3 0.314953 0.827172 0.933242
Si Si4 0.189791 0.424849 0.820871
Si Si5 0.314114 0.830844 0.423518
Si Si6 0.814284 0.068306 0.680871
Si Si7 0.688905 0.320517 0.573457
Si Si8 0.309874 0.683491 0.574555
O O1 0.750000 0.099379 0.250000
O O2 0.500000 0.093866 0.327442
O O3 0.781528 0.118283 0.377313
O O4 0.716443 0.999026 0.335071
O O5 0.750000 0.602135 0.750000
O O6 0.746430 0.500431 0.834796
O O7 0.743883 0.626029 0.876513
O O8 0.000000 0.576133 0.821086
O O9 0.500000 0.827743 0.952180
O O10 0.265244 0.754545 0.904653
O O11 0.215467 0.845791 0.999070
O O12 0.250000 0.398936 0.750000
O O13 0.263729 0.374951 0.876156
O O14 0.000000 0.423300 0.822104
O O15 0.500000 0.842194 0.407923
O O16 0.209268 0.879310 0.378189
O O17 0.258910 0.754800 0.406566
O O18 0.750000 0.099657 0.750000
O O19 0.000000 0.050062 0.687899
O O20 0.500000 0.325773 0.575743
O O21 0.748054 0.336818 0.499157
O O22 0.500000 0.690593 0.578026
#
# Coordination Sequence:
#
# PCOD8220727 Si02
#       8
#     8   8   8   8   8   8   8   8
#     4  11  22  39  60  83 110 142 177 219 266 316
#     4   9  18  31  50  73 101 133 170 212 260 312
#     4  11  22  37  56  81 109 141 178 220 266 320
#     4   9  17  31  49  73 101 133 169 212 260 311
#     4  10  20  37  57  80 109 143 180 224 270 317
#     4  11  22  38  58  83 112 144 180 221 265 316
#     4   8  16  31  52  74 100 131 171 217 262 308
#     4   9  18  34  52  73 100 135 174 217 262 310
#
# _framework density 19.073270000000001
#
# number of rings (size 3 to 8) (size 9 to 14) (size 15 to 20)
#    0.000    2.250    0.000    5.250    0.000    2.500 
#    0.000   10.625    0.000    0.000    0.000    7.000 
#    0.000    0.000    0.000    0.000    0.000    0.000 
#
# Total GULP energy -793683.969276 kJ/mol
# GULP energy per Si atom -12401.312020 kJ/mol
# Density = 1.902986 g / cm^3
# Si number density = 19.073270 Si / 1000 Ang^3
#
#
#
# Elastic Constant Matrix: (Units=GPa)
#
#
# Indices 1 2 3 4 5 6 
#
# 1 47.5790 8.0169 6.2184 0.0000 0.0000 0.0000
# 2 8.0169 98.6357 80.0903 0.0000 0.0000 0.0000
# 3 6.2184 80.0903 119.8835 0.0000 0.0000 0.0000
# 4 0.0000 0.0000 0.0000 59.5705 0.0000 0.0000
# 5 0.0000 0.0000 0.0000 0.0000 30.2191 0.0000
# 6 0.0000 0.0000 0.0000 0.0000 0.0000 17.0669
#
#
#
# Elastic Compliance Matrix: (Units=1/GPa)
#
#
# Indices 1 2 3 4 5 6 
#
# 1 0.021310 -0.001824 0.000113 0.000000 0.000000 0.000000
# 2 -0.001824 0.022314 -0.014813 0.000000 0.000000 0.000000
# 3 0.000113 -0.014813 0.018232 0.000000 0.000000 0.000000
# 4 0.000000 0.000000 0.000000 0.016787 0.000000 0.000000
# 5 0.000000 0.000000 0.000000 0.000000 0.033092 0.000000
# 6 0.000000 0.000000 0.000000 0.000000 0.000000 0.058593
#
#
# Mechanical properties :
#
#
# Convention : Reuss Voigt Hill
#
# Bulk Modulus (GPa) = 34.71159 50.52771 42.61965
# Shear Modulus (GPa) = 23.47661 32.82281 28.14971
#
# Velocity S-wave (km/s) = 3.51217 4.15285 3.84588
# Velocity P-wave (km/s) = 5.88946 7.03873 6.48959
#
# Compressibility (1/GPa) = 0.02880882
#
# Stress axis : x y z
#
# Youngs Moduli (GPa) = 46.92582 44.81425 54.84990
#
# Poissons Ratio (x) = 0.08174 -0.00620
# Poissons Ratio (y) = 0.08559 0.81249
# Poissons Ratio (z) = -0.00531 0.66383
#
# Static dielectric constant tensor:
#      x y z
#    x 3.308270 0.000000 0.000000 
#    y 0.000000 3.625150 0.000000 
#    z 0.000000 0.000000 3.630840 
# 
# 
# High freq. dielectric constant tensor:
#      x y z
#    x 1.732160 0.000000 0.000000 
#    y 0.000000 1.740960 0.000000 
#    z 0.000000 0.000000 1.745410 
# 
# From -- ./inp_files/31288.got.cif
#   From: 2010.03.12/outbox.cif.g09.slc.cpg/sg53_16_cif.got.tgz:31288.got - 2010.04.16 14:36:59.
