data_PCOD8220413
_publ_section_title
;
Structure prediction by ZEFSAII (Michael W. Deem and Ramdas Pophale) SiO2 
 PCOD8220413
Probable space group: P M N A
;
_chemical_formula_sum "Si O2"
_cell_formula_units_Z 40
_cell_length_a 16.864712
_cell_length_b 9.751259
_cell_length_c 11.456683
_cell_angle_alpha 90.000000
_cell_angle_beta 90.000000
_cell_angle_gamma 90.000000
_cell_volume 1884.076434
_symmetry_space_group_name_H-M "P M N A"
_symmetry_group_IT_number 53
_symmetry_cell_setting 'orthorhombic'
loop_
_space_group_symop_operation_xyz
x,y,z
1/2-x,-y,1/2+z
x,-y,-z
1/2-x,y,1/2-z
-x,-y,-z
1/2+x,y,1/2-z
-x,y,z
1/2+x,-y,1/2+z
loop_
_atom_site_type_symbol
_atom_site_label
_atom_site_fract_x
_atom_site_fract_y
_atom_site_fract_z
Si Si1 0.678794 0.344967 0.017283
Si Si2 0.911095 0.977129 0.138426
Si Si3 0.091757 0.570620 0.743851
Si Si4 0.309537 0.773998 0.650881
Si Si5 0.842047 0.280623 0.735274
O O1 0.615587 0.353346 0.122498
O O2 0.756227 0.245462 0.035005
O O3 0.710741 0.500000 0.000000
O O4 0.635722 0.279995 0.903404
O O5 0.892730 0.825862 0.187195
O O6 0.000000 0.015978 0.181557
O O7 0.841051 0.075300 0.184111
O O8 0.907515 0.000000 0.000000
O O9 0.113622 0.674680 0.849026
O O10 0.138596 0.433200 0.777368
O O11 0.000000 0.536555 0.740524
O O12 0.250000 0.720295 0.750000
O O13 0.750000 0.248575 0.750000
#
# Coordination Sequence:
#
# PCOD8220413 Si02
#       5
#     8   8   8   8   8
#     4   9  19  35  60  88 113 149 200 252 297 350
#     4  11  24  39  55  79 113 151 190 237 294 352
#     4  10  20  35  58  88 119 150 187 238 299 358
#     4  10  20  37  58  81 112 148 188 233 288 353
#     4  11  21  37  60  83 111 151 200 247 292 350
#
# _framework density 21.230561999999999
#
# number of rings (size 3 to 8) (size 9 to 14) (size 15 to 20)
#    0.000    1.800    0.000    6.000    0.000    4.400 
#    0.000    3.000    0.000   12.000    0.000    0.000 
#    0.000    0.000    0.000    0.000    0.000    0.000 
#
# Total GULP energy -495521.960826 kJ/mol
# GULP energy per Si atom -12388.049021 kJ/mol
# Density = 2.118224 g / cm^3
# Si number density = 21.230562 Si / 1000 Ang^3
#
#
#
# Elastic Constant Matrix: (Units=GPa)
#
#
# Indices 1 2 3 4 5 6 
#
# 1 97.6876 22.9503 13.7448 0.0000 0.0000 0.0000
# 2 22.9503 99.9824 32.5076 0.0000 0.0000 0.0000
# 3 13.7448 32.5076 69.0615 0.0000 0.0000 0.0000
# 4 0.0000 0.0000 0.0000 37.3890 0.0000 0.0000
# 5 0.0000 0.0000 0.0000 0.0000 14.0637 0.0000
# 6 0.0000 0.0000 0.0000 0.0000 0.0000 34.1559
#
#
#
# Elastic Compliance Matrix: (Units=1/GPa)
#
#
# Indices 1 2 3 4 5 6 
#
# 1 0.010900 -0.002121 -0.001171 0.000000 0.000000 0.000000
# 2 -0.002121 0.012222 -0.005331 0.000000 0.000000 0.000000
# 3 -0.001171 -0.005331 0.017222 0.000000 0.000000 0.000000
# 4 0.000000 0.000000 0.000000 0.026746 0.000000 0.000000
# 5 0.000000 0.000000 0.000000 0.000000 0.071105 0.000000
# 6 0.000000 0.000000 0.000000 0.000000 0.000000 0.029278
#
#
# Mechanical properties :
#
#
# Convention : Reuss Voigt Hill
#
# Bulk Modulus (GPa) = 43.29359 45.01521 44.15440
# Shear Modulus (GPa) = 25.98523 30.29031 28.13777
#
# Velocity S-wave (km/s) = 3.50230 3.78131 3.64448
# Velocity P-wave (km/s) = 6.06557 6.34929 6.20905
#
# Compressibility (1/GPa) = 0.02309811
#
# Stress axis : x y z
#
# Youngs Moduli (GPa) = 91.74463 81.82039 58.06510
#
# Poissons Ratio (x) = 0.17357 0.06798
# Poissons Ratio (y) = 0.19462 0.30953
# Poissons Ratio (z) = 0.10741 0.43616
#
# Static dielectric constant tensor:
#      x y z
#    x 3.875900 0.000000 0.000000 
#    y 0.000000 3.741250 0.000000 
#    z 0.000000 0.000000 3.987090 
# 
# 
# High freq. dielectric constant tensor:
#      x y z
#    x 1.832630 0.000000 0.000000 
#    y 0.000000 1.825480 0.000000 
#    z 0.000000 0.000000 1.823400 
# 
# From -- ./inp_files/16651.got.cif
#   From: 2010.03.12/outbox.cif.g09.slc.cpg/sg53_9_cif.got.tgz:16651.got - 2010.04.16 14:36:59.
