data_PCOD8220997
_publ_section_title
;
Structure prediction by ZEFSAII (Michael W. Deem and Ramdas Pophale) SiO2 
 PCOD8220997
Probable space group: P M N A
;
_chemical_formula_sum "Si O2"
_cell_formula_units_Z 48
_cell_length_a 8.736069
_cell_length_b 9.897185
_cell_length_c 28.691919
_cell_angle_alpha 90.000000
_cell_angle_beta 90.000000
_cell_angle_gamma 90.000000
_cell_volume 2480.774790
_symmetry_space_group_name_H-M "P M N A"
_symmetry_group_IT_number 53
_symmetry_cell_setting 'orthorhombic'
loop_
_space_group_symop_operation_xyz
x,y,z
1/2-x,-y,1/2+z
x,-y,-z
1/2-x,y,1/2-z
-x,-y,-z
1/2+x,y,1/2-z
-x,y,z
1/2+x,-y,1/2+z
loop_
_atom_site_type_symbol
_atom_site_label
_atom_site_fract_x
_atom_site_fract_y
_atom_site_fract_z
Si Si1 0.319389 0.279682 0.379759
Si Si2 0.821376 0.363715 0.476805
Si Si3 0.825558 0.129091 0.971316
Si Si4 0.818136 0.513507 0.800353
Si Si5 0.680346 0.230653 0.799666
Si Si6 0.676039 0.973846 0.368378
O O1 0.500000 0.278397 0.384190
O O2 0.257313 0.339584 0.427508
O O3 0.264769 0.372026 0.336682
O O4 0.260741 0.126840 0.371801
O O5 0.757608 0.500000 0.500000
O O6 0.785815 0.248763 0.514331
O O7 0.000000 0.372533 0.467362
O O8 0.807553 0.101312 0.917151
O O9 0.000000 0.166408 0.984641
O O10 0.771199 0.000000 0.000000
O O11 0.750000 0.550938 0.750000
O O12 0.754616 0.369765 0.818453
O O13 0.000000 0.504678 0.796540
O O14 0.750000 0.193610 0.750000
O O15 0.500000 0.251290 0.795452
O O16 0.717357 0.105880 0.832877
O O17 0.500000 0.972415 0.351300
#
# Coordination Sequence:
#
# PCOD8220997 Si02
#       6
#     8   8   8   8   8   8
#     4  10  22  41  63  87 117 155 199 240 289 354
#     4  11  25  40  56  86 124 157 196 246 294 343
#     4  10  20  39  64  86 115 157 199 239 288 347
#     4  10  21  39  63  89 117 153 194 240 293 348
#     4  11  23  40  62  88 120 155 195 240 291 349
#     4  10  21  39  62  89 119 152 196 243 291 349
#
# _framework density 19.348794000000002
#
# number of rings (size 3 to 8) (size 9 to 14) (size 15 to 20)
#    0.000    1.667    1.667    3.500    2.333    5.000 
#    0.000    1.667    0.000    0.000    0.000    0.000 
#    0.000    0.000    0.000    0.000    0.000    0.000 
#
# Total GULP energy -595369.139417 kJ/mol
# GULP energy per Si atom -12403.523738 kJ/mol
# Density = 1.930476 g / cm^3
# Si number density = 19.348794 Si / 1000 Ang^3
#
#
#
# Elastic Constant Matrix: (Units=GPa)
#
#
# Indices 1 2 3 4 5 6 
#
# 1 54.9794 35.4261 37.2279 0.0000 0.0000 0.0000
# 2 35.4261 144.7902 84.5626 0.0000 0.0000 0.0000
# 3 37.2279 84.5626 108.0031 0.0000 0.0000 0.0000
# 4 0.0000 0.0000 0.0000 42.1867 0.0000 0.0000
# 5 0.0000 0.0000 0.0000 0.0000 33.6813 0.0000
# 6 0.0000 0.0000 0.0000 0.0000 0.0000 33.3155
#
#
#
# Elastic Compliance Matrix: (Units=1/GPa)
#
#
# Indices 1 2 3 4 5 6 
#
# 1 0.024012 -0.001918 -0.006775 0.000000 0.000000 0.000000
# 2 -0.001918 0.012879 -0.009423 0.000000 0.000000 0.000000
# 3 -0.006775 -0.009423 0.018972 0.000000 0.000000 0.000000
# 4 0.000000 0.000000 0.000000 0.023704 0.000000 0.000000
# 5 0.000000 0.000000 0.000000 0.000000 0.029690 0.000000
# 6 0.000000 0.000000 0.000000 0.000000 0.000000 0.030016
#
#
# Mechanical properties :
#
#
# Convention : Reuss Voigt Hill
#
# Bulk Modulus (GPa) = 50.93870 69.13399 60.03634
# Shear Modulus (GPa) = 27.46519 31.87377 29.66948
#
# Velocity S-wave (km/s) = 3.77168 4.06313 3.92012
# Velocity P-wave (km/s) = 6.73433 7.60394 7.18231
#
# Compressibility (1/GPa) = 0.01963144
#
# Stress axis : x y z
#
# Youngs Moduli (GPa) = 41.64559 77.64557 52.70988
#
# Poissons Ratio (x) = 0.14895 0.35710
# Poissons Ratio (y) = 0.07989 0.49666
# Poissons Ratio (z) = 0.28214 0.73162
#
# Static dielectric constant tensor:
#      x y z
#    x 3.473490 0.000000 0.000000 
#    y 0.000000 3.771480 0.000000 
#    z 0.000000 0.000000 3.547320 
# 
# 
# High freq. dielectric constant tensor:
#      x y z
#    x 1.749890 0.000000 0.000000 
#    y 0.000000 1.763990 0.000000 
#    z 0.000000 0.000000 1.760660 
# 
# From -- ./inp_files/37678.got.cif
#   From: 2010.03.12/outbox.cif.g09.slc.cpg/sg53_19_cif.got.tgz:37678.got - 2010.04.16 14:36:59.
