data_PCOD8220237
_publ_section_title
;
Structure prediction by ZEFSAII (Michael W. Deem and Ramdas Pophale) SiO2 
 PCOD8220237
Probable space group: P M N A
;
_chemical_formula_sum "Si O2"
_cell_formula_units_Z 56
_cell_length_a 9.185630
_cell_length_b 19.064538
_cell_length_c 15.860772
_cell_angle_alpha 90.000000
_cell_angle_beta 90.000000
_cell_angle_gamma 90.000000
_cell_volume 2777.535097
_symmetry_space_group_name_H-M "P M N A"
_symmetry_group_IT_number 53
_symmetry_cell_setting 'orthorhombic'
loop_
_space_group_symop_operation_xyz
x,y,z
1/2-x,-y,1/2+z
x,-y,-z
1/2-x,y,1/2-z
-x,-y,-z
1/2+x,y,1/2-z
-x,y,z
1/2+x,-y,1/2+z
loop_
_atom_site_type_symbol
_atom_site_label
_atom_site_fract_x
_atom_site_fract_y
_atom_site_fract_z
Si Si1 0.833168 0.291778 0.082865
Si Si2 0.830915 0.415851 0.337704
Si Si3 0.330870 0.851937 0.664303
Si Si4 0.665787 0.847787 0.166482
Si Si5 0.166347 0.710373 0.423413
Si Si6 0.667670 0.082635 0.006162
Si Si7 0.332753 0.571904 0.163862
O O1 0.736900 0.360448 0.098847
O O2 0.815219 0.232208 0.153801
O O3 0.000000 0.314500 0.073013
O O4 0.771535 0.260105 0.996005
O O5 0.750000 0.408084 0.250000
O O6 0.808963 0.494285 0.375502
O O7 0.000000 0.398856 0.323445
O O8 0.250000 0.874690 0.750000
O O9 0.500000 0.873299 0.670868
O O10 0.262154 0.891204 0.584706
O O11 0.750000 0.872330 0.250000
O O12 0.500000 0.870926 0.180403
O O13 0.680449 0.763625 0.155155
O O14 0.726675 0.885218 0.081978
O O15 0.221076 0.632290 0.399330
O O16 0.000000 0.708815 0.456380
O O17 0.500000 0.106039 0.020365
O O18 0.683203 0.000000 0.000000
O O19 0.250000 0.579395 0.250000
O O20 0.500000 0.585231 0.185530
#
# Coordination Sequence:
#
# PCOD8220237 Si02
#       7
#     8   8   8   8   8   8   8
#     4  11  23  37  56  84 114 151 199 250 301 352
#     4  10  20  35  54  77 109 148 191 243 297 356
#     4  11  24  41  64  92 123 161 205 252 302 358
#     4  10  21  37  61  90 121 160 199 244 297 352
#     4  10  20  36  57  81 112 152 196 245 300 355
#     4  10  22  42  66  94 128 162 200 245 297 357
#     4   9  19  34  53  78 108 146 193 241 296 356
#
# _framework density 20.161760999999998
#
# number of rings (size 3 to 8) (size 9 to 14) (size 15 to 20)
#    0.000    1.857    1.429    2.143    0.000    6.571 
#    0.000    4.286    0.000    0.000    0.000    0.000 
#    0.000    0.000    0.000    0.000    0.000    0.000 
#
# Total GULP energy -694392.760926 kJ/mol
# GULP energy per Si atom -12399.870731 kJ/mol
# Density = 2.011587 g / cm^3
# Si number density = 20.161761 Si / 1000 Ang^3
#
#
#
# Elastic Constant Matrix: (Units=GPa)
#
#
# Indices 1 2 3 4 5 6 
#
# 1 107.6920 39.8765 65.3140 0.0000 0.0000 0.0000
# 2 39.8765 87.4239 39.6648 0.0000 0.0000 0.0000
# 3 65.3140 39.6648 134.7525 0.0000 0.0000 0.0000
# 4 0.0000 0.0000 0.0000 21.7335 0.0000 0.0000
# 5 0.0000 0.0000 0.0000 0.0000 38.9580 0.0000
# 6 0.0000 0.0000 0.0000 0.0000 0.0000 25.5982
#
#
#
# Elastic Compliance Matrix: (Units=1/GPa)
#
#
# Indices 1 2 3 4 5 6 
#
# 1 0.014204 -0.003872 -0.005745 0.000000 0.000000 0.000000
# 2 -0.003872 0.014257 -0.002320 0.000000 0.000000 0.000000
# 3 -0.005745 -0.002320 0.010888 0.000000 0.000000 0.000000
# 4 0.000000 0.000000 0.000000 0.046012 0.000000 0.000000
# 5 0.000000 0.000000 0.000000 0.000000 0.025669 0.000000
# 6 0.000000 0.000000 0.000000 0.000000 0.000000 0.039065
#
#
# Mechanical properties :
#
#
# Convention : Reuss Voigt Hill
#
# Bulk Modulus (GPa) = 64.61724 68.84211 66.72968
# Shear Modulus (GPa) = 27.91317 29.59215 28.75266
#
# Velocity S-wave (km/s) = 3.72487 3.83526 3.78047
# Velocity P-wave (km/s) = 7.11467 7.33698 7.22668
#
# Compressibility (1/GPa) = 0.01547575
#
# Stress axis : x y z
#
# Youngs Moduli (GPa) = 70.40450 70.13953 91.84224
#
# Poissons Ratio (x) = 0.27160 0.52760
# Poissons Ratio (y) = 0.27263 0.21305
# Poissons Ratio (z) = 0.40445 0.16271
#
# Static dielectric constant tensor:
#      x y z
#    x 3.665900 0.000000 0.000000 
#    y 0.000000 3.776950 0.000000 
#    z 0.000000 0.000000 3.601540 
# 
# 
# High freq. dielectric constant tensor:
#      x y z
#    x 1.784900 0.000000 0.000000 
#    y 0.000000 1.793610 0.000000 
#    z 0.000000 0.000000 1.779940 
# 
# From -- ./inp_files/20504.got.cif
#   From: 2010.03.12/outbox.cif.g09.slc.cpg/sg53_11_cif.got.tgz:20504.got - 2010.04.16 14:36:59.
