data_PCOD8220759
_publ_section_title
;
Structure prediction by ZEFSAII (Michael W. Deem and Ramdas Pophale) SiO2 
 PCOD8220759
Probable space group: P M N A
;
_chemical_formula_sum "Si O2"
_cell_formula_units_Z 40
_cell_length_a 8.665748
_cell_length_b 25.558340
_cell_length_c 9.168161
_cell_angle_alpha 90.000000
_cell_angle_beta 90.000000
_cell_angle_gamma 90.000000
_cell_volume 2030.583861
_symmetry_space_group_name_H-M "P M N A"
_symmetry_group_IT_number 53
_symmetry_cell_setting 'orthorhombic'
loop_
_space_group_symop_operation_xyz
x,y,z
1/2-x,-y,1/2+z
x,-y,-z
1/2-x,y,1/2-z
-x,-y,-z
1/2+x,y,1/2-z
-x,y,z
1/2+x,-y,1/2+z
loop_
_atom_site_type_symbol
_atom_site_label
_atom_site_fract_x
_atom_site_fract_y
_atom_site_fract_z
Si Si1 0.317817 0.163968 0.090283
Si Si2 0.817033 0.650879 0.590573
Si Si3 0.319345 0.953593 0.904459
Si Si4 0.317074 0.744950 0.409439
Si Si5 0.818088 0.549414 0.410018
O O1 0.250000 0.176386 0.250000
O O2 0.500000 0.174740 0.095348
O O3 0.278330 0.104742 0.040087
O O4 0.238294 0.199037 0.967438
O O5 0.750000 0.641452 0.750000
O O6 0.742885 0.702252 0.522535
O O7 0.767046 0.601862 0.492318
O O8 0.000000 0.657706 0.598887
O O9 0.250000 0.963333 0.750000
O O10 0.500000 0.960471 0.893752
O O11 0.245669 0.000000 0.000000
O O12 0.250000 0.733682 0.250000
O O13 0.500000 0.743135 0.400453
O O14 0.752412 0.500000 0.500000
O O15 0.750000 0.549579 0.250000
O O16 0.000000 0.545462 0.396082
#
# Coordination Sequence:
#
# PCOD8220759 Si02
#       5
#     8   8   8   8   8
#     4  10  20  37  59  83 113 149 190 233 281 337
#     4  11  23  40  62  88 118 153 194 236 284 340
#     4   9  19  35  55  81 112 146 185 229 277 332
#     4  12  25  41  60  84 115 149 189 236 287 340
#     4  10  22  39  60  88 120 154 193 237 285 338
#
# _framework density 19.698768999999999
#
# number of rings (size 3 to 8) (size 9 to 14) (size 15 to 20)
#    0.000    1.600    0.000    4.800    0.000    5.600 
#    0.000    2.000    0.000    0.000    0.000    0.000 
#    0.000    0.000    0.000    0.000    0.000    0.000 
#
# Total GULP energy -496084.921689 kJ/mol
# GULP energy per Si atom -12402.123042 kJ/mol
# Density = 1.965393 g / cm^3
# Si number density = 19.698769 Si / 1000 Ang^3
#
#
#
# Elastic Constant Matrix: (Units=GPa)
#
#
# Indices 1 2 3 4 5 6 
#
# 1 74.3184 46.8175 56.8085 0.0000 0.0000 0.0000
# 2 46.8175 144.5372 78.0842 0.0000 0.0000 0.0000
# 3 56.8085 78.0842 139.1152 0.0000 0.0000 0.0000
# 4 0.0000 0.0000 0.0000 50.1398 0.0000 0.0000
# 5 0.0000 0.0000 0.0000 0.0000 38.5249 0.0000
# 6 0.0000 0.0000 0.0000 0.0000 0.0000 15.1973
#
#
#
# Elastic Compliance Matrix: (Units=1/GPa)
#
#
# Indices 1 2 3 4 5 6 
#
# 1 0.020447 -0.003032 -0.006648 0.000000 0.000000 0.000000
# 2 -0.003032 0.010379 -0.004588 0.000000 0.000000 0.000000
# 3 -0.006648 -0.004588 0.012478 0.000000 0.000000 0.000000
# 4 0.000000 0.000000 0.000000 0.019944 0.000000 0.000000
# 5 0.000000 0.000000 0.000000 0.000000 0.025957 0.000000
# 6 0.000000 0.000000 0.000000 0.000000 0.000000 0.065801
#
#
# Mechanical properties :
#
#
# Convention : Reuss Voigt Hill
#
# Bulk Modulus (GPa) = 67.70689 80.15457 73.93073
# Shear Modulus (GPa) = 26.53015 32.52313 29.52664
#
# Velocity S-wave (km/s) = 3.67385 4.06769 3.87577
# Velocity P-wave (km/s) = 7.24168 7.92716 7.59216
#
# Compressibility (1/GPa) = 0.01476955
#
# Stress axis : x y z
#
# Youngs Moduli (GPa) = 48.90654 96.34806 80.14016
#
# Poissons Ratio (x) = 0.29208 0.53278
# Poissons Ratio (y) = 0.14826 0.36766
# Poissons Ratio (z) = 0.32514 0.44202
#
# Static dielectric constant tensor:
#      x y z
#    x 3.644530 0.000000 0.000000 
#    y 0.000000 4.016240 0.000000 
#    z 0.000000 0.000000 3.694420 
# 
# 
# High freq. dielectric constant tensor:
#      x y z
#    x 1.772700 0.000000 0.000000 
#    y 0.000000 1.788400 0.000000 
#    z 0.000000 0.000000 1.773760 
# 
# From -- ./inp_files/6255.got.cif
#   From: 2010.03.12/outbox.cif.g09.slc.cpg/sg53_4_cif.got.tgz:6255.got - 2010.04.16 14:36:59.
