data_PCOD8220832
_publ_section_title
;
Structure prediction by ZEFSAII (Michael W. Deem and Ramdas Pophale) SiO2 
 PCOD8220832
Probable space group: P M N A
;
_chemical_formula_sum "Si O2"
_cell_formula_units_Z 64
_cell_length_a 8.785469
_cell_length_b 12.026019
_cell_length_c 31.042302
_cell_angle_alpha 90.000000
_cell_angle_beta 90.000000
_cell_angle_gamma 90.000000
_cell_volume 3279.750115
_symmetry_space_group_name_H-M "P M N A"
_symmetry_group_IT_number 53
_symmetry_cell_setting 'orthorhombic'
loop_
_space_group_symop_operation_xyz
x,y,z
1/2-x,-y,1/2+z
x,-y,-z
1/2-x,y,1/2-z
-x,-y,-z
1/2+x,y,1/2-z
-x,y,z
1/2+x,-y,1/2+z
loop_
_atom_site_type_symbol
_atom_site_label
_atom_site_fract_x
_atom_site_fract_y
_atom_site_fract_z
Si Si1 0.827452 0.866227 0.603107
Si Si2 0.323836 0.743265 0.056129
Si Si3 0.321360 0.245691 0.705611
Si Si4 0.319063 0.481310 0.795625
Si Si5 0.820216 0.485287 0.951003
Si Si6 0.825277 0.620798 0.623031
Si Si7 0.174262 0.896520 0.364162
Si Si8 0.676745 0.879672 0.514795
O O1 0.805524 0.753028 0.629981
O O2 0.706339 0.865970 0.565001
O O3 0.000000 0.874817 0.584651
O O4 0.794990 0.971663 0.633596
O O5 0.500000 0.713567 0.054181
O O6 0.235880 0.631214 0.068860
O O7 0.287131 0.839930 0.090212
O O8 0.269275 0.784402 0.009643
O O9 0.250000 0.202657 0.750000
O O10 0.500000 0.265964 0.710944
O O11 0.241426 0.359965 0.691440
O O12 0.289679 0.151299 0.670715
O O13 0.250000 0.520954 0.750000
O O14 0.500000 0.478379 0.791356
O O15 0.263154 0.563826 0.833358
O O16 0.763169 0.583422 0.919890
O O17 0.000000 0.488224 0.951145
O O18 0.757803 0.500000 0.000000
O O19 0.000000 0.587012 0.616026
O O20 0.000000 0.870974 0.350935
O O21 0.500000 0.863280 0.504416
O O22 0.735481 0.000000 0.500000
#
# Coordination Sequence:
#
# PCOD8220832 Si02
#       8
#     8   8   8   8   8   8   8   8
#     4  10  21  39  60  81 112 154 196 235 278 336
#     4  11  22  36  58  83 109 146 191 235 281 336
#     4  11  22  37  60  87 115 146 180 224 280 338
#     4  10  20  37  61  89 117 145 185 233 286 344
#     4  11  24  39  55  80 116 153 191 239 293 344
#     4  10  22  39  60  85 114 153 196 239 286 343
#     4  10  21  37  57  83 113 144 183 230 277 330
#     4  11  22  35  53  80 115 150 189 239 286 332
#
# _framework density 19.513683
#
# number of rings (size 3 to 8) (size 9 to 14) (size 15 to 20)
#    0.000    1.500    1.250    4.875    0.000    9.500 
#    0.000    0.625    0.000    1.500    0.000    0.000 
#    0.000    0.000    0.000    0.000    0.000    0.000 
#
# Total GULP energy -793899.854865 kJ/mol
# GULP energy per Si atom -12404.685232 kJ/mol
# Density = 1.946927 g / cm^3
# Si number density = 19.513683 Si / 1000 Ang^3
#
#
#
# Elastic Constant Matrix: (Units=GPa)
#
#
# Indices 1 2 3 4 5 6 
#
# 1 69.7672 32.0680 42.3842 0.0000 0.0000 0.0000
# 2 32.0680 119.7284 54.7881 0.0000 0.0000 0.0000
# 3 42.3842 54.7881 112.3805 0.0000 0.0000 0.0000
# 4 0.0000 0.0000 0.0000 32.2601 0.0000 0.0000
# 5 0.0000 0.0000 0.0000 0.0000 31.3423 0.0000
# 6 0.0000 0.0000 0.0000 0.0000 0.0000 24.9915
#
#
#
# Elastic Compliance Matrix: (Units=1/GPa)
#
#
# Indices 1 2 3 4 5 6 
#
# 1 0.019090 -0.002341 -0.006059 0.000000 0.000000 0.000000
# 2 -0.002341 0.011038 -0.004498 0.000000 0.000000 0.000000
# 3 -0.006059 -0.004498 0.013376 0.000000 0.000000 0.000000
# 4 0.000000 0.000000 0.000000 0.030998 0.000000 0.000000
# 5 0.000000 0.000000 0.000000 0.000000 0.031906 0.000000
# 6 0.000000 0.000000 0.000000 0.000000 0.000000 0.040014
#
#
# Mechanical properties :
#
#
# Convention : Reuss Voigt Hill
#
# Bulk Modulus (GPa) = 56.46924 62.26188 59.36556
# Shear Modulus (GPa) = 28.07106 29.22783 28.64944
#
# Velocity S-wave (km/s) = 3.79691 3.87436 3.83583
# Velocity P-wave (km/s) = 6.94429 7.21042 7.07861
#
# Compressibility (1/GPa) = 0.01770876
#
# Stress axis : x y z
#
# Youngs Moduli (GPa) = 52.38374 90.59953 74.75849
#
# Poissons Ratio (x) = 0.21205 0.45294
# Poissons Ratio (y) = 0.12261 0.33629
# Poissons Ratio (z) = 0.31738 0.40755
#
# Static dielectric constant tensor:
#      x y z
#    x 3.507320 0.000000 0.000000 
#    y 0.000000 3.646950 0.000000 
#    z 0.000000 0.000000 3.558260 
# 
# 
# High freq. dielectric constant tensor:
#      x y z
#    x 1.762030 0.000000 0.000000 
#    y 0.000000 1.764910 0.000000 
#    z 0.000000 0.000000 1.750020 
# 
# From -- ./inp_files/38183.got.cif
#   From: 2010.03.12/outbox.cif.g09.slc.cpg/sg53_20_cif.got.tgz:38183.got - 2010.04.16 14:36:59.
