data_PCOD8220425
_publ_section_title
;
Structure prediction by ZEFSAII (Michael W. Deem and Ramdas Pophale) SiO2 
 PCOD8220425
Probable space group: P M N A
;
_chemical_formula_sum "Si O2"
_cell_formula_units_Z 44
_cell_length_a 9.406470
_cell_length_b 9.265226
_cell_length_c 24.530113
_cell_angle_alpha 90.000000
_cell_angle_beta 90.000000
_cell_angle_gamma 90.000000
_cell_volume 2137.874666
_symmetry_space_group_name_H-M "P M N A"
_symmetry_group_IT_number 53
_symmetry_cell_setting 'orthorhombic'
loop_
_space_group_symop_operation_xyz
x,y,z
1/2-x,-y,1/2+z
x,-y,-z
1/2-x,y,1/2-z
-x,-y,-z
1/2+x,y,1/2-z
-x,y,z
1/2+x,-y,1/2+z
loop_
_atom_site_type_symbol
_atom_site_label
_atom_site_fract_x
_atom_site_fract_y
_atom_site_fract_z
Si Si1 0.750000 0.685285 0.750000
Si Si2 0.667075 0.150643 0.978108
Si Si3 0.668761 0.676668 0.919519
Si Si4 0.343556 0.898024 0.833906
Si Si5 0.336975 0.479709 0.655213
Si Si6 0.168291 0.205258 0.644788
O O1 0.854714 0.796248 0.719139
O O2 0.833497 0.588437 0.793465
O O3 0.500000 0.128725 0.977049
O O4 0.719215 0.191085 0.917986
O O5 0.705463 0.284987 0.018060
O O6 0.735473 0.000000 0.000000
O O7 0.500000 0.648135 0.910501
O O8 0.728184 0.810648 0.883393
O O9 0.755004 0.537686 0.898585
O O10 0.500000 0.934775 0.855528
O O11 0.277977 0.057628 0.824901
O O12 0.500000 0.449472 0.640059
O O13 0.257086 0.333325 0.672832
O O14 0.000000 0.237790 0.651268
#
# Coordination Sequence:
#
# PCOD8220425 Si02
#       6
#     4   8   8   8   8   8
#     4  10  22  40  60  78 102 148 192 236 286 344
#     4   9  15  29  58  91 117 146 189 240 284 325
#     4   9  17  33  59  86 114 149 191 232 277 331
#     4   9  17  33  58  84 103 132 184 241 285 328
#     4  11  24  40  56  81 120 157 189 230 284 346
#     4  10  20  35  59  89 117 144 185 238 288 337
#
# _framework density 20.581185999999999
#
# number of rings (size 3 to 8) (size 9 to 14) (size 15 to 20)
#    0.000    2.364    1.818    1.091    0.000    3.636 
#    0.000   10.909    0.000    1.091    0.000    0.000 
#    0.000    0.000    0.000    0.000    0.000    0.000 
#
# Total GULP energy -545146.358546 kJ/mol
# GULP energy per Si atom -12389.689967 kJ/mol
# Density = 2.053434 g / cm^3
# Si number density = 20.581186 Si / 1000 Ang^3
#
#
#
# Elastic Constant Matrix: (Units=GPa)
#
#
# Indices 1 2 3 4 5 6 
#
# 1 76.6039 42.2707 12.9465 0.0000 0.0000 0.0000
# 2 42.2707 139.9031 33.8367 0.0000 0.0000 0.0000
# 3 12.9465 33.8367 81.8901 0.0000 0.0000 0.0000
# 4 0.0000 0.0000 0.0000 29.0009 0.0000 0.0000
# 5 0.0000 0.0000 0.0000 0.0000 12.0249 0.0000
# 6 0.0000 0.0000 0.0000 0.0000 0.0000 17.5612
#
#
#
# Elastic Compliance Matrix: (Units=1/GPa)
#
#
# Indices 1 2 3 4 5 6 
#
# 1 0.015691 -0.004601 -0.000580 0.000000 0.000000 0.000000
# 2 -0.004601 0.009290 -0.003111 0.000000 0.000000 0.000000
# 3 -0.000580 -0.003111 0.013589 0.000000 0.000000 0.000000
# 4 0.000000 0.000000 0.000000 0.034482 0.000000 0.000000
# 5 0.000000 0.000000 0.000000 0.000000 0.083161 0.000000
# 6 0.000000 0.000000 0.000000 0.000000 0.000000 0.056944
#
#
# Mechanical properties :
#
#
# Convention : Reuss Voigt Hill
#
# Bulk Modulus (GPa) = 45.48255 52.94500 49.21378
# Shear Modulus (GPa) = 21.09095 25.67362 23.38228
#
# Velocity S-wave (km/s) = 3.20467 3.53573 3.37426
# Velocity P-wave (km/s) = 5.98668 6.51531 6.25658
#
# Compressibility (1/GPa) = 0.02198645
#
# Stress axis : x y z
#
# Youngs Moduli (GPa) = 63.73152 107.63815 73.59031
#
# Poissons Ratio (x) = 0.49521 0.04266
# Poissons Ratio (y) = 0.29321 0.22897
# Poissons Ratio (z) = 0.03694 0.33491
#
# Static dielectric constant tensor:
#      x y z
#    x 3.173940 0.000000 0.000000 
#    y 0.000000 4.005130 0.000000 
#    z 0.000000 0.000000 3.774120 
# 
# 
# High freq. dielectric constant tensor:
#      x y z
#    x 1.744470 0.000000 0.000000 
#    y 0.000000 1.821380 0.000000 
#    z 0.000000 0.000000 1.800550 
# 
# From -- ./inp_files/37585.got.cif
#   From: 2010.03.12/outbox.cif.g09.slc.cpg/sg53_19_cif.got.tgz:37585.got - 2010.04.16 14:36:59.
