data_PCOD8220854
_publ_section_title
;
Structure prediction by ZEFSAII (Michael W. Deem and Ramdas Pophale) SiO2 
 PCOD8220854
Probable space group: P M N A
;
_chemical_formula_sum "Si O2"
_cell_formula_units_Z 64
_cell_length_a 8.768353
_cell_length_b 11.940520
_cell_length_c 31.438710
_cell_angle_alpha 90.000000
_cell_angle_beta 90.000000
_cell_angle_gamma 90.000000
_cell_volume 3291.591889
_symmetry_space_group_name_H-M "P M N A"
_symmetry_group_IT_number 53
_symmetry_cell_setting 'orthorhombic'
loop_
_space_group_symop_operation_xyz
x,y,z
1/2-x,-y,1/2+z
x,-y,-z
1/2-x,y,1/2-z
-x,-y,-z
1/2+x,y,1/2-z
-x,y,z
1/2+x,-y,1/2+z
loop_
_atom_site_type_symbol
_atom_site_label
_atom_site_fract_x
_atom_site_fract_y
_atom_site_fract_z
Si Si1 0.175723 0.623625 0.484269
Si Si2 0.821644 0.013242 0.047320
Si Si3 0.824970 0.627744 0.104949
Si Si4 0.324396 0.877049 0.372578
Si Si5 0.179838 0.252922 0.293424
Si Si6 0.820346 0.000865 0.705999
Si Si7 0.323844 0.734605 0.558505
Si Si8 0.820308 0.591581 0.630445
O O1 0.213042 0.500000 0.500000
O O2 0.215336 0.632297 0.435222
O O3 0.283204 0.709979 0.509503
O O4 0.000000 0.655508 0.491374
O O5 0.786858 0.135467 0.066778
O O6 0.000000 0.992479 0.041576
O O7 0.758769 0.924058 0.082140
O O8 0.746018 0.000000 0.000000
O O9 0.806993 0.743534 0.130177
O O10 0.768341 0.525878 0.134524
O O11 0.000000 0.608312 0.091088
O O12 0.500000 0.914401 0.367868
O O13 0.230279 0.924847 0.333459
O O14 0.250000 0.300251 0.250000
O O15 0.239030 0.331176 0.331266
O O16 0.000000 0.257489 0.289881
O O17 0.236504 0.126330 0.301960
O O18 0.750000 0.047335 0.750000
O O19 0.000000 0.007129 0.710360
O O20 0.500000 0.707205 0.567560
O O21 0.217833 0.655371 0.586855
O O22 0.000000 0.569130 0.632081
#
# Coordination Sequence:
#
# PCOD8220854 Si02
#       8
#     8   8   8   8   8   8   8   8
#     4  11  22  36  54  77 109 150 188 231 282 329
#     4   9  18  34  55  81 113 148 186 231 283 335
#     4  11  23  38  58  82 109 148 195 236 273 328
#     4  10  21  38  59  84 116 152 192 239 288 340
#     4   9  20  37  59  86 115 145 178 222 277 334
#     4  10  20  37  62  90 117 147 186 232 284 344
#     4  11  21  33  56  84 108 141 186 232 275 329
#     4  11  22  37  55  80 114 146 179 225 279 330
#
# _framework density 19.443479
#
# number of rings (size 3 to 8) (size 9 to 14) (size 15 to 20)
#    0.000    1.750    1.250    3.375    0.000    5.000 
#    0.000    1.250    0.000    4.125    0.000    0.000 
#    0.000    0.000    0.000    0.000    0.000    0.000 
#
# Total GULP energy -793775.424362 kJ/mol
# GULP energy per Si atom -12402.741006 kJ/mol
# Density = 1.939922 g / cm^3
# Si number density = 19.443479 Si / 1000 Ang^3
#
#
#
# Elastic Constant Matrix: (Units=GPa)
#
#
# Indices 1 2 3 4 5 6 
#
# 1 47.3374 36.0406 23.1147 0.0000 0.0000 0.0000
# 2 36.0406 102.8141 51.2514 0.0000 0.0000 0.0000
# 3 23.1147 51.2514 118.4957 0.0000 0.0000 0.0000
# 4 0.0000 0.0000 0.0000 30.3552 0.0000 0.0000
# 5 0.0000 0.0000 0.0000 0.0000 31.1428 0.0000
# 6 0.0000 0.0000 0.0000 0.0000 0.0000 23.8783
#
#
#
# Elastic Compliance Matrix: (Units=1/GPa)
#
#
# Indices 1 2 3 4 5 6 
#
# 1 0.029054 -0.009382 -0.001609 0.000000 0.000000 0.000000
# 2 -0.009382 0.015430 -0.004843 0.000000 0.000000 0.000000
# 3 -0.001609 -0.004843 0.010848 0.000000 0.000000 0.000000
# 4 0.000000 0.000000 0.000000 0.032943 0.000000 0.000000
# 5 0.000000 0.000000 0.000000 0.000000 0.032110 0.000000
# 6 0.000000 0.000000 0.000000 0.000000 0.000000 0.041879
#
#
# Mechanical properties :
#
#
# Convention : Reuss Voigt Hill
#
# Bulk Modulus (GPa) = 42.26326 54.38450 48.32388
# Shear Modulus (GPa) = 24.77435 27.62462 26.19948
#
# Velocity S-wave (km/s) = 3.57343 3.77339 3.67477
# Velocity P-wave (km/s) = 6.22973 6.85682 6.55078
#
# Compressibility (1/GPa) = 0.02366122
#
# Stress axis : x y z
#
# Youngs Moduli (GPa) = 34.41844 64.81078 92.18365
#
# Poissons Ratio (x) = 0.60808 0.14837
# Poissons Ratio (y) = 0.32293 0.44648
# Poissons Ratio (z) = 0.05540 0.31390
#
# Static dielectric constant tensor:
#      x y z
#    x 3.380110 0.000000 0.000000 
#    y 0.000000 3.774100 0.000000 
#    z 0.000000 0.000000 3.581170 
# 
# 
# High freq. dielectric constant tensor:
#      x y z
#    x 1.747960 0.000000 0.000000 
#    y 0.000000 1.759970 0.000000 
#    z 0.000000 0.000000 1.752120 
# 
# From -- ./inp_files/38138.got.cif
#   From: 2010.03.12/outbox.cif.g09.slc.cpg/sg53_20_cif.got.tgz:38138.got - 2010.04.16 14:36:59.
