data_PCOD8220666
_publ_section_title
;
Structure prediction by ZEFSAII (Michael W. Deem and Ramdas Pophale) SiO2 
 PCOD8220666
Probable space group: P M N A
;
_chemical_formula_sum "Si O2"
_cell_formula_units_Z 40
_cell_length_a 9.422545
_cell_length_b 24.146374
_cell_length_c 9.299859
_cell_angle_alpha 90.000000
_cell_angle_beta 90.000000
_cell_angle_gamma 90.000000
_cell_volume 2115.906669
_symmetry_space_group_name_H-M "P M N A"
_symmetry_group_IT_number 53
_symmetry_cell_setting 'orthorhombic'
loop_
_space_group_symop_operation_xyz
x,y,z
1/2-x,-y,1/2+z
x,-y,-z
1/2-x,y,1/2-z
-x,-y,-z
1/2+x,y,1/2-z
-x,y,z
1/2+x,-y,1/2+z
loop_
_atom_site_type_symbol
_atom_site_label
_atom_site_fract_x
_atom_site_fract_y
_atom_site_fract_z
Si Si1 0.832004 0.658300 0.104098
Si Si2 0.834265 0.760999 0.897400
Si Si3 0.000000 0.944337 0.087800
Si Si4 0.000000 0.942017 0.420477
Si Si5 0.667290 0.550626 0.106123
Si Si6 0.752517 0.864372 0.082455
O O1 0.750000 0.676314 0.250000
O O2 0.750586 0.604061 0.043011
O O3 0.000000 0.647182 0.134662
O O4 0.814204 0.704785 0.984735
O O5 0.750000 0.755055 0.750000
O O6 0.000000 0.773392 0.868770
O O7 0.762724 0.809284 0.989757
O O8 0.000000 0.959198 0.254807
O O9 0.872842 0.906486 0.041725
O O10 0.000000 0.000000 0.000000
O O11 0.876261 0.901623 0.466189
O O12 0.000000 0.000000 0.500000
O O13 0.750000 0.533490 0.250000
O O14 0.500000 0.563738 0.133569
O O15 0.684702 0.500000 0.000000
O O16 0.750000 0.846889 0.250000
#
# Coordination Sequence:
#
# PCOD8220666 Si02
#       6
#     8   8   4   4   8   8
#     4  10  21  39  62  88 118 156 200 243 292 350
#     4  11  25  41  59  87 119 152 193 244 296 346
#     4  10  20  36  60  82 116 154 185 236 283 340
#     4  10  22  36  58  90 114 146 193 234 287 346
#     4  10  21  37  59  89 122 159 203 245 292 347
#     4  10  21  40  60  84 115 152 195 234 286 349
#
# _framework density 18.904427999999999
#
# number of rings (size 3 to 8) (size 9 to 14) (size 15 to 20)
#    0.000    1.800    1.000    3.600    1.400    5.600 
#    0.000    4.000    0.000    0.000    0.000    0.000 
#    0.000    0.000    0.000    0.000    0.000    0.000 
#
# Total GULP energy -495655.384683 kJ/mol
# GULP energy per Si atom -12391.384617 kJ/mol
# Density = 1.886140 g / cm^3
# Si number density = 18.904428 Si / 1000 Ang^3
#
#
#
# Elastic Constant Matrix: (Units=GPa)
#
#
# Indices 1 2 3 4 5 6 
#
# 1 177.6819 80.6632 65.3368 0.0000 0.0000 0.0000
# 2 80.6632 155.0560 90.1365 0.0000 0.0000 0.0000
# 3 65.3368 90.1365 97.4067 0.0000 0.0000 0.0000
# 4 0.0000 0.0000 0.0000 47.4754 0.0000 0.0000
# 5 0.0000 0.0000 0.0000 0.0000 32.3590 0.0000
# 6 0.0000 0.0000 0.0000 0.0000 0.0000 37.7789
#
#
#
# Elastic Compliance Matrix: (Units=1/GPa)
#
#
# Indices 1 2 3 4 5 6 
#
# 1 0.007803 -0.002200 -0.003198 0.000000 0.000000 0.000000
# 2 -0.002200 0.014578 -0.012014 0.000000 0.000000 0.000000
# 3 -0.003198 -0.012014 0.023528 0.000000 0.000000 0.000000
# 4 0.000000 0.000000 0.000000 0.021064 0.000000 0.000000
# 5 0.000000 0.000000 0.000000 0.000000 0.030903 0.000000
# 6 0.000000 0.000000 0.000000 0.000000 0.000000 0.026470
#
#
# Mechanical properties :
#
#
# Convention : Reuss Voigt Hill
#
# Bulk Modulus (GPa) = 90.21114 100.26862 95.23988
# Shear Modulus (GPa) = 30.70042 36.45653 33.57847
#
# Velocity S-wave (km/s) = 4.03424 4.39619 4.21910
# Velocity P-wave (km/s) = 8.33806 8.88389 8.61530
#
# Compressibility (1/GPa) = 0.01108511
#
# Stress axis : x y z
#
# Youngs Moduli (GPa) = 128.15955 68.59794 42.50194
#
# Poissons Ratio (x) = 0.15093 0.13591
# Poissons Ratio (y) = 0.28198 0.51061
# Poissons Ratio (z) = 0.40983 0.82412
#
# Static dielectric constant tensor:
#      x y z
#    x 3.837130 0.000000 0.000000 
#    y 0.000000 3.670860 0.000000 
#    z 0.000000 0.000000 3.129770 
# 
# 
# High freq. dielectric constant tensor:
#      x y z
#    x 1.759180 0.000000 0.000000 
#    y 0.000000 1.749520 0.000000 
#    z 0.000000 0.000000 1.725480 
# 
# From -- ./inp_files/6327.got.cif
#   From: 2010.03.12/outbox.cif.g09.slc.cpg/sg53_4_cif.got.tgz:6327.got - 2010.04.16 14:36:59.
