data_PCOD8220121
_publ_section_title
;
Structure prediction by ZEFSAII (Michael W. Deem and Ramdas Pophale) SiO2 
 PCOD8220121
Probable space group: P M N A
;
_chemical_formula_sum "Si O2"
_cell_formula_units_Z 64
_cell_length_a 18.273274
_cell_length_b 20.246643
_cell_length_c 8.658611
_cell_angle_alpha 90.000000
_cell_angle_beta 90.000000
_cell_angle_gamma 90.000000
_cell_volume 3203.447570
_symmetry_space_group_name_H-M "P M N A"
_symmetry_group_IT_number 53
_symmetry_cell_setting 'orthorhombic'
loop_
_space_group_symop_operation_xyz
x,y,z
1/2-x,-y,1/2+z
x,-y,-z
1/2-x,y,1/2-z
-x,-y,-z
1/2+x,y,1/2-z
-x,y,z
1/2+x,-y,1/2+z
loop_
_atom_site_type_symbol
_atom_site_label
_atom_site_fract_x
_atom_site_fract_y
_atom_site_fract_z
Si Si1 0.657659 0.819720 0.414775
Si Si2 0.581958 0.065188 0.401384
Si Si3 0.087374 0.566311 0.079256
Si Si4 0.086940 0.566841 0.426277
Si Si5 0.175002 0.182210 0.566411
Si Si6 0.086259 0.699084 0.929744
Si Si7 0.086853 0.297981 0.418427
Si Si8 0.317880 0.054375 0.132297
O O1 0.636399 0.881373 0.522825
O O2 0.740572 0.796814 0.441047
O O3 0.648710 0.841094 0.236368
O O4 0.608064 0.757198 0.454518
O O5 0.500000 0.095285 0.388258
O O6 0.609618 0.042276 0.233178
O O7 0.580781 0.000000 0.500000
O O8 0.117441 0.571799 0.252965
O O9 0.000000 0.565350 0.077427
O O10 0.118218 0.500000 0.000000
O O11 0.118731 0.629431 0.987560
O O12 0.119477 0.500000 0.500000
O O13 0.112624 0.629929 0.524949
O O14 0.000000 0.563357 0.425168
O O15 0.125155 0.243708 0.522896
O O16 0.165469 0.123483 0.447156
O O17 0.114381 0.712534 0.756668
O O18 0.000000 0.693632 0.929305
O O19 0.000000 0.289421 0.434897
O O20 0.250000 0.055167 0.250000
O O21 0.304863 0.000000 0.000000
#
# Coordination Sequence:
#
# PCOD8220121 Si02
#       8
#     8   8   8   8   8   8   8   8
#     4  11  23  41  60  86 119 158 201 244 298 366
#     4  11  24  43  66  94 127 160 197 247 306 362
#     4   9  16  27  46  74 108 148 195 243 296 356
#     4   9  16  28  49  78 115 155 199 251 303 359
#     4  11  25  39  62  89 118 156 204 250 300 364
#     4  10  20  34  55  81 114 155 195 242 301 361
#     4  10  21  36  56  87 122 157 201 254 309 360
#     4  12  25  42  69  93 123 161 206 255 301 370
#
# _framework density 19.978477000000002
#
# number of rings (size 3 to 8) (size 9 to 14) (size 15 to 20)
#    0.000    1.625    1.250    3.750    1.750    6.750 
#    0.000    0.000    0.000    0.750    0.000    0.000 
#    0.000    0.000    0.000    0.000    0.000    0.000 
#
# Total GULP energy -793619.857984 kJ/mol
# GULP energy per Si atom -12400.310281 kJ/mol
# Density = 1.993300 g / cm^3
# Si number density = 19.978477 Si / 1000 Ang^3
#
#
#
# Elastic Constant Matrix: (Units=GPa)
#
#
# Indices 1 2 3 4 5 6 
#
# 1 46.2820 33.0506 45.2326 0.0000 0.0000 0.0000
# 2 33.0506 116.6809 42.0715 0.0000 0.0000 0.0000
# 3 45.2326 42.0715 133.6112 0.0000 0.0000 0.0000
# 4 0.0000 0.0000 0.0000 42.7833 0.0000 0.0000
# 5 0.0000 0.0000 0.0000 0.0000 17.7819 0.0000
# 6 0.0000 0.0000 0.0000 0.0000 0.0000 14.3069
#
#
#
# Elastic Compliance Matrix: (Units=1/GPa)
#
#
# Indices 1 2 3 4 5 6 
#
# 1 0.036299 -0.006600 -0.010210 0.000000 0.000000 0.000000
# 2 -0.006600 0.010868 -0.001188 0.000000 0.000000 0.000000
# 3 -0.010210 -0.001188 0.011315 0.000000 0.000000 0.000000
# 4 0.000000 0.000000 0.000000 0.023374 0.000000 0.000000
# 5 0.000000 0.000000 0.000000 0.000000 0.056237 0.000000
# 6 0.000000 0.000000 0.000000 0.000000 0.000000 0.069897
#
#
# Mechanical properties :
#
#
# Convention : Reuss Voigt Hill
#
# Bulk Modulus (GPa) = 44.47335 59.69818 52.08577
# Shear Modulus (GPa) = 19.88220 26.72235 23.30227
#
# Velocity S-wave (km/s) = 3.15807 3.66123 3.41892
# Velocity P-wave (km/s) = 5.96715 6.91512 6.45855
#
# Compressibility (1/GPa) = 0.02248538
#
# Stress axis : x y z
#
# Youngs Moduli (GPa) = 27.54902 92.01122 88.37851
#
# Poissons Ratio (x) = 0.60731 0.90237
# Poissons Ratio (y) = 0.18183 0.10497
# Poissons Ratio (z) = 0.28128 0.10928
#
# Static dielectric constant tensor:
#      x y z
#    x 3.406580 0.000000 0.000000 
#    y 0.000000 3.681160 0.000000 
#    z 0.000000 0.000000 3.906720 
# 
# 
# High freq. dielectric constant tensor:
#      x y z
#    x 1.742920 0.000000 0.000000 
#    y 0.000000 1.790920 0.000000 
#    z 0.000000 0.000000 1.799650 
# 
# From -- ./inp_files/11205.got.cif
#   From: 2010.03.12/outbox.cif.g09.slc.cpg/sg53_6_cif.got.tgz:11205.got - 2010.04.16 14:36:59.
