data_PCOD8220926
_publ_section_title
;
Structure prediction by ZEFSAII (Michael W. Deem and Ramdas Pophale) SiO2 
 PCOD8220926
Probable space group: P M N A
;
_chemical_formula_sum "Si O2"
_cell_formula_units_Z 56
_cell_length_a 18.600831
_cell_length_b 16.068101
_cell_length_c 9.675234
_cell_angle_alpha 90.000000
_cell_angle_beta 90.000000
_cell_angle_gamma 90.000000
_cell_volume 2891.734240
_symmetry_space_group_name_H-M "P M N A"
_symmetry_group_IT_number 53
_symmetry_cell_setting 'orthorhombic'
loop_
_space_group_symop_operation_xyz
x,y,z
1/2-x,-y,1/2+z
x,-y,-z
1/2-x,y,1/2-z
-x,-y,-z
1/2+x,y,1/2-z
-x,y,z
1/2+x,-y,1/2+z
loop_
_atom_site_type_symbol
_atom_site_label
_atom_site_fract_x
_atom_site_fract_y
_atom_site_fract_z
Si Si1 0.081772 0.141325 0.716631
Si Si2 0.667628 0.575818 0.094061
Si Si3 0.662295 0.577352 0.409079
Si Si4 0.579464 0.727096 0.992414
Si Si5 0.081863 0.834927 0.755865
Si Si6 0.915869 0.744832 0.030314
Si Si7 0.677593 0.986863 0.836854
O O1 0.091365 0.185340 0.569724
O O2 0.105326 0.208653 0.829774
O O3 0.000000 0.111447 0.741241
O O4 0.132317 0.062181 0.726123
O O5 0.638768 0.563367 0.249959
O O6 0.752506 0.584479 0.085091
O O7 0.638359 0.660830 0.032542
O O8 0.639541 0.500000 0.000000
O O9 0.634648 0.500000 0.500000
O O10 0.628238 0.659568 0.475151
O O11 0.500000 0.691565 0.027857
O O12 0.586508 0.749619 0.831735
O O13 0.133816 0.903088 0.690675
O O14 0.000000 0.869546 0.756696
O O15 0.107033 0.807562 0.908145
O O16 0.000000 0.722847 0.022307
O O17 0.750000 0.981872 0.750000
O O18 0.692506 0.000000 0.000000
#
# Coordination Sequence:
#
# PCOD8220926 Si02
#       7
#     8   8   8   8   8   8   8
#     4  10  21  40  67  88 115 159 201 245 299 357
#     4  10  22  38  58  86 118 157 201 242 292 354
#     4  10  22  39  58  83 121 160 194 239 299 360
#     4  10  20  38  62  88 114 150 201 248 293 345
#     4  10  23  42  64  89 120 158 202 249 298 354
#     4  10  22  40  62  91 120 153 198 246 301 359
#     4  12  27  42  61  91 125 158 200 248 299 357
#
# _framework density 19.365542999999999
#
# number of rings (size 3 to 8) (size 9 to 14) (size 15 to 20)
#    0.000    1.714    2.857    0.429    4.000    3.429 
#    0.000    2.143    0.000    0.000    0.000    0.000 
#    0.000    0.000    0.000    0.000    0.000    0.000 
#
# Total GULP energy -694510.649975 kJ/mol
# GULP energy per Si atom -12401.975892 kJ/mol
# Density = 1.932147 g / cm^3
# Si number density = 19.365543 Si / 1000 Ang^3
#
#
#
# Elastic Constant Matrix: (Units=GPa)
#
#
# Indices 1 2 3 4 5 6 
#
# 1 63.3963 49.9781 37.0641 0.0000 0.0000 0.0000
# 2 49.9781 104.6719 34.9909 0.0000 0.0000 0.0000
# 3 37.0641 34.9909 88.3469 0.0000 0.0000 0.0000
# 4 0.0000 0.0000 0.0000 28.3848 0.0000 0.0000
# 5 0.0000 0.0000 0.0000 0.0000 28.6041 0.0000
# 6 0.0000 0.0000 0.0000 0.0000 0.0000 40.6291
#
#
#
# Elastic Compliance Matrix: (Units=1/GPa)
#
#
# Indices 1 2 3 4 5 6 
#
# 1 0.029303 -0.011390 -0.007782 0.000000 0.000000 0.000000
# 2 -0.011390 0.015439 -0.001336 0.000000 0.000000 0.000000
# 3 -0.007782 -0.001336 0.015113 0.000000 0.000000 0.000000
# 4 0.000000 0.000000 0.000000 0.035230 0.000000 0.000000
# 5 0.000000 0.000000 0.000000 0.000000 0.034960 0.000000
# 6 0.000000 0.000000 0.000000 0.000000 0.000000 0.024613
#
#
# Mechanical properties :
#
#
# Convention : Reuss Voigt Hill
#
# Bulk Modulus (GPa) = 53.08472 55.60904 54.34688
# Shear Modulus (GPa) = 24.75819 28.48241 26.62030
#
# Velocity S-wave (km/s) = 3.57944 3.83923 3.71161
# Velocity P-wave (km/s) = 6.67493 6.95922 6.81856
#
# Compressibility (1/GPa) = 0.01883781
#
# Stress axis : x y z
#
# Youngs Moduli (GPa) = 34.12666 64.77244 66.16734
#
# Poissons Ratio (x) = 0.73774 0.51493
# Poissons Ratio (y) = 0.38869 0.08842
# Poissons Ratio (z) = 0.26558 0.08656
#
# Static dielectric constant tensor:
#      x y z
#    x 3.427060 0.000000 0.000000 
#    y 0.000000 3.380920 0.000000 
#    z 0.000000 0.000000 3.805480 
# 
# 
# High freq. dielectric constant tensor:
#      x y z
#    x 1.745630 0.000000 0.000000 
#    y 0.000000 1.752490 0.000000 
#    z 0.000000 0.000000 1.770870 
# 
# From -- ./inp_files/11060.got.cif
#   From: 2010.03.12/outbox.cif.g09.slc.cpg/sg53_6_cif.got.tgz:11060.got - 2010.04.16 14:36:59.
