data_PCOD8220794
_publ_section_title
;
Structure prediction by ZEFSAII (Michael W. Deem and Ramdas Pophale) SiO2 
 PCOD8220794
Probable space group: P M N A
;
_chemical_formula_sum "Si O2"
_cell_formula_units_Z 40
_cell_length_a 8.817604
_cell_length_b 12.474027
_cell_length_c 18.091595
_cell_angle_alpha 90.000000
_cell_angle_beta 90.000000
_cell_angle_gamma 90.000000
_cell_volume 1989.913175
_symmetry_space_group_name_H-M "P M N A"
_symmetry_group_IT_number 53
_symmetry_cell_setting 'orthorhombic'
loop_
_space_group_symop_operation_xyz
x,y,z
1/2-x,-y,1/2+z
x,-y,-z
1/2-x,y,1/2-z
-x,-y,-z
1/2+x,y,1/2-z
-x,y,z
1/2+x,-y,1/2+z
loop_
_atom_site_type_symbol
_atom_site_label
_atom_site_fract_x
_atom_site_fract_y
_atom_site_fract_z
Si Si1 0.323595 0.181407 0.436039
Si Si2 0.320939 0.392123 0.672131
Si Si3 0.177116 0.012189 0.826184
Si Si4 0.320990 0.204635 0.909215
Si Si5 0.822685 0.363566 0.173512
O O1 0.500000 0.190327 0.458007
O O2 0.224730 0.168524 0.509053
O O3 0.267115 0.286903 0.392392
O O4 0.292170 0.077321 0.387323
O O5 0.250000 0.356660 0.750000
O O6 0.500000 0.375216 0.675495
O O7 0.249755 0.321168 0.607139
O O8 0.277158 0.514849 0.653803
O O9 0.250000 0.971572 0.750000
O O10 0.256163 0.122102 0.849639
O O11 0.000000 0.033325 0.814948
O O12 0.500000 0.209797 0.901837
O O13 0.750000 0.325500 0.250000
O O14 0.000000 0.350182 0.184733
#
# Coordination Sequence:
#
# PCOD8220794 Si02
#       5
#     8   8   8   8   8
#     4  10  22  40  60  85 117 151 186 228 284 341
#     4  10  20  37  60  85 115 150 190 234 281 334
#     4  11  23  40  63  87 114 148 187 232 281 338
#     4  12  25  39  57  83 116 152 192 237 283 332
#     4   9  19  36  60  87 115 149 188 232 280 335
#
# _framework density 20.101378
#
# number of rings (size 3 to 8) (size 9 to 14) (size 15 to 20)
#    0.000    1.600    0.000    4.800    0.000    6.400 
#    0.000    4.000    0.000    0.000    0.000    0.000 
#    0.000    0.000    0.000    0.000    0.000    0.000 
#
# Total GULP energy -496258.071793 kJ/mol
# GULP energy per Si atom -12406.451795 kJ/mol
# Density = 2.005563 g / cm^3
# Si number density = 20.101378 Si / 1000 Ang^3
#
#
#
# Elastic Constant Matrix: (Units=GPa)
#
#
# Indices 1 2 3 4 5 6 
#
# 1 100.6129 38.0524 39.7646 0.0000 0.0000 0.0000
# 2 38.0524 87.1921 25.9126 0.0000 0.0000 0.0000
# 3 39.7646 25.9126 85.4933 0.0000 0.0000 0.0000
# 4 0.0000 0.0000 0.0000 31.2837 0.0000 0.0000
# 5 0.0000 0.0000 0.0000 0.0000 39.5652 0.0000
# 6 0.0000 0.0000 0.0000 0.0000 0.0000 165.9559
#
#
#
# Elastic Compliance Matrix: (Units=1/GPa)
#
#
# Indices 1 2 3 4 5 6 
#
# 1 0.013587 -0.004453 -0.004970 0.000000 0.000000 0.000000
# 2 -0.004453 0.014063 -0.002192 0.000000 0.000000 0.000000
# 3 -0.004970 -0.002192 0.014673 0.000000 0.000000 0.000000
# 4 0.000000 0.000000 0.000000 0.031965 0.000000 0.000000
# 5 0.000000 0.000000 0.000000 0.000000 0.025275 0.000000
# 6 0.000000 0.000000 0.000000 0.000000 0.000000 0.006026
#
#
# Mechanical properties :
#
#
# Convention : Reuss Voigt Hill
#
# Bulk Modulus (GPa) = 52.37016 53.41750 52.89383
# Shear Modulus (GPa) = 36.98674 58.66556 47.82615
#
# Velocity S-wave (km/s) = 4.29419 5.40816 4.88304
# Velocity P-wave (km/s) = 7.12013 8.10119 7.62646
#
# Compressibility (1/GPa) = 0.01909484
#
# Stress axis : x y z
#
# Youngs Moduli (GPa) = 73.59712 71.10610 68.15331
#
# Poissons Ratio (x) = 0.31662 0.33874
# Poissons Ratio (y) = 0.32771 0.14936
# Poissons Ratio (z) = 0.36579 0.15583
#
# Static dielectric constant tensor:
#      x y z
#    x 3.649240 0.000000 0.000000 
#    y 0.000000 3.860800 0.000000 
#    z 0.000000 0.000000 3.620770 
# 
# 
# High freq. dielectric constant tensor:
#      x y z
#    x 1.785990 0.000000 0.000000 
#    y 0.000000 1.798540 0.000000 
#    z 0.000000 0.000000 1.786290 
# 
# From -- ./inp_files/25817.got.cif
#   From: 2010.03.12/outbox.cif.g09.slc.cpg/sg53_13_cif.got.tgz:25817.got - 2010.04.16 14:36:59.
