data_PCOD8220479
_publ_section_title
;
Structure prediction by ZEFSAII (Michael W. Deem and Ramdas Pophale) SiO2 
 PCOD8220479
Probable space group: P M N A
;
_chemical_formula_sum "Si O2"
_cell_formula_units_Z 64
_cell_length_a 8.903763
_cell_length_b 19.514660
_cell_length_c 20.131238
_cell_angle_alpha 90.000000
_cell_angle_beta 90.000000
_cell_angle_gamma 90.000000
_cell_volume 3497.881269
_symmetry_space_group_name_H-M "P M N A"
_symmetry_group_IT_number 53
_symmetry_cell_setting 'orthorhombic'
loop_
_space_group_symop_operation_xyz
x,y,z
1/2-x,-y,1/2+z
x,-y,-z
1/2-x,y,1/2-z
-x,-y,-z
1/2+x,y,1/2-z
-x,y,z
1/2+x,-y,1/2+z
loop_
_atom_site_type_symbol
_atom_site_label
_atom_site_fract_x
_atom_site_fract_y
_atom_site_fract_z
Si Si1 0.677387 0.422664 0.181498
Si Si2 0.324768 0.922788 0.817255
Si Si3 0.822631 0.079434 0.681420
Si Si4 0.325650 0.580582 0.183018
Si Si5 0.824691 0.171897 0.929300
Si Si6 0.676409 0.675873 0.577071
Si Si7 0.829427 0.329373 0.923975
Si Si8 0.178282 0.181150 0.430832
O O1 0.750000 0.395938 0.250000
O O2 0.500000 0.409517 0.183341
O O3 0.718998 0.501939 0.170455
O O4 0.751847 0.383363 0.120771
O O5 0.250000 0.895381 0.750000
O O6 0.500000 0.916988 0.805819
O O7 0.272327 0.876187 0.878197
O O8 0.277094 0.000835 0.832401
O O9 0.750000 0.105102 0.750000
O O10 0.756359 0.123718 0.622555
O O11 0.000000 0.089975 0.685296
O O12 0.250000 0.609033 0.250000
O O13 0.500000 0.589200 0.194027
O O14 0.278771 0.624332 0.119634
O O15 0.799541 0.250134 0.907171
O O16 0.000000 0.154221 0.933913
O O17 0.750762 0.158095 0.000276
O O18 0.500000 0.683396 0.591283
O O19 0.706899 0.656168 0.500800
O O20 0.756347 0.747069 0.594861
O O21 0.000000 0.349535 0.907395
O O22 0.000000 0.186947 0.438847
#
# Coordination Sequence:
#
# PCOD8220479 Si02
#       8
#     8   8   8   8   8   8   8   8
#     4  10  21  37  56  80 108 140 177 219 264 314
#     4   9  20  36  55  79 107 139 177 218 265 317
#     4  10  20  36  56  79 107 140 177 220 266 316
#     4  10  21  36  56  80 107 138 176 219 264 314
#     4  10  21  37  55  79 108 141 180 220 264 318
#     4  10  21  37  56  80 109 142 178 219 264 316
#     4   9  20  37  55  76 106 140 176 216 261 313
#     4  10  20  36  56  79 108 142 178 221 268 316
#
# _framework density 18.296789
#
# number of rings (size 3 to 8) (size 9 to 14) (size 15 to 20)
#    0.000    2.250    0.000    3.000    0.000    8.000 
#    0.000    6.250    0.000    0.000    0.000    0.000 
#    0.000    0.000    0.000    0.000    0.000    0.000 
#
# Total GULP energy -793833.087829 kJ/mol
# GULP energy per Si atom -12403.641997 kJ/mol
# Density = 1.825515 g / cm^3
# Si number density = 18.296789 Si / 1000 Ang^3
#
#
#
# Elastic Constant Matrix: (Units=GPa)
#
#
# Indices 1 2 3 4 5 6 
#
# 1 92.7347 50.4890 60.8181 0.0000 0.0000 0.0000
# 2 50.4890 84.9269 75.7615 0.0000 0.0000 0.0000
# 3 60.8181 75.7615 121.4701 0.0000 0.0000 0.0000
# 4 0.0000 0.0000 0.0000 48.7831 0.0000 0.0000
# 5 0.0000 0.0000 0.0000 0.0000 39.8574 0.0000
# 6 0.0000 0.0000 0.0000 0.0000 0.0000 20.9362
#
#
#
# Elastic Compliance Matrix: (Units=1/GPa)
#
#
# Indices 1 2 3 4 5 6 
#
# 1 0.017212 -0.005737 -0.005040 0.000000 0.000000 0.000000
# 2 -0.005737 0.028455 -0.014876 0.000000 0.000000 0.000000
# 3 -0.005040 -0.014876 0.020034 0.000000 0.000000 0.000000
# 4 0.000000 0.000000 0.000000 0.020499 0.000000 0.000000
# 5 0.000000 0.000000 0.000000 0.000000 0.025089 0.000000
# 6 0.000000 0.000000 0.000000 0.000000 0.000000 0.047764
#
#
# Mechanical properties :
#
#
# Convention : Reuss Voigt Hill
#
# Bulk Modulus (GPa) = 69.45777 74.80765 72.13271
# Shear Modulus (GPa) = 23.23888 29.38621 26.31254
#
# Velocity S-wave (km/s) = 3.56772 4.01195 3.79634
# Velocity P-wave (km/s) = 7.41725 7.90161 7.66326
#
# Compressibility (1/GPa) = 0.01439724
#
# Stress axis : x y z
#
# Youngs Moduli (GPa) = 58.09917 35.14268 49.91560
#
# Poissons Ratio (x) = 0.20160 0.25156
# Poissons Ratio (y) = 0.33329 0.74252
# Poissons Ratio (z) = 0.29281 0.52277
#
# Static dielectric constant tensor:
#      x y z
#    x 3.463050 0.000000 0.000000 
#    y 0.000000 3.414690 0.000000 
#    z 0.000000 0.000000 3.433630 
# 
# 
# High freq. dielectric constant tensor:
#      x y z
#    x 1.723460 0.000000 0.000000 
#    y 0.000000 1.707350 0.000000 
#    z 0.000000 0.000000 1.716020 
# 
# From -- ./inp_files/26873.got.cif
#   From: 2010.03.12/outbox.cif.g09.slc.cpg/sg53_14_cif.got.tgz:26873.got - 2010.04.16 14:36:59.
