data_PCOD8220361
_publ_section_title
;
Structure prediction by ZEFSAII (Michael W. Deem and Ramdas Pophale) SiO2 
 PCOD8220361
Probable space group: P M N A
;
_chemical_formula_sum "Si O2"
_cell_formula_units_Z 48
_cell_length_a 8.734700
_cell_length_b 9.153380
_cell_length_c 30.873856
_cell_angle_alpha 90.000000
_cell_angle_beta 90.000000
_cell_angle_gamma 90.000000
_cell_volume 2468.427408
_symmetry_space_group_name_H-M "P M N A"
_symmetry_group_IT_number 53
_symmetry_cell_setting 'orthorhombic'
loop_
_space_group_symop_operation_xyz
x,y,z
1/2-x,-y,1/2+z
x,-y,-z
1/2-x,y,1/2-z
-x,-y,-z
1/2+x,y,1/2-z
-x,y,z
1/2+x,-y,1/2+z
loop_
_atom_site_type_symbol
_atom_site_label
_atom_site_fract_x
_atom_site_fract_y
_atom_site_fract_z
Si Si1 0.317910 0.414351 0.458566
Si Si2 0.681029 0.408706 0.623382
Si Si3 0.679209 0.907724 0.122262
Si Si4 0.679976 0.918139 0.544112
Si Si5 0.318234 0.407492 0.295226
Si Si6 0.180897 0.905878 0.704873
O O1 0.250965 0.500000 0.500000
O O2 0.500000 0.418903 0.459372
O O3 0.253365 0.492120 0.415540
O O4 0.261534 0.247720 0.460041
O O5 0.500000 0.405231 0.620834
O O6 0.739392 0.246167 0.618269
O O7 0.736380 0.478136 0.668530
O O8 0.500000 0.882653 0.119572
O O9 0.730435 0.010758 0.083485
O O10 0.726470 0.980245 0.167756
O O11 0.500000 0.927575 0.553843
O O12 0.722685 0.000000 0.500000
O O13 0.250000 0.464218 0.250000
O O14 0.500000 0.396627 0.291991
O O15 0.253408 0.249333 0.307486
O O16 0.250000 0.964845 0.750000
O O17 0.000000 0.886511 0.709674
#
# Coordination Sequence:
#
# PCOD8220361 Si02
#       6
#     8   8   8   8   8   8
#     4   9  17  32  56  84 109 134 174 224 267 313
#     4  10  21  36  55  79 108 144 184 224 268 323
#     4  11  24  38  54  80 114 148 183 228 279 329
#     4  10  20  36  61  87 111 144 184 226 272 326
#     4  10  20  35  57  83 110 143 183 228 277 329
#     4  10  21  37  57  81 109 144 185 228 276 329
#
# _framework density 19.445578999999999
#
# number of rings (size 3 to 8) (size 9 to 14) (size 15 to 20)
#    0.000    2.000    0.000    4.500    0.000    9.000 
#    0.000    4.167    0.000    2.000    0.000    0.000 
#    0.000    0.000    0.000    0.000    0.000    0.000 
#
# Total GULP energy -595342.121109 kJ/mol
# GULP energy per Si atom -12402.960856 kJ/mol
# Density = 1.940132 g / cm^3
# Si number density = 19.445579 Si / 1000 Ang^3
#
#
#
# Elastic Constant Matrix: (Units=GPa)
#
#
# Indices 1 2 3 4 5 6 
#
# 1 5.8124 -17.2075 11.7369 0.0000 0.0000 0.0000
# 2 -17.2075 115.8956 65.2524 0.0000 0.0000 0.0000
# 3 11.7369 65.2524 141.0833 0.0000 0.0000 0.0000
# 4 0.0000 0.0000 0.0000 43.4222 0.0000 0.0000
# 5 0.0000 0.0000 0.0000 0.0000 27.3813 0.0000
# 6 0.0000 0.0000 0.0000 0.0000 0.0000 -0.3060
#
#
#
# Elastic Compliance Matrix: (Units=1/GPa)
#
#
# Indices 1 2 3 4 5 6 
#
# 1 -0.875919 -0.231313 0.179853 0.000000 0.000000 0.000000
# 2 -0.231313 -0.049419 0.042100 0.000000 0.000000 0.000000
# 3 0.179853 0.042100 -0.027346 0.000000 0.000000 0.000000
# 4 0.000000 0.000000 0.000000 0.023030 0.000000 0.000000
# 5 0.000000 0.000000 0.000000 0.000000 0.036521 0.000000
# 6 0.000000 0.000000 0.000000 0.000000 0.000000 -3.267760
#
#
# Mechanical properties :
#
#
# Convention : Reuss Voigt Hill
#
# Bulk Modulus (GPa) = -1.02944 42.48389 20.72723
# Shear Modulus (GPa) = -1.11958 27.63347 13.25695
#
# Velocity S-wave (km/s) = -0.75960 3.77379 2.61386
# Velocity P-wave (km/s) = 1.14012 6.39404 4.44881
#
# Compressibility (1/GPa) = -0.97140372
#
# Stress axis : x y z
#
# Youngs Moduli (GPa) = -1.14166 -20.23518 -36.56875
#
# Poissons Ratio (x) = -4.68066 6.57700
# Poissons Ratio (y) = -0.26408 1.53954
# Poissons Ratio (z) = 0.20533 0.85190
#
# Static dielectric constant tensor:
#      x y z
#    x 3.347120 0.000000 0.000000 
#    y 0.000000 3.624850 0.000000 
#    z 0.000000 0.000000 3.910910 
# 
# 
# High freq. dielectric constant tensor:
#      x y z
#    x 1.739340 0.000000 0.000000 
#    y 0.000000 1.764900 0.000000 
#    z 0.000000 0.000000 1.776400 
# 
# From -- ./inp_files/37773.got.cif
#   From: 2010.03.12/outbox.cif.g09.slc.cpg/sg53_19_cif.got.tgz:37773.got - 2010.04.16 14:36:59.
