data_PCOD8220314
_publ_section_title
;
Structure prediction by ZEFSAII (Michael W. Deem and Ramdas Pophale) SiO2 
 PCOD8220314
Probable space group: P M N A
;
_chemical_formula_sum "Si O2"
_cell_formula_units_Z 64
_cell_length_a 8.995090
_cell_length_b 14.876431
_cell_length_c 24.397802
_cell_angle_alpha 90.000000
_cell_angle_beta 90.000000
_cell_angle_gamma 90.000000
_cell_volume 3264.787867
_symmetry_space_group_name_H-M "P M N A"
_symmetry_group_IT_number 53
_symmetry_cell_setting 'orthorhombic'
loop_
_space_group_symop_operation_xyz
x,y,z
1/2-x,-y,1/2+z
x,-y,-z
1/2-x,y,1/2-z
-x,-y,-z
1/2+x,y,1/2-z
-x,y,z
1/2+x,-y,1/2+z
loop_
_atom_site_type_symbol
_atom_site_label
_atom_site_fract_x
_atom_site_fract_y
_atom_site_fract_z
Si Si1 0.667394 0.876304 0.624608
Si Si2 0.171993 0.008958 0.696987
Si Si3 0.329668 0.346266 0.621611
Si Si4 0.823843 0.477940 0.189833
Si Si5 0.174529 0.211526 0.695105
Si Si6 0.173138 0.896469 0.515713
Si Si7 0.670137 0.321483 0.386933
Si Si8 0.174019 0.727630 0.007244
O O1 0.500000 0.911154 0.635468
O O2 0.788894 0.943633 0.647967
O O3 0.705160 0.874858 0.561314
O O4 0.686166 0.773787 0.645004
O O5 0.250000 0.967832 0.750000
O O6 0.000000 0.007856 0.708084
O O7 0.227958 0.109333 0.684556
O O8 0.500000 0.324112 0.635927
O O9 0.281228 0.437483 0.651717
O O10 0.226192 0.267102 0.643318
O O11 0.306399 0.346992 0.555553
O O12 0.750000 0.483681 0.250000
O O13 0.756923 0.394609 0.154097
O O14 0.000000 0.469867 0.199183
O O15 0.250000 0.250285 0.750000
O O16 0.000000 0.218679 0.702683
O O17 0.227662 0.816855 0.474396
O O18 0.000000 0.881873 0.531314
O O19 0.197740 0.000000 0.500000
O O20 0.500000 0.350072 0.394136
O O21 0.735173 0.315535 0.449458
O O22 0.000000 0.754303 0.001154
#
# Coordination Sequence:
#
# PCOD8220314 Si02
#       8
#     8   8   8   8   8   8   8   8
#     4  10  20  35  56  80 108 143 183 231 281 329
#     4  10  21  36  53  77 108 145 188 229 279 336
#     4  10  21  35  56  85 113 143 183 230 281 339
#     4  10  21  38  59  84 113 145 184 231 283 340
#     4  10  21  36  54  75 107 147 185 229 280 334
#     4  10  21  35  52  77 111 148 188 229 272 326
#     4   8  17  36  58  80 110 144 184 232 281 333
#     4   9  19  36  56  82 111 145 190 232 281 338
#
# _framework density 19.603111999999999
#
# number of rings (size 3 to 8) (size 9 to 14) (size 15 to 20)
#    0.000    2.375    0.000    2.625    1.750    5.500 
#    0.000    6.875    0.000    0.000    0.000    5.250 
#    0.000    0.000    0.000    0.000    0.000    0.000 
#
# Total GULP energy -792958.225379 kJ/mol
# GULP energy per Si atom -12389.972272 kJ/mol
# Density = 1.955849 g / cm^3
# Si number density = 19.603112 Si / 1000 Ang^3
#
#
#
# Elastic Constant Matrix: (Units=GPa)
#
#
# Indices 1 2 3 4 5 6 
#
# 1 52.1311 40.8016 29.5937 0.0000 0.0000 0.0000
# 2 40.8016 112.2579 62.3022 0.0000 0.0000 0.0000
# 3 29.5937 62.3022 96.7592 0.0000 0.0000 0.0000
# 4 0.0000 0.0000 0.0000 33.7091 0.0000 0.0000
# 5 0.0000 0.0000 0.0000 0.0000 31.2455 0.0000
# 6 0.0000 0.0000 0.0000 0.0000 0.0000 35.0191
#
#
#
# Elastic Compliance Matrix: (Units=1/GPa)
#
#
# Indices 1 2 3 4 5 6 
#
# 1 0.027379 -0.008253 -0.003060 0.000000 0.000000 0.000000
# 2 -0.008253 0.016349 -0.008003 0.000000 0.000000 0.000000
# 3 -0.003060 -0.008003 0.016424 0.000000 0.000000 0.000000
# 4 0.000000 0.000000 0.000000 0.029666 0.000000 0.000000
# 5 0.000000 0.000000 0.000000 0.000000 0.032005 0.000000
# 6 0.000000 0.000000 0.000000 0.000000 0.000000 0.028556
#
#
# Mechanical properties :
#
#
# Convention : Reuss Voigt Hill
#
# Bulk Modulus (GPa) = 46.46756 58.50481 52.48619
# Shear Modulus (GPa) = 25.48643 28.55813 27.02228
#
# Velocity S-wave (km/s) = 3.60963 3.82097 3.71680
# Velocity P-wave (km/s) = 6.41313 7.02679 6.72696
#
# Compressibility (1/GPa) = 0.02152039
#
# Stress axis : x y z
#
# Youngs Moduli (GPa) = 36.52461 61.16461 60.88738
#
# Poissons Ratio (x) = 0.50480 0.18630
# Poissons Ratio (y) = 0.30144 0.48728
# Poissons Ratio (z) = 0.11176 0.48950
#
# Static dielectric constant tensor:
#      x y z
#    x 3.580300 0.000000 0.000000 
#    y 0.000000 3.789050 0.000000 
#    z 0.000000 0.000000 3.871680 
# 
# 
# High freq. dielectric constant tensor:
#      x y z
#    x 1.749180 0.000000 0.000000 
#    y 0.000000 1.764810 0.000000 
#    z 0.000000 0.000000 1.760100 
# 
# From -- ./inp_files/34163.got.cif
#   From: 2010.03.12/outbox.cif.g09.slc.cpg/sg53_18_cif.got.tgz:34163.got - 2010.04.16 14:36:59.
