data_PCOD8220086
_publ_section_title
;
Structure prediction by ZEFSAII (Michael W. Deem and Ramdas Pophale) SiO2 
 PCOD8220086
Probable space group: P M N A
;
_chemical_formula_sum "Si O2"
_cell_formula_units_Z 48
_cell_length_a 9.116955
_cell_length_b 11.579751
_cell_length_c 25.337095
_cell_angle_alpha 90.000000
_cell_angle_beta 90.000000
_cell_angle_gamma 90.000000
_cell_volume 2674.889536
_symmetry_space_group_name_H-M "P M N A"
_symmetry_group_IT_number 53
_symmetry_cell_setting 'orthorhombic'
loop_
_space_group_symop_operation_xyz
x,y,z
1/2-x,-y,1/2+z
x,-y,-z
1/2-x,y,1/2-z
-x,-y,-z
1/2+x,y,1/2-z
-x,y,z
1/2+x,-y,1/2+z
loop_
_atom_site_type_symbol
_atom_site_label
_atom_site_fract_x
_atom_site_fract_y
_atom_site_fract_z
Si Si1 0.832063 0.864741 0.996841
Si Si2 0.673513 0.263979 0.094890
Si Si3 0.831314 0.260865 0.896941
Si Si4 0.330516 0.512319 0.560088
Si Si5 0.172459 0.860070 0.303658
Si Si6 0.328345 0.124315 0.196833
O O1 0.727816 0.816461 0.952054
O O2 0.000000 0.830476 0.984101
O O3 0.782485 0.810389 0.051921
O O4 0.809671 0.000000 0.000000
O O5 0.500000 0.272496 0.091799
O O6 0.740170 0.391157 0.091033
O O7 0.725339 0.206371 0.149625
O O8 0.806268 0.395393 0.907824
O O9 0.728103 0.223458 0.849423
O O10 0.000000 0.234365 0.882570
O O11 0.272627 0.500000 0.500000
O O12 0.500000 0.549748 0.558530
O O13 0.250000 0.820593 0.250000
O O14 0.000000 0.843827 0.296914
O O15 0.214597 0.992385 0.317181
O O16 0.250000 0.166311 0.250000
O O17 0.500000 0.135346 0.206548
#
# Coordination Sequence:
#
# PCOD8220086 Si02
#       6
#     8   8   8   8   8   8
#     4  10  20  34  54  80 110 145 183 222 271 333
#     4  11  22  35  54  82 114 142 181 230 279 329
#     4  10  20  35  55  80 109 142 184 228 270 320
#     4  10  20  38  58  76 107 149 189 227 268 320
#     4  10  20  36  58  82 111 144 180 222 274 328
#     4   9  20  37  56  81 111 144 179 223 273 326
#
# _framework density 17.944666000000002
#
# number of rings (size 3 to 8) (size 9 to 14) (size 15 to 20)
#    0.000    2.000    1.667    2.000    0.000    4.000 
#    0.000    0.833    0.000    2.000    0.000    0.000 
#    0.000    0.000    0.000    0.000    0.000    0.000 
#
# Total GULP energy -595411.395062 kJ/mol
# GULP energy per Si atom -12404.404064 kJ/mol
# Density = 1.790382 g / cm^3
# Si number density = 17.944666 Si / 1000 Ang^3
#
#
#
# Elastic Constant Matrix: (Units=GPa)
#
#
# Indices 1 2 3 4 5 6 
#
# 1 70.2978 44.0248 64.3105 0.0000 0.0000 0.0000
# 2 44.0248 97.9733 72.9625 0.0000 0.0000 0.0000
# 3 64.3105 72.9625 145.6677 0.0000 0.0000 0.0000
# 4 0.0000 0.0000 0.0000 -28.5115 0.0000 0.0000
# 5 0.0000 0.0000 0.0000 0.0000 35.2444 0.0000
# 6 0.0000 0.0000 0.0000 0.0000 0.0000 29.1481
#
#
#
# Elastic Compliance Matrix: (Units=1/GPa)
#
#
# Indices 1 2 3 4 5 6 
#
# 1 0.025231 -0.004852 -0.008709 0.000000 0.000000 0.000000
# 2 -0.004852 0.017212 -0.006479 0.000000 0.000000 0.000000
# 3 -0.008709 -0.006479 0.013955 0.000000 0.000000 0.000000
# 4 0.000000 0.000000 0.000000 -0.035074 0.000000 0.000000
# 5 0.000000 0.000000 0.000000 0.000000 0.028373 0.000000
# 6 0.000000 0.000000 0.000000 0.000000 0.000000 0.034308
#
#
# Mechanical properties :
#
#
# Convention : Reuss Voigt Hill
#
# Bulk Modulus (GPa) = 61.28137 75.17047 68.22592
# Shear Modulus (GPa) = 38.60248 16.01895 27.31072
#
# Velocity S-wave (km/s) = 4.64313 2.99103 3.90544
# Velocity P-wave (km/s) = 7.93531 7.34230 7.64456
#
# Compressibility (1/GPa) = 0.01631817
#
# Stress axis : x y z
#
# Youngs Moduli (GPa) = 39.63386 58.09777 71.65811
#
# Poissons Ratio (x) = 0.28189 0.62406
# Poissons Ratio (y) = 0.19230 0.46429
# Poissons Ratio (z) = 0.34517 0.37643
#
# Static dielectric constant tensor:
#      x y z
#    x 3.273050 0.000000 0.000000 
#    y 0.000000 3.369060 0.000000 
#    z 0.000000 0.000000 4.156500 
# 
# 
# High freq. dielectric constant tensor:
#      x y z
#    x 1.693490 0.000000 0.000000 
#    y 0.000000 1.697870 0.000000 
#    z 0.000000 0.000000 1.696290 
# 
# From -- ./inp_files/33853.got.cif
#   From: 2010.03.12/outbox.cif.g09.slc.cpg/sg53_17_cif.got.tgz:33853.got - 2010.04.16 14:36:59.
