data_PCOD8220713
_publ_section_title
;
Structure prediction by ZEFSAII (Michael W. Deem and Ramdas Pophale) SiO2 
 PCOD8220713
Probable space group: P M N A
;
_chemical_formula_sum "Si O2"
_cell_formula_units_Z 48
_cell_length_a 9.188383
_cell_length_b 14.849264
_cell_length_c 18.878099
_cell_angle_alpha 90.000000
_cell_angle_beta 90.000000
_cell_angle_gamma 90.000000
_cell_volume 2575.741512
_symmetry_space_group_name_H-M "P M N A"
_symmetry_group_IT_number 53
_symmetry_cell_setting 'orthorhombic'
loop_
_space_group_symop_operation_xyz
x,y,z
1/2-x,-y,1/2+z
x,-y,-z
1/2-x,y,1/2-z
-x,-y,-z
1/2+x,y,1/2-z
-x,y,z
1/2+x,-y,1/2+z
loop_
_atom_site_type_symbol
_atom_site_label
_atom_site_fract_x
_atom_site_fract_y
_atom_site_fract_z
Si Si1 0.830243 0.124034 0.676253
Si Si2 0.166612 0.518759 0.420227
Si Si3 0.331399 0.778233 0.570419
Si Si4 0.669757 0.960644 0.924498
Si Si5 0.666904 0.275399 0.931049
Si Si6 0.168879 0.617866 0.823521
O O1 0.750000 0.125520 0.750000
O O2 0.775763 0.208061 0.629315
O O3 0.000000 0.132267 0.691377
O O4 0.791828 0.032199 0.635887
O O5 0.220170 0.500000 0.500000
O O6 0.182221 0.623831 0.401906
O O7 0.268403 0.466359 0.366355
O O8 0.000000 0.485834 0.411599
O O9 0.500000 0.794965 0.555098
O O10 0.258533 0.871413 0.593197
O O11 0.261134 0.736062 0.500875
O O12 0.305920 0.709805 0.634361
O O13 0.500000 0.936451 0.926174
O O14 0.719249 0.000000 0.000000
O O15 0.500000 0.252108 0.950721
O O16 0.250000 0.628109 0.750000
O O17 0.000000 0.598748 0.809563
#
# Coordination Sequence:
#
# PCOD8220713 Si02
#       6
#     8   8   8   8   8   8
#     4  10  22  39  59  85 119 154 190 237 294 352
#     4  10  20  36  64  93 117 154 200 246 296 354
#     4  11  23  37  59  91 120 152 197 250 298 344
#     4  10  20  38  63  86 113 154 199 241 291 355
#     4  10  20  38  62  88 119 157 200 238 288 360
#     4  11  25  42  60  86 124 161 199 249 304 355
#
# _framework density 18.635411000000001
#
# number of rings (size 3 to 8) (size 9 to 14) (size 15 to 20)
#    0.000    1.667    3.333    1.000    0.000    6.000 
#    0.000    5.000    0.000    0.000    0.000    0.000 
#    0.000    0.000    0.000    0.000    0.000    0.000 
#
# Total GULP energy -595453.744131 kJ/mol
# GULP energy per Si atom -12405.286336 kJ/mol
# Density = 1.859300 g / cm^3
# Si number density = 18.635411 Si / 1000 Ang^3
#
#
#
# Elastic Constant Matrix: (Units=GPa)
#
#
# Indices 1 2 3 4 5 6 
#
# 1 101.2504 65.4451 78.3972 0.0000 0.0000 0.0000
# 2 65.4451 118.7034 53.1916 0.0000 0.0000 0.0000
# 3 78.3972 53.1916 142.3251 0.0000 0.0000 0.0000
# 4 0.0000 0.0000 0.0000 24.2201 0.0000 0.0000
# 5 0.0000 0.0000 0.0000 0.0000 28.0769 0.0000
# 6 0.0000 0.0000 0.0000 0.0000 0.0000 39.2572
#
#
#
# Elastic Compliance Matrix: (Units=1/GPa)
#
#
# Indices 1 2 3 4 5 6 
#
# 1 0.022298 -0.008156 -0.009235 0.000000 0.000000 0.000000
# 2 -0.008156 0.013102 -0.000404 0.000000 0.000000 0.000000
# 3 -0.009235 -0.000404 0.012264 0.000000 0.000000 0.000000
# 4 0.000000 0.000000 0.000000 0.041288 0.000000 0.000000
# 5 0.000000 0.000000 0.000000 0.000000 0.035616 0.000000
# 6 0.000000 0.000000 0.000000 0.000000 0.000000 0.025473
#
#
# Mechanical properties :
#
#
# Convention : Reuss Voigt Hill
#
# Bulk Modulus (GPa) = 82.81410 84.03852 83.42631
# Shear Modulus (GPa) = 26.36349 29.32716 27.84533
#
# Velocity S-wave (km/s) = 3.76533 3.97133 3.86970
# Velocity P-wave (km/s) = 7.96487 8.13773 8.05177
#
# Compressibility (1/GPa) = 0.01207524
#
# Stress axis : x y z
#
# Youngs Moduli (GPa) = 44.84624 76.32396 81.53996
#
# Poissons Ratio (x) = 0.62248 0.75299
# Poissons Ratio (y) = 0.36576 0.03296
# Poissons Ratio (z) = 0.41414 0.03085
#
# Static dielectric constant tensor:
#      x y z
#    x 3.436730 0.000000 0.000000 
#    y 0.000000 0.894990 0.000000 
#    z 0.000000 0.000000 3.166690 
# 
# 
# High freq. dielectric constant tensor:
#      x y z
#    x 1.721670 0.000000 0.000000 
#    y 0.000000 1.739700 0.000000 
#    z 0.000000 0.000000 1.721820 
# 
# From -- ./inp_files/26163.got.cif
#   From: 2010.03.12/outbox.cif.g09.slc.cpg/sg53_14_cif.got.tgz:26163.got - 2010.04.16 14:36:59.
