data_PCOD8220868
_publ_section_title
;
Structure prediction by ZEFSAII (Michael W. Deem and Ramdas Pophale) SiO2 
 PCOD8220868
Probable space group: P M N A
;
_chemical_formula_sum "Si O2"
_cell_formula_units_Z 64
_cell_length_a 8.980046
_cell_length_b 23.923022
_cell_length_c 15.179292
_cell_angle_alpha 90.000000
_cell_angle_beta 90.000000
_cell_angle_gamma 90.000000
_cell_volume 3260.964842
_symmetry_space_group_name_H-M "P M N A"
_symmetry_group_IT_number 53
_symmetry_cell_setting 'orthorhombic'
loop_
_space_group_symop_operation_xyz
x,y,z
1/2-x,-y,1/2+z
x,-y,-z
1/2-x,y,1/2-z
-x,-y,-z
1/2+x,y,1/2-z
-x,y,z
1/2+x,-y,1/2+z
loop_
_atom_site_type_symbol
_atom_site_label
_atom_site_fract_x
_atom_site_fract_y
_atom_site_fract_z
Si Si1 0.674362 0.109322 0.155444
Si Si2 0.176821 0.800665 0.513331
Si Si3 0.824603 0.132847 0.656200
Si Si4 0.324176 0.627228 0.158839
Si Si5 0.676212 0.315488 0.496368
Si Si6 0.174757 0.394816 0.163248
Si Si7 0.327676 0.011167 0.841064
Si Si8 0.326954 0.496984 0.898137
O O1 0.750000 0.118215 0.250000
O O2 0.500000 0.116069 0.171794
O O3 0.707065 0.047780 0.109428
O O4 0.731062 0.155350 0.086730
O O5 0.225881 0.822641 0.416866
O O6 0.265795 0.744562 0.533974
O O7 0.000000 0.790638 0.517624
O O8 0.750000 0.146455 0.750000
O O9 0.000000 0.136379 0.670846
O O10 0.776900 0.070883 0.618187
O O11 0.250000 0.645214 0.250000
O O12 0.500000 0.636346 0.163274
O O13 0.257940 0.667811 0.085620
O O14 0.282046 0.563486 0.137835
O O15 0.500000 0.314764 0.511129
O O16 0.723729 0.359196 0.421154
O O17 0.250000 0.368158 0.250000
O O18 0.229148 0.458388 0.153829
O O19 0.000000 0.394251 0.176924
O O20 0.250000 0.002599 0.750000
O O21 0.500000 0.016066 0.821880
O O22 0.500000 0.510613 0.882898
O O23 0.284250 0.500000 0.000000
#
# Coordination Sequence:
#
# PCOD8220868 Si02
#       8
#     8   8   8   8   8   8   8   8
#     4   9  18  33  54  80 110 144 181 225 279 336
#     4  10  22  38  56  79 108 146 189 233 283 336
#     4   9  18  33  54  80 109 142 180 223 276 334
#     4  11  23  40  64  91 121 154 190 232 281 338
#     4  11  25  43  60  82 112 150 197 244 288 334
#     4  11  24  40  62  89 118 153 193 237 286 341
#     4   8  14  27  49  77 108 139 174 219 271 332
#     4  10  20  37  63  94 125 156 186 225 282 339
#
# _framework density 19.626093999999998
#
# number of rings (size 3 to 8) (size 9 to 14) (size 15 to 20)
#    0.000    2.125    1.250    1.500    0.000    6.250 
#    0.000    6.250    0.000    0.000    0.000    9.625 
#    0.000    0.000    0.000    0.000    0.000    0.000 
#
# Total GULP energy -793294.539779 kJ/mol
# GULP energy per Si atom -12395.227184 kJ/mol
# Density = 1.958142 g / cm^3
# Si number density = 19.626094 Si / 1000 Ang^3
#
#
#
# Elastic Constant Matrix: (Units=GPa)
#
#
# Indices 1 2 3 4 5 6 
#
# 1 45.1753 24.8866 24.9392 0.0000 0.0000 0.0000
# 2 24.8866 83.7736 13.9623 0.0000 0.0000 0.0000
# 3 24.9392 13.9623 84.1554 0.0000 0.0000 0.0000
# 4 0.0000 0.0000 0.0000 20.3108 0.0000 0.0000
# 5 0.0000 0.0000 0.0000 0.0000 29.5660 0.0000
# 6 0.0000 0.0000 0.0000 0.0000 0.0000 27.3155
#
#
#
# Elastic Compliance Matrix: (Units=1/GPa)
#
#
# Indices 1 2 3 4 5 6 
#
# 1 0.030770 -0.007838 -0.007818 0.000000 0.000000 0.000000
# 2 -0.007838 0.014273 -0.000045 0.000000 0.000000 0.000000
# 3 -0.007818 -0.000045 0.014207 0.000000 0.000000 0.000000
# 4 0.000000 0.000000 0.000000 0.049235 0.000000 0.000000
# 5 0.000000 0.000000 0.000000 0.000000 0.033823 0.000000
# 6 0.000000 0.000000 0.000000 0.000000 0.000000 0.036609
#
#
# Mechanical properties :
#
#
# Convention : Reuss Voigt Hill
#
# Bulk Modulus (GPa) = 35.91006 37.85338 36.88172
# Shear Modulus (GPa) = 22.76853 25.39288 24.08071
#
# Velocity S-wave (km/s) = 3.40974 3.60089 3.50662
# Velocity P-wave (km/s) = 5.81710 6.05126 5.93533
#
# Compressibility (1/GPa) = 0.02784735
#
# Stress axis : x y z
#
# Youngs Moduli (GPa) = 32.49949 70.06315 70.38698
#
# Poissons Ratio (x) = 0.54913 0.55029
# Poissons Ratio (y) = 0.25472 0.00319
# Poissons Ratio (z) = 0.25409 0.00318
#
# Static dielectric constant tensor:
#      x y z
#    x 3.484300 0.000000 0.000000 
#    y 0.000000 3.829520 0.000000 
#    z 0.000000 0.000000 3.555510 
# 
# 
# High freq. dielectric constant tensor:
#      x y z
#    x 1.758310 0.000000 0.000000 
#    y 0.000000 1.773720 0.000000 
#    z 0.000000 0.000000 1.761900 
# 
# From -- ./inp_files/20831.got.cif
#   From: 2010.03.12/outbox.cif.g09.slc.cpg/sg53_11_cif.got.tgz:20831.got - 2010.04.16 14:36:59.
