data_PCOD8220429
_publ_section_title
;
Structure prediction by ZEFSAII (Michael W. Deem and Ramdas Pophale) SiO2 
 PCOD8220429
Probable space group: P M N A
;
_chemical_formula_sum "Si O2"
_cell_formula_units_Z 56
_cell_length_a 16.339455
_cell_length_b 11.859702
_cell_length_c 14.095818
_cell_angle_alpha 90.000000
_cell_angle_beta 90.000000
_cell_angle_gamma 90.000000
_cell_volume 2731.502654
_symmetry_space_group_name_H-M "P M N A"
_symmetry_group_IT_number 53
_symmetry_cell_setting 'orthorhombic'
loop_
_space_group_symop_operation_xyz
x,y,z
1/2-x,-y,1/2+z
x,-y,-z
1/2-x,y,1/2-z
-x,-y,-z
1/2+x,y,1/2-z
-x,y,z
1/2+x,-y,1/2+z
loop_
_atom_site_type_symbol
_atom_site_label
_atom_site_fract_x
_atom_site_fract_y
_atom_site_fract_z
Si Si1 0.906512 0.724006 0.285966
Si Si2 0.152329 0.590237 0.118098
Si Si3 0.662575 0.550601 0.095116
Si Si4 0.165928 0.820717 0.805645
Si Si5 0.907536 0.406977 0.241903
Si Si6 0.593413 0.941915 0.311864
Si Si7 0.594667 0.791906 0.494217
O O1 0.844955 0.659886 0.215697
O O2 0.884279 0.670541 0.387764
O O3 0.892366 0.857674 0.277575
O O4 0.000000 0.696269 0.256674
O O5 0.242484 0.574126 0.078129
O O6 0.111958 0.467816 0.140472
O O7 0.101219 0.663045 0.041927
O O8 0.651390 0.459447 0.178544
O O9 0.623895 0.500000 0.000000
O O10 0.250000 0.794371 0.750000
O O11 0.103508 0.727235 0.765915
O O12 0.159975 0.811790 0.920739
O O13 0.144164 0.949099 0.782292
O O14 0.000000 0.432631 0.272085
O O15 0.500000 0.979499 0.321087
O O16 0.618921 0.879853 0.410118
O O17 0.500000 0.812159 0.526784
#
# Coordination Sequence:
#
# PCOD8220429 Si02
#       7
#     8   8   8   8   8   8   8
#     4   9  18  37  63  87 115 153 201 250 294 355
#     4  10  20  35  60  89 122 149 189 250 309 352
#     4  11  23  36  58  88 122 161 199 248 300 359
#     4  12  25  37  57  85 128 162 191 240 305 371
#     4  11  23  40  60  83 120 164 205 245 299 365
#     4   9  19  39  65  91 116 150 202 254 302 357
#     4  10  21  39  66  95 120 154 201 251 303 360
#
# _framework density 20.501535000000001
#
# number of rings (size 3 to 8) (size 9 to 14) (size 15 to 20)
#    0.000    1.714    0.000    7.714    4.000    4.571 
#    0.000    1.429    0.000    0.000    0.000    3.000 
#    0.000    0.000    0.000    0.000    0.000    0.000 
#
# Total GULP energy -693881.942535 kJ/mol
# GULP energy per Si atom -12390.748974 kJ/mol
# Density = 2.045487 g / cm^3
# Si number density = 20.501535 Si / 1000 Ang^3
#
#
#
# Elastic Constant Matrix: (Units=GPa)
#
#
# Indices 1 2 3 4 5 6 
#
# 1 67.9059 43.3337 21.1490 0.0000 0.0000 0.0000
# 2 43.3337 138.8557 66.4662 0.0000 0.0000 0.0000
# 3 21.1490 66.4662 67.1224 0.0000 0.0000 0.0000
# 4 0.0000 0.0000 0.0000 31.4470 0.0000 0.0000
# 5 0.0000 0.0000 0.0000 0.0000 -13.5880 0.0000
# 6 0.0000 0.0000 0.0000 0.0000 0.0000 32.8461
#
#
#
# Elastic Compliance Matrix: (Units=1/GPa)
#
#
# Indices 1 2 3 4 5 6 
#
# 1 0.018390 -0.005638 -0.000212 0.000000 0.000000 0.000000
# 2 -0.005638 0.015420 -0.013492 0.000000 0.000000 0.000000
# 3 -0.000212 -0.013492 0.028325 0.000000 0.000000 0.000000
# 4 0.000000 0.000000 0.000000 0.031800 0.000000 0.000000
# 5 0.000000 0.000000 0.000000 0.000000 -0.073594 0.000000
# 6 0.000000 0.000000 0.000000 0.000000 0.000000 0.030445
#
#
# Mechanical properties :
#
#
# Convention : Reuss Voigt Hill
#
# Bulk Modulus (GPa) = 42.64201 59.53129 51.08665
# Shear Modulus (GPa) = 51.39487 19.67002 35.53245
#
# Velocity S-wave (km/s) = 5.01231 3.10085 4.16764
# Velocity P-wave (km/s) = 7.37172 6.47463 6.93769
#
# Compressibility (1/GPa) = 0.02345105
#
# Stress axis : x y z
#
# Youngs Moduli (GPa) = 54.37779 64.85261 35.30397
#
# Poissons Ratio (x) = 0.36562 0.00747
# Poissons Ratio (y) = 0.30657 0.47634
# Poissons Ratio (z) = 0.01151 0.87502
#
# Static dielectric constant tensor:
#      x y z
#    x 3.538950 0.000000 0.000000 
#    y 0.000000 3.957360 0.000000 
#    z 0.000000 0.000000 3.666650 
# 
# 
# High freq. dielectric constant tensor:
#      x y z
#    x 1.788110 0.000000 0.000000 
#    y 0.000000 1.814470 0.000000 
#    z 0.000000 0.000000 1.778970 
# 
# From -- ./inp_files/22852.got.cif
#   From: 2010.03.12/outbox.cif.g09.slc.cpg/sg53_12_cif.got.tgz:22852.got - 2010.04.16 14:36:59.
