data_PCOD8220771
_publ_section_title
;
Structure prediction by ZEFSAII (Michael W. Deem and Ramdas Pophale) SiO2 
 PCOD8220771
Probable space group: P M N A
;
_chemical_formula_sum "Si O2"
_cell_formula_units_Z 48
_cell_length_a 8.586917
_cell_length_b 30.669231
_cell_length_c 9.086710
_cell_angle_alpha 90.000000
_cell_angle_beta 90.000000
_cell_angle_gamma 90.000000
_cell_volume 2393.022707
_symmetry_space_group_name_H-M "P M N A"
_symmetry_group_IT_number 53
_symmetry_cell_setting 'orthorhombic'
loop_
_space_group_symop_operation_xyz
x,y,z
1/2-x,-y,1/2+z
x,-y,-z
1/2-x,y,1/2-z
-x,-y,-z
1/2+x,y,1/2-z
-x,y,z
1/2+x,-y,1/2+z
loop_
_atom_site_type_symbol
_atom_site_label
_atom_site_fract_x
_atom_site_fract_y
_atom_site_fract_z
Si Si1 0.315301 0.126693 0.088798
Si Si2 0.815824 0.714336 0.588436
Si Si3 0.817535 0.460654 0.907247
Si Si4 0.183704 0.041488 0.588215
Si Si5 0.316078 0.363022 0.587610
Si Si6 0.315617 0.793446 0.411128
O O1 0.250000 0.118749 0.250000
O O2 0.500000 0.132929 0.092798
O O3 0.263248 0.085391 0.992683
O O4 0.236988 0.169258 0.022159
O O5 0.750000 0.724187 0.750000
O O6 0.765945 0.666631 0.534462
O O7 0.748324 0.747844 0.469932
O O8 0.000000 0.718569 0.594422
O O9 0.750000 0.467621 0.750000
O O10 0.775394 0.412223 0.964855
O O11 0.000000 0.466273 0.899465
O O12 0.741921 0.500000 0.000000
O O13 0.250000 0.041576 0.750000
O O14 0.000000 0.038361 0.597973
O O15 0.251507 0.000000 0.500000
O O16 0.250000 0.353318 0.750000
O O17 0.500000 0.354132 0.590381
O O18 0.250000 0.803413 0.250000
O O19 0.500000 0.791479 0.402785
#
# Coordination Sequence:
#
# PCOD8220771 Si02
#       6
#     8   8   8   8   8   8
#     4  11  23  40  62  90 123 159 200 245 296 350
#     4  12  25  42  62  87 118 152 192 238 291 346
#     4   9  19  35  55  81 113 149 190 235 283 338
#     4  10  22  39  60  88 121 158 201 247 296 351
#     4  10  20  37  59  84 115 152 194 238 287 343
#     4  12  25  43  65  90 120 155 196 240 290 347
#
# _framework density 20.058315
#
# number of rings (size 3 to 8) (size 9 to 14) (size 15 to 20)
#    0.000    1.333    0.000    6.000    0.000    4.667 
#    0.000    1.667    0.000    0.000    0.000    0.000 
#    0.000    0.000    0.000    0.000    0.000    0.000 
#
# Total GULP energy -595349.283877 kJ/mol
# GULP energy per Si atom -12403.110081 kJ/mol
# Density = 2.001266 g / cm^3
# Si number density = 20.058315 Si / 1000 Ang^3
#
#
#
# Elastic Constant Matrix: (Units=GPa)
#
#
# Indices 1 2 3 4 5 6 
#
# 1 95.2435 42.9016 48.4559 0.0000 0.0000 0.0000
# 2 42.9016 132.9804 55.7158 0.0000 0.0000 0.0000
# 3 48.4559 55.7158 117.8937 0.0000 0.0000 0.0000
# 4 0.0000 0.0000 0.0000 49.1396 0.0000 0.0000
# 5 0.0000 0.0000 0.0000 0.0000 37.5278 0.0000
# 6 0.0000 0.0000 0.0000 0.0000 0.0000 -101.9509
#
#
#
# Elastic Compliance Matrix: (Units=1/GPa)
#
#
# Indices 1 2 3 4 5 6 
#
# 1 0.013971 -0.002620 -0.004504 0.000000 0.000000 0.000000
# 2 -0.002620 0.009868 -0.003587 0.000000 0.000000 0.000000
# 3 -0.004504 -0.003587 0.012028 0.000000 0.000000 0.000000
# 4 0.000000 0.000000 0.000000 0.020350 0.000000 0.000000
# 5 0.000000 0.000000 0.000000 0.000000 0.026647 0.000000
# 6 0.000000 0.000000 0.000000 0.000000 0.000000 -0.009809
#
#
# Mechanical properties :
#
#
# Convention : Reuss Voigt Hill
#
# Bulk Modulus (GPa) = 69.22408 71.14046 70.18227
# Shear Modulus (GPa) = 50.35613 10.21293 30.28453
#
# Velocity S-wave (km/s) = 5.01591 2.25891 3.88986
# Velocity P-wave (km/s) = 8.25422 6.50749 7.43235
#
# Compressibility (1/GPa) = 0.01444584
#
# Stress axis : x y z
#
# Youngs Moduli (GPa) = 71.57626 101.33839 83.13654
#
# Poissons Ratio (x) = 0.26553 0.37445
# Poissons Ratio (y) = 0.18755 0.29817
# Poissons Ratio (z) = 0.32238 0.36346
#
# Static dielectric constant tensor:
#      x y z
#    x 3.730340 0.000000 0.000000 
#    y 0.000000 4.106960 0.000000 
#    z 0.000000 0.000000 3.525050 
# 
# 
# High freq. dielectric constant tensor:
#      x y z
#    x 1.790650 0.000000 0.000000 
#    y 0.000000 1.803990 0.000000 
#    z 0.000000 0.000000 1.790150 
# 
# From -- ./inp_files/6568.got.cif
#   From: 2010.03.12/outbox.cif.g09.slc.cpg/sg53_4_cif.got.tgz:6568.got - 2010.04.16 14:36:59.
