data_PCOD8220574
_publ_section_title
;
Structure prediction by ZEFSAII (Michael W. Deem and Ramdas Pophale) SiO2 
 PCOD8220574
Probable space group: P M N A
;
_chemical_formula_sum "Si O2"
_cell_formula_units_Z 48
_cell_length_a 9.074117
_cell_length_b 12.440399
_cell_length_c 23.253109
_cell_angle_alpha 90.000000
_cell_angle_beta 90.000000
_cell_angle_gamma 90.000000
_cell_volume 2624.942000
_symmetry_space_group_name_H-M "P M N A"
_symmetry_group_IT_number 53
_symmetry_cell_setting 'orthorhombic'
loop_
_space_group_symop_operation_xyz
x,y,z
1/2-x,-y,1/2+z
x,-y,-z
1/2-x,y,1/2-z
-x,-y,-z
1/2+x,y,1/2-z
-x,y,z
1/2+x,-y,1/2+z
loop_
_atom_site_type_symbol
_atom_site_label
_atom_site_fract_x
_atom_site_fract_y
_atom_site_fract_z
Si Si1 0.326615 0.634019 0.808631
Si Si2 0.167539 0.200028 0.116460
Si Si3 0.670034 0.878334 0.490852
Si Si4 0.827122 0.006982 0.809318
Si Si5 0.169635 0.608626 0.306690
Si Si6 0.827989 0.810401 0.378663
O O1 0.250000 0.673981 0.750000
O O2 0.500000 0.646927 0.800904
O O3 0.274463 0.707225 0.861245
O O4 0.278415 0.511799 0.823036
O O5 0.000000 0.232508 0.130704
O O6 0.205972 0.086593 0.145311
O O7 0.192273 0.189705 0.048540
O O8 0.500000 0.879499 0.470562
O O9 0.768429 0.821941 0.442878
O O10 0.724741 0.000000 0.500000
O O11 0.750000 0.974936 0.750000
O O12 0.758142 0.115301 0.834003
O O13 0.000000 0.024440 0.799045
O O14 0.250000 0.651983 0.250000
O O15 0.201155 0.687240 0.360047
O O16 0.000000 0.607265 0.290018
O O17 0.000000 0.839966 0.376753
#
# Coordination Sequence:
#
# PCOD8220574 Si02
#       6
#     8   8   8   8   8   8
#     4  10  20  36  58  82 111 145 182 225 275 326
#     4  10  21  37  57  80 109 143 183 226 273 327
#     4  10  20  39  59  78 108 149 186 226 277 323
#     4  11  22  36  53  79 113 145 177 224 279 329
#     4   9  20  37  56  81 112 145 181 225 275 325
#     4  11  22  36  56  83 111 143 186 228 272 329
#
# _framework density 18.28612
#
# number of rings (size 3 to 8) (size 9 to 14) (size 15 to 20)
#    0.000    1.833    1.667    2.500    0.000    7.000 
#    0.000    0.833    0.000    5.000    0.000    0.000 
#    0.000    0.000    0.000    0.000    0.000    0.000 
#
# Total GULP energy -595419.717524 kJ/mol
# GULP energy per Si atom -12404.577448 kJ/mol
# Density = 1.824450 g / cm^3
# Si number density = 18.286120 Si / 1000 Ang^3
#
#
#
# Elastic Constant Matrix: (Units=GPa)
#
#
# Indices 1 2 3 4 5 6 
#
# 1 86.4266 46.6415 44.8862 0.0000 0.0000 0.0000
# 2 46.6415 86.9177 37.7699 0.0000 0.0000 0.0000
# 3 44.8862 37.7699 88.3546 0.0000 0.0000 0.0000
# 4 0.0000 0.0000 0.0000 25.0886 0.0000 0.0000
# 5 0.0000 0.0000 0.0000 0.0000 35.4779 0.0000
# 6 0.0000 0.0000 0.0000 0.0000 0.0000 36.4196
#
#
#
# Elastic Compliance Matrix: (Units=1/GPa)
#
#
# Indices 1 2 3 4 5 6 
#
# 1 0.018877 -0.007323 -0.006460 0.000000 0.000000 0.000000
# 2 -0.007323 0.016971 -0.003534 0.000000 0.000000 0.000000
# 3 -0.006460 -0.003534 0.016111 0.000000 0.000000 0.000000
# 4 0.000000 0.000000 0.000000 0.039859 0.000000 0.000000
# 5 0.000000 0.000000 0.000000 0.000000 0.028187 0.000000
# 6 0.000000 0.000000 0.000000 0.000000 0.000000 0.027458
#
#
# Mechanical properties :
#
#
# Convention : Reuss Voigt Hill
#
# Bulk Modulus (GPa) = 57.72166 57.81045 57.76606
# Shear Modulus (GPa) = 26.61410 28.22397 27.41904
#
# Velocity S-wave (km/s) = 3.81914 3.93296 3.87647
# Velocity P-wave (km/s) = 7.14718 7.23237 7.18990
#
# Compressibility (1/GPa) = 0.01732452
#
# Stress axis : x y z
#
# Youngs Moduli (GPa) = 52.97364 58.92561 62.07076
#
# Poissons Ratio (x) = 0.43150 0.40096
# Poissons Ratio (y) = 0.38792 0.21938
# Poissons Ratio (z) = 0.34220 0.20827
#
# Static dielectric constant tensor:
#      x y z
#    x 3.419420 0.000000 0.000000 
#    y 0.000000 3.424350 0.000000 
#    z 0.000000 0.000000 3.357410 
# 
# 
# High freq. dielectric constant tensor:
#      x y z
#    x 1.715090 0.000000 0.000000 
#    y 0.000000 1.707680 0.000000 
#    z 0.000000 0.000000 1.707170 
# 
# From -- ./inp_files/33841.got.cif
#   From: 2010.03.12/outbox.cif.g09.slc.cpg/sg53_17_cif.got.tgz:33841.got - 2010.04.16 14:36:59.
