data_PCOD8220820
_publ_section_title
;
Structure prediction by ZEFSAII (Michael W. Deem and Ramdas Pophale) SiO2 
 PCOD8220820
Probable space group: P M N A
;
_chemical_formula_sum "Si O2"
_cell_formula_units_Z 40
_cell_length_a 9.307796
_cell_length_b 12.385719
_cell_length_c 18.358584
_cell_angle_alpha 90.000000
_cell_angle_beta 90.000000
_cell_angle_gamma 90.000000
_cell_volume 2116.446330
_symmetry_space_group_name_H-M "P M N A"
_symmetry_group_IT_number 53
_symmetry_cell_setting 'orthorhombic'
loop_
_space_group_symop_operation_xyz
x,y,z
1/2-x,-y,1/2+z
x,-y,-z
1/2-x,y,1/2-z
-x,-y,-z
1/2+x,y,1/2-z
-x,y,z
1/2+x,-y,1/2+z
loop_
_atom_site_type_symbol
_atom_site_label
_atom_site_fract_x
_atom_site_fract_y
_atom_site_fract_z
Si Si1 0.834096 0.225116 0.423464
Si Si2 0.334268 0.362114 0.675186
Si Si3 0.834973 0.186028 0.589060
Si Si4 0.664855 0.557796 0.572137
Si Si5 0.168099 0.971414 0.675002
O O1 0.808087 0.176198 0.503210
O O2 0.748477 0.334101 0.409428
O O3 0.779888 0.136689 0.365629
O O4 0.000000 0.252507 0.411150
O O5 0.250000 0.356065 0.750000
O O6 0.500000 0.332643 0.689325
O O7 0.269712 0.277345 0.618848
O O8 0.318322 0.480876 0.641701
O O9 0.000000 0.217372 0.606221
O O10 0.793433 0.072268 0.624093
O O11 0.729285 0.500000 0.500000
O O12 0.500000 0.588263 0.556875
O O13 0.250000 0.984759 0.750000
O O14 0.000000 0.966861 0.691571
#
# Coordination Sequence:
#
# PCOD8220820 Si02
#       5
#     8   8   8   8   8
#     4  10  21  37  61  87 113 149 194 239 283 340
#     4  11  23  38  58  85 118 151 189 236 288 341
#     4  10  20  37  61  86 114 149 191 238 287 339
#     4  10  21  39  59  82 115 151 187 235 286 334
#     4  10  22  39  57  83 118 153 190 235 288 340
#
# _framework density 18.899605999999999
#
# number of rings (size 3 to 8) (size 9 to 14) (size 15 to 20)
#    0.000    1.800    2.000    1.800    0.000    8.400 
#    0.000    4.000    0.000    3.600    0.000    0.000 
#    0.000    0.000    0.000    0.000    0.000    0.000 
#
# Total GULP energy -496185.128256 kJ/mol
# GULP energy per Si atom -12404.628206 kJ/mol
# Density = 1.885659 g / cm^3
# Si number density = 18.899606 Si / 1000 Ang^3
#
#
#
# Elastic Constant Matrix: (Units=GPa)
#
#
# Indices 1 2 3 4 5 6 
#
# 1 74.3908 50.1629 24.0064 0.0000 0.0000 0.0000
# 2 50.1629 116.3196 5.6362 0.0000 0.0000 0.0000
# 3 24.0064 5.6362 27.6698 0.0000 0.0000 0.0000
# 4 0.0000 0.0000 0.0000 15.5881 0.0000 0.0000
# 5 0.0000 0.0000 0.0000 0.0000 15.7347 0.0000
# 6 0.0000 0.0000 0.0000 0.0000 0.0000 16.9094
#
#
#
# Elastic Compliance Matrix: (Units=1/GPa)
#
#
# Indices 1 2 3 4 5 6 
#
# 1 0.027959 -0.010991 -0.022019 0.000000 0.000000 0.000000
# 2 -0.010991 0.013003 0.006887 0.000000 0.000000 0.000000
# 3 -0.022019 0.006887 0.053841 0.000000 0.000000 0.000000
# 4 0.000000 0.000000 0.000000 0.064152 0.000000 0.000000
# 5 0.000000 0.000000 0.000000 0.000000 0.063554 0.000000
# 6 0.000000 0.000000 0.000000 0.000000 0.000000 0.059139
#
#
# Mechanical properties :
#
#
# Convention : Reuss Voigt Hill
#
# Bulk Modulus (GPa) = 23.49711 41.99901 32.74806
# Shear Modulus (GPa) = 14.36455 18.88474 16.62465
#
# Velocity S-wave (km/s) = 2.75988 3.16446 2.96907
# Velocity P-wave (km/s) = 4.75558 5.96843 5.39619
#
# Compressibility (1/GPa) = 0.04255843
#
# Stress axis : x y z
#
# Youngs Moduli (GPa) = 35.76628 76.90528 18.57308
#
# Poissons Ratio (x) = 0.84523 0.40896
# Poissons Ratio (y) = 0.39309 -0.12791
# Poissons Ratio (z) = 0.78753 -0.52963
#
# Static dielectric constant tensor:
#      x y z
#    x 3.461150 0.000000 0.000000 
#    y 0.000000 3.532880 0.000000 
#    z 0.000000 0.000000 3.498570 
# 
# 
# High freq. dielectric constant tensor:
#      x y z
#    x 1.730370 0.000000 0.000000 
#    y 0.000000 1.743000 0.000000 
#    z 0.000000 0.000000 1.742960 
# 
# From -- ./inp_files/25820.got.cif
#   From: 2010.03.12/outbox.cif.g09.slc.cpg/sg53_13_cif.got.tgz:25820.got - 2010.04.16 14:36:59.
