data_PCOD8220176
_publ_section_title
;
Structure prediction by ZEFSAII (Michael W. Deem and Ramdas Pophale) SiO2 
 PCOD8220176
Probable space group: P M N A
;
_chemical_formula_sum "Si O2"
_cell_formula_units_Z 64
_cell_length_a 8.541300
_cell_length_b 19.304348
_cell_length_c 20.661403
_cell_angle_alpha 90.000000
_cell_angle_beta 90.000000
_cell_angle_gamma 90.000000
_cell_volume 3406.739474
_symmetry_space_group_name_H-M "P M N A"
_symmetry_group_IT_number 53
_symmetry_cell_setting 'orthorhombic'
loop_
_space_group_symop_operation_xyz
x,y,z
1/2-x,-y,1/2+z
x,-y,-z
1/2-x,y,1/2-z
-x,-y,-z
1/2+x,y,1/2-z
-x,y,z
1/2+x,-y,1/2+z
loop_
_atom_site_type_symbol
_atom_site_label
_atom_site_fract_x
_atom_site_fract_y
_atom_site_fract_z
Si Si1 0.816614 0.543521 0.562343
Si Si2 0.180049 0.329664 0.629582
Si Si3 0.816606 0.044179 0.816524
Si Si4 0.180253 0.829362 0.983069
Si Si5 0.681552 0.674011 0.508950
Si Si6 0.818154 0.826040 0.378102
Si Si7 0.682455 0.538384 0.318245
Si Si8 0.318461 0.962345 0.933874
O O1 0.760768 0.500000 0.500000
O O2 0.726947 0.617227 0.562564
O O3 0.772765 0.502957 0.626602
O O4 0.000000 0.557638 0.560657
O O5 0.214497 0.341019 0.553993
O O6 0.216692 0.250558 0.649677
O O7 0.287098 0.379534 0.673037
O O8 0.000000 0.349445 0.642041
O O9 0.750000 0.011714 0.750000
O O10 0.731444 0.118210 0.825009
O O11 0.000000 0.056047 0.811148
O O12 0.780631 0.992373 0.874936
O O13 0.219048 0.750313 0.962766
O O14 0.216843 0.840635 0.058357
O O15 0.000000 0.847722 0.971094
O O16 0.284445 0.880479 0.939467
O O17 0.500000 0.668844 0.489344
O O18 0.000000 0.833864 0.396753
O O19 0.750000 0.512992 0.250000
O O20 0.500000 0.522191 0.322130
O O21 0.500000 0.975664 0.919610
O O22 0.265756 0.000000 0.000000
#
# Coordination Sequence:
#
# PCOD8220176 Si02
#       8
#     8   8   8   8   8   8   8   8
#     4  11  22  37  60  87 116 151 193 238 285 338
#     4  10  20  35  55  81 115 153 193 235 281 336
#     4  12  25  40  59  82 115 153 194 239 288 343
#     4  10  20  34  56  87 118 149 189 236 286 338
#     4  10  20  34  56  87 118 149 189 236 286 338
#     4  10  20  35  55  81 115 153 193 235 281 336
#     4  12  25  40  59  82 115 153 194 239 288 343
#     4  11  22  37  60  87 116 151 193 238 285 338
#
# _framework density 18.786290999999999
#
# number of rings (size 3 to 8) (size 9 to 14) (size 15 to 20)
#    0.000    1.250    2.500    4.500    0.000    4.500 
#    0.000    0.000    0.000    0.750    0.000    0.000 
#    0.000    0.000    0.000    0.000    0.000    0.000 
#
# Total GULP energy -793943.328944 kJ/mol
# GULP energy per Si atom -12405.364515 kJ/mol
# Density = 1.874353 g / cm^3
# Si number density = 18.786291 Si / 1000 Ang^3
#
#
#
# Elastic Constant Matrix: (Units=GPa)
#
#
# Indices 1 2 3 4 5 6 
#
# 1 56.5991 29.4972 17.3849 0.0000 0.0000 0.0000
# 2 29.4972 104.1463 45.0838 0.0000 0.0000 0.0000
# 3 17.3849 45.0838 91.3157 0.0000 0.0000 0.0000
# 4 0.0000 0.0000 0.0000 19.7083 0.0000 0.0000
# 5 0.0000 0.0000 0.0000 0.0000 29.7065 0.0000
# 6 0.0000 0.0000 0.0000 0.0000 0.0000 31.3590
#
#
#
# Elastic Compliance Matrix: (Units=1/GPa)
#
#
# Indices 1 2 3 4 5 6 
#
# 1 0.020856 -0.005327 -0.001341 0.000000 0.000000 0.000000
# 2 -0.005327 0.013572 -0.005687 0.000000 0.000000 0.000000
# 3 -0.001341 -0.005687 0.014014 0.000000 0.000000 0.000000
# 4 0.000000 0.000000 0.000000 0.050740 0.000000 0.000000
# 5 0.000000 0.000000 0.000000 0.000000 0.033663 0.000000
# 6 0.000000 0.000000 0.000000 0.000000 0.000000 0.031889
#
#
# Mechanical properties :
#
#
# Convention : Reuss Voigt Hill
#
# Bulk Modulus (GPa) = 42.13383 48.44365 45.28874
# Shear Modulus (GPa) = 25.33531 26.82778 26.08155
#
# Velocity S-wave (km/s) = 3.67632 3.78306 3.73007
# Velocity P-wave (km/s) = 6.36373 6.70259 6.53536
#
# Compressibility (1/GPa) = 0.02373390
#
# Stress axis : x y z
#
# Youngs Moduli (GPa) = 47.94794 73.67983 71.35783
#
# Poissons Ratio (x) = 0.39246 0.09568
# Poissons Ratio (y) = 0.25540 0.40579
# Poissons Ratio (z) = 0.06429 0.41900
#
# Static dielectric constant tensor:
#      x y z
#    x 3.473210 0.000000 0.000000 
#    y 0.000000 3.613490 0.000000 
#    z 0.000000 0.000000 3.185600 
# 
# 
# High freq. dielectric constant tensor:
#      x y z
#    x 1.745270 0.000000 0.000000 
#    y 0.000000 1.733150 0.000000 
#    z 0.000000 0.000000 1.699540 
# 
# From -- ./inp_files/31294.got.cif
#   From: 2010.03.12/outbox.cif.g09.slc.cpg/sg53_16_cif.got.tgz:31294.got - 2010.04.16 14:36:59.
