data_PCOD8220477
_publ_section_title
;
Structure prediction by ZEFSAII (Michael W. Deem and Ramdas Pophale) SiO2 
 PCOD8220477
Probable space group: P M N A
;
_chemical_formula_sum "Si O2"
_cell_formula_units_Z 64
_cell_length_a 8.912912
_cell_length_b 19.544907
_cell_length_c 20.124062
_cell_angle_alpha 90.000000
_cell_angle_beta 90.000000
_cell_angle_gamma 90.000000
_cell_volume 3505.652576
_symmetry_space_group_name_H-M "P M N A"
_symmetry_group_IT_number 53
_symmetry_cell_setting 'orthorhombic'
loop_
_space_group_symop_operation_xyz
x,y,z
1/2-x,-y,1/2+z
x,-y,-z
1/2-x,y,1/2-z
-x,-y,-z
1/2+x,y,1/2-z
-x,y,z
1/2+x,-y,1/2+z
loop_
_atom_site_type_symbol
_atom_site_label
_atom_site_fract_x
_atom_site_fract_y
_atom_site_fract_z
Si Si1 0.824866 0.816839 0.441906
Si Si2 0.176507 0.938090 0.681521
Si Si3 0.324105 0.564779 0.819348
Si Si4 0.826428 0.698826 0.606224
Si Si5 0.674972 0.471445 0.571837
Si Si6 0.828792 0.662794 0.457368
Si Si7 0.674952 0.096299 0.817392
Si Si8 0.177314 0.836241 0.918129
O O1 0.798750 0.737029 0.425246
O O2 0.764299 0.860262 0.379707
O O3 0.731721 0.839135 0.506121
O O4 0.000000 0.830930 0.456821
O O5 0.250000 0.911926 0.750000
O O6 0.248100 0.899076 0.619895
O O7 0.000000 0.924252 0.684782
O O8 0.215105 0.017439 0.669964
O O9 0.250000 0.546252 0.750000
O O10 0.500000 0.554449 0.813593
O O11 0.284529 0.643047 0.838322
O O12 0.264795 0.512995 0.873820
O O13 0.790523 0.665342 0.535289
O O14 0.725655 0.765684 0.617677
O O15 0.000000 0.721445 0.609405
O O16 0.721146 0.500000 0.500000
O O17 0.500000 0.479670 0.585841
O O18 0.720109 0.391812 0.577245
O O19 0.000000 0.639593 0.446223
O O20 0.750000 0.123563 0.750000
O O21 0.500000 0.108128 0.808966
O O22 0.000000 0.843442 0.915311
#
# Coordination Sequence:
#
# PCOD8220477 Si02
#       8
#     8   8   8   8   8   8   8   8
#     4   9  19  37  57  81 112 146 184 227 278 332
#     4  10  20  36  56  78 107 144 185 228 274 331
#     4  11  23  39  58  81 112 146 184 228 278 330
#     4   9  19  36  56  77 106 145 182 222 272 329
#     4  11  22  35  56  84 112 144 184 229 271 323
#     4   9  17  33  57  81 106 140 183 225 269 324
#     4   9  19  36  59  82 107 142 184 229 279 333
#     4  11  22  34  53  82 114 147 183 229 275 321
#
# _framework density 18.256231
#
# number of rings (size 3 to 8) (size 9 to 14) (size 15 to 20)
#    0.000    2.125    1.250    3.000    0.000    5.500 
#    0.000    4.375    0.000    1.500    0.000    0.000 
#    0.000    0.000    0.000    0.000    0.000    0.000 
#
# Total GULP energy -793806.637148 kJ/mol
# GULP energy per Si atom -12403.228705 kJ/mol
# Density = 1.821468 g / cm^3
# Si number density = 18.256231 Si / 1000 Ang^3
#
#
#
# Elastic Constant Matrix: (Units=GPa)
#
#
# Indices 1 2 3 4 5 6 
#
# 1 85.4421 52.1237 52.2941 0.0000 0.0000 0.0000
# 2 52.1237 93.5015 63.7135 0.0000 0.0000 0.0000
# 3 52.2941 63.7135 107.5749 0.0000 0.0000 0.0000
# 4 0.0000 0.0000 0.0000 34.9977 0.0000 0.0000
# 5 0.0000 0.0000 0.0000 0.0000 31.1207 0.0000
# 6 0.0000 0.0000 0.0000 0.0000 0.0000 24.3887
#
#
#
# Elastic Compliance Matrix: (Units=1/GPa)
#
#
# Indices 1 2 3 4 5 6 
#
# 1 0.019231 -0.007294 -0.005029 0.000000 0.000000 0.000000
# 2 -0.007294 0.020699 -0.008713 0.000000 0.000000 0.000000
# 3 -0.005029 -0.008713 0.016901 0.000000 0.000000 0.000000
# 4 0.000000 0.000000 0.000000 0.028573 0.000000 0.000000
# 5 0.000000 0.000000 0.000000 0.000000 0.032133 0.000000
# 6 0.000000 0.000000 0.000000 0.000000 0.000000 0.041003
#
#
# Mechanical properties :
#
#
# Convention : Reuss Voigt Hill
#
# Bulk Modulus (GPa) = 67.75651 69.19790 68.47721
# Shear Modulus (GPa) = 24.32712 25.99389 25.16051
#
# Velocity S-wave (km/s) = 3.65435 3.77747 3.71642
# Velocity P-wave (km/s) = 7.41623 7.55061 7.48372
#
# Compressibility (1/GPa) = 0.01475873
#
# Stress axis : x y z
#
# Youngs Moduli (GPa) = 51.99854 48.31208 59.16803
#
# Poissons Ratio (x) = 0.35240 0.29753
# Poissons Ratio (y) = 0.37929 0.51556
# Poissons Ratio (z) = 0.26148 0.42096
#
# Static dielectric constant tensor:
#      x y z
#    x 3.333340 0.000000 0.000000 
#    y 0.000000 3.439220 0.000000 
#    z 0.000000 0.000000 3.406300 
# 
# 
# High freq. dielectric constant tensor:
#      x y z
#    x 1.709500 0.000000 0.000000 
#    y 0.000000 1.710830 0.000000 
#    z 0.000000 0.000000 1.698080 
# 
# From -- ./inp_files/31238.got.cif
#   From: 2010.03.12/outbox.cif.g09.slc.cpg/sg53_16_cif.got.tgz:31238.got - 2010.04.16 14:36:59.
