data_PCOD8220939
_publ_section_title
;
Structure prediction by ZEFSAII (Michael W. Deem and Ramdas Pophale) SiO2 
 PCOD8220939
Probable space group: P M N A
;
_chemical_formula_sum "Si O2"
_cell_formula_units_Z 48
_cell_length_a 17.913828
_cell_length_b 9.273380
_cell_length_c 14.217363
_cell_angle_alpha 90.000000
_cell_angle_beta 90.000000
_cell_angle_gamma 90.000000
_cell_volume 2361.812999
_symmetry_space_group_name_H-M "P M N A"
_symmetry_group_IT_number 53
_symmetry_cell_setting 'orthorhombic'
loop_
_space_group_symop_operation_xyz
x,y,z
1/2-x,-y,1/2+z
x,-y,-z
1/2-x,y,1/2-z
-x,-y,-z
1/2+x,y,1/2-z
-x,y,z
1/2+x,-y,1/2+z
loop_
_atom_site_type_symbol
_atom_site_label
_atom_site_fract_x
_atom_site_fract_y
_atom_site_fract_z
Si Si1 0.417547 0.147012 0.550471
Si Si2 0.580397 0.606732 0.580349
Si Si3 0.663561 0.461105 0.746466
Si Si4 0.336327 0.872603 0.255524
Si Si5 0.911755 0.603382 0.582332
Si Si6 0.411810 0.070021 0.097444
O O1 0.500000 0.205560 0.583507
O O2 0.382074 0.254580 0.471554
O O3 0.363616 0.115649 0.637575
O O4 0.430955 0.000000 0.500000
O O5 0.558170 0.500000 0.500000
O O6 0.500000 0.649504 0.629597
O O7 0.637055 0.520611 0.646452
O O8 0.750000 0.501272 0.750000
O O9 0.649824 0.293776 0.770469
O O10 0.612632 0.542312 0.819289
O O11 0.250000 0.914242 0.250000
O O12 0.378054 0.982855 0.185784
O O13 0.877807 0.500000 0.500000
O O14 0.881328 0.767182 0.584680
O O15 0.000000 0.605096 0.571964
O O16 0.500000 0.066546 0.112963
O O17 0.387071 0.000000 0.000000
#
# Coordination Sequence:
#
# PCOD8220939 Si02
#       6
#     8   8   8   8   8   8
#     4  10  22  40  63  90 122 160 207 262 311 366
#     4  10  20  38  63  88 117 161 209 254 308 369
#     4  11  24  40  59  90 127 165 204 254 314 374
#     4  11  24  41  60  90 128 166 206 251 315 377
#     4  10  22  41  65  92 120 158 208 257 305 363
#     4  10  22  41  65  90 119 159 206 256 308 363
#
# _framework density 20.323370000000001
#
# number of rings (size 3 to 8) (size 9 to 14) (size 15 to 20)
#    0.000    1.667    1.667    2.000    2.333    5.333 
#    3.000    0.000    0.000    0.000    0.000    0.000 
#    0.000    0.000    0.000    0.000    0.000    0.000 
#
# Total GULP energy -594676.076979 kJ/mol
# GULP energy per Si atom -12389.084937 kJ/mol
# Density = 2.027711 g / cm^3
# Si number density = 20.323370 Si / 1000 Ang^3
#
#
#
# Elastic Constant Matrix: (Units=GPa)
#
#
# Indices 1 2 3 4 5 6 
#
# 1 67.5726 29.8966 39.2270 0.0000 0.0000 0.0000
# 2 29.8966 139.1213 49.8740 0.0000 0.0000 0.0000
# 3 39.2270 49.8740 81.0856 0.0000 0.0000 0.0000
# 4 0.0000 0.0000 0.0000 61.3418 0.0000 0.0000
# 5 0.0000 0.0000 0.0000 0.0000 27.0332 0.0000
# 6 0.0000 0.0000 0.0000 0.0000 0.0000 1.9894
#
#
#
# Elastic Compliance Matrix: (Units=1/GPa)
#
#
# Indices 1 2 3 4 5 6 
#
# 1 0.020709 -0.001102 -0.009341 0.000000 0.000000 0.000000
# 2 -0.001102 0.009280 -0.005175 0.000000 0.000000 0.000000
# 3 -0.009341 -0.005175 0.020034 0.000000 0.000000 0.000000
# 4 0.000000 0.000000 0.000000 0.016302 0.000000 0.000000
# 5 0.000000 0.000000 0.000000 0.000000 0.036992 0.000000
# 6 0.000000 0.000000 0.000000 0.000000 0.000000 0.502666
#
#
# Mechanical properties :
#
#
# Convention : Reuss Voigt Hill
#
# Bulk Modulus (GPa) = 53.22412 58.41941 55.82177
# Shear Modulus (GPa) = 7.77025 29.32500 18.54763
#
# Velocity S-wave (km/s) = 1.95745 3.80270 3.02425
# Velocity P-wave (km/s) = 5.59949 6.93455 6.30247
#
# Compressibility (1/GPa) = 0.01878847
#
# Stress axis : x y z
#
# Youngs Moduli (GPa) = 48.28872 107.76001 49.91408
#
# Poissons Ratio (x) = 0.11871 0.46624
# Poissons Ratio (y) = 0.05320 0.25830
# Poissons Ratio (z) = 0.45105 0.55765
#
# Static dielectric constant tensor:
#      x y z
#    x 3.601420 0.000000 0.000000 
#    y 0.000000 3.370850 0.000000 
#    z 0.000000 0.000000 3.525990 
# 
# 
# High freq. dielectric constant tensor:
#      x y z
#    x 1.779020 0.000000 0.000000 
#    y 0.000000 1.814790 0.000000 
#    z 0.000000 0.000000 1.796060 
# 
# From -- ./inp_files/23673.got.cif
#   From: 2010.03.12/outbox.cif.g09.slc.cpg/sg53_12_cif.got.tgz:23673.got - 2010.04.16 14:36:59.
