data_PCOD8220857
_publ_section_title
;
Structure prediction by ZEFSAII (Michael W. Deem and Ramdas Pophale) SiO2 
 PCOD8220857
Probable space group: P M N A
;
_chemical_formula_sum "Si O2"
_cell_formula_units_Z 32
_cell_length_a 8.831260
_cell_length_b 7.612248
_cell_length_c 23.288632
_cell_angle_alpha 90.000000
_cell_angle_beta 90.000000
_cell_angle_gamma 90.000000
_cell_volume 1565.595549
_symmetry_space_group_name_H-M "P M N A"
_symmetry_group_IT_number 53
_symmetry_cell_setting 'orthorhombic'
loop_
_space_group_symop_operation_xyz
x,y,z
1/2-x,-y,1/2+z
x,-y,-z
1/2-x,y,1/2-z
-x,-y,-z
1/2+x,y,1/2-z
-x,y,z
1/2+x,-y,1/2+z
loop_
_atom_site_type_symbol
_atom_site_label
_atom_site_fract_x
_atom_site_fract_y
_atom_site_fract_z
Si Si1 0.321558 0.996629 0.809934
Si Si2 0.176631 0.202371 0.002005
Si Si3 0.677883 0.324707 0.371422
Si Si4 0.322412 0.319966 0.889069
O O1 0.250000 0.055660 0.750000
O O2 0.500000 0.981903 0.803120
O O3 0.256942 0.808877 0.828170
O O4 0.274856 0.141701 0.856888
O O5 0.270442 0.309012 0.954958
O O6 0.000000 0.228651 0.988424
O O7 0.222000 0.277678 0.063536
O O8 0.223989 0.000000 0.000000
O O9 0.500000 0.314540 0.360874
O O10 0.738347 0.519054 0.357756
O O11 0.500000 0.354231 0.886188
#
# Coordination Sequence:
#
# PCOD8220857 Si02
#       4
#     8   8   8   8
#     4  11  25  44  65  89 120 160 207 256 307 361
#     4  10  20  37  62  92 126 164 205 247 305 373
#     4  11  23  40  65  93 125 164 204 252 305 366
#     4  11  24  40  62  93 128 163 203 255 309 367
#
# _framework density 20.439506999999999
#
# number of rings (size 3 to 8) (size 9 to 14) (size 15 to 20)
#    0.000    1.250    2.500    3.000    0.000    9.500 
#    0.000    2.500    0.000    0.000    0.000    0.000 
#    0.000    0.000    0.000    0.000    0.000    0.000 
#
# Total GULP energy -397058.874713 kJ/mol
# GULP energy per Si atom -12408.089835 kJ/mol
# Density = 2.039299 g / cm^3
# Si number density = 20.439507 Si / 1000 Ang^3
#
#
#
# Elastic Constant Matrix: (Units=GPa)
#
#
# Indices 1 2 3 4 5 6 
#
# 1 77.8570 31.5414 38.5139 0.0000 0.0000 0.0000
# 2 31.5414 97.2090 10.6953 0.0000 0.0000 0.0000
# 3 38.5139 10.6953 77.1769 0.0000 0.0000 0.0000
# 4 0.0000 0.0000 0.0000 17.2081 0.0000 0.0000
# 5 0.0000 0.0000 0.0000 0.0000 34.9219 0.0000
# 6 0.0000 0.0000 0.0000 0.0000 0.0000 37.7302
#
#
#
# Elastic Compliance Matrix: (Units=1/GPa)
#
#
# Indices 1 2 3 4 5 6 
#
# 1 0.019431 -0.005319 -0.008960 0.000000 0.000000 0.000000
# 2 -0.005319 0.011902 0.001005 0.000000 0.000000 0.000000
# 3 -0.008960 0.001005 0.017289 0.000000 0.000000 0.000000
# 4 0.000000 0.000000 0.000000 0.058112 0.000000 0.000000
# 5 0.000000 0.000000 0.000000 0.000000 0.028635 0.000000
# 6 0.000000 0.000000 0.000000 0.000000 0.000000 0.026504
#
#
# Mechanical properties :
#
#
# Convention : Reuss Voigt Hill
#
# Bulk Modulus (GPa) = 45.29985 45.97156 45.63570
# Shear Modulus (GPa) = 25.53889 29.40485 27.47187
#
# Velocity S-wave (km/s) = 3.53864 3.79704 3.67012
# Velocity P-wave (km/s) = 6.23755 6.46248 6.35101
#
# Compressibility (1/GPa) = 0.02207513
#
# Stress axis : x y z
#
# Youngs Moduli (GPa) = 51.46419 84.01655 57.83981
#
# Poissons Ratio (x) = 0.44689 0.51822
# Poissons Ratio (y) = 0.27374 -0.05812
# Poissons Ratio (z) = 0.46110 -0.08443
#
# Static dielectric constant tensor:
#      x y z
#    x 3.639440 0.000000 0.000000 
#    y 0.000000 3.844290 0.000000 
#    z 0.000000 0.000000 3.712480 
# 
# 
# High freq. dielectric constant tensor:
#      x y z
#    x 1.802990 0.000000 0.000000 
#    y 0.000000 1.814290 0.000000 
#    z 0.000000 0.000000 1.794780 
# 
# From -- ./inp_files/30015.got.cif
#   From: 2010.03.12/outbox.cif.g09.slc.cpg/sg53_16_cif.got.tgz:30015.got - 2010.04.16 14:36:59.
