data_PCOD8220365
_publ_section_title
;
Structure prediction by ZEFSAII (Michael W. Deem and Ramdas Pophale) SiO2 
 PCOD8220365
Probable space group: P M N A
;
_chemical_formula_sum "Si O2"
_cell_formula_units_Z 48
_cell_length_a 8.683341
_cell_length_b 30.571876
_cell_length_c 9.074704
_cell_angle_alpha 90.000000
_cell_angle_beta 90.000000
_cell_angle_gamma 90.000000
_cell_volume 2409.025593
_symmetry_space_group_name_H-M "P M N A"
_symmetry_group_IT_number 53
_symmetry_cell_setting 'orthorhombic'
loop_
_space_group_symop_operation_xyz
x,y,z
1/2-x,-y,1/2+z
x,-y,-z
1/2-x,y,1/2-z
-x,-y,-z
1/2+x,y,1/2-z
-x,y,z
1/2+x,-y,1/2+z
loop_
_atom_site_type_symbol
_atom_site_label
_atom_site_fract_x
_atom_site_fract_y
_atom_site_fract_z
Si Si1 0.682419 0.375380 0.408920
Si Si2 0.319936 0.284432 0.092687
Si Si3 0.818152 0.121355 0.089663
Si Si4 0.182124 0.541508 0.090179
Si Si5 0.322212 0.956324 0.092511
Si Si6 0.319766 0.199541 0.911167
O O1 0.750000 0.386038 0.250000
O O2 0.500000 0.373222 0.398503
O O3 0.745501 0.329107 0.468064
O O4 0.739902 0.413559 0.516612
O O5 0.250000 0.270508 0.250000
O O6 0.500000 0.291645 0.116528
O O7 0.284704 0.247967 0.970577
O O8 0.750000 0.112498 0.250000
O O9 0.000000 0.123622 0.102967
O O10 0.771122 0.082452 0.982320
O O11 0.757042 0.166673 0.025621
O O12 0.250000 0.538435 0.250000
O O13 0.000000 0.540332 0.098689
O O14 0.245412 0.500000 0.000000
O O15 0.250000 0.965934 0.250000
O O16 0.500000 0.942422 0.107359
O O17 0.302643 0.000000 0.000000
O O18 0.250000 0.193589 0.750000
O O19 0.500000 0.189558 0.903439
#
# Coordination Sequence:
#
# PCOD8220365 Si02
#       6
#     8   8   8   8   8   8
#     4  10  20  35  57  83 112 146 186 232 281 337
#     4  10  21  37  59  85 114 150 191 235 285 342
#     4  12  25  42  65  91 122 158 199 247 297 352
#     4  10  22  38  56  81 111 145 186 230 279 335
#     4  11  24  42  65  93 126 163 203 247 296 350
#     4  11  24  41  61  87 119 156 197 242 294 348
#
# _framework density 19.925069000000001
#
# number of rings (size 3 to 8) (size 9 to 14) (size 15 to 20)
#    0.000    1.333    0.000    6.500    0.000    9.000 
#    0.000    3.333    0.000    0.000    0.000    0.000 
#    0.000    0.000    0.000    0.000    0.000    0.000 
#
# Total GULP energy -595453.995985 kJ/mol
# GULP energy per Si atom -12405.291583 kJ/mol
# Density = 1.987972 g / cm^3
# Si number density = 19.925069 Si / 1000 Ang^3
#
#
#
# Elastic Constant Matrix: (Units=GPa)
#
#
# Indices 1 2 3 4 5 6 
#
# 1 119.8445 55.9693 45.8906 0.0000 0.0000 0.0000
# 2 55.9693 115.3183 52.7887 0.0000 0.0000 0.0000
# 3 45.8906 52.7887 122.2797 0.0000 0.0000 0.0000
# 4 0.0000 0.0000 0.0000 62.4826 0.0000 0.0000
# 5 0.0000 0.0000 0.0000 0.0000 30.6550 0.0000
# 6 0.0000 0.0000 0.0000 0.0000 0.0000 31.3915
#
#
#
# Elastic Compliance Matrix: (Units=1/GPa)
#
#
# Indices 1 2 3 4 5 6 
#
# 1 0.011300 -0.004416 -0.002335 0.000000 0.000000 0.000000
# 2 -0.004416 0.012533 -0.003753 0.000000 0.000000 0.000000
# 3 -0.002335 -0.003753 0.010674 0.000000 0.000000 0.000000
# 4 0.000000 0.000000 0.000000 0.016004 0.000000 0.000000
# 5 0.000000 0.000000 0.000000 0.000000 0.032621 0.000000
# 6 0.000000 0.000000 0.000000 0.000000 0.000000 0.031856
#
#
# Mechanical properties :
#
#
# Convention : Reuss Voigt Hill
#
# Bulk Modulus (GPa) = 74.07262 74.08219 74.07740
# Shear Modulus (GPa) = 35.58800 38.42542 37.00671
#
# Velocity S-wave (km/s) = 4.23080 4.39623 4.31431
# Velocity P-wave (km/s) = 7.81809 7.93916 7.87886
#
# Compressibility (1/GPa) = 0.01350027
#
# Stress axis : x y z
#
# Youngs Moduli (GPa) = 88.49242 79.78916 93.68168
#
# Poissons Ratio (x) = 0.35234 0.21871
# Poissons Ratio (y) = 0.39077 0.35162
# Poissons Ratio (z) = 0.20659 0.29947
#
# Static dielectric constant tensor:
#      x y z
#    x 3.771590 0.000000 0.000000 
#    y 0.000000 4.014850 0.000000 
#    z 0.000000 0.000000 3.664850 
# 
# 
# High freq. dielectric constant tensor:
#      x y z
#    x 1.790570 0.000000 0.000000 
#    y 0.000000 1.796040 0.000000 
#    z 0.000000 0.000000 1.783670 
# 
# From -- ./inp_files/6699.got.cif
#   From: 2010.03.12/outbox.cif.g09.slc.cpg/sg53_4_cif.got.tgz:6699.got - 2010.04.16 14:36:59.
