data_PCOD8220790
_publ_section_title
;
Structure prediction by ZEFSAII (Michael W. Deem and Ramdas Pophale) SiO2 
 PCOD8220790
Probable space group: P M N A
;
_chemical_formula_sum "Si O2"
_cell_formula_units_Z 48
_cell_length_a 17.263358
_cell_length_b 15.644451
_cell_length_c 8.651335
_cell_angle_alpha 90.000000
_cell_angle_beta 90.000000
_cell_angle_gamma 90.000000
_cell_volume 2336.515861
_symmetry_space_group_name_H-M "P M N A"
_symmetry_group_IT_number 53
_symmetry_cell_setting 'orthorhombic'
loop_
_space_group_symop_operation_xyz
x,y,z
1/2-x,-y,1/2+z
x,-y,-z
1/2-x,y,1/2-z
-x,-y,-z
1/2+x,y,1/2-z
-x,y,z
1/2+x,-y,1/2+z
loop_
_atom_site_type_symbol
_atom_site_label
_atom_site_fract_x
_atom_site_fract_y
_atom_site_fract_z
Si Si1 0.833691 0.505368 0.683361
Si Si2 0.162652 0.160548 0.186351
Si Si3 0.409902 0.666292 0.184258
Si Si4 0.664919 0.012930 0.818484
Si Si5 0.409269 0.322628 0.161217
Si Si6 0.909187 0.161576 0.861007
O O1 0.833334 0.500000 0.500000
O O2 0.750000 0.519333 0.750000
O O3 0.869322 0.418321 0.753306
O O4 0.882439 0.587978 0.736233
O O5 0.250000 0.167538 0.250000
O O6 0.125955 0.073903 0.254340
O O7 0.118077 0.244547 0.235707
O O8 0.151045 0.150827 0.002068
O O9 0.500000 0.645464 0.173074
O O10 0.391716 0.745050 0.294352
O O11 0.377094 0.687696 0.013300
O O12 0.750000 0.028037 0.750000
O O13 0.609999 0.091667 0.770543
O O14 0.670836 0.000000 0.000000
O O15 0.500000 0.321325 0.162161
O O16 0.000000 0.152895 0.908872
#
# Coordination Sequence:
#
# PCOD8220790 Si02
#       6
#     8   8   8   8   8   8
#     4  10  21  36  57  84 114 150 193 242 293 351
#     4  11  23  39  59  87 122 159 200 246 299 358
#     4   9  20  38  58  83 114 151 195 242 296 352
#     4  11  23  41  64  90 122 161 204 250 303 361
#     4  10  20  37  60  84 115 155 198 245 297 355
#     4  11  24  41  63  92 125 160 202 253 304 359
#
# _framework density 20.543407999999999
#
# number of rings (size 3 to 8) (size 9 to 14) (size 15 to 20)
#    0.000    1.667    0.000    5.000    0.000    9.000 
#    0.000    0.000    0.000    4.000    0.000    0.000 
#    0.000    0.000    0.000    0.000    0.000    0.000 
#
# Total GULP energy -595150.746609 kJ/mol
# GULP energy per Si atom -12398.973888 kJ/mol
# Density = 2.049665 g / cm^3
# Si number density = 20.543408 Si / 1000 Ang^3
#
#
#
# Elastic Constant Matrix: (Units=GPa)
#
#
# Indices 1 2 3 4 5 6 
#
# 1 68.3663 46.3929 42.7545 0.0000 0.0000 0.0000
# 2 46.3929 147.8549 48.4692 0.0000 0.0000 0.0000
# 3 42.7545 48.4692 102.0776 0.0000 0.0000 0.0000
# 4 0.0000 0.0000 0.0000 38.9775 0.0000 0.0000
# 5 0.0000 0.0000 0.0000 0.0000 29.2408 0.0000
# 6 0.0000 0.0000 0.0000 0.0000 0.0000 61.0823
#
#
#
# Elastic Compliance Matrix: (Units=1/GPa)
#
#
# Indices 1 2 3 4 5 6 
#
# 1 0.022219 -0.004644 -0.007101 0.000000 0.000000 0.000000
# 2 -0.004644 0.008981 -0.002319 0.000000 0.000000 0.000000
# 3 -0.007101 -0.002319 0.013872 0.000000 0.000000 0.000000
# 4 0.000000 0.000000 0.000000 0.025656 0.000000 0.000000
# 5 0.000000 0.000000 0.000000 0.000000 0.034199 0.000000
# 6 0.000000 0.000000 0.000000 0.000000 0.000000 0.016371
#
#
# Mechanical properties :
#
#
# Convention : Reuss Voigt Hill
#
# Bulk Modulus (GPa) = 59.02076 65.94802 62.48439
# Shear Modulus (GPa) = 32.24241 37.90561 35.07401
#
# Velocity S-wave (km/s) = 3.96596 4.30018 4.13645
# Velocity P-wave (km/s) = 7.05436 7.53836 7.30037
#
# Compressibility (1/GPa) = 0.01694319
#
# Stress axis : x y z
#
# Youngs Moduli (GPa) = 45.00553 111.34846 72.08712
#
# Poissons Ratio (x) = 0.51709 0.51192
# Poissons Ratio (y) = 0.20900 0.16719
# Poissons Ratio (z) = 0.31960 0.25825
#
# Static dielectric constant tensor:
#      x y z
#    x 3.616150 0.000000 0.000000 
#    y 0.000000 4.210890 0.000000 
#    z 0.000000 0.000000 3.717350 
# 
# 
# High freq. dielectric constant tensor:
#      x y z
#    x 1.796480 0.000000 0.000000 
#    y 0.000000 1.828800 0.000000 
#    z 0.000000 0.000000 1.798210 
# 
# From -- ./inp_files/9953.got.cif
#   From: 2010.03.12/outbox.cif.g09.slc.cpg/sg53_5_cif.got.tgz:9953.got - 2010.04.16 14:36:59.
