data_PCOD8220505
_publ_section_title
;
Structure prediction by ZEFSAII (Michael W. Deem and Ramdas Pophale) SiO2 
 PCOD8220505
Probable space group: P M N A
;
_chemical_formula_sum "Si O2"
_cell_formula_units_Z 40
_cell_length_a 8.927577
_cell_length_b 24.848780
_cell_length_c 9.769114
_cell_angle_alpha 90.000000
_cell_angle_beta 90.000000
_cell_angle_gamma 90.000000
_cell_volume 2167.174357
_symmetry_space_group_name_H-M "P M N A"
_symmetry_group_IT_number 53
_symmetry_cell_setting 'orthorhombic'
loop_
_space_group_symop_operation_xyz
x,y,z
1/2-x,-y,1/2+z
x,-y,-z
1/2-x,y,1/2-z
-x,-y,-z
1/2+x,y,1/2-z
-x,y,z
1/2+x,-y,1/2+z
loop_
_atom_site_type_symbol
_atom_site_label
_atom_site_fract_x
_atom_site_fract_y
_atom_site_fract_z
Si Si1 0.322023 0.245513 0.899296
Si Si2 0.823174 0.835499 0.894471
Si Si3 0.176674 0.541942 0.610368
Si Si4 0.674601 0.040931 0.388754
Si Si5 0.175037 0.663340 0.609463
O O1 0.250000 0.249488 0.750000
O O2 0.500000 0.238185 0.886073
O O3 0.252668 0.195559 0.980524
O O4 0.278253 0.299387 0.982432
O O5 0.750000 0.817930 0.750000
O O6 0.787512 0.897644 0.926521
O O7 0.000000 0.823559 0.887649
O O8 0.238779 0.500000 0.500000
O O9 0.250000 0.523013 0.750000
O O10 0.226971 0.602703 0.572580
O O11 0.000000 0.538023 0.624967
O O12 0.750000 0.022997 0.250000
O O13 0.500000 0.032488 0.370592
O O14 0.740915 0.000000 0.500000
O O15 0.250000 0.683811 0.750000
O O16 0.000000 0.666207 0.636708
#
# Coordination Sequence:
#
# PCOD8220505 Si02
#       5
#     8   8   8   8   8
#     4  11  23  37  53  76 106 137 172 215 263 310
#     4  10  20  36  57  79 105 138 176 214 255 307
#     4   9  18  33  52  75 103 133 168 209 252 301
#     4   9  19  35  54  78 106 136 171 210 253 302
#     4   9  19  35  54  75 100 134 172 209 252 304
#
# _framework density 18.457215000000001
#
# number of rings (size 3 to 8) (size 9 to 14) (size 15 to 20)
#    0.000    2.400    0.000    1.800    0.000    6.400 
#    0.000    2.000    0.000    0.000    0.000    0.000 
#    0.000    0.000    0.000    0.000    0.000    0.000 
#
# Total GULP energy -496023.824820 kJ/mol
# GULP energy per Si atom -12400.595621 kJ/mol
# Density = 1.841521 g / cm^3
# Si number density = 18.457215 Si / 1000 Ang^3
#
#
#
# Elastic Constant Matrix: (Units=GPa)
#
#
# Indices 1 2 3 4 5 6 
#
# 1 56.7560 46.2647 63.7424 0.0000 0.0000 0.0000
# 2 46.2647 113.2983 103.7367 0.0000 0.0000 0.0000
# 3 63.7424 103.7367 188.3638 0.0000 0.0000 0.0000
# 4 0.0000 0.0000 0.0000 42.6724 0.0000 0.0000
# 5 0.0000 0.0000 0.0000 0.0000 37.9422 0.0000
# 6 0.0000 0.0000 0.0000 0.0000 0.0000 28.4452
#
#
#
# Elastic Compliance Matrix: (Units=1/GPa)
#
#
# Indices 1 2 3 4 5 6 
#
# 1 0.030332 -0.006027 -0.006945 0.000000 0.000000 0.000000
# 2 -0.006027 0.019001 -0.008425 0.000000 0.000000 0.000000
# 3 -0.006945 -0.008425 0.012299 0.000000 0.000000 0.000000
# 4 0.000000 0.000000 0.000000 0.023434 0.000000 0.000000
# 5 0.000000 0.000000 0.000000 0.000000 0.026356 0.000000
# 6 0.000000 0.000000 0.000000 0.000000 0.000000 0.035155
#
#
# Mechanical properties :
#
#
# Convention : Reuss Voigt Hill
#
# Bulk Modulus (GPa) = 53.08330 87.32287 70.20308
# Shear Modulus (GPa) = 25.55557 31.45691 28.50624
#
# Velocity S-wave (km/s) = 3.72504 4.13281 3.93421
# Velocity P-wave (km/s) = 6.87923 8.37778 7.66521
#
# Compressibility (1/GPa) = 0.01883832
#
# Stress axis : x y z
#
# Youngs Moduli (GPa) = 32.96810 52.62808 81.30702
#
# Poissons Ratio (x) = 0.31718 0.56471
# Poissons Ratio (y) = 0.19869 0.68501
# Poissons Ratio (z) = 0.22898 0.44339
#
# Static dielectric constant tensor:
#      x y z
#    x 3.380720 0.000000 0.000000 
#    y 0.000000 3.682880 0.000000 
#    z 0.000000 0.000000 3.453420 
# 
# 
# High freq. dielectric constant tensor:
#      x y z
#    x 1.716910 0.000000 0.000000 
#    y 0.000000 1.725820 0.000000 
#    z 0.000000 0.000000 1.715390 
# 
# From -- ./inp_files/6247.got.cif
#   From: 2010.03.12/outbox.cif.g09.slc.cpg/sg53_4_cif.got.tgz:6247.got - 2010.04.16 14:36:59.
