data_PCOD8220618
_publ_section_title
;
Structure prediction by ZEFSAII (Michael W. Deem and Ramdas Pophale) SiO2 
 PCOD8220618
Probable space group: P M N A
;
_chemical_formula_sum "Si O2"
_cell_formula_units_Z 48
_cell_length_a 8.872014
_cell_length_b 17.161387
_cell_length_c 15.640849
_cell_angle_alpha 90.000000
_cell_angle_beta 90.000000
_cell_angle_gamma 90.000000
_cell_volume 2381.414133
_symmetry_space_group_name_H-M "P M N A"
_symmetry_group_IT_number 53
_symmetry_cell_setting 'orthorhombic'
loop_
_space_group_symop_operation_xyz
x,y,z
1/2-x,-y,1/2+z
x,-y,-z
1/2-x,y,1/2-z
-x,-y,-z
1/2+x,y,1/2-z
-x,y,z
1/2+x,-y,1/2+z
loop_
_atom_site_type_symbol
_atom_site_label
_atom_site_fract_x
_atom_site_fract_y
_atom_site_fract_z
Si Si1 0.333260 0.008496 0.601542
Si Si2 0.820581 0.412099 0.998920
Si Si3 0.320970 0.686561 0.337060
Si Si4 0.824101 0.159534 0.087335
Si Si5 0.175468 0.321056 0.163297
Si Si6 0.323504 0.162296 0.905444
O O1 0.500000 0.030743 0.634946
O O2 0.284683 0.922302 0.635242
O O3 0.334596 0.000000 0.500000
O O4 0.218743 0.076082 0.630503
O O5 0.757332 0.368217 0.082707
O O6 0.000000 0.410838 0.999698
O O7 0.757844 0.500000 0.000000
O O8 0.762417 0.367728 0.914514
O O9 0.250000 0.652517 0.250000
O O10 0.500000 0.686313 0.330521
O O11 0.263915 0.774447 0.349548
O O12 0.788836 0.229486 0.151994
O O13 0.000000 0.160551 0.058602
O O14 0.723460 0.171143 0.003689
O O15 0.250000 0.351771 0.250000
O O16 0.000000 0.337573 0.170937
O O17 0.500000 0.175486 0.895176
#
# Coordination Sequence:
#
# PCOD8220618 Si02
#       6
#     8   8   8   8   8   8
#     4   8  15  28  49  75 107 149 196 238 286 338
#     4   9  19  38  64  88 114 151 188 227 284 351
#     4  11  22  39  61  86 118 153 194 237 285 345
#     4   9  17  33  54  77 109 155 198 238 288 342
#     4  10  20  36  58  86 117 151 190 230 281 337
#     4  11  20  31  52  82 115 150 194 241 290 338
#
# _framework density 20.156091
#
# number of rings (size 3 to 8) (size 9 to 14) (size 15 to 20)
#    0.000    2.333    1.667    3.000    0.000    4.333 
#    0.000    0.833    0.000    5.500    0.000    0.000 
#    0.000    0.000    0.000    0.000    0.000    0.000 
#
# Total GULP energy -595091.259082 kJ/mol
# GULP energy per Si atom -12397.734564 kJ/mol
# Density = 2.011022 g / cm^3
# Si number density = 20.156091 Si / 1000 Ang^3
#
#
#
# Elastic Constant Matrix: (Units=GPa)
#
#
# Indices 1 2 3 4 5 6 
#
# 1 68.3048 32.5426 36.1295 0.0000 0.0000 0.0000
# 2 32.5426 147.0724 66.1528 0.0000 0.0000 0.0000
# 3 36.1295 66.1528 130.3171 0.0000 0.0000 0.0000
# 4 0.0000 0.0000 0.0000 10.5288 0.0000 0.0000
# 5 0.0000 0.0000 0.0000 0.0000 28.6359 0.0000
# 6 0.0000 0.0000 0.0000 0.0000 0.0000 13.7930
#
#
#
# Elastic Compliance Matrix: (Units=1/GPa)
#
#
# Indices 1 2 3 4 5 6 
#
# 1 0.017696 -0.002214 -0.003782 0.000000 0.000000 0.000000
# 2 -0.002214 0.009088 -0.004000 0.000000 0.000000 0.000000
# 3 -0.003782 -0.004000 0.010752 0.000000 0.000000 0.000000
# 4 0.000000 0.000000 0.000000 0.094978 0.000000 0.000000
# 5 0.000000 0.000000 0.000000 0.000000 0.034921 0.000000
# 6 0.000000 0.000000 0.000000 0.000000 0.000000 0.072500
#
#
# Mechanical properties :
#
#
# Convention : Reuss Voigt Hill
#
# Bulk Modulus (GPa) = 56.99747 68.37157 62.68452
# Shear Modulus (GPa) = 18.81283 24.64950 21.73117
#
# Velocity S-wave (km/s) = 3.05840 3.50084 3.28707
# Velocity P-wave (km/s) = 6.38837 7.09477 6.75082
#
# Compressibility (1/GPa) = 0.01754464
#
# Stress axis : x y z
#
# Youngs Moduli (GPa) = 56.51092 110.03083 93.00244
#
# Poissons Ratio (x) = 0.24365 0.35173
# Poissons Ratio (y) = 0.12514 0.37197
# Poissons Ratio (z) = 0.21372 0.44008
#
# Static dielectric constant tensor:
#      x y z
#    x 3.335120 0.000000 0.000000 
#    y 0.000000 4.063610 0.000000 
#    z 0.000000 0.000000 3.490630 
# 
# 
# High freq. dielectric constant tensor:
#      x y z
#    x 1.758530 0.000000 0.000000 
#    y 0.000000 1.795970 0.000000 
#    z 0.000000 0.000000 1.768080 
# 
# From -- ./inp_files/20209.got.cif
#   From: 2010.03.12/outbox.cif.g09.slc.cpg/sg53_11_cif.got.tgz:20209.got - 2010.04.16 14:36:59.
