data_PCOD8220179
_publ_section_title
;
Structure prediction by ZEFSAII (Michael W. Deem and Ramdas Pophale) SiO2 
 PCOD8220179
Probable space group: P M N A
;
_chemical_formula_sum "Si O2"
_cell_formula_units_Z 64
_cell_length_a 9.072241
_cell_length_b 15.201962
_cell_length_c 23.587170
_cell_angle_alpha 90.000000
_cell_angle_beta 90.000000
_cell_angle_gamma 90.000000
_cell_volume 3253.044905
_symmetry_space_group_name_H-M "P M N A"
_symmetry_group_IT_number 53
_symmetry_cell_setting 'orthorhombic'
loop_
_space_group_symop_operation_xyz
x,y,z
1/2-x,-y,1/2+z
x,-y,-z
1/2-x,y,1/2-z
-x,-y,-z
1/2+x,y,1/2-z
-x,y,z
1/2+x,-y,1/2+z
loop_
_atom_site_type_symbol
_atom_site_label
_atom_site_fract_x
_atom_site_fract_y
_atom_site_fract_z
Si Si1 0.835539 0.871408 0.022924
Si Si2 0.672557 0.224490 0.808602
Si Si3 0.673847 0.613672 0.113605
Si Si4 0.330124 0.117151 0.392859
Si Si5 0.671291 0.701360 0.892760
Si Si6 0.669529 0.454107 0.190778
Si Si7 0.830189 0.332556 0.994548
Si Si8 0.172736 0.946945 0.374858
O O1 0.813226 0.767593 0.024637
O O2 0.713837 0.916005 0.062023
O O3 0.000000 0.896378 0.044517
O O4 0.813681 0.906071 0.959188
O O5 0.750000 0.246537 0.750000
O O6 0.500000 0.229100 0.797844
O O7 0.720195 0.296752 0.854668
O O8 0.720837 0.128348 0.830579
O O9 0.500000 0.609644 0.101823
O O10 0.730022 0.531652 0.150648
O O11 0.756860 0.607062 0.053524
O O12 0.500000 0.128898 0.375423
O O13 0.246391 0.206398 0.377355
O O14 0.258316 0.036337 0.358242
O O15 0.500000 0.716838 0.906744
O O16 0.694134 0.639650 0.838626
O O17 0.746107 0.653686 0.946322
O O18 0.750000 0.455072 0.250000
O O19 0.500000 0.472689 0.203425
O O20 0.000000 0.359289 0.002971
O O21 0.000000 0.965440 0.372899
#
# Coordination Sequence:
#
# PCOD8220179 Si02
#       8
#     8   8   8   8   8   8   8   8
#     4   9  18  32  50  77 113 148 185 227 276 333
#     4  10  22  37  55  80 112 151 193 236 284 340
#     4  10  20  38  60  86 119 152 189 235 288 351
#     4  10  21  36  55  82 113 148 189 234 284 338
#     4  10  21  39  60  85 117 153 192 241 294 348
#     4  10  23  41  64  89 114 149 195 243 295 346
#     4  10  20  34  56  88 121 157 193 232 286 345
#     4  11  21  33  52  81 111 147 191 232 280 336
#
# _framework density 19.673876
#
# number of rings (size 3 to 8) (size 9 to 14) (size 15 to 20)
#    0.000    2.000    1.250    3.000    0.000    7.500 
#    0.000    3.125    0.000    0.000    0.000    0.000 
#    0.000    0.000    0.000    0.000    0.000    0.000 
#
# Total GULP energy -793814.559479 kJ/mol
# GULP energy per Si atom -12403.352492 kJ/mol
# Density = 1.962910 g / cm^3
# Si number density = 19.673876 Si / 1000 Ang^3
#
#
#
# Elastic Constant Matrix: (Units=GPa)
#
#
# Indices 1 2 3 4 5 6 
#
# 1 90.4748 39.5779 25.2926 0.0000 0.0000 0.0000
# 2 39.5779 66.2829 22.0454 0.0000 0.0000 0.0000
# 3 25.2926 22.0454 33.7476 0.0000 0.0000 0.0000
# 4 0.0000 0.0000 0.0000 23.1228 0.0000 0.0000
# 5 0.0000 0.0000 0.0000 0.0000 34.4196 0.0000
# 6 0.0000 0.0000 0.0000 0.0000 0.0000 23.9772
#
#
#
# Elastic Compliance Matrix: (Units=1/GPa)
#
#
# Indices 1 2 3 4 5 6 
#
# 1 0.016320 -0.007253 -0.007494 0.000000 0.000000 0.000000
# 2 -0.007253 0.022497 -0.009261 0.000000 0.000000 0.000000
# 3 -0.007494 -0.009261 0.041298 0.000000 0.000000 0.000000
# 4 0.000000 0.000000 0.000000 0.043247 0.000000 0.000000
# 5 0.000000 0.000000 0.000000 0.000000 0.029053 0.000000
# 6 0.000000 0.000000 0.000000 0.000000 0.000000 0.041706
#
#
# Mechanical properties :
#
#
# Convention : Reuss Voigt Hill
#
# Bulk Modulus (GPa) = 31.15156 40.48191 35.81673
# Shear Modulus (GPa) = 19.77556 23.20986 21.49271
#
# Velocity S-wave (km/s) = 3.17388 3.43845 3.30881
# Velocity P-wave (km/s) = 5.41292 6.03200 5.73083
#
# Compressibility (1/GPa) = 0.03210112
#
# Stress axis : x y z
#
# Youngs Moduli (GPa) = 61.27328 44.44939 24.21440
#
# Poissons Ratio (x) = 0.32237 0.18146
# Poissons Ratio (y) = 0.44439 0.22425
# Poissons Ratio (z) = 0.45917 0.41164
#
# Static dielectric constant tensor:
#      x y z
#    x 3.580960 0.000000 0.000000 
#    y 0.000000 3.660350 0.000000 
#    z 0.000000 0.000000 3.346180 
# 
# 
# High freq. dielectric constant tensor:
#      x y z
#    x 1.768830 0.000000 0.000000 
#    y 0.000000 1.775740 0.000000 
#    z 0.000000 0.000000 1.747120 
# 
# From -- ./inp_files/34292.got.cif
#   From: 2010.03.12/outbox.cif.g09.slc.cpg/sg53_18_cif.got.tgz:34292.got - 2010.04.16 14:36:59.
