data_PCOD8220064
_publ_section_title
;
Structure prediction by ZEFSAII (Michael W. Deem and Ramdas Pophale) SiO2 
 PCOD8220064
Probable space group: P M N A
;
_chemical_formula_sum "Si O2"
_cell_formula_units_Z 64
_cell_length_a 8.901138
_cell_length_b 20.783981
_cell_length_c 17.977645
_cell_angle_alpha 90.000000
_cell_angle_beta 90.000000
_cell_angle_gamma 90.000000
_cell_volume 3325.883796
_symmetry_space_group_name_H-M "P M N A"
_symmetry_group_IT_number 53
_symmetry_cell_setting 'orthorhombic'
loop_
_space_group_symop_operation_xyz
x,y,z
1/2-x,-y,1/2+z
x,-y,-z
1/2-x,y,1/2-z
-x,-y,-z
1/2+x,y,1/2-z
-x,y,z
1/2+x,-y,1/2+z
loop_
_atom_site_type_symbol
_atom_site_label
_atom_site_fract_x
_atom_site_fract_y
_atom_site_fract_z
Si Si1 0.822371 0.851061 0.330589
Si Si2 0.821951 0.373844 0.171988
Si Si3 0.322859 0.613296 0.170291
Si Si4 0.677998 0.742919 0.906670
Si Si5 0.675834 0.871710 0.829739
Si Si6 0.175470 0.485237 0.415086
Si Si7 0.325107 0.010064 0.828662
Si Si8 0.821465 0.732732 0.425937
O O1 0.750000 0.841976 0.250000
O O2 0.758246 0.796662 0.385662
O O3 0.000000 0.843093 0.320810
O O4 0.780917 0.921593 0.367174
O O5 0.750000 0.395246 0.250000
O O6 0.762987 0.303622 0.150083
O O7 0.772321 0.424220 0.109160
O O8 0.000000 0.373106 0.179855
O O9 0.250000 0.621263 0.250000
O O10 0.500000 0.618605 0.179294
O O11 0.275810 0.545675 0.134766
O O12 0.261994 0.669991 0.117175
O O13 0.500000 0.731103 0.899672
O O14 0.724614 0.815800 0.886186
O O15 0.738094 0.730063 0.989798
O O16 0.750000 0.861321 0.750000
O O17 0.500000 0.868000 0.815180
O O18 0.719340 0.941712 0.867516
O O19 0.214650 0.500000 0.500000
O O20 0.000000 0.468755 0.405807
O O21 0.250000 0.009337 0.750000
O O22 0.500000 0.010894 0.814218
O O23 0.000000 0.734558 0.427477
#
# Coordination Sequence:
#
# PCOD8220064 Si02
#       8
#     8   8   8   8   8   8   8   8
#     4   9  16  28  48  72 100 134 171 211 255 306
#     4  12  25  40  59  83 110 140 178 222 265 311
#     4  10  20  34  54  78 103 133 171 211 249 296
#     4  10  20  36  55  74 101 137 176 217 265 319
#     4   9  17  29  48  72  97 128 167 212 259 308
#     4  10  21  39  62  85 111 144 176 209 257 315
#     4   8  14  25  42  68  98 127 164 208 254 303
#     4   9  18  33  52  74 101 136 173 209 256 311
#
# _framework density 19.243005
#
# number of rings (size 3 to 8) (size 9 to 14) (size 15 to 20)
#    0.000    2.375    0.000    3.000    0.000    5.250 
#    0.000    3.125    0.000    3.750    0.000    0.000 
#    0.000   11.000    0.000    0.000    0.000    0.000 
#
# Total GULP energy -793200.172632 kJ/mol
# GULP energy per Si atom -12393.752697 kJ/mol
# Density = 1.919921 g / cm^3
# Si number density = 19.243005 Si / 1000 Ang^3
#
#
#
# Elastic Constant Matrix: (Units=GPa)
#
#
# Indices 1 2 3 4 5 6 
#
# 1 41.0478 29.3071 19.7905 0.0000 0.0000 0.0000
# 2 29.3071 122.0160 24.0199 0.0000 0.0000 0.0000
# 3 19.7905 24.0199 80.7777 0.0000 0.0000 0.0000
# 4 0.0000 0.0000 0.0000 21.8000 0.0000 0.0000
# 5 0.0000 0.0000 0.0000 0.0000 24.1559 0.0000
# 6 0.0000 0.0000 0.0000 0.0000 0.0000 19.4227
#
#
#
# Elastic Compliance Matrix: (Units=1/GPa)
#
#
# Indices 1 2 3 4 5 6 
#
# 1 0.031823 -0.006489 -0.005867 0.000000 0.000000 0.000000
# 2 -0.006489 0.010028 -0.001392 0.000000 0.000000 0.000000
# 3 -0.005867 -0.001392 0.014231 0.000000 0.000000 0.000000
# 4 0.000000 0.000000 0.000000 0.045872 0.000000 0.000000
# 5 0.000000 0.000000 0.000000 0.000000 0.041398 0.000000
# 6 0.000000 0.000000 0.000000 0.000000 0.000000 0.051486
#
#
# Mechanical properties :
#
#
# Convention : Reuss Voigt Hill
#
# Bulk Modulus (GPa) = 34.98169 43.34185 39.16177
# Shear Modulus (GPa) = 21.56443 24.45732 23.01087
#
# Velocity S-wave (km/s) = 3.35122 3.56894 3.46179
# Velocity P-wave (km/s) = 5.76131 6.28931 6.03109
#
# Compressibility (1/GPa) = 0.02858638
#
# Stress axis : x y z
#
# Youngs Moduli (GPa) = 31.42349 99.71844 70.26847
#
# Poissons Ratio (x) = 0.64704 0.41228
# Poissons Ratio (y) = 0.20390 0.09783
# Poissons Ratio (z) = 0.18437 0.13883
#
# Static dielectric constant tensor:
#      x y z
#    x 3.269020 0.000000 0.000000 
#    y 0.000000 4.220170 0.000000 
#    z 0.000000 0.000000 3.401300 
# 
# 
# High freq. dielectric constant tensor:
#      x y z
#    x 1.722100 0.000000 0.000000 
#    y 0.000000 1.778200 0.000000 
#    z 0.000000 0.000000 1.731430 
# 
# From -- ./inp_files/26786.got.cif
#   From: 2010.03.12/outbox.cif.g09.slc.cpg/sg53_14_cif.got.tgz:26786.got - 2010.04.16 14:36:59.
