data_PCOD8220003
_publ_section_title
;
Structure prediction by ZEFSAII (Michael W. Deem and Ramdas Pophale) SiO2 
 PCOD8220003
Probable space group: P M N A
;
_chemical_formula_sum "Si O2"
_cell_formula_units_Z 64
_cell_length_a 9.014075
_cell_length_b 17.479461
_cell_length_c 22.264394
_cell_angle_alpha 90.000000
_cell_angle_beta 90.000000
_cell_angle_gamma 90.000000
_cell_volume 3508.004022
_symmetry_space_group_name_H-M "P M N A"
_symmetry_group_IT_number 53
_symmetry_cell_setting 'orthorhombic'
loop_
_space_group_symop_operation_xyz
x,y,z
1/2-x,-y,1/2+z
x,-y,-z
1/2-x,y,1/2-z
-x,-y,-z
1/2+x,y,1/2-z
-x,y,z
1/2+x,-y,1/2+z
loop_
_atom_site_type_symbol
_atom_site_label
_atom_site_fract_x
_atom_site_fract_y
_atom_site_fract_z
Si Si1 0.823181 0.254574 0.190478
Si Si2 0.667067 0.990274 0.070975
Si Si3 0.330661 0.417558 0.015576
Si Si4 0.326072 0.140990 0.415103
Si Si5 0.827654 0.325074 0.918968
Si Si6 0.322843 0.432215 0.689196
Si Si7 0.827672 0.590753 0.655430
Si Si8 0.827679 0.842174 0.051756
O O1 0.750000 0.216567 0.250000
O O2 0.775486 0.205088 0.132508
O O3 0.753727 0.338710 0.186147
O O4 0.000000 0.259750 0.196797
O O5 0.500000 0.988603 0.094978
O O6 0.742852 0.909487 0.086830
O O7 0.749583 0.060843 0.102780
O O8 0.676382 0.000000 0.000000
O O9 0.500000 0.417562 0.994023
O O10 0.312576 0.398821 0.084764
O O11 0.259122 0.500000 0.000000
O O12 0.247413 0.352062 0.979959
O O13 0.500000 0.127302 0.411358
O O14 0.277008 0.166970 0.482039
O O15 0.770542 0.372541 0.861801
O O16 0.791325 0.235312 0.911863
O O17 0.000000 0.338773 0.928222
O O18 0.250000 0.400414 0.750000
O O19 0.500000 0.437141 0.694624
O O20 0.256228 0.514905 0.675708
O O21 0.000000 0.586707 0.675349
O O22 0.000000 0.862791 0.053425
#
# Coordination Sequence:
#
# PCOD8220003 Si02
#       8
#     8   8   8   8   8   8   8   8
#     4  11  23  38  55  77 106 141 184 226 267 313
#     4   9  17  29  49  79 110 136 165 202 247 302
#     4  10  20  34  52  77 108 138 169 211 267 321
#     4   9  18  33  54  77 105 140 171 206 257 315
#     4  10  21  35  54  79 105 137 176 218 262 312
#     4  11  23  38  55  74  98 134 179 223 265 307
#     4  11  22  37  56  77 105 139 176 218 265 315
#     4   9  17  32  53  79 108 135 169 212 262 317
#
# _framework density 18.243991000000001
#
# number of rings (size 3 to 8) (size 9 to 14) (size 15 to 20)
#    0.000    2.000    1.250    2.625    0.000    5.750 
#    0.000    2.500    0.000    0.750    0.000    1.750 
#    0.000    0.000    0.000    0.000    0.000    0.000 
#
# Total GULP energy -793674.742515 kJ/mol
# GULP energy per Si atom -12401.167852 kJ/mol
# Density = 1.820247 g / cm^3
# Si number density = 18.243991 Si / 1000 Ang^3
#
#
#
# Elastic Constant Matrix: (Units=GPa)
#
#
# Indices 1 2 3 4 5 6 
#
# 1 63.6769 44.0426 32.2457 0.0000 0.0000 0.0000
# 2 44.0426 114.3234 42.0792 0.0000 0.0000 0.0000
# 3 32.2457 42.0792 71.9620 0.0000 0.0000 0.0000
# 4 0.0000 0.0000 0.0000 14.8562 0.0000 0.0000
# 5 0.0000 0.0000 0.0000 0.0000 25.1975 0.0000
# 6 0.0000 0.0000 0.0000 0.0000 0.0000 0.7194
#
#
#
# Elastic Compliance Matrix: (Units=1/GPa)
#
#
# Indices 1 2 3 4 5 6 
#
# 1 0.023721 -0.006659 -0.006735 0.000000 0.000000 0.000000
# 2 -0.006659 0.013016 -0.004627 0.000000 0.000000 0.000000
# 3 -0.006735 -0.004627 0.019620 0.000000 0.000000 0.000000
# 4 0.000000 0.000000 0.000000 0.067312 0.000000 0.000000
# 5 0.000000 0.000000 0.000000 0.000000 0.039687 0.000000
# 6 0.000000 0.000000 0.000000 0.000000 0.000000 1.390069
#
#
# Mechanical properties :
#
#
# Convention : Reuss Voigt Hill
#
# Bulk Modulus (GPa) = 49.22807 54.07748 51.65278
# Shear Modulus (GPa) = 3.13237 16.92759 10.02998
#
# Velocity S-wave (km/s) = 1.31174 3.04936 2.34726
# Velocity P-wave (km/s) = 5.41627 6.48874 5.97661
#
# Compressibility (1/GPa) = 0.02031361
#
# Stress axis : x y z
#
# Youngs Moduli (GPa) = 42.15683 76.83094 50.96929
#
# Poissons Ratio (x) = 0.51165 0.34329
# Poissons Ratio (y) = 0.28074 0.23582
# Poissons Ratio (z) = 0.28393 0.35548
#
# Static dielectric constant tensor:
#      x y z
#    x 3.399050 0.000000 0.000000 
#    y 0.000000 3.434660 0.000000 
#    z 0.000000 0.000000 4.498280 
# 
# 
# High freq. dielectric constant tensor:
#      x y z
#    x 1.710940 0.000000 0.000000 
#    y 0.000000 1.709690 0.000000 
#    z 0.000000 0.000000 1.687310 
# 
# From -- ./inp_files/31122.got.cif
#   From: 2010.03.12/outbox.cif.g09.slc.cpg/sg53_16_cif.got.tgz:31122.got - 2010.04.16 14:36:59.
