data_PCOD8220033
_publ_section_title
;
Structure prediction by ZEFSAII (Michael W. Deem and Ramdas Pophale) SiO2 
 PCOD8220033
Probable space group: P M N A
;
_chemical_formula_sum "Si O2"
_cell_formula_units_Z 64
_cell_length_a 9.109331
_cell_length_b 13.925348
_cell_length_c 27.629435
_cell_angle_alpha 90.000000
_cell_angle_beta 90.000000
_cell_angle_gamma 90.000000
_cell_volume 3504.810524
_symmetry_space_group_name_H-M "P M N A"
_symmetry_group_IT_number 53
_symmetry_cell_setting 'orthorhombic'
loop_
_space_group_symop_operation_xyz
x,y,z
1/2-x,-y,1/2+z
x,-y,-z
1/2-x,y,1/2-z
-x,-y,-z
1/2+x,y,1/2-z
-x,y,z
1/2+x,-y,1/2+z
loop_
_atom_site_type_symbol
_atom_site_label
_atom_site_fract_x
_atom_site_fract_y
_atom_site_fract_z
Si Si1 0.172526 0.427352 0.601244
Si Si2 0.169109 0.871648 0.299178
Si Si3 0.171395 0.337171 0.699686
Si Si4 0.329118 0.078216 0.199083
Si Si5 0.833564 0.294799 0.968072
Si Si6 0.670949 0.896513 0.519905
Si Si7 0.674042 0.197383 0.107968
Si Si8 0.330287 0.379948 0.427281
O O1 0.211487 0.412949 0.657909
O O2 0.220667 0.332450 0.571982
O O3 0.263141 0.516332 0.581633
O O4 0.000000 0.443742 0.593494
O O5 0.250000 0.887243 0.250000
O O6 0.219236 0.768962 0.321478
O O7 0.000000 0.862827 0.287045
O O8 0.202445 0.972678 0.326424
O O9 0.250000 0.363522 0.750000
O O10 0.000000 0.340423 0.710929
O O11 0.250000 0.096256 0.250000
O O12 0.500000 0.088243 0.210439
O O13 0.278611 0.156843 0.160200
O O14 0.000000 0.306605 0.949050
O O15 0.797829 0.183103 0.978593
O O16 0.811370 0.356464 0.016520
O O17 0.500000 0.893254 0.534758
O O18 0.765725 0.874032 0.567072
O O19 0.718373 0.000000 0.500000
O O20 0.500000 0.205036 0.102042
O O21 0.744355 0.302529 0.104823
O O22 0.500000 0.379103 0.411880
#
# Coordination Sequence:
#
# PCOD8220033 Si02
#       8
#     8   8   8   8   8   8   8   8
#     4  11  22  34  53  81 106 130 168 217 264 309
#     4   8  14  28  47  67  95 129 162 198 243 290
#     4   9  19  34  51  73 103 136 168 205 249 301
#     4   9  18  31  50  76 104 135 173 215 255 303
#     4   9  19  35  54  77 104 135 173 212 251 301
#     4   9  19  36  55  77 109 146 179 209 247 304
#     4  10  20  34  53  78 106 136 172 216 265 311
#     4  10  21  38  57  75 100 136 174 213 260 313
#
# _framework density 18.260615000000001
#
# number of rings (size 3 to 8) (size 9 to 14) (size 15 to 20)
#    0.000    2.625    0.000    2.250    0.000    7.250 
#    0.000    1.875    0.000    4.500    0.000    0.000 
#    0.000    0.000    0.000    0.000    0.000    0.000 
#
# Total GULP energy -793094.468395 kJ/mol
# GULP energy per Si atom -12392.101069 kJ/mol
# Density = 1.821905 g / cm^3
# Si number density = 18.260615 Si / 1000 Ang^3
#
#
#
# Elastic Constant Matrix: (Units=GPa)
#
#
# Indices 1 2 3 4 5 6 
#
# 1 68.0660 40.1679 39.5778 0.0000 0.0000 0.0000
# 2 40.1679 106.8985 47.5184 0.0000 0.0000 0.0000
# 3 39.5778 47.5184 74.4828 0.0000 0.0000 0.0000
# 4 0.0000 0.0000 0.0000 22.0270 0.0000 0.0000
# 5 0.0000 0.0000 0.0000 0.0000 28.7004 0.0000
# 6 0.0000 0.0000 0.0000 0.0000 0.0000 30.2239
#
#
#
# Elastic Compliance Matrix: (Units=1/GPa)
#
#
# Indices 1 2 3 4 5 6 
#
# 1 0.022661 -0.004414 -0.009225 0.000000 0.000000 0.000000
# 2 -0.004414 0.013918 -0.006534 0.000000 0.000000 0.000000
# 3 -0.009225 -0.006534 0.022496 0.000000 0.000000 0.000000
# 4 0.000000 0.000000 0.000000 0.045399 0.000000 0.000000
# 5 0.000000 0.000000 0.000000 0.000000 0.034843 0.000000
# 6 0.000000 0.000000 0.000000 0.000000 0.000000 0.033086
#
#
# Mechanical properties :
#
#
# Convention : Reuss Voigt Hill
#
# Bulk Modulus (GPa) = 53.39377 55.99730 54.69554
# Shear Modulus (GPa) = 22.83202 24.33578 23.58390
#
# Velocity S-wave (km/s) = 3.53985 3.65457 3.59767
# Velocity P-wave (km/s) = 6.78312 6.96706 6.87571
#
# Compressibility (1/GPa) = 0.01872878
#
# Stress axis : x y z
#
# Youngs Moduli (GPa) = 44.12958 71.85128 44.45221
#
# Poissons Ratio (x) = 0.31717 0.41007
# Poissons Ratio (y) = 0.19480 0.29043
# Poissons Ratio (z) = 0.40709 0.46945
#
# Static dielectric constant tensor:
#      x y z
#    x 3.360500 0.000000 0.000000 
#    y 0.000000 3.668700 0.000000 
#    z 0.000000 0.000000 3.133300 
# 
# 
# High freq. dielectric constant tensor:
#      x y z
#    x 1.711450 0.000000 0.000000 
#    y 0.000000 1.717420 0.000000 
#    z 0.000000 0.000000 1.686040 
# 
# From -- ./inp_files/34274.got.cif
#   From: 2010.03.12/outbox.cif.g09.slc.cpg/sg53_18_cif.got.tgz:34274.got - 2010.04.16 14:36:59.
