data_PCOD8220062
_publ_section_title
;
Structure prediction by ZEFSAII (Michael W. Deem and Ramdas Pophale) SiO2 
 PCOD8220062
Probable space group: P M N A
;
_chemical_formula_sum "Si O2"
_cell_formula_units_Z 64
_cell_length_a 9.256190
_cell_length_b 21.677382
_cell_length_c 17.804484
_cell_angle_alpha 90.000000
_cell_angle_beta 90.000000
_cell_angle_gamma 90.000000
_cell_volume 3572.469118
_symmetry_space_group_name_H-M "P M N A"
_symmetry_group_IT_number 53
_symmetry_cell_setting 'orthorhombic'
loop_
_space_group_symop_operation_xyz
x,y,z
1/2-x,-y,1/2+z
x,-y,-z
1/2-x,y,1/2-z
-x,-y,-z
1/2+x,y,1/2-z
-x,y,z
1/2+x,-y,1/2+z
loop_
_atom_site_type_symbol
_atom_site_label
_atom_site_fract_x
_atom_site_fract_y
_atom_site_fract_z
Si Si1 0.668178 0.246103 0.898320
Si Si2 0.832576 0.373329 0.676113
Si Si3 0.669933 0.874218 0.408407
Si Si4 0.328028 0.565873 0.023207
Si Si5 0.833221 0.117512 0.081676
Si Si6 0.330367 0.688512 0.954937
Si Si7 0.829252 0.221012 0.328231
Si Si8 0.666843 0.996375 0.325667
O O1 0.500000 0.229102 0.902137
O O2 0.697247 0.301230 0.839867
O O3 0.754619 0.185698 0.872580
O O4 0.730665 0.266841 0.979768
O O5 0.750000 0.395076 0.750000
O O6 0.777424 0.415139 0.606688
O O7 0.000000 0.385236 0.689979
O O8 0.500000 0.866386 0.400156
O O9 0.714176 0.882850 0.495110
O O10 0.725484 0.933067 0.361695
O O11 0.500000 0.562062 0.020544
O O12 0.259564 0.500000 0.000000
O O13 0.271316 0.618508 0.964681
O O14 0.729123 0.162648 0.127000
O O15 0.000000 0.138282 0.091587
O O16 0.808614 0.049224 0.112941
O O17 0.500000 0.686034 0.969663
O O18 0.292207 0.716298 0.873879
O O19 0.750000 0.227564 0.250000
O O20 0.000000 0.212795 0.316034
O O21 0.750000 0.013219 0.250000
O O22 0.500000 0.990369 0.304298
#
# Coordination Sequence:
#
# PCOD8220062 Si02
#       8
#     8   8   8   8   8   8   8   8
#     4   9  17  32  51  72  98 130 166 204 246 294
#     4   9  18  31  50  76 106 136 169 211 254 297
#     4  10  20  34  54  77  99 127 165 209 257 303
#     4   8  14  28  52  77  99 133 179 213 242 290
#     4  10  20  36  56  75  97 128 169 210 253 304
#     4   8  15  29  48  70  98 129 163 205 245 287
#     4  11  21  33  51  75 104 133 165 208 256 301
#     4  10  22  38  52  70  99 132 165 207 255 303
#
# _framework density 17.91478
#
# number of rings (size 3 to 8) (size 9 to 14) (size 15 to 20)
#    0.000    2.625    1.250    2.625    0.000    4.500 
#    0.000    3.125    0.000    2.625    0.000    0.000 
#    0.000    0.000    0.000    0.000    0.000    0.000 
#
# Total GULP energy -793449.974460 kJ/mol
# GULP energy per Si atom -12397.655851 kJ/mol
# Density = 1.787401 g / cm^3
# Si number density = 17.914780 Si / 1000 Ang^3
#
#
#
# Elastic Constant Matrix: (Units=GPa)
#
#
# Indices 1 2 3 4 5 6 
#
# 1 39.8614 31.0264 31.5847 0.0000 0.0000 0.0000
# 2 31.0264 121.8724 32.8735 0.0000 0.0000 0.0000
# 3 31.5847 32.8735 81.0478 0.0000 0.0000 0.0000
# 4 0.0000 0.0000 0.0000 21.4623 0.0000 0.0000
# 5 0.0000 0.0000 0.0000 0.0000 20.2839 0.0000
# 6 0.0000 0.0000 0.0000 0.0000 0.0000 15.2757
#
#
#
# Elastic Compliance Matrix: (Units=1/GPa)
#
#
# Indices 1 2 3 4 5 6 
#
# 1 0.040824 -0.006851 -0.013130 0.000000 0.000000 0.000000
# 2 -0.006851 0.010363 -0.001533 0.000000 0.000000 0.000000
# 3 -0.013130 -0.001533 0.018077 0.000000 0.000000 0.000000
# 4 0.000000 0.000000 0.000000 0.046593 0.000000 0.000000
# 5 0.000000 0.000000 0.000000 0.000000 0.049300 0.000000
# 6 0.000000 0.000000 0.000000 0.000000 0.000000 0.065463
#
#
# Mechanical properties :
#
#
# Convention : Reuss Voigt Hill
#
# Bulk Modulus (GPa) = 38.11810 48.19454 43.15632
# Shear Modulus (GPa) = 17.70568 21.22418 19.46493
#
# Velocity S-wave (km/s) = 3.14718 3.44572 3.29983
# Velocity P-wave (km/s) = 5.87622 6.54150 6.21776
#
# Compressibility (1/GPa) = 0.02623425
#
# Stress axis : x y z
#
# Youngs Moduli (GPa) = 24.49566 96.49619 55.31813
#
# Poissons Ratio (x) = 0.66112 0.72634
# Poissons Ratio (y) = 0.16782 0.08482
# Poissons Ratio (z) = 0.32163 0.14797
#
# Static dielectric constant tensor:
#      x y z
#    x 3.027090 0.000000 0.000000 
#    y 0.000000 3.577990 0.000000 
#    z 0.000000 0.000000 3.366460 
# 
# 
# High freq. dielectric constant tensor:
#      x y z
#    x 1.664010 0.000000 0.000000 
#    y 0.000000 1.696090 0.000000 
#    z 0.000000 0.000000 1.692600 
# 
# From -- ./inp_files/26991.got.cif
#   From: 2010.03.12/outbox.cif.g09.slc.cpg/sg53_14_cif.got.tgz:26991.got - 2010.04.16 14:36:59.
