data_PCOD8220251
_publ_section_title
;
Structure prediction by ZEFSAII (Michael W. Deem and Ramdas Pophale) SiO2 
 PCOD8220251
Probable space group: P M N A
;
_chemical_formula_sum "Si O2"
_cell_formula_units_Z 56
_cell_length_a 14.077548
_cell_length_b 11.906179
_cell_length_c 15.679738
_cell_angle_alpha 90.000000
_cell_angle_beta 90.000000
_cell_angle_gamma 90.000000
_cell_volume 2628.077850
_symmetry_space_group_name_H-M "P M N A"
_symmetry_group_IT_number 53
_symmetry_cell_setting 'orthorhombic'
loop_
_space_group_symop_operation_xyz
x,y,z
1/2-x,-y,1/2+z
x,-y,-z
1/2-x,y,1/2-z
-x,-y,-z
1/2+x,y,1/2-z
-x,y,z
1/2+x,-y,1/2+z
loop_
_atom_site_type_symbol
_atom_site_label
_atom_site_fract_x
_atom_site_fract_y
_atom_site_fract_z
Si Si1 0.606626 0.421297 0.791910
Si Si2 0.896717 0.557316 0.870696
Si Si3 0.610071 0.184492 0.867645
Si Si4 0.392086 0.191481 0.353990
Si Si5 0.608915 0.945399 0.808494
Si Si6 0.801454 0.431592 0.424083
Si Si7 0.791726 0.816964 0.546232
O O1 0.500000 0.438319 0.825659
O O2 0.613518 0.450237 0.692198
O O3 0.640337 0.294926 0.813845
O O4 0.673200 0.513467 0.834809
O O5 0.890235 0.678682 0.822340
O O6 0.812214 0.555421 0.938724
O O7 0.000000 0.549791 0.916565
O O8 0.500000 0.191799 0.899203
O O9 0.621896 0.080054 0.802768
O O10 0.681592 0.166366 0.947256
O O11 0.500000 0.155724 0.379828
O O12 0.350797 0.113999 0.276983
O O13 0.322332 0.175820 0.436164
O O14 0.500000 0.909522 0.816210
O O15 0.658714 0.909166 0.895713
O O16 0.852843 0.500000 0.500000
O O17 0.833740 0.303429 0.425635
#
# Coordination Sequence:
#
# PCOD8220251 Si02
#       7
#     8   8   8   8   8   8   8
#     4  10  20  35  54  80 114 149 182 221 277 335
#     4   9  19  36  58  81 108 146 189 230 270 322
#     4  10  21  36  56  83 115 147 180 228 284 343
#     4   9  19  36  58  84 109 142 190 237 275 320
#     4  10  20  35  57  83 111 143 184 232 282 333
#     4  11  21  34  53  82 115 148 180 227 277 327
#     4  11  20  34  56  82 115 144 185 229 283 330
#
# _framework density 21.308350000000001
#
# number of rings (size 3 to 8) (size 9 to 14) (size 15 to 20)
#    0.000    2.000    1.429    2.571    0.000    6.286 
#    0.000    2.857    0.000    1.714    0.000    0.000 
#    0.000    0.000    0.000    0.000    0.000    0.000 
#
# Total GULP energy -693988.871890 kJ/mol
# GULP energy per Si atom -12392.658427 kJ/mol
# Density = 2.125985 g / cm^3
# Si number density = 21.308350 Si / 1000 Ang^3
#
#
#
# Elastic Constant Matrix: (Units=GPa)
#
#
# Indices 1 2 3 4 5 6 
#
# 1 57.7569 19.5930 16.3162 0.0000 0.0000 0.0000
# 2 19.5930 115.7538 32.1853 0.0000 0.0000 0.0000
# 3 16.3162 32.1853 55.0461 0.0000 0.0000 0.0000
# 4 0.0000 0.0000 0.0000 27.6532 0.0000 0.0000
# 5 0.0000 0.0000 0.0000 0.0000 26.0109 0.0000
# 6 0.0000 0.0000 0.0000 0.0000 0.0000 19.9584
#
#
#
# Elastic Compliance Matrix: (Units=1/GPa)
#
#
# Indices 1 2 3 4 5 6 
#
# 1 0.019276 -0.001999 -0.004545 0.000000 0.000000 0.000000
# 2 -0.001999 0.010523 -0.005561 0.000000 0.000000 0.000000
# 3 -0.004545 -0.005561 0.022765 0.000000 0.000000 0.000000
# 4 0.000000 0.000000 0.000000 0.036162 0.000000 0.000000
# 5 0.000000 0.000000 0.000000 0.000000 0.038445 0.000000
# 6 0.000000 0.000000 0.000000 0.000000 0.000000 0.050104
#
#
# Mechanical properties :
#
#
# Convention : Reuss Voigt Hill
#
# Bulk Modulus (GPa) = 35.26622 40.52732 37.89677
# Shear Modulus (GPa) = 23.70378 25.42198 24.56288
#
# Velocity S-wave (km/s) = 3.33891 3.45781 3.39888
# Velocity P-wave (km/s) = 5.60810 5.91630 5.76426
#
# Compressibility (1/GPa) = 0.02835575
#
# Stress axis : x y z
#
# Youngs Moduli (GPa) = 51.87804 95.02544 43.92731
#
# Poissons Ratio (x) = 0.18996 0.19964
# Poissons Ratio (y) = 0.10371 0.24426
# Poissons Ratio (z) = 0.23577 0.52839
#
# Static dielectric constant tensor:
#      x y z
#    x 4.029310 0.000000 0.000000 
#    y 0.000000 3.955280 0.000000 
#    z 0.000000 0.000000 3.346430 
# 
# 
# High freq. dielectric constant tensor:
#      x y z
#    x 1.840780 0.000000 0.000000 
#    y 0.000000 1.842090 0.000000 
#    z 0.000000 0.000000 1.798650 
# 
# From -- ./inp_files/22785.got.cif
#   From: 2010.03.12/outbox.cif.g09.slc.cpg/sg53_12_cif.got.tgz:22785.got - 2010.04.16 14:36:59.
