data_PCOD8220819
_publ_section_title
;
Structure prediction by ZEFSAII (Michael W. Deem and Ramdas Pophale) SiO2 
 PCOD8220819
Probable space group: P M N A
;
_chemical_formula_sum "Si O2"
_cell_formula_units_Z 40
_cell_length_a 17.343580
_cell_length_b 5.008445
_cell_length_c 22.008378
_cell_angle_alpha 90.000000
_cell_angle_beta 90.000000
_cell_angle_gamma 90.000000
_cell_volume 1911.743813
_symmetry_space_group_name_H-M "P M N A"
_symmetry_group_IT_number 53
_symmetry_cell_setting 'orthorhombic'
loop_
_space_group_symop_operation_xyz
x,y,z
1/2-x,-y,1/2+z
x,-y,-z
1/2-x,y,1/2-z
-x,-y,-z
1/2+x,y,1/2-z
-x,y,z
1/2+x,-y,1/2+z
loop_
_atom_site_type_symbol
_atom_site_label
_atom_site_fract_x
_atom_site_fract_y
_atom_site_fract_z
Si Si1 0.319898 0.257415 0.039328
Si Si2 0.587292 0.881814 0.233342
Si Si3 0.643816 0.622343 0.562132
Si Si4 0.412099 0.604581 0.842785
Si Si5 0.410520 0.864581 0.369380
O O1 0.229106 0.270471 0.050468
O O2 0.362804 0.271044 0.103082
O O3 0.351070 0.500000 0.000000
O O4 0.341911 0.000000 0.000000
O O5 0.500000 0.779294 0.239223
O O6 0.625239 0.666315 0.186411
O O7 0.622152 0.901005 0.301056
O O8 0.592437 0.180151 0.210112
O O9 0.607140 0.500000 0.500000
O O10 0.643323 0.374618 0.607811
O O11 0.596426 0.869525 0.589609
O O12 0.500000 0.559045 0.865409
O O13 0.500000 0.779018 0.370583
#
# Coordination Sequence:
#
# PCOD8220819 Si02
#       5
#     8   8   8   8   8
#     4  11  23  40  59  81 116 154 185 229 288 337
#     4   9  19  36  57  84 116 146 180 234 293 332
#     4  11  23  39  56  81 117 153 189 235 290 335
#     4  10  20  37  61  86 113 147 189 231 276 338
#     4  11  22  38  61  85 112 149 193 236 281 339
#
# _framework density 20.923304000000002
#
# number of rings (size 3 to 8) (size 9 to 14) (size 15 to 20)
#    0.000    1.600    0.000    6.000    0.000    6.400 
#    0.000    6.000    0.000    0.000    0.000    0.000 
#    0.000    0.000    0.000    0.000    0.000    0.000 
#
# Total GULP energy -495833.750711 kJ/mol
# GULP energy per Si atom -12395.843768 kJ/mol
# Density = 2.087568 g / cm^3
# Si number density = 20.923304 Si / 1000 Ang^3
#
#
#
# Elastic Constant Matrix: (Units=GPa)
#
#
# Indices 1 2 3 4 5 6 
#
# 1 26.7159 11.8266 27.2632 0.0000 0.0000 0.0000
# 2 11.8266 124.5893 24.6533 0.0000 0.0000 0.0000
# 3 27.2632 24.6533 101.8704 0.0000 0.0000 0.0000
# 4 0.0000 0.0000 0.0000 44.3943 0.0000 0.0000
# 5 0.0000 0.0000 0.0000 0.0000 27.3768 0.0000
# 6 0.0000 0.0000 0.0000 0.0000 0.0000 32.4341
#
#
#
# Elastic Compliance Matrix: (Units=1/GPa)
#
#
# Indices 1 2 3 4 5 6 
#
# 1 0.052113 -0.002297 -0.013391 0.000000 0.000000 0.000000
# 2 -0.002297 0.008531 -0.001450 0.000000 0.000000 0.000000
# 3 -0.013391 -0.001450 0.013751 0.000000 0.000000 0.000000
# 4 0.000000 0.000000 0.000000 0.022525 0.000000 0.000000
# 5 0.000000 0.000000 0.000000 0.000000 0.036527 0.000000
# 6 0.000000 0.000000 0.000000 0.000000 0.000000 0.030832
#
#
# Mechanical properties :
#
#
# Convention : Reuss Voigt Hill
#
# Bulk Modulus (GPa) = 24.92543 42.29574 33.61058
# Shear Modulus (GPa) = 23.59283 33.46986 28.53135
#
# Velocity S-wave (km/s) = 3.36160 4.00390 3.69672
# Velocity P-wave (km/s) = 5.19671 6.45240 5.85829
#
# Compressibility (1/GPa) = 0.04011967
#
# Stress axis : x y z
#
# Youngs Moduli (GPa) = 19.18906 117.21520 72.72186
#
# Poissons Ratio (x) = 0.26925 0.97381
# Poissons Ratio (y) = 0.04408 0.10544
# Poissons Ratio (z) = 0.25696 0.16995
#
# Static dielectric constant tensor:
#      x y z
#    x 3.443940 0.000000 0.000000 
#    y 0.000000 3.911090 0.000000 
#    z 0.000000 0.000000 4.000180 
# 
# 
# High freq. dielectric constant tensor:
#      x y z
#    x 1.780170 0.000000 0.000000 
#    y 0.000000 1.839710 0.000000 
#    z 0.000000 0.000000 1.837360 
# 
# From -- ./inp_files/28763.got.cif
#   From: 2010.03.12/outbox.cif.g09.slc.cpg/sg53_15_cif.got.tgz:28763.got - 2010.04.16 14:36:59.
