data_PCOD8220228
_publ_section_title
;
Structure prediction by ZEFSAII (Michael W. Deem and Ramdas Pophale) SiO2 
 PCOD8220228
Probable space group: P M N A
;
_chemical_formula_sum "Si O2"
_cell_formula_units_Z 40
_cell_length_a 9.060626
_cell_length_b 24.997352
_cell_length_c 9.657501
_cell_angle_alpha 90.000000
_cell_angle_beta 90.000000
_cell_angle_gamma 90.000000
_cell_volume 2187.343408
_symmetry_space_group_name_H-M "P M N A"
_symmetry_group_IT_number 53
_symmetry_cell_setting 'orthorhombic'
loop_
_space_group_symop_operation_xyz
x,y,z
1/2-x,-y,1/2+z
x,-y,-z
1/2-x,y,1/2-z
-x,-y,-z
1/2+x,y,1/2-z
-x,y,z
1/2+x,-y,1/2+z
loop_
_atom_site_type_symbol
_atom_site_label
_atom_site_fract_x
_atom_site_fract_y
_atom_site_fract_z
Si Si1 0.828510 0.862898 0.609210
Si Si2 0.326309 0.952124 0.101101
Si Si3 0.826460 0.740008 0.608485
Si Si4 0.329897 0.457109 0.606710
Si Si5 0.171849 0.663269 0.104354
O O1 0.750000 0.882002 0.750000
O O2 0.777225 0.897653 0.477077
O O3 0.790900 0.801637 0.573866
O O4 0.000000 0.871813 0.637552
O O5 0.250000 0.956238 0.250000
O O6 0.500000 0.953876 0.128275
O O7 0.276438 0.000000 0.000000
O O8 0.750000 0.722690 0.750000
O O9 0.754852 0.704379 0.491930
O O10 0.000000 0.729076 0.618804
O O11 0.262356 0.500000 0.500000
O O12 0.250000 0.465329 0.750000
O O13 0.500000 0.469582 0.634089
O O14 0.308111 0.397140 0.547406
O O15 0.250000 0.668421 0.250000
O O16 0.000000 0.678557 0.117159
#
# Coordination Sequence:
#
# PCOD8220228 Si02
#       5
#     8   8   8   8   8
#     4   9  19  35  54  77 104 135 171 211 254 302
#     4  10  21  36  54  78 106 135 171 212 254 303
#     4  10  20  35  54  77 106 138 174 214 257 306
#     4   9  19  35  53  75 102 132 168 209 254 305
#     4  10  20  35  54  76 104 137 173 213 258 307
#
# _framework density 18.287023999999999
#
# number of rings (size 3 to 8) (size 9 to 14) (size 15 to 20)
#    0.000    2.400    0.000    1.800    0.000    4.800 
#    0.000    4.000    0.000    0.000    0.000    0.000 
#    0.000    0.000    0.000    0.000    0.000    0.000 
#
# Total GULP energy -495999.399238 kJ/mol
# GULP energy per Si atom -12399.984981 kJ/mol
# Density = 1.824540 g / cm^3
# Si number density = 18.287024 Si / 1000 Ang^3
#
#
#
# Elastic Constant Matrix: (Units=GPa)
#
#
# Indices 1 2 3 4 5 6 
#
# 1 79.9247 50.5437 56.3727 0.0000 0.0000 0.0000
# 2 50.5437 106.9437 78.8931 0.0000 0.0000 0.0000
# 3 56.3727 78.8931 126.9086 0.0000 0.0000 0.0000
# 4 0.0000 0.0000 0.0000 41.1300 0.0000 0.0000
# 5 0.0000 0.0000 0.0000 0.0000 39.2702 0.0000
# 6 0.0000 0.0000 0.0000 0.0000 0.0000 25.9153
#
#
#
# Elastic Compliance Matrix: (Units=1/GPa)
#
#
# Indices 1 2 3 4 5 6 
#
# 1 0.019710 -0.005276 -0.005475 0.000000 0.000000 0.000000
# 2 -0.005276 0.018684 -0.009271 0.000000 0.000000 0.000000
# 3 -0.005475 -0.009271 0.016075 0.000000 0.000000 0.000000
# 4 0.000000 0.000000 0.000000 0.024313 0.000000 0.000000
# 5 0.000000 0.000000 0.000000 0.000000 0.025465 0.000000
# 6 0.000000 0.000000 0.000000 0.000000 0.000000 0.038587
#
#
# Mechanical properties :
#
#
# Convention : Reuss Voigt Hill
#
# Bulk Modulus (GPa) = 69.32932 76.15512 72.74222
# Shear Modulus (GPa) = 26.64004 29.79427 28.21715
#
# Velocity S-wave (km/s) = 3.82091 4.04079 3.93238
# Velocity P-wave (km/s) = 7.58023 7.96902 7.77706
#
# Compressibility (1/GPa) = 0.01442391
#
# Stress axis : x y z
#
# Youngs Moduli (GPa) = 50.73486 53.52248 62.20785
#
# Poissons Ratio (x) = 0.28240 0.34060
# Poissons Ratio (y) = 0.26770 0.57673
# Poissons Ratio (z) = 0.27779 0.49621
#
# Static dielectric constant tensor:
#      x y z
#    x 3.428270 0.000000 0.000000 
#    y 0.000000 3.649570 0.000000 
#    z 0.000000 0.000000 2.823890 
# 
# 
# High freq. dielectric constant tensor:
#      x y z
#    x 1.712010 0.000000 0.000000 
#    y 0.000000 1.719490 0.000000 
#    z 0.000000 0.000000 1.707950 
# 
# From -- ./inp_files/6243.got.cif
#   From: 2010.03.12/outbox.cif.g09.slc.cpg/sg53_4_cif.got.tgz:6243.got - 2010.04.16 14:36:59.
