data_PCOD8220931
_publ_section_title
;
Structure prediction by ZEFSAII (Michael W. Deem and Ramdas Pophale) SiO2 
 PCOD8220931
Probable space group: P M N A
;
_chemical_formula_sum "Si O2"
_cell_formula_units_Z 48
_cell_length_a 8.420513
_cell_length_b 8.941552
_cell_length_c 30.824353
_cell_angle_alpha 90.000000
_cell_angle_beta 90.000000
_cell_angle_gamma 90.000000
_cell_volume 2320.841207
_symmetry_space_group_name_H-M "P M N A"
_symmetry_group_IT_number 53
_symmetry_cell_setting 'orthorhombic'
loop_
_space_group_symop_operation_xyz
x,y,z
1/2-x,-y,1/2+z
x,-y,-z
1/2-x,y,1/2-z
-x,-y,-z
1/2+x,y,1/2-z
-x,y,z
1/2+x,-y,1/2+z
loop_
_atom_site_type_symbol
_atom_site_label
_atom_site_fract_x
_atom_site_fract_y
_atom_site_fract_z
Si Si1 0.683642 0.599107 0.459398
Si Si2 0.316739 0.098039 0.377352
Si Si3 0.315106 0.420052 0.118991
Si Si4 0.813532 0.583448 0.295396
Si Si5 0.316191 0.921685 0.044194
Si Si6 0.188531 0.923182 0.296362
O O1 0.737797 0.500000 0.500000
O O2 0.500000 0.645656 0.463055
O O3 0.710604 0.505005 0.416168
O O4 0.791801 0.745291 0.459584
O O5 0.500000 0.144590 0.376635
O O6 0.210668 0.243899 0.384999
O O7 0.287006 0.982771 0.416185
O O8 0.271015 0.023806 0.332188
O O9 0.500000 0.457484 0.111724
O O10 0.254741 0.477099 0.165889
O O11 0.750000 0.518571 0.250000
O O12 0.753122 0.752592 0.303441
O O13 0.000000 0.583949 0.292497
O O14 0.500000 0.955889 0.053512
O O15 0.258830 0.000000 0.000000
O O16 0.250000 0.981457 0.250000
O O17 0.000000 0.939317 0.299898
#
# Coordination Sequence:
#
# PCOD8220931 Si02
#       6
#     8   8   8   8   8   8
#     4  11  24  41  63  92 124 157 196 244 298 357
#     4  12  25  40  60  88 122 160 202 251 306 360
#     4  11  23  40  61  87 121 160 202 247 297 357
#     4   9  20  37  60  87 115 150 193 242 293 350
#     4  11  24  42  65  91 120 158 202 247 299 360
#     4  10  20  38  62  89 120 156 201 249 302 363
#
# _framework density 20.682155999999999
#
# number of rings (size 3 to 8) (size 9 to 14) (size 15 to 20)
#    0.000    1.333    0.000    5.500    0.000    9.333 
#    0.000    1.667    0.000    0.000    0.000    0.000 
#    0.000    0.000    0.000    0.000    0.000    0.000 
#
# Total GULP energy -595554.852914 kJ/mol
# GULP energy per Si atom -12407.392769 kJ/mol
# Density = 2.063508 g / cm^3
# Si number density = 20.682156 Si / 1000 Ang^3
#
#
#
# Elastic Constant Matrix: (Units=GPa)
#
#
# Indices 1 2 3 4 5 6 
#
# 1 53.5122 8.4842 27.3498 0.0000 0.0000 0.0000
# 2 8.4842 107.0253 57.5812 0.0000 0.0000 0.0000
# 3 27.3498 57.5812 148.0216 0.0000 0.0000 0.0000
# 4 0.0000 0.0000 0.0000 37.7946 0.0000 0.0000
# 5 0.0000 0.0000 0.0000 0.0000 32.4696 0.0000
# 6 0.0000 0.0000 0.0000 0.0000 0.0000 32.6911
#
#
#
# Elastic Compliance Matrix: (Units=1/GPa)
#
#
# Indices 1 2 3 4 5 6 
#
# 1 0.020659 0.000526 -0.004022 0.000000 0.000000 0.000000
# 2 0.000526 0.011830 -0.004699 0.000000 0.000000 0.000000
# 3 -0.004022 -0.004699 0.009327 0.000000 0.000000 0.000000
# 4 0.000000 0.000000 0.000000 0.026459 0.000000 0.000000
# 5 0.000000 0.000000 0.000000 0.000000 0.030798 0.000000
# 6 0.000000 0.000000 0.000000 0.000000 0.000000 0.030589
#
#
# Mechanical properties :
#
#
# Convention : Reuss Voigt Hill
#
# Bulk Modulus (GPa) = 39.32901 55.04329 47.18615
# Shear Modulus (GPa) = 32.35658 34.93400 33.64529
#
# Velocity S-wave (km/s) = 3.95963 4.11431 4.03771
# Velocity P-wave (km/s) = 6.32156 7.01725 6.67847
#
# Compressibility (1/GPa) = 0.02542653
#
# Stress axis : x y z
#
# Youngs Moduli (GPa) = 48.40395 84.53009 107.21675
#
# Poissons Ratio (x) = -0.04447 0.43121
# Poissons Ratio (y) = -0.02546 0.50383
# Poissons Ratio (z) = 0.19468 0.39722
#
# Static dielectric constant tensor:
#      x y z
#    x 3.641850 0.000000 0.000000 
#    y 0.000000 3.903110 0.000000 
#    z 0.000000 0.000000 3.966250 
# 
# 
# High freq. dielectric constant tensor:
#      x y z
#    x 1.811870 0.000000 0.000000 
#    y 0.000000 1.810610 0.000000 
#    z 0.000000 0.000000 1.826330 
# 
# From -- ./inp_files/37770.got.cif
#   From: 2010.03.12/outbox.cif.g09.slc.cpg/sg53_19_cif.got.tgz:37770.got - 2010.04.16 14:36:59.
