data_PCOD8220045
_publ_section_title
;
Structure prediction by ZEFSAII (Michael W. Deem and Ramdas Pophale) SiO2 
 PCOD8220045
Probable space group: P M N A
;
_chemical_formula_sum "Si O2"
_cell_formula_units_Z 40
_cell_length_a 8.821734
_cell_length_b 12.687116
_cell_length_c 18.187815
_cell_angle_alpha 90.000000
_cell_angle_beta 90.000000
_cell_angle_gamma 90.000000
_cell_volume 2035.623225
_symmetry_space_group_name_H-M "P M N A"
_symmetry_group_IT_number 53
_symmetry_cell_setting 'orthorhombic'
loop_
_space_group_symop_operation_xyz
x,y,z
1/2-x,-y,1/2+z
x,-y,-z
1/2-x,y,1/2-z
-x,-y,-z
1/2+x,y,1/2-z
-x,y,z
1/2+x,-y,1/2+z
loop_
_atom_site_type_symbol
_atom_site_label
_atom_site_fract_x
_atom_site_fract_y
_atom_site_fract_z
Si Si1 0.320885 0.126976 0.572647
Si Si2 0.821301 0.705380 0.672786
Si Si3 0.179270 0.108131 0.092424
Si Si4 0.820796 0.683665 0.170571
Si Si5 0.822327 0.476221 0.083374
O O1 0.500000 0.135857 0.569064
O O2 0.262572 0.139504 0.489102
O O3 0.252690 0.219858 0.622735
O O4 0.276008 0.013753 0.606670
O O5 0.750000 0.669928 0.750000
O O6 0.766763 0.822593 0.652245
O O7 0.768801 0.625590 0.609534
O O8 0.000000 0.703011 0.680744
O O9 0.000000 0.126392 0.101039
O O10 0.750000 0.688937 0.250000
O O11 0.773089 0.575009 0.132627
O O12 0.000000 0.693496 0.176999
O O13 0.000000 0.451478 0.089847
O O14 0.776222 0.500000 0.000000
#
# Coordination Sequence:
#
# PCOD8220045 Si02
#       5
#     8   8   8   8   8
#     4   8  16  33  59  85 109 143 184 225 271 329
#     4  12  25  39  56  81 115 151 189 234 282 331
#     4   9  17  35  61  84 108 142 187 232 275 326
#     4  10  20  34  53  80 111 141 175 216 268 327
#     4  10  21  39  63  85 107 140 183 230 280 337
#
# _framework density 19.650001
#
# number of rings (size 3 to 8) (size 9 to 14) (size 15 to 20)
#    0.000    2.200    0.000    4.800    0.000    6.800 
#    0.000    8.000    0.000    0.000    0.000    0.000 
#    0.000    0.000    0.000    0.000    0.000    0.000 
#
# Total GULP energy -496077.322658 kJ/mol
# GULP energy per Si atom -12401.933066 kJ/mol
# Density = 1.960528 g / cm^3
# Si number density = 19.650001 Si / 1000 Ang^3
#
#
#
# Elastic Constant Matrix: (Units=GPa)
#
#
# Indices 1 2 3 4 5 6 
#
# 1 63.8461 29.1310 24.7601 0.0000 0.0000 0.0000
# 2 29.1310 96.1885 25.8165 0.0000 0.0000 0.0000
# 3 24.7601 25.8165 82.0707 0.0000 0.0000 0.0000
# 4 0.0000 0.0000 0.0000 17.4684 0.0000 0.0000
# 5 0.0000 0.0000 0.0000 0.0000 32.2166 0.0000
# 6 0.0000 0.0000 0.0000 0.0000 0.0000 17.9980
#
#
#
# Elastic Compliance Matrix: (Units=1/GPa)
#
#
# Indices 1 2 3 4 5 6 
#
# 1 0.019530 -0.004733 -0.004403 0.000000 0.000000 0.000000
# 2 -0.004733 0.012502 -0.002505 0.000000 0.000000 0.000000
# 3 -0.004403 -0.002505 0.014301 0.000000 0.000000 0.000000
# 4 0.000000 0.000000 0.000000 0.057246 0.000000 0.000000
# 5 0.000000 0.000000 0.000000 0.000000 0.031040 0.000000
# 6 0.000000 0.000000 0.000000 0.000000 0.000000 0.055562
#
#
# Mechanical properties :
#
#
# Convention : Reuss Voigt Hill
#
# Bulk Modulus (GPa) = 43.38222 44.61338 43.99780
# Shear Modulus (GPa) = 22.60954 24.36312 23.48633
#
# Velocity S-wave (km/s) = 3.39575 3.52497 3.46096
# Velocity P-wave (km/s) = 6.12374 6.27061 6.19761
#
# Compressibility (1/GPa) = 0.02305092
#
# Stress axis : x y z
#
# Youngs Moduli (GPa) = 51.20402 79.98801 69.92557
#
# Poissons Ratio (x) = 0.37857 0.30789
# Poissons Ratio (y) = 0.24234 0.17515
# Poissons Ratio (z) = 0.22546 0.20035
#
# Static dielectric constant tensor:
#      x y z
#    x 3.206900 0.000000 0.000000 
#    y 0.000000 5.622250 0.000000 
#    z 0.000000 0.000000 3.801560 
# 
# 
# High freq. dielectric constant tensor:
#      x y z
#    x 1.730740 0.000000 0.000000 
#    y 0.000000 1.782550 0.000000 
#    z 0.000000 0.000000 1.771730 
# 
# From -- ./inp_files/19856.got.cif
#   From: 2010.03.12/outbox.cif.g09.slc.cpg/sg53_10_cif.got.tgz:19856.got - 2010.04.16 14:36:59.
