data_PCOD8220273
_publ_section_title
;
Structure prediction by ZEFSAII (Michael W. Deem and Ramdas Pophale) SiO2 
 PCOD8220273
Probable space group: P M N A
;
_chemical_formula_sum "Si O2"
_cell_formula_units_Z 40
_cell_length_a 8.924384
_cell_length_b 24.629937
_cell_length_c 9.661131
_cell_angle_alpha 90.000000
_cell_angle_beta 90.000000
_cell_angle_gamma 90.000000
_cell_volume 2123.584373
_symmetry_space_group_name_H-M "P M N A"
_symmetry_group_IT_number 53
_symmetry_cell_setting 'orthorhombic'
loop_
_space_group_symop_operation_xyz
x,y,z
1/2-x,-y,1/2+z
x,-y,-z
1/2-x,y,1/2-z
-x,-y,-z
1/2+x,y,1/2-z
-x,y,z
1/2+x,-y,1/2+z
loop_
_atom_site_type_symbol
_atom_site_label
_atom_site_fract_x
_atom_site_fract_y
_atom_site_fract_z
Si Si1 0.826044 0.629491 0.893864
Si Si2 0.826086 0.044365 0.604295
Si Si3 0.325716 0.165789 0.896625
Si Si4 0.172677 0.756644 0.890323
Si Si5 0.323801 0.550299 0.100159
O O1 0.750000 0.610398 0.750000
O O2 0.804033 0.693153 0.916932
O O3 0.000000 0.612812 0.886831
O O4 0.747771 0.602507 0.026257
O O5 0.750000 0.035865 0.750000
O O6 0.798236 0.104987 0.544410
O O7 0.000000 0.033334 0.627445
O O8 0.757058 0.000000 0.500000
O O9 0.250000 0.170910 0.750000
O O10 0.500000 0.178937 0.882724
O O11 0.250500 0.210896 0.989122
O O12 0.250000 0.775368 0.750000
O O13 0.000000 0.772600 0.882120
O O14 0.250000 0.540474 0.250000
O O15 0.500000 0.559624 0.120887
O O16 0.289185 0.500000 0.000000
#
# Coordination Sequence:
#
# PCOD8220273 Si02
#       5
#     8   8   8   8   8
#     4  10  21  38  60  84 112 146 183 225 272 322
#     4   9  19  35  53  76 105 137 176 220 267 320
#     4  10  20  35  55  78 107 143 181 223 271 323
#     4  10  21  37  57  82 111 144 182 224 271 322
#     4  11  24  40  60  86 115 148 185 226 272 322
#
# _framework density 18.836077
#
# number of rings (size 3 to 8) (size 9 to 14) (size 15 to 20)
#    0.000    2.000    0.000    3.000    0.000    8.400 
#    0.000    2.000    0.000    0.000    0.000    0.000 
#    0.000    0.000    0.000    0.000    0.000    0.000 
#
# Total GULP energy -496083.171247 kJ/mol
# GULP energy per Si atom -12402.079281 kJ/mol
# Density = 1.879320 g / cm^3
# Si number density = 18.836077 Si / 1000 Ang^3
#
#
#
# Elastic Constant Matrix: (Units=GPa)
#
#
# Indices 1 2 3 4 5 6 
#
# 1 134.6448 60.6262 73.0294 0.0000 0.0000 0.0000
# 2 60.6262 71.0413 57.2328 0.0000 0.0000 0.0000
# 3 73.0294 57.2328 111.2322 0.0000 0.0000 0.0000
# 4 0.0000 0.0000 0.0000 42.0328 0.0000 0.0000
# 5 0.0000 0.0000 0.0000 0.0000 41.1968 0.0000
# 6 0.0000 0.0000 0.0000 0.0000 0.0000 29.8771
#
#
#
# Elastic Compliance Matrix: (Units=1/GPa)
#
#
# Indices 1 2 3 4 5 6 
#
# 1 0.013527 -0.007497 -0.005024 0.000000 0.000000 0.000000
# 2 -0.007497 0.028197 -0.009586 0.000000 0.000000 0.000000
# 3 -0.005024 -0.009586 0.017221 0.000000 0.000000 0.000000
# 4 0.000000 0.000000 0.000000 0.023791 0.000000 0.000000
# 5 0.000000 0.000000 0.000000 0.000000 0.024274 0.000000
# 6 0.000000 0.000000 0.000000 0.000000 0.000000 0.033470
#
#
# Mechanical properties :
#
#
# Convention : Reuss Voigt Hill
#
# Bulk Modulus (GPa) = 67.88238 77.63279 72.75758
# Shear Modulus (GPa) = 26.37051 31.02335 28.69693
#
# Velocity S-wave (km/s) = 3.74572 4.06275 3.90745
# Velocity P-wave (km/s) = 7.40432 7.95690 7.68558
#
# Compressibility (1/GPa) = 0.01473136
#
# Stress axis : x y z
#
# Youngs Moduli (GPa) = 73.92361 35.46478 58.06747
#
# Poissons Ratio (x) = 0.26587 0.29174
# Poissons Ratio (y) = 0.55418 0.55666
# Poissons Ratio (z) = 0.37140 0.33998
#
# Static dielectric constant tensor:
#      x y z
#    x 3.616280 0.000000 0.000000 
#    y 0.000000 3.607780 0.000000 
#    z 0.000000 0.000000 3.115800 
# 
# 
# High freq. dielectric constant tensor:
#      x y z
#    x 1.746990 0.000000 0.000000 
#    y 0.000000 1.738180 0.000000 
#    z 0.000000 0.000000 1.733080 
# 
# From -- ./inp_files/6246.got.cif
#   From: 2010.03.12/outbox.cif.g09.slc.cpg/sg53_4_cif.got.tgz:6246.got - 2010.04.16 14:36:59.
