data_PCOD8220168
_publ_section_title
;
Structure prediction by ZEFSAII (Michael W. Deem and Ramdas Pophale) SiO2 
 PCOD8220168
Probable space group: P M N A
;
_chemical_formula_sum "Si O2"
_cell_formula_units_Z 64
_cell_length_a 8.919142
_cell_length_b 12.334369
_cell_length_c 29.061301
_cell_angle_alpha 90.000000
_cell_angle_beta 90.000000
_cell_angle_gamma 90.000000
_cell_volume 3197.091514
_symmetry_space_group_name_H-M "P M N A"
_symmetry_group_IT_number 53
_symmetry_cell_setting 'orthorhombic'
loop_
_space_group_symop_operation_xyz
x,y,z
1/2-x,-y,1/2+z
x,-y,-z
1/2-x,y,1/2-z
-x,-y,-z
1/2+x,y,1/2-z
-x,y,z
1/2+x,-y,1/2+z
loop_
_atom_site_type_symbol
_atom_site_label
_atom_site_fract_x
_atom_site_fract_y
_atom_site_fract_z
Si Si1 0.168652 0.673082 0.683829
Si Si2 0.669277 0.398519 0.082421
Si Si3 0.823222 0.026796 0.387472
Si Si4 0.672864 0.608396 0.389481
Si Si5 0.674074 0.833333 0.436336
Si Si6 0.676210 0.113336 0.295960
Si Si7 0.175193 0.188088 0.468590
Si Si8 0.674367 0.428192 0.795675
O O1 0.182658 0.670372 0.628953
O O2 0.287669 0.758210 0.703267
O O3 0.207808 0.556110 0.704172
O O4 0.000000 0.709582 0.697576
O O5 0.500000 0.442492 0.076901
O O6 0.776817 0.502183 0.082137
O O7 0.711125 0.314556 0.041952
O O8 0.768762 0.908653 0.402515
O O9 0.000000 0.026825 0.379545
O O10 0.744731 0.054239 0.339751
O O11 0.775509 0.113988 0.425849
O O12 0.500000 0.595429 0.376849
O O13 0.704836 0.710058 0.421865
O O14 0.760042 0.625109 0.341679
O O15 0.500000 0.864195 0.432820
O O16 0.728364 0.850314 0.488304
O O17 0.750000 0.062440 0.250000
O O18 0.500000 0.094623 0.294946
O O19 0.000000 0.171756 0.479630
O O20 0.750000 0.377735 0.750000
O O21 0.500000 0.401766 0.794594
#
# Coordination Sequence:
#
# PCOD8220168 Si02
#       8
#     8   8   8   8   8   8   8   8
#     4   9  17  33  54  82 120 156 191 236 287 346
#     4   9  18  35  59  87 121 156 195 241 290 350
#     4  11  23  43  66  88 119 155 198 249 299 352
#     4  10  22  39  57  82 121 160 197 244 296 350
#     4  11  25  42  60  87 120 156 202 251 297 354
#     4  12  24  37  58  88 122 159 196 238 293 354
#     4  10  21  39  64  92 120 154 195 245 303 357
#     4  10  20  34  56  84 115 152 198 245 292 350
#
# _framework density 20.018196
#
# number of rings (size 3 to 8) (size 9 to 14) (size 15 to 20)
#    0.000    1.750    1.250    4.125    0.000    9.000 
#    0.000    3.125    0.000    3.000    0.000    0.000 
#    0.000    0.000    0.000    0.000    0.000    0.000 
#
# Total GULP energy -793814.547167 kJ/mol
# GULP energy per Si atom -12403.352299 kJ/mol
# Density = 1.997263 g / cm^3
# Si number density = 20.018196 Si / 1000 Ang^3
#
#
#
# Elastic Constant Matrix: (Units=GPa)
#
#
# Indices 1 2 3 4 5 6 
#
# 1 116.0766 42.0214 65.3235 0.0000 0.0000 0.0000
# 2 42.0214 68.7779 38.4329 0.0000 0.0000 0.0000
# 3 65.3235 38.4329 123.2475 0.0000 0.0000 0.0000
# 4 0.0000 0.0000 0.0000 8.7794 0.0000 0.0000
# 5 0.0000 0.0000 0.0000 0.0000 30.8513 0.0000
# 6 0.0000 0.0000 0.0000 0.0000 0.0000 31.2769
#
#
#
# Elastic Compliance Matrix: (Units=1/GPa)
#
#
# Indices 1 2 3 4 5 6 
#
# 1 0.013661 -0.005208 -0.005617 0.000000 0.000000 0.000000
# 2 -0.005208 0.019593 -0.003349 0.000000 0.000000 0.000000
# 3 -0.005617 -0.003349 0.012135 0.000000 0.000000 0.000000
# 4 0.000000 0.000000 0.000000 0.113903 0.000000 0.000000
# 5 0.000000 0.000000 0.000000 0.000000 0.032414 0.000000
# 6 0.000000 0.000000 0.000000 0.000000 0.000000 0.031972
#
#
# Mechanical properties :
#
#
# Convention : Reuss Voigt Hill
#
# Bulk Modulus (GPa) = 58.68124 66.62863 62.65494
# Shear Modulus (GPa) = 19.40183 25.00312 22.20248
#
# Velocity S-wave (km/s) = 3.11659 3.53798 3.33395
# Velocity P-wave (km/s) = 6.50603 7.07432 6.79612
#
# Compressibility (1/GPa) = 0.01704122
#
# Stress axis : x y z
#
# Youngs Moduli (GPa) = 73.19981 51.03808 82.40511
#
# Poissons Ratio (x) = 0.26581 0.46284
# Poissons Ratio (y) = 0.38123 0.27601
# Poissons Ratio (z) = 0.41114 0.17095
#
# Static dielectric constant tensor:
#      x y z
#    x 3.618060 0.000000 0.000000 
#    y 0.000000 3.486900 0.000000 
#    z 0.000000 0.000000 3.771130 
# 
# 
# High freq. dielectric constant tensor:
#      x y z
#    x 1.783760 0.000000 0.000000 
#    y 0.000000 1.763780 0.000000 
#    z 0.000000 0.000000 1.789480 
# 
# From -- ./inp_files/38202.got.cif
#   From: 2010.03.12/outbox.cif.g09.slc.cpg/sg53_20_cif.got.tgz:38202.got - 2010.04.16 14:36:59.
