data_PCOD8220782
_publ_section_title
;
Structure prediction by ZEFSAII (Michael W. Deem and Ramdas Pophale) SiO2 
 PCOD8220782
Probable space group: P M N A
;
_chemical_formula_sum "Si O2"
_cell_formula_units_Z 48
_cell_length_a 8.773974
_cell_length_b 14.878932
_cell_length_c 19.187105
_cell_angle_alpha 90.000000
_cell_angle_beta 90.000000
_cell_angle_gamma 90.000000
_cell_volume 2504.825952
_symmetry_space_group_name_H-M "P M N A"
_symmetry_group_IT_number 53
_symmetry_cell_setting 'orthorhombic'
loop_
_space_group_symop_operation_xyz
x,y,z
1/2-x,-y,1/2+z
x,-y,-z
1/2-x,y,1/2-z
-x,-y,-z
1/2+x,y,1/2-z
-x,y,z
1/2+x,-y,1/2+z
loop_
_atom_site_type_symbol
_atom_site_label
_atom_site_fract_x
_atom_site_fract_y
_atom_site_fract_z
Si Si1 0.819980 0.128703 0.824046
Si Si2 0.677653 0.609718 0.674830
Si Si3 0.822356 0.452595 0.927763
Si Si4 0.321465 0.059391 0.177089
Si Si5 0.176037 0.232334 0.410023
Si Si6 0.677847 0.737417 0.068569
O O1 0.750000 0.157062 0.750000
O O2 0.777496 0.202861 0.880241
O O3 0.000000 0.122005 0.816474
O O4 0.754460 0.032839 0.848649
O O5 0.750000 0.607884 0.750000
O O6 0.500000 0.616556 0.685141
O O7 0.723171 0.519405 0.634315
O O8 0.726637 0.696157 0.631739
O O9 0.718268 0.365878 0.918235
O O10 0.000000 0.425584 0.925955
O O11 0.780442 0.500000 0.000000
O O12 0.250000 0.092129 0.250000
O O13 0.500000 0.043260 0.188241
O O14 0.287839 0.133301 0.118524
O O15 0.223190 0.234219 0.490558
O O16 0.000000 0.257749 0.399918
O O17 0.500000 0.753067 0.083342
#
# Coordination Sequence:
#
# PCOD8220782 Si02
#       6
#     8   8   8   8   8   8
#     4  11  23  41  63  87 117 154 198 247 297 354
#     4  11  23  38  60  87 120 155 196 247 296 352
#     4  10  21  40  61  84 116 157 200 245 296 348
#     4  10  20  37  59  85 118 156 197 243 294 349
#     4  10  22  38  59  88 122 158 197 240 293 353
#     4  11  23  39  62  90 120 157 197 244 298 356
#
# _framework density 19.163008999999999
#
# number of rings (size 3 to 8) (size 9 to 14) (size 15 to 20)
#    0.000    1.500    1.667    4.500    0.000    6.333 
#    0.000    5.000    0.000    0.000    0.000    0.000 
#    0.000    0.000    0.000    0.000    0.000    0.000 
#
# Total GULP energy -595457.355288 kJ/mol
# GULP energy per Si atom -12405.361569 kJ/mol
# Density = 1.911939 g / cm^3
# Si number density = 19.163009 Si / 1000 Ang^3
#
#
#
# Elastic Constant Matrix: (Units=GPa)
#
#
# Indices 1 2 3 4 5 6 
#
# 1 98.0004 59.6866 57.1129 0.0000 0.0000 0.0000
# 2 59.6866 126.8654 78.3284 0.0000 0.0000 0.0000
# 3 57.1129 78.3284 124.3511 0.0000 0.0000 0.0000
# 4 0.0000 0.0000 0.0000 18.2836 0.0000 0.0000
# 5 0.0000 0.0000 0.0000 0.0000 -5.9841 0.0000
# 6 0.0000 0.0000 0.0000 0.0000 0.0000 34.3637
#
#
#
# Elastic Compliance Matrix: (Units=1/GPa)
#
#
# Indices 1 2 3 4 5 6 
#
# 1 0.015500 -0.004741 -0.004133 0.000000 0.000000 0.000000
# 2 -0.004741 0.014349 -0.006861 0.000000 0.000000 0.000000
# 3 -0.004133 -0.006861 0.014262 0.000000 0.000000 0.000000
# 4 0.000000 0.000000 0.000000 0.054694 0.000000 0.000000
# 5 0.000000 0.000000 0.000000 0.000000 -0.167108 0.000000
# 6 0.000000 0.000000 0.000000 0.000000 0.000000 0.029100
#
#
# Mechanical properties :
#
#
# Convention : Reuss Voigt Hill
#
# Bulk Modulus (GPa) = 79.10462 82.16361 80.63412
# Shear Modulus (GPa) = -1419.82843 19.60522 -700.11161
#
# Velocity S-wave (km/s) = -27.24940 3.20203 -19.13474
# Velocity P-wave (km/s) = 30.80049 7.52595 21.11907
#
# Compressibility (1/GPa) = 0.01264149
#
# Stress axis : x y z
#
# Youngs Moduli (GPa) = 64.51708 69.69273 70.11859
#
# Poissons Ratio (x) = 0.33038 0.28978
# Poissons Ratio (y) = 0.30585 0.48108
# Poissons Ratio (z) = 0.26663 0.47816
#
# Static dielectric constant tensor:
#      x y z
#    x 3.586300 0.000000 0.000000 
#    y 0.000000 3.536690 0.000000 
#    z 0.000000 0.000000 3.607280 
# 
# 
# High freq. dielectric constant tensor:
#      x y z
#    x 1.755590 0.000000 0.000000 
#    y 0.000000 1.754310 0.000000 
#    z 0.000000 0.000000 1.751910 
# 
# From -- ./inp_files/26179.got.cif
#   From: 2010.03.12/outbox.cif.g09.slc.cpg/sg53_14_cif.got.tgz:26179.got - 2010.04.16 14:36:59.
