data_PCOD8220984
_publ_section_title
;
Structure prediction by ZEFSAII (Michael W. Deem and Ramdas Pophale) SiO2 
 PCOD8220984
Probable space group: P M N A
;
_chemical_formula_sum "Si O2"
_cell_formula_units_Z 64
_cell_length_a 9.195355
_cell_length_b 14.803751
_cell_length_c 23.533056
_cell_angle_alpha 90.000000
_cell_angle_beta 90.000000
_cell_angle_gamma 90.000000
_cell_volume 3203.454798
_symmetry_space_group_name_H-M "P M N A"
_symmetry_group_IT_number 53
_symmetry_cell_setting 'orthorhombic'
loop_
_space_group_symop_operation_xyz
x,y,z
1/2-x,-y,1/2+z
x,-y,-z
1/2-x,y,1/2-z
-x,-y,-z
1/2+x,y,1/2-z
-x,y,z
1/2+x,-y,1/2+z
loop_
_atom_site_type_symbol
_atom_site_label
_atom_site_fract_x
_atom_site_fract_y
_atom_site_fract_z
Si Si1 0.166175 0.212895 0.306493
Si Si2 0.166821 0.396579 0.990179
Si Si3 0.331051 0.338266 0.879815
Si Si4 0.165543 0.654829 0.882979
Si Si5 0.839036 0.895757 0.984724
Si Si6 0.833255 0.143259 0.591463
Si Si7 0.665884 0.053655 0.119276
Si Si8 0.170472 0.481418 0.808204
O O1 0.250000 0.238137 0.250000
O O2 0.225575 0.272126 0.357983
O O3 0.184248 0.106013 0.320939
O O4 0.000000 0.239049 0.296469
O O5 0.274438 0.358024 0.943022
O O6 0.000000 0.387175 0.969065
O O7 0.206430 0.500000 0.000000
O O8 0.191533 0.344723 0.049479
O O9 0.500000 0.366497 0.875637
O O10 0.311190 0.230478 0.868454
O O11 0.239247 0.388710 0.831573
O O12 0.198569 0.556827 0.856017
O O13 0.000000 0.682016 0.868641
O O14 0.757557 0.887319 0.925205
O O15 0.000000 0.854123 0.978098
O O16 0.759090 0.841297 0.034358
O O17 0.844759 0.000000 0.000000
O O18 0.000000 0.134336 0.572426
O O19 0.783370 0.051245 0.624355
O O20 0.500000 0.057103 0.098370
O O21 0.250000 0.510054 0.750000
O O22 0.000000 0.466712 0.796315
#
# Coordination Sequence:
#
# PCOD8220984 Si02
#       8
#     8   8   8   8   8   8   8   8
#     4  11  24  40  60  85 114 150 197 246 296 351
#     4  10  20  39  61  86 121 160 195 236 296 354
#     4  11  23  37  58  90 123 158 199 243 288 346
#     4  10  22  40  63  88 118 155 192 236 293 353
#     4   9  17  29  49  79 109 139 181 230 277 330
#     4   9  19  36  56  79 114 154 191 230 282 342
#     4   9  19  37  57  77 108 150 190 233 284 341
#     4  11  23  42  64  86 114 152 195 240 292 348
#
# _framework density 19.978431
#
# number of rings (size 3 to 8) (size 9 to 14) (size 15 to 20)
#    0.000    2.000    1.250    1.875    1.750    6.250 
#    0.000    0.625    0.000    1.500    0.000    0.000 
#    0.000    0.000    0.000    0.000    0.000    0.000 
#
# Total GULP energy -793593.031851 kJ/mol
# GULP energy per Si atom -12399.891123 kJ/mol
# Density = 1.993296 g / cm^3
# Si number density = 19.978431 Si / 1000 Ang^3
#
#
#
# Elastic Constant Matrix: (Units=GPa)
#
#
# Indices 1 2 3 4 5 6 
#
# 1 104.1765 35.0973 30.8151 0.0000 0.0000 0.0000
# 2 35.0973 73.0446 11.2913 0.0000 0.0000 0.0000
# 3 30.8151 11.2913 58.7276 0.0000 0.0000 0.0000
# 4 0.0000 0.0000 0.0000 23.2044 0.0000 0.0000
# 5 0.0000 0.0000 0.0000 0.0000 31.9597 0.0000
# 6 0.0000 0.0000 0.0000 0.0000 0.0000 24.3223
#
#
#
# Elastic Compliance Matrix: (Units=1/GPa)
#
#
# Indices 1 2 3 4 5 6 
#
# 1 0.013158 -0.005416 -0.005863 0.000000 0.000000 0.000000
# 2 -0.005416 0.016339 -0.000300 0.000000 0.000000 0.000000
# 3 -0.005863 -0.000300 0.020162 0.000000 0.000000 0.000000
# 4 0.000000 0.000000 0.000000 0.043095 0.000000 0.000000
# 5 0.000000 0.000000 0.000000 0.000000 0.031289 0.000000
# 6 0.000000 0.000000 0.000000 0.000000 0.000000 0.041115
#
#
# Mechanical properties :
#
#
# Convention : Reuss Voigt Hill
#
# Bulk Modulus (GPa) = 37.73340 43.37292 40.55316
# Shear Modulus (GPa) = 25.36157 26.48026 25.92091
#
# Velocity S-wave (km/s) = 3.56680 3.64461 3.60591
# Velocity P-wave (km/s) = 5.99089 6.28235 6.13835
#
# Compressibility (1/GPa) = 0.02650172
#
# Stress axis : x y z
#
# Youngs Moduli (GPa) = 75.99954 61.20350 49.59906
#
# Poissons Ratio (x) = 0.33148 0.29079
# Poissons Ratio (y) = 0.41161 0.01486
# Poissons Ratio (z) = 0.44557 0.01834
#
# Static dielectric constant tensor:
#      x y z
#    x 3.741290 0.000000 0.000000 
#    y 0.000000 3.759980 0.000000 
#    z 0.000000 0.000000 3.428130 
# 
# 
# High freq. dielectric constant tensor:
#      x y z
#    x 1.783270 0.000000 0.000000 
#    y 0.000000 1.788720 0.000000 
#    z 0.000000 0.000000 1.758520 
# 
# From -- ./inp_files/34285.got.cif
#   From: 2010.03.12/outbox.cif.g09.slc.cpg/sg53_18_cif.got.tgz:34285.got - 2010.04.16 14:36:59.
