data_PCOD8220135
_publ_section_title
;
Structure prediction by ZEFSAII (Michael W. Deem and Ramdas Pophale) SiO2 
 PCOD8220135
Probable space group: P M N A
;
_chemical_formula_sum "Si O2"
_cell_formula_units_Z 56
_cell_length_a 8.657165
_cell_length_b 22.330815
_cell_length_c 14.534856
_cell_angle_alpha 90.000000
_cell_angle_beta 90.000000
_cell_angle_gamma 90.000000
_cell_volume 2809.900892
_symmetry_space_group_name_H-M "P M N A"
_symmetry_group_IT_number 53
_symmetry_cell_setting 'orthorhombic'
loop_
_space_group_symop_operation_xyz
x,y,z
1/2-x,-y,1/2+z
x,-y,-z
1/2-x,y,1/2-z
-x,-y,-z
1/2+x,y,1/2-z
-x,y,z
1/2+x,-y,1/2+z
loop_
_atom_site_type_symbol
_atom_site_label
_atom_site_fract_x
_atom_site_fract_y
_atom_site_fract_z
Si Si1 0.317148 0.900243 0.652032
Si Si2 0.682424 0.601503 0.655442
Si Si3 0.316653 0.641917 0.463895
Si Si4 0.317154 0.533417 0.344712
Si Si5 0.179265 0.971328 0.343613
Si Si6 0.321278 0.140284 0.969301
Si Si7 0.317191 0.244986 0.648328
O O1 0.250000 0.878577 0.750000
O O2 0.500000 0.893698 0.652922
O O3 0.248116 0.858368 0.571852
O O4 0.269759 0.968416 0.631544
O O5 0.750000 0.628026 0.750000
O O6 0.500000 0.600967 0.663738
O O7 0.737390 0.643304 0.570639
O O8 0.743997 0.533886 0.637080
O O9 0.500000 0.644254 0.458467
O O10 0.257203 0.578876 0.422649
O O11 0.248715 0.698236 0.408079
O O12 0.250000 0.558618 0.250000
O O13 0.500000 0.533642 0.340121
O O14 0.250000 0.943223 0.250000
O O15 0.200627 0.925691 0.427070
O O16 0.000000 0.987216 0.327453
O O17 0.500000 0.158678 0.972459
O O18 0.229908 0.185584 0.904997
O O19 0.250000 0.244861 0.750000
O O20 0.500000 0.247893 0.655900
#
# Coordination Sequence:
#
# PCOD8220135 Si02
#       7
#     8   8   8   8   8   8   8
#     4  11  22  37  59  86 116 147 181 223 272 326
#     4   9  17  31  51  76 105 136 173 216 264 319
#     4   9  18  33  53  75 102 140 181 218 262 320
#     4   9  16  28  49  76 105 137 172 214 265 320
#     4  10  20  34  55  83 115 148 182 224 273 326
#     4  11  23  39  58  81 111 147 188 230 273 322
#     4  11  23  39  58  80 107 140 180 225 273 324
#
# _framework density 19.929528999999999
#
# number of rings (size 3 to 8) (size 9 to 14) (size 15 to 20)
#    0.000    2.000    0.000    5.143    0.000    6.857 
#    0.000    3.571    0.000    5.143    0.000    0.000 
#    0.000    0.000    0.000    0.000    0.000    0.000 
#
# Total GULP energy -694368.557099 kJ/mol
# GULP energy per Si atom -12399.438520 kJ/mol
# Density = 1.988417 g / cm^3
# Si number density = 19.929529 Si / 1000 Ang^3
#
#
#
# Elastic Constant Matrix: (Units=GPa)
#
#
# Indices 1 2 3 4 5 6 
#
# 1 65.1718 20.1193 39.6434 0.0000 0.0000 0.0000
# 2 20.1193 65.2025 60.6757 0.0000 0.0000 0.0000
# 3 39.6434 60.6757 181.9532 0.0000 0.0000 0.0000
# 4 0.0000 0.0000 0.0000 23.4160 0.0000 0.0000
# 5 0.0000 0.0000 0.0000 0.0000 34.2840 0.0000
# 6 0.0000 0.0000 0.0000 0.0000 0.0000 22.9779
#
#
#
# Elastic Compliance Matrix: (Units=1/GPa)
#
#
# Indices 1 2 3 4 5 6 
#
# 1 0.018026 -0.002766 -0.003005 0.000000 0.000000 0.000000
# 2 -0.002766 0.022662 -0.006954 0.000000 0.000000 0.000000
# 3 -0.003005 -0.006954 0.008470 0.000000 0.000000 0.000000
# 4 0.000000 0.000000 0.000000 0.042706 0.000000 0.000000
# 5 0.000000 0.000000 0.000000 0.000000 0.029168 0.000000
# 6 0.000000 0.000000 0.000000 0.000000 0.000000 0.043520
#
#
# Mechanical properties :
#
#
# Convention : Reuss Voigt Hill
#
# Bulk Modulus (GPa) = 42.18169 61.46715 51.82442
# Shear Modulus (GPa) = 25.26473 28.92818 27.09646
#
# Velocity S-wave (km/s) = 3.56435 3.81402 3.69129
# Velocity P-wave (km/s) = 6.17663 7.09259 6.65040
#
# Compressibility (1/GPa) = 0.02370697
#
# Stress axis : x y z
#
# Youngs Moduli (GPa) = 55.47583 44.12707 118.06697
#
# Poissons Ratio (x) = 0.12204 0.35481
# Poissons Ratio (y) = 0.15343 0.82109
# Poissons Ratio (z) = 0.16671 0.30688
#
# Static dielectric constant tensor:
#      x y z
#    x 3.516970 0.000000 0.000000 
#    y 0.000000 3.547490 0.000000 
#    z 0.000000 0.000000 3.932860 
# 
# 
# High freq. dielectric constant tensor:
#      x y z
#    x 1.765400 0.000000 0.000000 
#    y 0.000000 1.756060 0.000000 
#    z 0.000000 0.000000 1.795430 
# 
# From -- ./inp_files/20523.got.cif
#   From: 2010.03.12/outbox.cif.g09.slc.cpg/sg53_11_cif.got.tgz:20523.got - 2010.04.16 14:36:59.
