data_PCOD8220139
_publ_section_title
;
Structure prediction by ZEFSAII (Michael W. Deem and Ramdas Pophale) SiO2 
 PCOD8220139
Probable space group: P M N A
;
_chemical_formula_sum "Si O2"
_cell_formula_units_Z 56
_cell_length_a 8.807789
_cell_length_b 22.479394
_cell_length_c 14.245114
_cell_angle_alpha 90.000000
_cell_angle_beta 90.000000
_cell_angle_gamma 90.000000
_cell_volume 2820.443671
_symmetry_space_group_name_H-M "P M N A"
_symmetry_group_IT_number 53
_symmetry_cell_setting 'orthorhombic'
loop_
_space_group_symop_operation_xyz
x,y,z
1/2-x,-y,1/2+z
x,-y,-z
1/2-x,y,1/2-z
-x,-y,-z
1/2+x,y,1/2-z
-x,y,z
1/2+x,-y,1/2+z
loop_
_atom_site_type_symbol
_atom_site_label
_atom_site_fract_x
_atom_site_fract_y
_atom_site_fract_z
Si Si1 0.678389 0.904732 0.658296
Si Si2 0.825411 0.368339 0.544031
Si Si3 0.679723 0.137434 0.546238
Si Si4 0.175172 0.403866 0.343315
Si Si5 0.669134 0.021541 0.894635
Si Si6 0.679746 0.751650 0.147206
Si Si7 0.820868 0.530557 0.153992
O O1 0.750000 0.871917 0.750000
O O2 0.500000 0.905367 0.668260
O O3 0.727647 0.871474 0.562734
O O4 0.737664 0.972438 0.662062
O O5 0.804712 0.359456 0.431610
O O6 0.771145 0.309785 0.598297
O O7 0.721582 0.423761 0.572361
O O8 0.000000 0.383104 0.568002
O O9 0.500000 0.140370 0.557901
O O10 0.741604 0.083824 0.610624
O O11 0.755199 0.197540 0.580825
O O12 0.250000 0.375068 0.250000
O O13 0.253450 0.466171 0.368709
O O14 0.000000 0.416600 0.321505
O O15 0.500000 0.029373 0.851941
O O16 0.656923 0.000000 0.000000
O O17 0.750000 0.755281 0.250000
O O18 0.500000 0.758302 0.154660
O O19 0.750000 0.556105 0.250000
O O20 0.000000 0.525546 0.162884
#
# Coordination Sequence:
#
# PCOD8220139 Si02
#       7
#     8   8   8   8   8   8   8
#     4  10  20  34  55  84 117 150 185 227 274 328
#     4  10  22  39  58  81 111 147 185 229 278 326
#     4  10  21  38  58  82 113 148 187 231 278 327
#     4  10  20  36  57  82 114 148 183 225 274 328
#     4   9  17  31  53  80 110 144 181 223 272 323
#     4  11  24  42  62  83 108 141 184 230 277 329
#     4  11  21  33  54  84 116 149 185 226 274 329
#
# _framework density 19.855032999999999
#
# number of rings (size 3 to 8) (size 9 to 14) (size 15 to 20)
#    0.000    1.857    0.000    5.143    0.000    9.143 
#    0.000    3.571    0.000    3.429    0.000    0.000 
#    0.000    0.000    0.000    0.000    0.000    0.000 
#
# Total GULP energy -694408.222329 kJ/mol
# GULP energy per Si atom -12400.146827 kJ/mol
# Density = 1.980984 g / cm^3
# Si number density = 19.855033 Si / 1000 Ang^3
#
#
#
# Elastic Constant Matrix: (Units=GPa)
#
#
# Indices 1 2 3 4 5 6 
#
# 1 118.1773 34.9007 51.3171 0.0000 0.0000 0.0000
# 2 34.9007 62.7594 46.2783 0.0000 0.0000 0.0000
# 3 51.3171 46.2783 129.7610 0.0000 0.0000 0.0000
# 4 0.0000 0.0000 0.0000 29.5753 0.0000 0.0000
# 5 0.0000 0.0000 0.0000 0.0000 34.3780 0.0000
# 6 0.0000 0.0000 0.0000 0.0000 0.0000 17.0238
#
#
#
# Elastic Compliance Matrix: (Units=1/GPa)
#
#
# Indices 1 2 3 4 5 6 
#
# 1 0.010878 -0.003904 -0.002910 0.000000 0.000000 0.000000
# 2 -0.003904 0.023020 -0.006666 0.000000 0.000000 0.000000
# 3 -0.002910 -0.006666 0.011235 0.000000 0.000000 0.000000
# 4 0.000000 0.000000 0.000000 0.033812 0.000000 0.000000
# 5 0.000000 0.000000 0.000000 0.000000 0.029088 0.000000
# 6 0.000000 0.000000 0.000000 0.000000 0.000000 0.058741
#
#
# Mechanical properties :
#
#
# Convention : Reuss Voigt Hill
#
# Bulk Modulus (GPa) = 55.02444 63.96555 59.49499
# Shear Modulus (GPa) = 25.02597 28.07554 26.55076
#
# Velocity S-wave (km/s) = 3.55411 3.76443 3.66078
# Velocity P-wave (km/s) = 6.67949 7.15408 6.92085
#
# Compressibility (1/GPa) = 0.01817374
#
# Stress axis : x y z
#
# Youngs Moduli (GPa) = 91.92611 43.43982 89.01000
#
# Poissons Ratio (x) = 0.16958 0.25900
# Poissons Ratio (y) = 0.35886 0.59336
# Poissons Ratio (z) = 0.26749 0.28958
#
# Static dielectric constant tensor:
#      x y z
#    x 3.731130 0.000000 0.000000 
#    y 0.000000 3.407150 0.000000 
#    z 0.000000 0.000000 3.857760 
# 
# 
# High freq. dielectric constant tensor:
#      x y z
#    x 1.787750 0.000000 0.000000 
#    y 0.000000 1.746010 0.000000 
#    z 0.000000 0.000000 1.787420 
# 
# From -- ./inp_files/20458.got.cif
#   From: 2010.03.12/outbox.cif.g09.slc.cpg/sg53_11_cif.got.tgz:20458.got - 2010.04.16 14:36:59.
