data_PCOD8220983
_publ_section_title
;
Structure prediction by ZEFSAII (Michael W. Deem and Ramdas Pophale) SiO2 
 PCOD8220983
Probable space group: P M N A
;
_chemical_formula_sum "Si O2"
_cell_formula_units_Z 64
_cell_length_a 9.117610
_cell_length_b 20.258144
_cell_length_c 19.342849
_cell_angle_alpha 90.000000
_cell_angle_beta 90.000000
_cell_angle_gamma 90.000000
_cell_volume 3572.737488
_symmetry_space_group_name_H-M "P M N A"
_symmetry_group_IT_number 53
_symmetry_cell_setting 'orthorhombic'
loop_
_space_group_symop_operation_xyz
x,y,z
1/2-x,-y,1/2+z
x,-y,-z
1/2-x,y,1/2-z
-x,-y,-z
1/2+x,y,1/2-z
-x,y,z
1/2+x,-y,1/2+z
loop_
_atom_site_type_symbol
_atom_site_label
_atom_site_fract_x
_atom_site_fract_y
_atom_site_fract_z
Si Si1 0.173486 0.157593 0.448700
Si Si2 0.173766 0.983339 0.575258
Si Si3 0.829906 0.755131 0.317905
Si Si4 0.670458 0.402191 0.322699
Si Si5 0.170495 0.520344 0.078273
Si Si6 0.327727 0.708298 0.569955
Si Si7 0.673970 0.121618 0.896117
Si Si8 0.828731 0.651491 0.436872
O O1 0.220282 0.091546 0.404038
O O2 0.260281 0.219394 0.417840
O O3 0.223226 0.145243 0.527642
O O4 0.000000 0.171857 0.443518
O O5 0.000000 0.983681 0.571518
O O6 0.237406 0.000000 0.500000
O O7 0.227164 0.045994 0.622160
O O8 0.750000 0.728889 0.250000
O O9 0.765417 0.827381 0.339097
O O10 0.797216 0.707256 0.381000
O O11 0.000000 0.758367 0.300372
O O12 0.750000 0.404135 0.250000
O O13 0.500000 0.409836 0.307837
O O14 0.724147 0.462286 0.371094
O O15 0.704418 0.333284 0.360917
O O16 0.267224 0.584123 0.095376
O O17 0.000000 0.537107 0.089358
O O18 0.201597 0.500000 0.000000
O O19 0.500000 0.713537 0.554985
O O20 0.254725 0.670389 0.506438
O O21 0.500000 0.124918 0.895461
O O22 0.000000 0.644574 0.453609
#
# Coordination Sequence:
#
# PCOD8220983 Si02
#       8
#     8   8   8   8   8   8   8   8
#     4   9  15  27  49  79 105 130 174 224 264 311
#     4   7  11  20  42  72  99 128 165 212 264 310
#     4  10  21  35  50  72 106 142 182 226 269 319
#     4  10  23  41  60  82 110 143 179 216 262 319
#     4  10  20  39  61  82 112 144 173 211 265 323
#     4  11  21  35  55  80 111 146 176 215 276 328
#     4   8  13  26  46  70 101 134 172 220 265 310
#     4  11  22  36  56  83 108 137 183 231 264 308
#
# _framework density 17.913433999999999
#
# number of rings (size 3 to 8) (size 9 to 14) (size 15 to 20)
#    0.000    2.500    2.500    2.250    0.000    3.250 
#    0.000    2.500    0.000    4.875    0.000    3.500 
#    0.000    0.000    0.000    0.000    0.000    0.000 
#
# Total GULP energy -793032.246038 kJ/mol
# GULP energy per Si atom -12391.128844 kJ/mol
# Density = 1.787266 g / cm^3
# Si number density = 17.913434 Si / 1000 Ang^3
#
#
#
# Elastic Constant Matrix: (Units=GPa)
#
#
# Indices 1 2 3 4 5 6 
#
# 1 55.3053 56.0041 43.7650 0.0000 0.0000 0.0000
# 2 56.0041 156.3654 46.7959 0.0000 0.0000 0.0000
# 3 43.7650 46.7959 89.6255 0.0000 0.0000 0.0000
# 4 0.0000 0.0000 0.0000 11.2403 0.0000 0.0000
# 5 0.0000 0.0000 0.0000 0.0000 24.8795 0.0000
# 6 0.0000 0.0000 0.0000 0.0000 0.0000 19.1102
#
#
#
# Elastic Compliance Matrix: (Units=1/GPa)
#
#
# Indices 1 2 3 4 5 6 
#
# 1 0.039057 -0.009815 -0.013948 0.000000 0.000000 0.000000
# 2 -0.009815 0.010046 -0.000453 0.000000 0.000000 0.000000
# 3 -0.013948 -0.000453 0.018205 0.000000 0.000000 0.000000
# 4 0.000000 0.000000 0.000000 0.088966 0.000000 0.000000
# 5 0.000000 0.000000 0.000000 0.000000 0.040194 0.000000
# 6 0.000000 0.000000 0.000000 0.000000 0.000000 0.052328
#
#
# Mechanical properties :
#
#
# Convention : Reuss Voigt Hill
#
# Bulk Modulus (GPa) = 52.97148 66.04735 59.50941
# Shear Modulus (GPa) = 16.47349 21.36143 18.91746
#
# Velocity S-wave (km/s) = 3.03581 3.45698 3.25322
# Velocity P-wave (km/s) = 6.47481 7.27218 6.88505
#
# Compressibility (1/GPa) = 0.01887808
#
# Stress axis : x y z
#
# Youngs Moduli (GPa) = 25.60337 99.54211 54.93108
#
# Poissons Ratio (x) = 0.97698 0.76616
# Poissons Ratio (y) = 0.25129 0.02487
# Poissons Ratio (z) = 0.35710 0.04506
#
# Static dielectric constant tensor:
#      x y z
#    x 3.049810 0.000000 0.000000 
#    y 0.000000 3.906140 0.000000 
#    z 0.000000 0.000000 2.899940 
# 
# 
# High freq. dielectric constant tensor:
#      x y z
#    x 1.666560 0.000000 0.000000 
#    y 0.000000 1.719130 0.000000 
#    z 0.000000 0.000000 1.658530 
# 
# From -- ./inp_files/31343.got.cif
#   From: 2010.03.12/outbox.cif.g09.slc.cpg/sg53_16_cif.got.tgz:31343.got - 2010.04.16 14:36:59.
