data_PCOD8220482
_publ_section_title
;
Structure prediction by ZEFSAII (Michael W. Deem and Ramdas Pophale) SiO2 
 PCOD8220482
Probable space group: P M N A
;
_chemical_formula_sum "Si O2"
_cell_formula_units_Z 48
_cell_length_a 8.729725
_cell_length_b 30.585270
_cell_length_c 9.346090
_cell_angle_alpha 90.000000
_cell_angle_beta 90.000000
_cell_angle_gamma 90.000000
_cell_volume 2495.415340
_symmetry_space_group_name_H-M "P M N A"
_symmetry_group_IT_number 53
_symmetry_cell_setting 'orthorhombic'
loop_
_space_group_symop_operation_xyz
x,y,z
1/2-x,-y,1/2+z
x,-y,-z
1/2-x,y,1/2-z
-x,-y,-z
1/2+x,y,1/2-z
-x,y,z
1/2+x,-y,1/2+z
loop_
_atom_site_type_symbol
_atom_site_label
_atom_site_fract_x
_atom_site_fract_y
_atom_site_fract_z
Si Si1 0.178364 0.635006 0.094835
Si Si2 0.179341 0.118579 0.907199
Si Si3 0.680225 0.042151 0.093016
Si Si4 0.679453 0.799040 0.597588
Si Si5 0.319289 0.708139 0.902566
Si Si6 0.676761 0.462210 0.597341
O O1 0.250000 0.636208 0.250000
O O2 0.200534 0.586192 0.029806
O O3 0.000000 0.648219 0.099239
O O4 0.274409 0.668982 0.004512
O O5 0.250000 0.115652 0.750000
O O6 0.000000 0.109345 0.894664
O O7 0.251818 0.083652 0.013168
O O8 0.214984 0.165609 0.975666
O O9 0.750000 0.036903 0.250000
O O10 0.500000 0.048311 0.108940
O O11 0.723466 0.000000 0.000000
O O12 0.750000 0.813524 0.750000
O O13 0.500000 0.792511 0.621692
O O14 0.752219 0.754007 0.540675
O O15 0.250000 0.696776 0.750000
O O16 0.500000 0.712292 0.891550
O O17 0.752773 0.500000 0.500000
O O18 0.750000 0.465089 0.750000
O O19 0.500000 0.472575 0.618678
#
# Coordination Sequence:
#
# PCOD8220482 Si02
#       6
#     8   8   8   8   8   8
#     4  10  20  36  56  79 110 145 183 227 276 331
#     4  11  24  40  61  88 119 154 193 238 285 337
#     4  11  24  41  63  90 121 157 196 239 286 338
#     4  10  21  38  59  84 113 147 188 233 283 336
#     4  11  22  37  58  83 112 147 187 231 279 332
#     4   9  19  35  54  78 107 140 179 223 271 325
#
# _framework density 19.235275000000001
#
# number of rings (size 3 to 8) (size 9 to 14) (size 15 to 20)
#    0.000    1.667    0.000    5.500    0.000    9.000 
#    0.000    3.333    0.000    0.000    0.000    0.000 
#    0.000    0.000    0.000    0.000    0.000    0.000 
#
# Total GULP energy -595247.547346 kJ/mol
# GULP energy per Si atom -12400.990570 kJ/mol
# Density = 1.919149 g / cm^3
# Si number density = 19.235275 Si / 1000 Ang^3
#
#
#
# Elastic Constant Matrix: (Units=GPa)
#
#
# Indices 1 2 3 4 5 6 
#
# 1 112.4117 64.8831 54.9731 0.0000 0.0000 0.0000
# 2 64.8831 128.3496 74.0438 0.0000 0.0000 0.0000
# 3 54.9731 74.0438 117.1493 0.0000 0.0000 0.0000
# 4 0.0000 0.0000 0.0000 53.2215 0.0000 0.0000
# 5 0.0000 0.0000 0.0000 0.0000 35.2299 0.0000
# 6 0.0000 0.0000 0.0000 0.0000 0.0000 34.8096
#
#
#
# Elastic Compliance Matrix: (Units=1/GPa)
#
#
# Indices 1 2 3 4 5 6 
#
# 1 0.013249 -0.004896 -0.003123 0.000000 0.000000 0.000000
# 2 -0.004896 0.014072 -0.006596 0.000000 0.000000 0.000000
# 3 -0.003123 -0.006596 0.014171 0.000000 0.000000 0.000000
# 4 0.000000 0.000000 0.000000 0.018789 0.000000 0.000000
# 5 0.000000 0.000000 0.000000 0.000000 0.028385 0.000000
# 6 0.000000 0.000000 0.000000 0.000000 0.000000 0.028728
#
#
# Mechanical properties :
#
#
# Convention : Reuss Voigt Hill
#
# Bulk Modulus (GPa) = 81.55939 82.85674 82.20807
# Shear Modulus (GPa) = 33.17612 35.58624 34.38118
#
# Velocity S-wave (km/s) = 4.15752 4.30589 4.23235
# Velocity P-wave (km/s) = 8.09566 8.23953 8.16791
#
# Compressibility (1/GPa) = 0.01226100
#
# Stress axis : x y z
#
# Youngs Moduli (GPa) = 75.47762 71.06412 70.56856
#
# Poissons Ratio (x) = 0.34795 0.22035
# Poissons Ratio (y) = 0.36956 0.46550
# Poissons Ratio (z) = 0.23568 0.46877
#
# Static dielectric constant tensor:
#      x y z
#    x 3.700730 0.000000 0.000000 
#    y 0.000000 3.908660 0.000000 
#    z 0.000000 0.000000 3.317620 
# 
# 
# High freq. dielectric constant tensor:
#      x y z
#    x 1.764410 0.000000 0.000000 
#    y 0.000000 1.765750 0.000000 
#    z 0.000000 0.000000 1.747100 
# 
# From -- ./inp_files/6593.got.cif
#   From: 2010.03.12/outbox.cif.g09.slc.cpg/sg53_4_cif.got.tgz:6593.got - 2010.04.16 14:36:59.
