data_PCOD8220129
_publ_section_title
;
Structure prediction by ZEFSAII (Michael W. Deem and Ramdas Pophale) SiO2 
 PCOD8220129
Probable space group: P M N A
;
_chemical_formula_sum "Si O2"
_cell_formula_units_Z 48
_cell_length_a 8.840985
_cell_length_b 30.868094
_cell_length_c 9.076596
_cell_angle_alpha 90.000000
_cell_angle_beta 90.000000
_cell_angle_gamma 90.000000
_cell_volume 2477.042586
_symmetry_space_group_name_H-M "P M N A"
_symmetry_group_IT_number 53
_symmetry_cell_setting 'orthorhombic'
loop_
_space_group_symop_operation_xyz
x,y,z
1/2-x,-y,1/2+z
x,-y,-z
1/2-x,y,1/2-z
-x,-y,-z
1/2+x,y,1/2-z
-x,y,z
1/2+x,-y,1/2+z
loop_
_atom_site_type_symbol
_atom_site_label
_atom_site_fract_x
_atom_site_fract_y
_atom_site_fract_z
Si Si1 0.178254 0.118891 0.909770
Si Si2 0.677986 0.796610 0.589269
Si Si3 0.174630 0.956939 0.593825
Si Si4 0.175422 0.712251 0.592114
Si Si5 0.324113 0.542234 0.405139
Si Si6 0.676004 0.383499 0.090559
O O1 0.250000 0.115197 0.750000
O O2 0.000000 0.113319 0.894564
O O3 0.223718 0.164531 0.981873
O O4 0.240585 0.081769 0.014057
O O5 0.750000 0.804124 0.750000
O O6 0.500000 0.792966 0.609354
O O7 0.741556 0.752463 0.511090
O O8 0.250000 0.965751 0.750000
O O9 0.000000 0.944262 0.615218
O O10 0.193697 0.000000 0.500000
O O11 0.250000 0.709323 0.750000
O O12 0.199551 0.664756 0.520550
O O13 0.000000 0.723707 0.606403
O O14 0.291204 0.500000 0.500000
O O15 0.250000 0.532788 0.250000
O O16 0.500000 0.551542 0.385488
O O17 0.249964 0.584102 0.476680
O O18 0.750000 0.388733 0.250000
O O19 0.500000 0.394179 0.109448
#
# Coordination Sequence:
#
# PCOD8220129 Si02
#       6
#     8   8   8   8   8   8
#     4  11  24  40  59  84 115 152 193 237 286 338
#     4  10  20  34  55  83 112 146 188 233 280 331
#     4  11  24  41  63  90 119 152 190 233 281 335
#     4   9  17  30  52  81 111 145 184 227 275 328
#     4  11  24  40  59  83 111 145 184 228 278 332
#     4  10  20  35  57  85 115 148 187 230 278 332
#
# _framework density 19.377946000000001
#
# number of rings (size 3 to 8) (size 9 to 14) (size 15 to 20)
#    0.000    1.667    0.000    5.500    0.000   11.333 
#    0.000    0.833    0.000    2.000    0.000    0.000 
#    0.000    0.000    0.000    0.000    0.000    0.000 
#
# Total GULP energy -595163.546517 kJ/mol
# GULP energy per Si atom -12399.240552 kJ/mol
# Density = 1.933384 g / cm^3
# Si number density = 19.377946 Si / 1000 Ang^3
#
#
#
# Elastic Constant Matrix: (Units=GPa)
#
#
# Indices 1 2 3 4 5 6 
#
# 1 118.4344 77.3036 58.8075 0.0000 0.0000 0.0000
# 2 77.3036 130.6599 45.6941 0.0000 0.0000 0.0000
# 3 58.8075 45.6941 105.2229 0.0000 0.0000 0.0000
# 4 0.0000 0.0000 0.0000 28.5194 0.0000 0.0000
# 5 0.0000 0.0000 0.0000 0.0000 27.2655 0.0000
# 6 0.0000 0.0000 0.0000 0.0000 0.0000 35.6648
#
#
#
# Elastic Compliance Matrix: (Units=1/GPa)
#
#
# Indices 1 2 3 4 5 6 
#
# 1 0.016290 -0.007610 -0.005800 0.000000 0.000000 0.000000
# 2 -0.007610 0.012579 -0.001209 0.000000 0.000000 0.000000
# 3 -0.005800 -0.001209 0.013270 0.000000 0.000000 0.000000
# 4 0.000000 0.000000 0.000000 0.035064 0.000000 0.000000
# 5 0.000000 0.000000 0.000000 0.000000 0.036676 0.000000
# 6 0.000000 0.000000 0.000000 0.000000 0.000000 0.028039
#
#
# Mechanical properties :
#
#
# Convention : Reuss Voigt Hill
#
# Bulk Modulus (GPa) = 77.51167 79.76973 78.64070
# Shear Modulus (GPa) = 28.49706 29.79072 29.14389
#
# Velocity S-wave (km/s) = 3.83899 3.92516 3.88232
# Velocity P-wave (km/s) = 7.72899 7.86111 7.79533
#
# Compressibility (1/GPa) = 0.01290128
#
# Stress axis : x y z
#
# Youngs Moduli (GPa) = 61.38629 79.49999 75.35633
#
# Poissons Ratio (x) = 0.60497 0.43705
# Poissons Ratio (y) = 0.46713 0.09114
# Poissons Ratio (z) = 0.35603 0.09615
#
# Static dielectric constant tensor:
#      x y z
#    x 3.788220 0.000000 0.000000 
#    y 0.000000 4.213700 0.000000 
#    z 0.000000 0.000000 3.298690 
# 
# 
# High freq. dielectric constant tensor:
#      x y z
#    x 1.775640 0.000000 0.000000 
#    y 0.000000 1.780000 0.000000 
#    z 0.000000 0.000000 1.732440 
# 
# From -- ./inp_files/6616.got.cif
#   From: 2010.03.12/outbox.cif.g09.slc.cpg/sg53_4_cif.got.tgz:6616.got - 2010.04.16 14:36:59.
