data_PCOD8220081
_publ_section_title
;
Structure prediction by ZEFSAII (Michael W. Deem and Ramdas Pophale) SiO2 
 PCOD8220081
Probable space group: P M N A
;
_chemical_formula_sum "Si O2"
_cell_formula_units_Z 48
_cell_length_a 8.702885
_cell_length_b 18.263517
_cell_length_c 15.210713
_cell_angle_alpha 90.000000
_cell_angle_beta 90.000000
_cell_angle_gamma 90.000000
_cell_volume 2417.671161
_symmetry_space_group_name_H-M "P M N A"
_symmetry_group_IT_number 53
_symmetry_cell_setting 'orthorhombic'
loop_
_space_group_symop_operation_xyz
x,y,z
1/2-x,-y,1/2+z
x,-y,-z
1/2-x,y,1/2-z
-x,-y,-z
1/2+x,y,1/2-z
-x,y,z
1/2+x,-y,1/2+z
loop_
_atom_site_type_symbol
_atom_site_label
_atom_site_fract_x
_atom_site_fract_y
_atom_site_fract_z
Si Si1 0.181572 0.940654 0.657491
Si Si2 0.181839 0.097399 0.843036
Si Si3 0.180130 0.172451 0.493579
Si Si4 0.680561 0.674182 0.518126
Si Si5 0.680378 0.400130 0.662874
Si Si6 0.327673 0.461744 0.093613
O O1 0.250000 0.913084 0.750000
O O2 0.228634 0.883691 0.582538
O O3 0.000000 0.949132 0.666968
O O4 0.251442 0.018560 0.630290
O O5 0.250000 0.123866 0.750000
O O6 0.228089 0.155294 0.917365
O O7 0.000000 0.092696 0.834839
O O8 0.227470 0.252364 0.460127
O O9 0.000000 0.168346 0.513019
O O10 0.500000 0.687985 0.526059
O O11 0.729102 0.648068 0.420676
O O12 0.731155 0.613403 0.589146
O O13 0.750000 0.361806 0.750000
O O14 0.500000 0.405637 0.670258
O O15 0.746835 0.482457 0.660006
O O16 0.500000 0.444387 0.126001
O O17 0.329260 0.500000 0.000000
#
# Coordination Sequence:
#
# PCOD8220081 Si02
#       6
#     8   8   8   8   8   8
#     4  10  21  38  60  84 111 145 187 237 286 335
#     4  11  22  37  59  85 114 149 189 234 282 336
#     4  11  23  38  57  83 116 152 190 233 285 342
#     4  10  21  36  54  78 109 144 182 224 273 329
#     4  10  20  34  54  80 108 139 177 222 270 323
#     4   9  17  32  54  76 100 133 172 213 258 310
#
# _framework density 19.853818
#
# number of rings (size 3 to 8) (size 9 to 14) (size 15 to 20)
#    0.000    1.833    0.000    5.500    0.000    9.333 
#    0.000    2.500    0.000    2.000    0.000    0.000 
#    0.000    0.000    0.000    0.000    0.000    0.000 
#
# Total GULP energy -595359.568810 kJ/mol
# GULP energy per Si atom -12403.324350 kJ/mol
# Density = 1.980863 g / cm^3
# Si number density = 19.853818 Si / 1000 Ang^3
#
#
#
# Elastic Constant Matrix: (Units=GPa)
#
#
# Indices 1 2 3 4 5 6 
#
# 1 90.2004 20.9902 21.2280 0.0000 0.0000 0.0000
# 2 20.9902 76.8340 11.8500 0.0000 0.0000 0.0000
# 3 21.2280 11.8500 41.4779 0.0000 0.0000 0.0000
# 4 0.0000 0.0000 0.0000 20.3802 0.0000 0.0000
# 5 0.0000 0.0000 0.0000 0.0000 26.5303 0.0000
# 6 0.0000 0.0000 0.0000 0.0000 0.0000 34.6829
#
#
#
# Elastic Compliance Matrix: (Units=1/GPa)
#
#
# Indices 1 2 3 4 5 6 
#
# 1 0.013106 -0.002663 -0.005946 0.000000 0.000000 0.000000
# 2 -0.002663 0.014156 -0.002681 0.000000 0.000000 0.000000
# 3 -0.005946 -0.002681 0.027919 0.000000 0.000000 0.000000
# 4 0.000000 0.000000 0.000000 0.049067 0.000000 0.000000
# 5 0.000000 0.000000 0.000000 0.000000 0.037693 0.000000
# 6 0.000000 0.000000 0.000000 0.000000 0.000000 0.028833
#
#
# Mechanical properties :
#
#
# Convention : Reuss Voigt Hill
#
# Bulk Modulus (GPa) = 30.67636 35.18319 32.92978
# Shear Modulus (GPa) = 24.48327 26.61496 25.54911
#
# Velocity S-wave (km/s) = 3.51547 3.66532 3.59118
# Velocity P-wave (km/s) = 5.65356 5.97263 5.81528
#
# Compressibility (1/GPa) = 0.03259839
#
# Stress axis : x y z
#
# Youngs Moduli (GPa) = 76.30317 70.64066 35.81840
#
# Poissons Ratio (x) = 0.18813 0.21299
# Poissons Ratio (y) = 0.20321 0.09604
# Poissons Ratio (z) = 0.45373 0.18941
#
# Static dielectric constant tensor:
#      x y z
#    x 3.689210 0.000000 0.000000 
#    y 0.000000 3.564580 0.000000 
#    z 0.000000 0.000000 3.756240 
# 
# 
# High freq. dielectric constant tensor:
#      x y z
#    x 1.789920 0.000000 0.000000 
#    y 0.000000 1.766850 0.000000 
#    z 0.000000 0.000000 1.766040 
# 
# From -- ./inp_files/20249.got.cif
#   From: 2010.03.12/outbox.cif.g09.slc.cpg/sg53_11_cif.got.tgz:20249.got - 2010.04.16 14:36:59.
