data_PCOD8220426
_publ_section_title
;
Structure prediction by ZEFSAII (Michael W. Deem and Ramdas Pophale) SiO2 
 PCOD8220426
Probable space group: P M N A
;
_chemical_formula_sum "Si O2"
_cell_formula_units_Z 48
_cell_length_a 15.116387
_cell_length_b 13.878320
_cell_length_c 9.924891
_cell_angle_alpha 90.000000
_cell_angle_beta 90.000000
_cell_angle_gamma 90.000000
_cell_volume 2082.143439
_symmetry_space_group_name_H-M "P M N A"
_symmetry_group_IT_number 53
_symmetry_cell_setting 'orthorhombic'
loop_
_space_group_symop_operation_xyz
x,y,z
1/2-x,-y,1/2+z
x,-y,-z
1/2-x,y,1/2-z
-x,-y,-z
1/2+x,y,1/2-z
-x,y,z
1/2+x,-y,1/2+z
loop_
_atom_site_type_symbol
_atom_site_label
_atom_site_fract_x
_atom_site_fract_y
_atom_site_fract_z
Si Si1 0.825872 0.947492 0.865514
Si Si2 0.000000 0.854151 0.512129
Si Si3 0.840507 0.265194 0.036849
Si Si4 0.854457 0.362886 0.771374
Si Si5 0.134341 0.303291 0.484009
Si Si6 0.854652 0.576177 0.759374
Si Si7 0.500000 0.981827 0.228047
O O1 0.750000 0.945278 0.750000
O O2 0.859705 0.841090 0.907129
O O3 0.911397 0.007799 0.817304
O O4 0.787556 0.000000 0.000000
O O5 0.913315 0.795162 0.554609
O O6 0.000000 0.943918 0.607878
O O7 0.000000 0.880144 0.352124
O O8 0.736702 0.281449 0.030193
O O9 0.885629 0.343411 0.134260
O O10 0.880784 0.286817 0.888413
O O11 0.750000 0.365762 0.750000
O O12 0.898871 0.330020 0.632884
O O13 0.889729 0.470950 0.804109
O O14 0.107295 0.391414 0.385907
O O15 0.750000 0.571882 0.750000
#
# Coordination Sequence:
#
# PCOD8220426 Si02
#       7
#     8   4   8   8   8   8   4
#     4  12  28  46  73 102 137 180 233 296 358 422
#     4  11  24  40  69  87 131 176 228 281 355 410
#     4  10  20  36  61  91 126 163 219 266 338 398
#     4   9  18  31  56  89 124 163 209 267 326 392
#     4  10  20  35  59  91 124 165 214 271 329 404
#     4   9  16  32  56  86 124 162 208 262 325 395
#     4  11  27  48  68  99 134 181 239 288 358 424
#
# _framework density 23.053165
#
# number of rings (size 3 to 8) (size 9 to 14) (size 15 to 20)
#    0.000    1.833    0.000    4.750    7.000    4.667 
#    0.000    1.667    0.000    0.000    0.000    4.667 
#    0.000    0.000    0.000    0.000    0.000    0.000 
#
# Total GULP energy -594963.523520 kJ/mol
# GULP energy per Si atom -12395.073407 kJ/mol
# Density = 2.300070 g / cm^3
# Si number density = 23.053165 Si / 1000 Ang^3
#
#
#
# Elastic Constant Matrix: (Units=GPa)
#
#
# Indices 1 2 3 4 5 6 
#
# 1 51.3654 12.4374 30.4714 0.0000 0.0000 0.0000
# 2 12.4374 85.7674 31.2499 0.0000 0.0000 0.0000
# 3 30.4714 31.2499 154.2768 0.0000 0.0000 0.0000
# 4 0.0000 0.0000 0.0000 50.1677 0.0000 0.0000
# 5 0.0000 0.0000 0.0000 0.0000 10.6978 0.0000
# 6 0.0000 0.0000 0.0000 0.0000 0.0000 12.4775
#
#
#
# Elastic Compliance Matrix: (Units=1/GPa)
#
#
# Indices 1 2 3 4 5 6 
#
# 1 0.022295 -0.001758 -0.004047 0.000000 0.000000 0.000000
# 2 -0.001758 0.012727 -0.002231 0.000000 0.000000 0.000000
# 3 -0.004047 -0.002231 0.007733 0.000000 0.000000 0.000000
# 4 0.000000 0.000000 0.000000 0.019933 0.000000 0.000000
# 5 0.000000 0.000000 0.000000 0.000000 0.093477 0.000000
# 6 0.000000 0.000000 0.000000 0.000000 0.000000 0.080144
#
#
# Mechanical properties :
#
#
# Convention : Reuss Voigt Hill
#
# Bulk Modulus (GPa) = 37.47770 48.85856 43.16813
# Shear Modulus (GPa) = 19.13675 29.15199 24.14437
#
# Velocity S-wave (km/s) = 2.88430 3.55992 3.23977
# Velocity P-wave (km/s) = 5.23303 6.17553 5.72371
#
# Compressibility (1/GPa) = 0.02668254
#
# Stress axis : x y z
#
# Youngs Moduli (GPa) = 44.85276 78.57187 129.31432
#
# Poissons Ratio (x) = 0.13816 0.52338
# Poissons Ratio (y) = 0.07887 0.28846
# Poissons Ratio (z) = 0.18154 0.17527
#
# Static dielectric constant tensor:
#      x y z
#    x 3.760190 0.000000 0.000000 
#    y 0.000000 4.333640 0.000000 
#    z 0.000000 0.000000 4.633640 
# 
# 
# High freq. dielectric constant tensor:
#      x y z
#    x 1.876230 0.000000 0.000000 
#    y 0.000000 1.915020 0.000000 
#    z 0.000000 0.000000 1.926900 
# 
# From -- ./inp_files/10053.got.cif
#   From: 2010.03.12/outbox.cif.g09.slc.cpg/sg53_6_cif.got.tgz:10053.got - 2010.04.16 14:36:59.
