data_PCOD8220187
_publ_section_title
;
Structure prediction by ZEFSAII (Michael W. Deem and Ramdas Pophale) SiO2 
 PCOD8220187
Probable space group: P M N A
;
_chemical_formula_sum "Si O2"
_cell_formula_units_Z 64
_cell_length_a 18.055485
_cell_length_b 11.826013
_cell_length_c 15.180903
_cell_angle_alpha 90.000000
_cell_angle_beta 90.000000
_cell_angle_gamma 90.000000
_cell_volume 3241.493210
_symmetry_space_group_name_H-M "P M N A"
_symmetry_group_IT_number 53
_symmetry_cell_setting 'orthorhombic'
loop_
_space_group_symop_operation_xyz
x,y,z
1/2-x,-y,1/2+z
x,-y,-z
1/2-x,y,1/2-z
-x,-y,-z
1/2+x,y,1/2-z
-x,y,z
1/2+x,-y,1/2+z
loop_
_atom_site_type_symbol
_atom_site_label
_atom_site_fract_x
_atom_site_fract_y
_atom_site_fract_z
Si Si1 0.916070 0.867443 0.645765
Si Si2 0.302147 0.939989 0.371594
Si Si3 0.586430 0.659800 0.127287
Si Si4 0.330766 0.465659 0.214760
Si Si5 0.825997 0.307737 0.453599
Si Si6 0.414299 0.722542 0.686690
Si Si7 0.141016 0.103647 0.684499
Si Si8 0.818601 0.826138 0.953456
O O1 0.868687 0.806330 0.571459
O O2 0.896401 0.820056 0.742413
O O3 0.000000 0.840158 0.621836
O O4 0.901681 0.000255 0.639687
O O5 0.354717 0.919874 0.288566
O O6 0.222339 0.882890 0.357051
O O7 0.342626 0.879582 0.453468
O O8 0.288975 0.073556 0.389334
O O9 0.500000 0.632580 0.109190
O O10 0.619182 0.576470 0.201526
O O11 0.593627 0.785690 0.165035
O O12 0.634744 0.640360 0.039293
O O13 0.250000 0.501075 0.250000
O O14 0.327367 0.400022 0.122726
O O15 0.368607 0.389179 0.289300
O O16 0.741842 0.270991 0.470479
O O17 0.500000 0.690719 0.683159
O O18 0.389516 0.767899 0.591334
#
# Coordination Sequence:
#
# PCOD8220187 Si02
#       8
#     8   8   8   8   8   8   8   8
#     4  10  20  34  57  89 124 160 198 248 312 375
#     4  10  22  34  60  91 129 162 204 258 306 382
#     4  12  27  43  61  91 133 172 210 262 325 387
#     4  11  24  41  68  93 119 164 214 263 312 377
#     4  11  22  39  63  92 123 161 208 260 314 378
#     4  10  21  39  64  92 122 155 201 262 318 364
#     4  11  21  38  58  86 126 171 208 248 310 377
#     4  11  19  38  61  96 123 158 205 259 316 367
#
# _framework density 19.743988000000002
#
# number of rings (size 3 to 8) (size 9 to 14) (size 15 to 20)
#    0.000    1.250    5.000    1.500    1.750    2.500 
#    0.000    3.750    0.000    0.000    0.000    2.625 
#    0.000    0.000    0.000    0.000    0.000    0.000 
#
# Total GULP energy -793825.697825 kJ/mol
# GULP energy per Si atom -12403.526529 kJ/mol
# Density = 1.969905 g / cm^3
# Si number density = 19.743988 Si / 1000 Ang^3
#
#
#
# Elastic Constant Matrix: (Units=GPa)
#
#
# Indices 1 2 3 4 5 6 
#
# 1 79.3016 20.3855 17.0725 0.0000 0.0000 0.0000
# 2 20.3855 93.0374 16.0581 0.0000 0.0000 0.0000
# 3 17.0725 16.0581 79.0376 0.0000 0.0000 0.0000
# 4 0.0000 0.0000 0.0000 22.3568 0.0000 0.0000
# 5 0.0000 0.0000 0.0000 0.0000 25.9874 0.0000
# 6 0.0000 0.0000 0.0000 0.0000 0.0000 27.8311
#
#
#
# Elastic Compliance Matrix: (Units=1/GPa)
#
#
# Indices 1 2 3 4 5 6 
#
# 1 0.013807 -0.002602 -0.002454 0.000000 0.000000 0.000000
# 2 -0.002602 0.011629 -0.001801 0.000000 0.000000 0.000000
# 3 -0.002454 -0.001801 0.013548 0.000000 0.000000 0.000000
# 4 0.000000 0.000000 0.000000 0.044729 0.000000 0.000000
# 5 0.000000 0.000000 0.000000 0.000000 0.038480 0.000000
# 6 0.000000 0.000000 0.000000 0.000000 0.000000 0.035931
#
#
# Mechanical properties :
#
#
# Convention : Reuss Voigt Hill
#
# Bulk Modulus (GPa) = 39.56965 39.82319 39.69642
# Shear Modulus (GPa) = 27.73751 28.42578 28.08164
#
# Velocity S-wave (km/s) = 3.75221 3.79848 3.77542
# Velocity P-wave (km/s) = 6.23354 6.28104 6.25733
#
# Compressibility (1/GPa) = 0.02527190
#
# Stress axis : x y z
#
# Youngs Moduli (GPa) = 72.42613 85.99015 73.81113
#
# Poissons Ratio (x) = 0.22373 0.18112
# Poissons Ratio (y) = 0.18844 0.13291
# Poissons Ratio (z) = 0.17772 0.15484
#
# Static dielectric constant tensor:
#      x y z
#    x 3.407530 0.000000 0.000000 
#    y 0.000000 3.580220 0.000000 
#    z 0.000000 0.000000 3.579800 
# 
# 
# High freq. dielectric constant tensor:
#      x y z
#    x 1.759940 0.000000 0.000000 
#    y 0.000000 1.769750 0.000000 
#    z 0.000000 0.000000 1.765370 
# 
# From -- ./inp_files/23892.got.cif
#   From: 2010.03.12/outbox.cif.g09.slc.cpg/sg53_12_cif.got.tgz:23892.got - 2010.04.16 14:36:59.
