data_PCOD8220039
_publ_section_title
;
Structure prediction by ZEFSAII (Michael W. Deem and Ramdas Pophale) SiO2 
 PCOD8220039
Probable space group: P M N A
;
_chemical_formula_sum "Si O2"
_cell_formula_units_Z 64
_cell_length_a 8.844346
_cell_length_b 22.816918
_cell_length_c 15.778900
_cell_angle_alpha 90.000000
_cell_angle_beta 90.000000
_cell_angle_gamma 90.000000
_cell_volume 3184.193341
_symmetry_space_group_name_H-M "P M N A"
_symmetry_group_IT_number 53
_symmetry_cell_setting 'orthorhombic'
loop_
_space_group_symop_operation_xyz
x,y,z
1/2-x,-y,1/2+z
x,-y,-z
1/2-x,y,1/2-z
-x,-y,-z
1/2+x,y,1/2-z
-x,y,z
1/2+x,-y,1/2+z
loop_
_atom_site_type_symbol
_atom_site_label
_atom_site_fract_x
_atom_site_fract_y
_atom_site_fract_z
Si Si1 0.827143 0.126473 0.485039
Si Si2 0.326234 0.261551 0.001351
Si Si3 0.170525 0.364414 0.086529
Si Si4 0.678189 0.692610 0.336335
Si Si5 0.179676 0.945027 0.837381
Si Si6 0.176636 0.468750 0.334217
Si Si7 0.668878 0.428255 0.590951
Si Si8 0.178995 0.071666 0.663204
O O1 0.807688 0.195209 0.468723
O O2 0.719940 0.094797 0.417826
O O3 0.780812 0.111888 0.582140
O O4 0.000000 0.106461 0.469527
O O5 0.500000 0.279700 0.989869
O O6 0.252696 0.302351 0.073692
O O7 0.243667 0.268902 0.912107
O O8 0.257443 0.403536 0.154826
O O9 0.000000 0.352352 0.117211
O O10 0.173520 0.402108 0.001927
O O11 0.750000 0.716531 0.250000
O O12 0.500000 0.701758 0.335828
O O13 0.720383 0.623970 0.346424
O O14 0.250000 0.919010 0.750000
O O15 0.000000 0.948748 0.828014
O O16 0.248207 0.008733 0.854352
O O17 0.250000 0.495995 0.250000
O O18 0.219987 0.516008 0.406305
O O19 0.000000 0.463260 0.326620
O O20 0.500000 0.450213 0.613131
O O21 0.250000 0.098797 0.750000
O O22 0.000000 0.065312 0.675805
#
# Coordination Sequence:
#
# PCOD8220039 Si02
#       8
#     8   8   8   8   8   8   8   8
#     4  10  22  39  59  85 118 155 193 238 287 334
#     4  10  21  38  58  80 108 144 188 231 274 327
#     4  10  21  39  59  78 105 140 177 219 269 322
#     4  10  20  34  53  78 110 147 185 227 277 330
#     4  11  22  37  60  88 118 152 192 239 287 339
#     4  12  24  36  54  80 108 137 172 218 270 325
#     4   9  19  35  55  79 107 138 172 215 267 326
#     4  10  20  36  58  86 123 160 192 231 280 335
#
# _framework density 20.099281999999999
#
# number of rings (size 3 to 8) (size 9 to 14) (size 15 to 20)
#    0.000    1.750    0.000    6.375    0.000    9.500 
#    0.000    1.875    0.000    3.000    0.000    0.000 
#    0.000    0.000    0.000    0.000    0.000    0.000 
#
# Total GULP energy -793665.933220 kJ/mol
# GULP energy per Si atom -12401.030207 kJ/mol
# Density = 2.005354 g / cm^3
# Si number density = 20.099282 Si / 1000 Ang^3
#
#
#
# Elastic Constant Matrix: (Units=GPa)
#
#
# Indices 1 2 3 4 5 6 
#
# 1 143.0827 43.4332 37.5412 0.0000 0.0000 0.0000
# 2 43.4332 77.2451 25.9559 0.0000 0.0000 0.0000
# 3 37.5412 25.9559 66.8020 0.0000 0.0000 0.0000
# 4 0.0000 0.0000 0.0000 19.0477 0.0000 0.0000
# 5 0.0000 0.0000 0.0000 0.0000 35.0196 0.0000
# 6 0.0000 0.0000 0.0000 0.0000 0.0000 27.5229
#
#
#
# Elastic Compliance Matrix: (Units=1/GPa)
#
#
# Indices 1 2 3 4 5 6 
#
# 1 0.009124 -0.003919 -0.003605 0.000000 0.000000 0.000000
# 2 -0.003919 0.016573 -0.004237 0.000000 0.000000 0.000000
# 3 -0.003605 -0.004237 0.018642 0.000000 0.000000 0.000000
# 4 0.000000 0.000000 0.000000 0.052500 0.000000 0.000000
# 5 0.000000 0.000000 0.000000 0.000000 0.028555 0.000000
# 6 0.000000 0.000000 0.000000 0.000000 0.000000 0.036333
#
#
# Mechanical properties :
#
#
# Convention : Reuss Voigt Hill
#
# Bulk Modulus (GPa) = 48.03724 55.66560 51.85142
# Shear Modulus (GPa) = 26.01598 28.33132 27.17365
#
# Velocity S-wave (km/s) = 3.60164 3.75850 3.68091
# Velocity P-wave (km/s) = 6.42243 6.82572 6.62715
#
# Compressibility (1/GPa) = 0.02081718
#
# Stress axis : x y z
#
# Youngs Moduli (GPa) = 109.59513 60.33838 53.64282
#
# Poissons Ratio (x) = 0.23648 0.19338
# Poissons Ratio (y) = 0.42952 0.22729
# Poissons Ratio (z) = 0.39509 0.25566
#
# Static dielectric constant tensor:
#      x y z
#    x 3.775250 0.000000 0.000000 
#    y 0.000000 3.549480 0.000000 
#    z 0.000000 0.000000 3.742790 
# 
# 
# High freq. dielectric constant tensor:
#      x y z
#    x 1.794180 0.000000 0.000000 
#    y 0.000000 1.773930 0.000000 
#    z 0.000000 0.000000 1.782100 
# 
# From -- ./inp_files/20969.got.cif
#   From: 2010.03.12/outbox.cif.g09.slc.cpg/sg53_11_cif.got.tgz:20969.got - 2010.04.16 14:36:59.
