data_PCOD8220099
_publ_section_title
;
Structure prediction by ZEFSAII (Michael W. Deem and Ramdas Pophale) SiO2 
 PCOD8220099
Probable space group: P M N A
;
_chemical_formula_sum "Si O2"
_cell_formula_units_Z 56
_cell_length_a 8.811906
_cell_length_b 22.030152
_cell_length_c 14.438913
_cell_angle_alpha 90.000000
_cell_angle_beta 90.000000
_cell_angle_gamma 90.000000
_cell_volume 2802.991940
_symmetry_space_group_name_H-M "P M N A"
_symmetry_group_IT_number 53
_symmetry_cell_setting 'orthorhombic'
loop_
_space_group_symop_operation_xyz
x,y,z
1/2-x,-y,1/2+z
x,-y,-z
1/2-x,y,1/2-z
-x,-y,-z
1/2+x,y,1/2-z
-x,y,z
1/2+x,-y,1/2+z
loop_
_atom_site_type_symbol
_atom_site_label
_atom_site_fract_x
_atom_site_fract_y
_atom_site_fract_z
Si Si1 0.178945 0.746361 0.149362
Si Si2 0.179345 0.034172 0.654970
Si Si3 0.179737 0.631373 0.031849
Si Si4 0.324756 0.864590 0.460278
Si Si5 0.677135 0.607803 0.845347
Si Si6 0.322821 0.533913 0.154850
Si Si7 0.324496 0.095253 0.342221
O O1 0.250000 0.751112 0.250000
O O2 0.234837 0.685521 0.098493
O O3 0.233091 0.802872 0.086943
O O4 0.000000 0.746080 0.160665
O O5 0.250000 0.060131 0.750000
O O6 0.223624 0.079491 0.573229
O O7 0.000000 0.030217 0.663745
O O8 0.244959 0.968097 0.633013
O O9 0.246934 0.568449 0.069466
O O10 0.000000 0.627067 0.026038
O O11 0.245128 0.643637 0.929585
O O12 0.500000 0.877525 0.435439
O O13 0.303607 0.859026 0.571438
O O14 0.750000 0.631444 0.750000
O O15 0.500000 0.621996 0.843650
O O16 0.711264 0.536723 0.858537
O O17 0.250000 0.558061 0.250000
O O18 0.500000 0.548442 0.156821
O O19 0.250000 0.124521 0.250000
O O20 0.500000 0.082008 0.321786
#
# Coordination Sequence:
#
# PCOD8220099 Si02
#       7
#     8   8   8   8   8   8   8
#     4  10  23  41  59  81 109 142 181 224 268 317
#     4  11  21  33  53  82 114 144 178 221 269 324
#     4  11  22  36  56  81 111 147 185 226 274 326
#     4  10  21  38  57  78 108 145 183 224 271 319
#     4  10  21  37  57  82 112 145 182 226 274 326
#     4  10  20  34  54  82 114 146 182 225 275 329
#     4  10  20  35  56  80 109 143 178 220 269 321
#
# _framework density 19.978653000000001
#
# number of rings (size 3 to 8) (size 9 to 14) (size 15 to 20)
#    0.000    1.714    0.000    5.571    0.000   10.286 
#    0.000    0.714    0.000    1.714    0.000    0.000 
#    0.000    0.000    0.000    0.000    0.000    0.000 
#
# Total GULP energy -694627.188380 kJ/mol
# GULP energy per Si atom -12404.056935 kJ/mol
# Density = 1.993318 g / cm^3
# Si number density = 19.978653 Si / 1000 Ang^3
#
#
#
# Elastic Constant Matrix: (Units=GPa)
#
#
# Indices 1 2 3 4 5 6 
#
# 1 107.4982 34.9744 58.1138 0.0000 0.0000 0.0000
# 2 34.9744 58.0534 51.5082 0.0000 0.0000 0.0000
# 3 58.1138 51.5082 160.1416 0.0000 0.0000 0.0000
# 4 0.0000 0.0000 0.0000 35.3159 0.0000 0.0000
# 5 0.0000 0.0000 0.0000 0.0000 40.5117 0.0000
# 6 0.0000 0.0000 0.0000 0.0000 0.0000 16.2897
#
#
#
# Elastic Compliance Matrix: (Units=1/GPa)
#
#
# Indices 1 2 3 4 5 6 
#
# 1 0.012497 -0.004905 -0.002957 0.000000 0.000000 0.000000
# 2 -0.004905 0.026029 -0.006592 0.000000 0.000000 0.000000
# 3 -0.002957 -0.006592 0.009438 0.000000 0.000000 0.000000
# 4 0.000000 0.000000 0.000000 0.028316 0.000000 0.000000
# 5 0.000000 0.000000 0.000000 0.000000 0.024684 0.000000
# 6 0.000000 0.000000 0.000000 0.000000 0.000000 0.061388
#
#
# Mechanical properties :
#
#
# Convention : Reuss Voigt Hill
#
# Bulk Modulus (GPa) = 52.47839 68.32066 60.39953
# Shear Modulus (GPa) = 25.30185 30.49658 27.89921
#
# Velocity S-wave (km/s) = 3.56257 3.91123 3.74097
# Velocity P-wave (km/s) = 6.57623 7.39378 6.99696
#
# Compressibility (1/GPa) = 0.01905546
#
# Stress axis : x y z
#
# Youngs Moduli (GPa) = 80.01871 38.41804 105.95416
#
# Poissons Ratio (x) = 0.18844 0.31335
# Poissons Ratio (y) = 0.39248 0.69847
# Poissons Ratio (z) = 0.23665 0.25326
#
# Static dielectric constant tensor:
#      x y z
#    x 3.624000 0.000000 0.000000 
#    y 0.000000 3.429410 0.000000 
#    z 0.000000 0.000000 3.823310 
# 
# 
# High freq. dielectric constant tensor:
#      x y z
#    x 1.786090 0.000000 0.000000 
#    y 0.000000 1.751750 0.000000 
#    z 0.000000 0.000000 1.797490 
# 
# From -- ./inp_files/20619.got.cif
#   From: 2010.03.12/outbox.cif.g09.slc.cpg/sg53_11_cif.got.tgz:20619.got - 2010.04.16 14:36:59.
