data_PCOD8220641
_publ_section_title
;
Structure prediction by ZEFSAII (Michael W. Deem and Ramdas Pophale) SiO2 
 PCOD8220641
Probable space group: P M N A
;
_chemical_formula_sum "Si O2"
_cell_formula_units_Z 32
_cell_length_a 16.505915
_cell_length_b 17.792878
_cell_length_c 4.976925
_cell_angle_alpha 90.000000
_cell_angle_beta 90.000000
_cell_angle_gamma 90.000000
_cell_volume 1461.661815
_symmetry_space_group_name_H-M "P M N A"
_symmetry_group_IT_number 53
_symmetry_cell_setting 'orthorhombic'
loop_
_space_group_symop_operation_xyz
x,y,z
1/2-x,-y,1/2+z
x,-y,-z
1/2-x,y,1/2-z
-x,-y,-z
1/2+x,y,1/2-z
-x,y,z
1/2+x,-y,1/2+z
loop_
_atom_site_type_symbol
_atom_site_label
_atom_site_fract_x
_atom_site_fract_y
_atom_site_fract_z
Si Si1 0.089263 0.949386 0.253313
Si Si2 0.697900 0.818733 0.488347
Si Si3 0.406412 0.582755 0.001942
Si Si4 0.406815 0.678336 0.485838
O O1 0.152590 0.886373 0.165017
O O2 0.000000 0.916038 0.337294
O O3 0.124209 0.000000 0.500000
O O4 0.074690 0.000000 0.000000
O O5 0.750000 0.782146 0.250000
O O6 0.636506 0.754420 0.582083
O O7 0.750000 0.845264 0.750000
O O8 0.500000 0.573427 0.085732
O O9 0.394559 0.615816 0.709672
O O10 0.365217 0.500000 0.000000
O O11 0.368297 0.640664 0.218450
O O12 0.500000 0.700895 0.444126
#
# Coordination Sequence:
#
# PCOD8220641 Si02
#       4
#     8   8   8   8
#     4  10  22  42  67  92 118 151 196 248 300 358
#     4  12  25  40  60  88 125 162 197 242 297 362
#     4   9  17  31  56  88 115 146 198 259 306 346
#     4  10  20  36  59  85 117 157 201 248 298 356
#
# _framework density 21.892887000000002
#
# number of rings (size 3 to 8) (size 9 to 14) (size 15 to 20)
#    0.000    1.750    0.000    4.500    0.000    5.000 
#    0.000   10.000    0.000   15.000    0.000    0.000 
#    0.000    0.000    0.000    0.000    0.000    0.000 
#
# Total GULP energy -396607.638436 kJ/mol
# GULP energy per Si atom -12393.988701 kJ/mol
# Density = 2.184306 g / cm^3
# Si number density = 21.892887 Si / 1000 Ang^3
#
#
#
# Elastic Constant Matrix: (Units=GPa)
#
#
# Indices 1 2 3 4 5 6 
#
# 1 71.4784 56.7759 36.4659 0.0000 0.0000 0.0000
# 2 56.7759 129.0681 35.1111 0.0000 0.0000 0.0000
# 3 36.4659 35.1111 123.6570 0.0000 0.0000 0.0000
# 4 0.0000 0.0000 0.0000 36.1970 0.0000 0.0000
# 5 0.0000 0.0000 0.0000 0.0000 29.4446 0.0000
# 6 0.0000 0.0000 0.0000 0.0000 0.0000 4.9776
#
#
#
# Elastic Compliance Matrix: (Units=1/GPa)
#
#
# Indices 1 2 3 4 5 6 
#
# 1 0.023457 -0.009143 -0.004321 0.000000 0.000000 0.000000
# 2 -0.009143 0.011960 -0.000700 0.000000 0.000000 0.000000
# 3 -0.004321 -0.000700 0.009560 0.000000 0.000000 0.000000
# 4 0.000000 0.000000 0.000000 0.027627 0.000000 0.000000
# 5 0.000000 0.000000 0.000000 0.000000 0.033962 0.000000
# 6 0.000000 0.000000 0.000000 0.000000 0.000000 0.200899
#
#
# Mechanical properties :
#
#
# Convention : Reuss Voigt Hill
#
# Bulk Modulus (GPa) = 60.06353 64.54548 62.30451
# Shear Modulus (GPa) = 14.64804 27.18054 20.91429
#
# Velocity S-wave (km/s) = 2.58946 3.52735 3.09415
# Velocity P-wave (km/s) = 6.03615 6.79235 6.42538
#
# Compressibility (1/GPa) = 0.01664904
#
# Stress axis : x y z
#
# Youngs Moduli (GPa) = 42.63065 83.61090 104.60346
#
# Poissons Ratio (x) = 0.76446 0.45203
# Poissons Ratio (y) = 0.38978 0.07319
# Poissons Ratio (z) = 0.18422 0.05850
#
# Static dielectric constant tensor:
#      x y z
#    x 3.951760 0.000000 0.000000 
#    y 0.000000 3.783360 0.000000 
#    z 0.000000 0.000000 4.025590 
# 
# 
# High freq. dielectric constant tensor:
#      x y z
#    x 1.834790 0.000000 0.000000 
#    y 0.000000 1.860210 0.000000 
#    z 0.000000 0.000000 1.878400 
# 
# From -- ./inp_files/1953.got.cif
#   From: 2010.03.12/outbox.cif.g09.slc.cpg/sg53_1_cif.got.tgz:1953.got - 2010.04.16 14:36:59.
