data_PCOD8220553
_publ_section_title
;
Structure prediction by ZEFSAII (Michael W. Deem and Ramdas Pophale) SiO2 
 PCOD8220553
Probable space group: P M N A
;
_chemical_formula_sum "Si O2"
_cell_formula_units_Z 48
_cell_length_a 9.536710
_cell_length_b 29.244610
_cell_length_c 8.956862
_cell_angle_alpha 90.000000
_cell_angle_beta 90.000000
_cell_angle_gamma 90.000000
_cell_volume 2498.045207
_symmetry_space_group_name_H-M "P M N A"
_symmetry_group_IT_number 53
_symmetry_cell_setting 'orthorhombic'
loop_
_space_group_symop_operation_xyz
x,y,z
1/2-x,-y,1/2+z
x,-y,-z
1/2-x,y,1/2-z
-x,-y,-z
1/2+x,y,1/2-z
-x,y,z
1/2+x,-y,1/2+z
loop_
_atom_site_type_symbol
_atom_site_label
_atom_site_fract_x
_atom_site_fract_y
_atom_site_fract_z
Si Si1 0.838217 0.313239 0.399519
Si Si2 0.500000 0.550570 0.568435
Si Si3 0.836228 0.140705 0.900001
Si Si4 0.253025 0.603016 0.071884
Si Si5 0.836396 0.208943 0.399534
Si Si6 0.159586 0.960005 0.104066
Si Si7 0.000000 0.548978 0.573255
O O1 0.750000 0.321684 0.250000
O O2 0.771792 0.343456 0.532471
O O3 0.828883 0.261126 0.455588
O O4 0.000000 0.326853 0.367634
O O5 0.500000 0.500000 0.500000
O O6 0.377415 0.581053 0.506599
O O7 0.500000 0.546360 0.747247
O O8 0.750000 0.136340 0.750000
O O9 0.831444 0.090100 0.975280
O O10 0.000000 0.155859 0.877715
O O11 0.748243 0.177619 0.988739
O O12 0.250000 0.596669 0.250000
O O13 0.371015 0.575605 0.989618
O O14 0.750000 0.203708 0.250000
O O15 0.000000 0.193817 0.380812
O O16 0.250000 0.960897 0.250000
O O17 0.000000 0.970788 0.149180
O O18 0.219565 0.000000 0.000000
O O19 0.000000 0.500000 0.500000
#
# Coordination Sequence:
#
# PCOD8220553 Si02
#       7
#     8   4   8   8   8   8   4
#     4  10  22  41  64  90 120 158 200 244 298 360
#     4  12  26  44  66  94 124 164 204 244 305 360
#     4  10  20  36  57  83 116 156 201 249 304 363
#     4  12  25  42  63  94 126 158 201 251 300 357
#     4  10  21  38  60  87 119 156 199 248 300 361
#     4   9  19  35  54  79 112 150 195 246 300 360
#     4  12  24  44  68  90 124 162 202 250 297 360
#
# _framework density 19.215026000000002
#
# number of rings (size 3 to 8) (size 9 to 14) (size 15 to 20)
#    0.000    1.500    0.833    4.500    1.167    3.000 
#    0.000    1.667    0.000    0.000    0.000    0.000 
#    0.000    0.000    0.000    0.000    0.000    0.000 
#
# Total GULP energy -594776.046081 kJ/mol
# GULP energy per Si atom -12391.167627 kJ/mol
# Density = 1.917129 g / cm^3
# Si number density = 19.215026 Si / 1000 Ang^3
#
#
#
# Elastic Constant Matrix: (Units=GPa)
#
#
# Indices 1 2 3 4 5 6 
#
# 1 157.1209 66.4904 56.9312 0.0000 0.0000 0.0000
# 2 66.4904 126.7978 68.5817 0.0000 0.0000 0.0000
# 3 56.9312 68.5817 131.3876 0.0000 0.0000 0.0000
# 4 0.0000 0.0000 0.0000 40.3089 0.0000 0.0000
# 5 0.0000 0.0000 0.0000 0.0000 33.9232 0.0000
# 6 0.0000 0.0000 0.0000 0.0000 0.0000 39.3084
#
#
#
# Elastic Compliance Matrix: (Units=1/GPa)
#
#
# Indices 1 2 3 4 5 6 
#
# 1 0.008504 -0.003437 -0.001891 0.000000 0.000000 0.000000
# 2 -0.003437 0.012378 -0.004972 0.000000 0.000000 0.000000
# 3 -0.001891 -0.004972 0.011026 0.000000 0.000000 0.000000
# 4 0.000000 0.000000 0.000000 0.024808 0.000000 0.000000
# 5 0.000000 0.000000 0.000000 0.000000 0.029478 0.000000
# 6 0.000000 0.000000 0.000000 0.000000 0.000000 0.025440
#
#
# Mechanical properties :
#
#
# Convention : Reuss Voigt Hill
#
# Bulk Modulus (GPa) = 88.42850 88.81254 88.62052
# Shear Modulus (GPa) = 36.76401 37.59495 37.17948
#
# Velocity S-wave (km/s) = 4.37887 4.42808 4.40354
# Velocity P-wave (km/s) = 8.46678 8.51261 8.48973
#
# Compressibility (1/GPa) = 0.01130857
#
# Stress axis : x y z
#
# Youngs Moduli (GPa) = 117.59183 80.78996 90.69725
#
# Poissons Ratio (x) = 0.27764 0.17151
# Poissons Ratio (y) = 0.40411 0.45094
# Poissons Ratio (z) = 0.22237 0.40168
#
# Static dielectric constant tensor:
#      x y z
#    x 3.763440 0.000000 0.000000 
#    y 0.000000 3.692530 0.000000 
#    z 0.000000 0.000000 -11.160030 
# 
# 
# High freq. dielectric constant tensor:
#      x y z
#    x 1.771440 0.000000 0.000000 
#    y 0.000000 1.767180 0.000000 
#    z 0.000000 0.000000 1.734540 
# 
# From -- ./inp_files/6783.got.cif
#   From: 2010.03.12/outbox.cif.g09.slc.cpg/sg53_4_cif.got.tgz:6783.got - 2010.04.16 14:36:59.
