data_PCOD8220971
_publ_section_title
;
Structure prediction by ZEFSAII (Michael W. Deem and Ramdas Pophale) SiO2 
 PCOD8220971
Probable space group: P M N A
;
_chemical_formula_sum "Si O2"
_cell_formula_units_Z 64
_cell_length_a 18.770636
_cell_length_b 13.928199
_cell_length_c 11.563895
_cell_angle_alpha 90.000000
_cell_angle_beta 90.000000
_cell_angle_gamma 90.000000
_cell_volume 3023.278048
_symmetry_space_group_name_H-M "P M N A"
_symmetry_group_IT_number 53
_symmetry_cell_setting 'orthorhombic'
loop_
_space_group_symop_operation_xyz
x,y,z
1/2-x,-y,1/2+z
x,-y,-z
1/2-x,y,1/2-z
-x,-y,-z
1/2+x,y,1/2-z
-x,y,z
1/2+x,-y,1/2+z
loop_
_atom_site_type_symbol
_atom_site_label
_atom_site_fract_x
_atom_site_fract_y
_atom_site_fract_z
Si Si1 0.921171 0.330553 0.858356
Si Si2 0.689924 0.051760 0.670515
Si Si3 0.797166 0.148894 0.066758
Si Si4 0.678090 0.565534 0.190866
Si Si5 0.919808 0.852021 0.301224
Si Si6 0.080902 0.717835 0.883790
Si Si7 0.418044 0.606778 0.847015
Si Si8 0.664253 0.264478 0.983666
O O1 0.868958 0.403580 0.798604
O O2 0.917442 0.227242 0.798770
O O3 0.000000 0.373763 0.844078
O O4 0.900122 0.327480 0.992464
O O5 0.750000 0.102256 0.750000
O O6 0.677216 0.118539 0.560014
O O7 0.616841 0.053118 0.745397
O O8 0.719221 0.946503 0.639831
O O9 0.861894 0.198197 0.136125
O O10 0.728792 0.218454 0.057381
O O11 0.750000 0.526451 0.250000
O O12 0.634912 0.481572 0.125733
O O13 0.693604 0.652449 0.101973
O O14 0.875872 0.818602 0.413143
O O15 0.000000 0.877686 0.338579
O O16 0.089711 0.637100 0.786452
O O17 0.000000 0.759495 0.883055
O O18 0.500000 0.579468 0.876267
O O19 0.394242 0.693930 0.928733
#
# Coordination Sequence:
#
# PCOD8220971 Si02
#       8
#     8   8   8   8   8   8   8   8
#     4   9  18  36  62  90 123 169 212 264 326 378
#     4  11  23  40  63  95 128 166 209 263 329 387
#     4  11  24  39  66  94 130 168 213 270 330 399
#     4  11  24  39  63  97 127 162 220 277 323 381
#     4  10  20  38  67  98 127 165 220 270 320 384
#     4  10  22  40  63  92 131 173 215 264 326 395
#     4  11  26  45  63  93 134 177 220 268 329 392
#     4  11  24  42  69  93 128 175 219 273 323 392
#
# _framework density 21.169073999999998
#
# number of rings (size 3 to 8) (size 9 to 14) (size 15 to 20)
#    0.000    1.500    2.500    1.875    5.250    3.000 
#    2.250    3.125    0.000    0.750    0.000    0.000 
#    0.000    0.000    0.000    0.000    0.000    0.000 
#
# Total GULP energy -793568.228085 kJ/mol
# GULP energy per Si atom -12399.503564 kJ/mol
# Density = 2.112089 g / cm^3
# Si number density = 21.169074 Si / 1000 Ang^3
#
#
#
# Elastic Constant Matrix: (Units=GPa)
#
#
# Indices 1 2 3 4 5 6 
#
# 1 127.8503 44.5842 21.1250 0.0000 0.0000 0.0000
# 2 44.5842 71.8338 16.5590 0.0000 0.0000 0.0000
# 3 21.1250 16.5590 73.0583 0.0000 0.0000 0.0000
# 4 0.0000 0.0000 0.0000 24.9885 0.0000 0.0000
# 5 0.0000 0.0000 0.0000 0.0000 32.0057 0.0000
# 6 0.0000 0.0000 0.0000 0.0000 0.0000 22.3253
#
#
#
# Elastic Compliance Matrix: (Units=1/GPa)
#
#
# Indices 1 2 3 4 5 6 
#
# 1 0.010154 -0.005936 -0.001591 0.000000 0.000000 0.000000
# 2 -0.005936 0.018158 -0.002399 0.000000 0.000000 0.000000
# 3 -0.001591 -0.002399 0.014691 0.000000 0.000000 0.000000
# 4 0.000000 0.000000 0.000000 0.040018 0.000000 0.000000
# 5 0.000000 0.000000 0.000000 0.000000 0.031244 0.000000
# 6 0.000000 0.000000 0.000000 0.000000 0.000000 0.044792
#
#
# Mechanical properties :
#
#
# Convention : Reuss Voigt Hill
#
# Bulk Modulus (GPa) = 43.19204 48.58653 45.88929
# Shear Modulus (GPa) = 26.79122 28.56218 27.67670
#
# Velocity S-wave (km/s) = 3.56136 3.67719 3.61974
# Velocity P-wave (km/s) = 6.11218 6.40550 6.26056
#
# Compressibility (1/GPa) = 0.02315241
#
# Stress axis : x y z
#
# Youngs Moduli (GPa) = 98.47935 55.07171 68.06661
#
# Poissons Ratio (x) = 0.32689 0.10828
# Poissons Ratio (y) = 0.58454 0.16331
# Poissons Ratio (z) = 0.15666 0.13213
#
# Static dielectric constant tensor:
#      x y z
#    x 4.016820 0.000000 0.000000 
#    y 0.000000 3.575090 0.000000 
#    z 0.000000 0.000000 3.869760 
# 
# 
# High freq. dielectric constant tensor:
#      x y z
#    x 1.839030 0.000000 0.000000 
#    y 0.000000 1.804660 0.000000 
#    z 0.000000 0.000000 1.839030 
# 
# From -- ./inp_files/17090.got.cif
#   From: 2010.03.12/outbox.cif.g09.slc.cpg/sg53_9_cif.got.tgz:17090.got - 2010.04.16 14:36:59.
