data_PCOD8220842
_publ_section_title
;
Structure prediction by ZEFSAII (Michael W. Deem and Ramdas Pophale) SiO2 
 PCOD8220842
Probable space group: P M N A
;
_chemical_formula_sum "Si O2"
_cell_formula_units_Z 36
_cell_length_a 18.749285
_cell_length_b 8.972138
_cell_length_c 10.537837
_cell_angle_alpha 90.000000
_cell_angle_beta 90.000000
_cell_angle_gamma 90.000000
_cell_volume 1772.687295
_symmetry_space_group_name_H-M "P M N A"
_symmetry_group_IT_number 53
_symmetry_cell_setting 'orthorhombic'
loop_
_space_group_symop_operation_xyz
x,y,z
1/2-x,-y,1/2+z
x,-y,-z
1/2-x,y,1/2-z
-x,-y,-z
1/2+x,y,1/2-z
-x,y,z
1/2+x,-y,1/2+z
loop_
_atom_site_type_symbol
_atom_site_label
_atom_site_fract_x
_atom_site_fract_y
_atom_site_fract_z
Si Si1 0.000000 0.458292 0.306899
Si Si2 0.750000 0.685762 0.250000
Si Si3 0.355810 0.101192 0.885760
Si Si4 0.000000 0.257360 0.524661
Si Si5 0.918575 0.926629 0.129031
Si Si6 0.885069 0.420336 0.868939
O O1 0.000000 0.295075 0.373782
O O2 0.000000 0.586104 0.409281
O O3 0.928713 0.475263 0.225672
O O4 0.706177 0.781167 0.145921
O O5 0.697054 0.579924 0.327304
O O6 0.429375 0.169732 0.936570
O O7 0.373861 0.016494 0.752232
O O8 0.325359 0.000000 0.000000
O O9 0.915152 0.747425 0.124678
O O10 0.000000 0.978083 0.145016
O O11 0.886718 0.000000 0.000000
O O12 0.893523 0.500000 0.000000
#
# Coordination Sequence:
#
# PCOD8220842 Si02
#       6
#     4   4   8   4   8   8
#     4  11  21  38  64  93 120 154 202 260 312 364
#     4  10  24  40  58  90 124 170 204 254 298 368
#     4  11  22  42  64  90 124 163 208 254 312 370
#     4  11  21  38  66  93 120 154 204 264 314 358
#     4  10  20  37  61  91 122 153 195 251 307 359
#     4  11  22  41  62  88 124 163 204 249 310 370
#
# _framework density 20.308152
#
# number of rings (size 3 to 8) (size 9 to 14) (size 15 to 20)
#    0.000    1.333    6.667    0.667    0.000    7.111 
#    0.000    0.000    0.000    0.000    0.000    0.000 
#    0.000    0.000    0.000    0.000    0.000    0.000 
#
# Total GULP energy -446193.813169 kJ/mol
# GULP energy per Si atom -12394.272588 kJ/mol
# Density = 2.026193 g / cm^3
# Si number density = 20.308152 Si / 1000 Ang^3
#
#
#
# Elastic Constant Matrix: (Units=GPa)
#
#
# Indices 1 2 3 4 5 6 
#
# 1 118.2380 12.0623 37.2170 0.0000 0.0000 0.0000
# 2 12.0623 29.5829 41.0249 0.0000 0.0000 0.0000
# 3 37.2170 41.0249 163.7821 0.0000 0.0000 0.0000
# 4 0.0000 0.0000 0.0000 16.2934 0.0000 0.0000
# 5 0.0000 0.0000 0.0000 0.0000 22.5832 0.0000
# 6 0.0000 0.0000 0.0000 0.0000 0.0000 -1.0509
#
#
#
# Elastic Compliance Matrix: (Units=1/GPa)
#
#
# Indices 1 2 3 4 5 6 
#
# 1 0.009141 -0.001297 -0.001752 0.000000 0.000000 0.000000
# 2 -0.001297 0.051979 -0.012725 0.000000 0.000000 0.000000
# 3 -0.001752 -0.012725 0.009691 0.000000 0.000000 0.000000
# 4 0.000000 0.000000 0.000000 0.061375 0.000000 0.000000
# 5 0.000000 0.000000 0.000000 0.000000 0.044281 0.000000
# 6 0.000000 0.000000 0.000000 0.000000 0.000000 -0.951540
#
#
# Mechanical properties :
#
#
# Convention : Reuss Voigt Hill
#
# Bulk Modulus (GPa) = 25.46969 54.69017 40.07993
# Shear Modulus (GPa) = -6.84523 22.31839 7.73658
#
# Velocity S-wave (km/s) = -1.83793 3.31869 1.95394
# Velocity P-wave (km/s) = 2.83987 6.45551 4.98690
#
# Compressibility (1/GPa) = 0.03926235
#
# Stress axis : x y z
#
# Youngs Moduli (GPa) = 109.39217 19.23842 103.18508
#
# Poissons Ratio (x) = 0.02496 0.18081
# Poissons Ratio (y) = 0.14192 1.31305
# Poissons Ratio (z) = 0.19169 0.24481
#
# Static dielectric constant tensor:
#      x y z
#    x 3.720170 0.000000 0.000000 
#    y 0.000000 3.439210 0.000000 
#    z 0.000000 0.000000 3.952200 
# 
# 
# High freq. dielectric constant tensor:
#      x y z
#    x 1.795720 0.000000 0.000000 
#    y 0.000000 1.763120 0.000000 
#    z 0.000000 0.000000 1.813980 
# 
# From -- ./inp_files/17592.got.cif
#   From: 2010.03.12/outbox.cif.g09.slc.cpg/sg53_9_cif.got.tgz:17592.got - 2010.04.16 14:36:59.
