data_PCOD8220657
_publ_section_title
;
Structure prediction by ZEFSAII (Michael W. Deem and Ramdas Pophale) SiO2 
 PCOD8220657
Probable space group: P M N A
;
_chemical_formula_sum "Si O2"
_cell_formula_units_Z 56
_cell_length_a 9.063595
_cell_length_b 17.301235
_cell_length_c 19.218943
_cell_angle_alpha 90.000000
_cell_angle_beta 90.000000
_cell_angle_gamma 90.000000
_cell_volume 3013.749109
_symmetry_space_group_name_H-M "P M N A"
_symmetry_group_IT_number 53
_symmetry_cell_setting 'orthorhombic'
loop_
_space_group_symop_operation_xyz
x,y,z
1/2-x,-y,1/2+z
x,-y,-z
1/2-x,y,1/2-z
-x,-y,-z
1/2+x,y,1/2-z
-x,y,z
1/2+x,-y,1/2+z
loop_
_atom_site_type_symbol
_atom_site_label
_atom_site_fract_x
_atom_site_fract_y
_atom_site_fract_z
Si Si1 0.172806 0.022160 0.921016
Si Si2 0.327211 0.564022 0.404132
Si Si3 0.173574 0.898442 0.675995
Si Si4 0.328799 0.311623 0.819909
Si Si5 0.328031 0.605303 0.558504
Si Si6 0.671356 0.241902 0.078760
Si Si7 0.171878 0.179333 0.568821
O O1 0.231343 0.107684 0.905479
O O2 0.000000 0.017598 0.904208
O O3 0.260177 0.964947 0.871505
O O4 0.208532 0.000000 0.000000
O O5 0.500000 0.579444 0.393603
O O6 0.236729 0.606346 0.343978
O O7 0.274634 0.596025 0.478953
O O8 0.291678 0.472803 0.399152
O O9 0.250000 0.900484 0.750000
O O10 0.207383 0.815605 0.641704
O O11 0.000000 0.912875 0.683991
O O12 0.250000 0.283355 0.750000
O O13 0.500000 0.322735 0.804662
O O14 0.297827 0.248390 0.878386
O O15 0.500000 0.622282 0.559764
O O16 0.247982 0.676753 0.595281
O O17 0.500000 0.258759 0.070770
O O18 0.730374 0.205107 0.006895
O O19 0.000000 0.155537 0.566310
#
# Coordination Sequence:
#
# PCOD8220657 Si02
#       7
#     8   8   8   8   8   8   8
#     4  11  23  38  61  92 120 152 196 239 285 345
#     4   9  18  34  54  82 116 150 189 233 288 342
#     4  11  24  42  63  86 119 156 191 238 295 350
#     4  11  23  38  57  82 115 155 194 238 291 347
#     4   9  18  32  56  86 115 147 187 239 287 336
#     4  10  20  36  59  87 117 151 193 240 288 341
#     4  10  21  38  59  85 116 152 196 241 290 342
#
# _framework density 18.581506000000001
#
# number of rings (size 3 to 8) (size 9 to 14) (size 15 to 20)
#    0.000    1.857    2.857    2.143    0.000    4.571 
#    0.000    3.571    0.000    1.714    0.000    0.000 
#    0.000    0.000    0.000    0.000    0.000    0.000 
#
# Total GULP energy -694617.007060 kJ/mol
# GULP energy per Si atom -12403.875126 kJ/mol
# Density = 1.853921 g / cm^3
# Si number density = 18.581506 Si / 1000 Ang^3
#
#
#
# Elastic Constant Matrix: (Units=GPa)
#
#
# Indices 1 2 3 4 5 6 
#
# 1 89.8749 68.1982 60.7991 0.0000 0.0000 0.0000
# 2 68.1982 132.5800 47.6481 0.0000 0.0000 0.0000
# 3 60.7991 47.6481 106.7410 0.0000 0.0000 0.0000
# 4 0.0000 0.0000 0.0000 21.8008 0.0000 0.0000
# 5 0.0000 0.0000 0.0000 0.0000 26.1493 0.0000
# 6 0.0000 0.0000 0.0000 0.0000 0.0000 36.5581
#
#
#
# Elastic Compliance Matrix: (Units=1/GPa)
#
#
# Indices 1 2 3 4 5 6 
#
# 1 0.024938 -0.009199 -0.010098 0.000000 0.000000 0.000000
# 2 -0.009199 0.012377 -0.000285 0.000000 0.000000 0.000000
# 3 -0.010098 -0.000285 0.015248 0.000000 0.000000 0.000000
# 4 0.000000 0.000000 0.000000 0.045870 0.000000 0.000000
# 5 0.000000 0.000000 0.000000 0.000000 0.038242 0.000000
# 6 0.000000 0.000000 0.000000 0.000000 0.000000 0.027354
#
#
# Mechanical properties :
#
#
# Convention : Reuss Voigt Hill
#
# Bulk Modulus (GPa) = 74.63868 75.83188 75.23528
# Shear Modulus (GPa) = 24.07788 27.07166 25.57477
#
# Velocity S-wave (km/s) = 3.60362 3.82110 3.71395
# Velocity P-wave (km/s) = 7.58751 7.76960 7.67909
#
# Compressibility (1/GPa) = 0.01339788
#
# Stress axis : x y z
#
# Youngs Moduli (GPa) = 40.09929 80.79539 65.58292
#
# Poissons Ratio (x) = 0.74321 0.66228
# Poissons Ratio (y) = 0.36886 0.01872
# Poissons Ratio (z) = 0.40494 0.02306
#
# Static dielectric constant tensor:
#      x y z
#    x 3.386620 0.000000 0.000000 
#    y 0.000000 3.467620 0.000000 
#    z 0.000000 0.000000 3.203050 
# 
# 
# High freq. dielectric constant tensor:
#      x y z
#    x 1.723140 0.000000 0.000000 
#    y 0.000000 1.731300 0.000000 
#    z 0.000000 0.000000 1.708180 
# 
# From -- ./inp_files/30971.got.cif
#   From: 2010.03.12/outbox.cif.g09.slc.cpg/sg53_16_cif.got.tgz:30971.got - 2010.04.16 14:36:59.
