data_PCOD8220815
_publ_section_title
;
Structure prediction by ZEFSAII (Michael W. Deem and Ramdas Pophale) SiO2 
 PCOD8220815
Probable space group: P M N A
;
_chemical_formula_sum "Si O2"
_cell_formula_units_Z 48
_cell_length_a 14.130002
_cell_length_b 16.102602
_cell_length_c 9.947239
_cell_angle_alpha 90.000000
_cell_angle_beta 90.000000
_cell_angle_gamma 90.000000
_cell_volume 2263.293285
_symmetry_space_group_name_H-M "P M N A"
_symmetry_group_IT_number 53
_symmetry_cell_setting 'orthorhombic'
loop_
_space_group_symop_operation_xyz
x,y,z
1/2-x,-y,1/2+z
x,-y,-z
1/2-x,y,1/2-z
-x,-y,-z
1/2+x,y,1/2-z
-x,y,z
1/2+x,-y,1/2+z
loop_
_atom_site_type_symbol
_atom_site_label
_atom_site_fract_x
_atom_site_fract_y
_atom_site_fract_z
Si Si1 0.603199 0.869877 0.964370
Si Si2 0.104367 0.691262 0.462767
Si Si3 0.393959 0.274598 0.653800
Si Si4 0.694373 0.890170 0.430419
Si Si5 0.650735 0.050734 0.294302
Si Si6 0.230092 0.424496 0.904779
O O1 0.500000 0.878822 0.040551
O O2 0.582063 0.918095 0.823437
O O3 0.623867 0.771144 0.941372
O O4 0.693224 0.909440 0.043183
O O5 0.109784 0.726811 0.313022
O O6 0.179670 0.617605 0.478344
O O7 0.000000 0.653799 0.492703
O O8 0.500000 0.258499 0.600051
O O9 0.320346 0.204618 0.608266
O O10 0.357789 0.361508 0.594756
O O11 0.629085 0.909577 0.560269
O O12 0.657502 0.950236 0.310716
O O13 0.750000 0.089686 0.250000
O O14 0.250000 0.452164 0.750000
O O15 0.199912 0.500000 0.000000
#
# Coordination Sequence:
#
# PCOD8220815 Si02
#       6
#     8   8   8   8   8   8
#     4  10  20  37  60  89 118 155 210 262 309 362
#     4   9  19  37  62  89 117 155 200 249 307 374
#     4  10  21  37  61  86 118 164 208 247 299 372
#     4  10  20  38  59  83 119 165 208 250 307 366
#     4   9  21  36  54  82 121 159 197 254 304 352
#     4  10  21  40  63  92 124 158 203 256 315 380
#
# _framework density 21.208033
#
# number of rings (size 3 to 8) (size 9 to 14) (size 15 to 20)
#    0.000    2.333    1.667    0.000    2.333    2.000 
#    3.000    8.333    0.000    1.000    0.000    0.000 
#    0.000    0.000    0.000    0.000    0.000    0.000 
#
# Total GULP energy -594683.626621 kJ/mol
# GULP energy per Si atom -12389.242221 kJ/mol
# Density = 2.115976 g / cm^3
# Si number density = 21.208033 Si / 1000 Ang^3
#
#
#
# Elastic Constant Matrix: (Units=GPa)
#
#
# Indices 1 2 3 4 5 6 
#
# 1 106.3173 35.0824 25.5993 0.0000 0.0000 0.0000
# 2 35.0824 127.0158 57.1964 0.0000 0.0000 0.0000
# 3 25.5993 57.1964 71.6443 0.0000 0.0000 0.0000
# 4 0.0000 0.0000 0.0000 39.4009 0.0000 0.0000
# 5 0.0000 0.0000 0.0000 0.0000 18.6837 0.0000
# 6 0.0000 0.0000 0.0000 0.0000 0.0000 7.1374
#
#
#
# Elastic Compliance Matrix: (Units=1/GPa)
#
#
# Indices 1 2 3 4 5 6 
#
# 1 0.010578 -0.001904 -0.002259 0.000000 0.000000 0.000000
# 2 -0.001904 0.012635 -0.009406 0.000000 0.000000 0.000000
# 3 -0.002259 -0.009406 0.022275 0.000000 0.000000 0.000000
# 4 0.000000 0.000000 0.000000 0.025380 0.000000 0.000000
# 5 0.000000 0.000000 0.000000 0.000000 0.053523 0.000000
# 6 0.000000 0.000000 0.000000 0.000000 0.000000 0.140108
#
#
# Mechanical properties :
#
#
# Convention : Reuss Voigt Hill
#
# Bulk Modulus (GPa) = 54.50371 60.08151 57.29261
# Shear Modulus (GPa) = 16.79238 25.51769 21.15503
#
# Velocity S-wave (km/s) = 2.81694 3.47249 3.16175
# Velocity P-wave (km/s) = 6.02789 6.66849 6.35627
#
# Compressibility (1/GPa) = 0.01834737
#
# Stress axis : x y z
#
# Youngs Moduli (GPa) = 94.53387 79.14639 44.89399
#
# Poissons Ratio (x) = 0.15072 0.10144
# Poissons Ratio (y) = 0.18002 0.42229
# Poissons Ratio (z) = 0.21359 0.74448
#
# Static dielectric constant tensor:
#      x y z
#    x 3.993850 0.000000 0.000000 
#    y 0.000000 3.629510 0.000000 
#    z 0.000000 0.000000 3.863550 
# 
# 
# High freq. dielectric constant tensor:
#      x y z
#    x 1.835970 0.000000 0.000000 
#    y 0.000000 1.816230 0.000000 
#    z 0.000000 0.000000 1.810170 
# 
# From -- ./inp_files/15921.got.cif
#   From: 2010.03.12/outbox.cif.g09.slc.cpg/sg53_8_cif.got.tgz:15921.got - 2010.04.16 14:36:59.
