data_PCOD8220837
_publ_section_title
;
Structure prediction by ZEFSAII (Michael W. Deem and Ramdas Pophale) SiO2 
 PCOD8220837
Probable space group: P M N A
;
_chemical_formula_sum "Si O2"
_cell_formula_units_Z 64
_cell_length_a 8.880657
_cell_length_b 23.885606
_cell_length_c 15.202091
_cell_angle_alpha 90.000000
_cell_angle_beta 90.000000
_cell_angle_gamma 90.000000
_cell_volume 3224.665629
_symmetry_space_group_name_H-M "P M N A"
_symmetry_group_IT_number 53
_symmetry_cell_setting 'orthorhombic'
loop_
_space_group_symop_operation_xyz
x,y,z
1/2-x,-y,1/2+z
x,-y,-z
1/2-x,y,1/2-z
-x,-y,-z
1/2+x,y,1/2-z
-x,y,z
1/2+x,-y,1/2+z
loop_
_atom_site_type_symbol
_atom_site_label
_atom_site_fract_x
_atom_site_fract_y
_atom_site_fract_z
Si Si1 0.174142 0.682654 0.999414
Si Si2 0.674846 0.812663 0.485269
Si Si3 0.178584 0.890273 0.346565
Si Si4 0.322834 0.624898 0.840319
Si Si5 0.822774 0.391646 0.838045
Si Si6 0.675373 0.497785 0.102364
Si Si7 0.674726 0.123500 0.344036
Si Si8 0.823669 0.000491 0.844357
O O1 0.200808 0.746910 0.022449
O O2 0.233938 0.645541 0.080499
O O3 0.000000 0.669785 0.979590
O O4 0.270731 0.667544 0.914747
O O5 0.500000 0.829050 0.472314
O O6 0.773749 0.839158 0.408160
O O7 0.731492 0.833490 0.581391
O O8 0.250000 0.882010 0.250000
O O9 0.000000 0.892589 0.337831
O O10 0.240759 0.947766 0.393160
O O11 0.250000 0.645250 0.750000
O O12 0.500000 0.628207 0.832189
O O13 0.269662 0.561988 0.862000
O O14 0.750000 0.366137 0.750000
O O15 0.771784 0.455659 0.848326
O O16 0.000000 0.388906 0.828452
O O17 0.500000 0.508807 0.120970
O O18 0.712373 0.500000 0.000000
O O19 0.750000 0.135446 0.250000
O O20 0.500000 0.131369 0.325077
O O21 0.706422 0.061144 0.384226
O O22 0.750000 0.998856 0.750000
O O23 0.000000 0.014133 0.839692
#
# Coordination Sequence:
#
# PCOD8220837 Si02
#       8
#     8   8   8   8   8   8   8   8
#     4  10  23  42  61  83 114 152 197 243 289 337
#     4  10  22  41  60  82 114 152 195 241 286 339
#     4  11  22  37  58  85 115 150 189 235 288 343
#     4  11  23  39  62  88 119 154 192 237 286 343
#     4  11  23  38  60  88 117 152 191 236 288 345
#     4  10  20  37  61  90 121 153 187 231 287 342
#     4   9  19  35  58  84 114 150 187 233 286 341
#     4   9  16  30  53  82 113 147 184 226 283 344
#
# _framework density 19.847017999999998
#
# number of rings (size 3 to 8) (size 9 to 14) (size 15 to 20)
#    0.000    1.875    1.250    3.375    0.000    5.750 
#    0.000    5.000    0.000    0.000    0.000    0.000 
#    0.000    0.000    0.000    0.000    0.000    0.000 
#
# Total GULP energy -793604.154379 kJ/mol
# GULP energy per Si atom -12400.064912 kJ/mol
# Density = 1.980185 g / cm^3
# Si number density = 19.847018 Si / 1000 Ang^3
#
#
#
# Elastic Constant Matrix: (Units=GPa)
#
#
# Indices 1 2 3 4 5 6 
#
# 1 80.8961 28.1710 34.5983 0.0000 0.0000 0.0000
# 2 28.1710 72.2472 20.3008 0.0000 0.0000 0.0000
# 3 34.5983 20.3008 98.0910 0.0000 0.0000 0.0000
# 4 0.0000 0.0000 0.0000 13.5068 0.0000 0.0000
# 5 0.0000 0.0000 0.0000 0.0000 31.8619 0.0000
# 6 0.0000 0.0000 0.0000 0.0000 0.0000 18.3850
#
#
#
# Elastic Compliance Matrix: (Units=1/GPa)
#
#
# Indices 1 2 3 4 5 6 
#
# 1 0.016076 -0.004964 -0.004643 0.000000 0.000000 0.000000
# 2 -0.004964 0.016229 -0.001608 0.000000 0.000000 0.000000
# 3 -0.004643 -0.001608 0.012165 0.000000 0.000000 0.000000
# 4 0.000000 0.000000 0.000000 0.074037 0.000000 0.000000
# 5 0.000000 0.000000 0.000000 0.000000 0.031385 0.000000
# 6 0.000000 0.000000 0.000000 0.000000 0.000000 0.054392
#
#
# Mechanical properties :
#
#
# Convention : Reuss Voigt Hill
#
# Bulk Modulus (GPa) = 45.37118 46.37494 45.87306
# Shear Modulus (GPa) = 21.36205 23.96168 22.66187
#
# Velocity S-wave (km/s) = 3.28431 3.47842 3.38276
# Velocity P-wave (km/s) = 6.10675 6.28884 6.19846
#
# Compressibility (1/GPa) = 0.02204042
#
# Stress axis : x y z
#
# Youngs Moduli (GPa) = 62.20530 61.61947 82.20298
#
# Poissons Ratio (x) = 0.30586 0.38166
# Poissons Ratio (y) = 0.30877 0.13217
# Poissons Ratio (z) = 0.28881 0.09908
#
# Static dielectric constant tensor:
#      x y z
#    x 3.564040 0.000000 0.000000 
#    y 0.000000 3.959460 0.000000 
#    z 0.000000 0.000000 3.600140 
# 
# 
# High freq. dielectric constant tensor:
#      x y z
#    x 1.772170 0.000000 0.000000 
#    y 0.000000 1.776020 0.000000 
#    z 0.000000 0.000000 1.774340 
# 
# From -- ./inp_files/20896.got.cif
#   From: 2010.03.12/outbox.cif.g09.slc.cpg/sg53_11_cif.got.tgz:20896.got - 2010.04.16 14:36:59.
