data_PCOD8220532
_publ_section_title
;
Structure prediction by ZEFSAII (Michael W. Deem and Ramdas Pophale) SiO2 
 PCOD8220532
Probable space group: P M N A
;
_chemical_formula_sum "Si O2"
_cell_formula_units_Z 48
_cell_length_a 9.032828
_cell_length_b 30.322053
_cell_length_c 9.134435
_cell_angle_alpha 90.000000
_cell_angle_beta 90.000000
_cell_angle_gamma 90.000000
_cell_volume 2501.865929
_symmetry_space_group_name_H-M "P M N A"
_symmetry_group_IT_number 53
_symmetry_cell_setting 'orthorhombic'
loop_
_space_group_symop_operation_xyz
x,y,z
1/2-x,-y,1/2+z
x,-y,-z
1/2-x,y,1/2-z
-x,-y,-z
1/2+x,y,1/2-z
-x,y,z
1/2+x,-y,1/2+z
loop_
_atom_site_type_symbol
_atom_site_label
_atom_site_fract_x
_atom_site_fract_y
_atom_site_fract_z
Si Si1 0.673893 0.124404 0.903628
Si Si2 0.674170 0.625626 0.402686
Si Si3 0.174270 0.958360 0.594440
Si Si4 0.328166 0.203022 0.102008
Si Si5 0.672275 0.459412 0.404802
Si Si6 0.825180 0.695902 0.597486
O O1 0.750000 0.117065 0.750000
O O2 0.500000 0.122677 0.877316
O O3 0.725491 0.085960 0.012698
O O4 0.724494 0.171434 0.970619
O O5 0.750000 0.613573 0.250000
O O6 0.500000 0.634018 0.380459
O O7 0.706038 0.585672 0.511822
O O8 0.751375 0.669074 0.466331
O O9 0.250000 0.960502 0.750000
O O10 0.000000 0.959286 0.619208
O O11 0.227750 0.000000 0.500000
O O12 0.250000 0.187973 0.250000
O O13 0.500000 0.196746 0.132306
O O14 0.289955 0.253277 0.060939
O O15 0.735686 0.500000 0.500000
O O16 0.750000 0.457917 0.250000
O O17 0.500000 0.466422 0.375747
O O18 0.750000 0.681758 0.750000
O O19 0.000000 0.686286 0.607421
#
# Coordination Sequence:
#
# PCOD8220532 Si02
#       6
#     8   8   8   8   8   8
#     4  10  21  36  53  77 108 140 178 220 264 316
#     4  11  23  38  57  82 112 146 184 225 272 323
#     4  10  21  36  55  80 108 138 175 218 263 315
#     4   9  19  35  55  79 106 139 179 222 267 318
#     4  10  22  39  59  84 112 143 180 221 267 319
#     4  10  20  36  57  81 110 143 182 226 272 323
#
# _framework density 19.185679
#
# number of rings (size 3 to 8) (size 9 to 14) (size 15 to 20)
#    0.000    2.000    0.000    3.000    0.000    6.000 
#    0.000    1.667    0.000    0.000    0.000    0.000 
#    0.000    0.000    0.000    0.000    0.000    0.000 
#
# Total GULP energy -595407.192003 kJ/mol
# GULP energy per Si atom -12404.316500 kJ/mol
# Density = 1.914201 g / cm^3
# Si number density = 19.185679 Si / 1000 Ang^3
#
#
#
# Elastic Constant Matrix: (Units=GPa)
#
#
# Indices 1 2 3 4 5 6 
#
# 1 69.7523 50.4324 68.3897 0.0000 0.0000 0.0000
# 2 50.4324 115.7027 73.7066 0.0000 0.0000 0.0000
# 3 68.3897 73.7066 169.7124 0.0000 0.0000 0.0000
# 4 0.0000 0.0000 0.0000 32.8536 0.0000 0.0000
# 5 0.0000 0.0000 0.0000 0.0000 41.6639 0.0000
# 6 0.0000 0.0000 0.0000 0.0000 0.0000 24.3283
#
#
#
# Elastic Compliance Matrix: (Units=1/GPa)
#
#
# Indices 1 2 3 4 5 6 
#
# 1 0.026985 -0.006684 -0.007971 0.000000 0.000000 0.000000
# 2 -0.006684 0.013604 -0.003215 0.000000 0.000000 0.000000
# 3 -0.007971 -0.003215 0.010501 0.000000 0.000000 0.000000
# 4 0.000000 0.000000 0.000000 0.030438 0.000000 0.000000
# 5 0.000000 0.000000 0.000000 0.000000 0.024002 0.000000
# 6 0.000000 0.000000 0.000000 0.000000 0.000000 0.041104
#
#
# Mechanical properties :
#
#
# Convention : Reuss Voigt Hill
#
# Bulk Modulus (GPa) = 65.14934 82.24721 73.69828
# Shear Modulus (GPa) = 26.66799 30.61173 28.63986
#
# Velocity S-wave (km/s) = 3.73231 3.99877 3.86783
# Velocity P-wave (km/s) = 7.25290 8.01763 7.64483
#
# Compressibility (1/GPa) = 0.01534935
#
# Stress axis : x y z
#
# Youngs Moduli (GPa) = 37.05800 73.50623 95.23156
#
# Poissons Ratio (x) = 0.49133 0.75911
# Poissons Ratio (y) = 0.24770 0.30615
# Poissons Ratio (z) = 0.29540 0.23631
#
# Static dielectric constant tensor:
#      x y z
#    x 3.475030 0.000000 0.000000 
#    y 0.000000 3.781920 0.000000 
#    z 0.000000 0.000000 3.530010 
# 
# 
# High freq. dielectric constant tensor:
#      x y z
#    x 1.744020 0.000000 0.000000 
#    y 0.000000 1.762810 0.000000 
#    z 0.000000 0.000000 1.751540 
# 
# From -- ./inp_files/6625.got.cif
#   From: 2010.03.12/outbox.cif.g09.slc.cpg/sg53_4_cif.got.tgz:6625.got - 2010.04.16 14:36:59.
