data_PCOD8220533
_publ_section_title
;
Structure prediction by ZEFSAII (Michael W. Deem and Ramdas Pophale) SiO2 
 PCOD8220533
Probable space group: P M N A
;
_chemical_formula_sum "Si O2"
_cell_formula_units_Z 48
_cell_length_a 8.858984
_cell_length_b 30.580331
_cell_length_c 9.066840
_cell_angle_alpha 90.000000
_cell_angle_beta 90.000000
_cell_angle_gamma 90.000000
_cell_volume 2456.303636
_symmetry_space_group_name_H-M "P M N A"
_symmetry_group_IT_number 53
_symmetry_cell_setting 'orthorhombic'
loop_
_space_group_symop_operation_xyz
x,y,z
1/2-x,-y,1/2+z
x,-y,-z
1/2-x,y,1/2-z
-x,-y,-z
1/2+x,y,1/2-z
-x,y,z
1/2+x,-y,1/2+z
loop_
_atom_site_type_symbol
_atom_site_label
_atom_site_fract_x
_atom_site_fract_y
_atom_site_fract_z
Si Si1 0.821328 0.879811 0.589801
Si Si2 0.176081 0.363243 0.909627
Si Si3 0.678926 0.288398 0.092322
Si Si4 0.826014 0.538827 0.095693
Si Si5 0.823053 0.795483 0.408484
Si Si6 0.325922 0.043575 0.593835
O O1 0.750000 0.883551 0.750000
O O2 0.770949 0.834202 0.516631
O O3 0.761941 0.918088 0.486979
O O4 0.000000 0.883736 0.605313
O O5 0.250000 0.356249 0.750000
O O6 0.199236 0.412654 0.970373
O O7 0.000000 0.351270 0.896095
O O8 0.256347 0.333477 0.030233
O O9 0.750000 0.278055 0.250000
O O10 0.500000 0.291735 0.109021
O O11 0.728190 0.250016 0.981154
O O12 0.750000 0.536452 0.250000
O O13 0.000000 0.528702 0.119213
O O14 0.751839 0.500000 0.000000
O O15 0.750000 0.801378 0.250000
O O16 0.000000 0.796884 0.384054
O O17 0.250000 0.034572 0.750000
O O18 0.500000 0.057097 0.615308
O O19 0.310278 0.000000 0.500000
#
# Coordination Sequence:
#
# PCOD8220533 Si02
#       6
#     8   8   8   8   8   8
#     4  11  23  40  62  89 120 154 194 239 288 339
#     4  10  20  36  57  81 110 145 186 230 277 332
#     4  11  23  39  58  83 114 148 187 231 282 335
#     4   9  19  35  54  78 108 142 181 225 274 328
#     4  10  23  40  60  86 115 150 190 233 281 336
#     4  11  24  41  62  89 121 157 197 241 289 342
#
# _framework density 19.541557999999998
#
# number of rings (size 3 to 8) (size 9 to 14) (size 15 to 20)
#    0.000    1.667    0.000    4.000    0.000    9.667 
#    0.000    1.667    0.000    0.000    0.000    0.000 
#    0.000    0.000    0.000    0.000    0.000    0.000 
#
# Total GULP energy -595328.745046 kJ/mol
# GULP energy per Si atom -12402.682188 kJ/mol
# Density = 1.949708 g / cm^3
# Si number density = 19.541558 Si / 1000 Ang^3
#
#
#
# Elastic Constant Matrix: (Units=GPa)
#
#
# Indices 1 2 3 4 5 6 
#
# 1 89.7624 52.0907 52.3763 0.0000 0.0000 0.0000
# 2 52.0907 113.3663 40.9549 0.0000 0.0000 0.0000
# 3 52.3763 40.9549 113.0011 0.0000 0.0000 0.0000
# 4 0.0000 0.0000 0.0000 42.4086 0.0000 0.0000
# 5 0.0000 0.0000 0.0000 0.0000 32.6615 0.0000
# 6 0.0000 0.0000 0.0000 0.0000 0.0000 37.8502
#
#
#
# Elastic Compliance Matrix: (Units=1/GPa)
#
#
# Indices 1 2 3 4 5 6 
#
# 1 0.018396 -0.006182 -0.006286 0.000000 0.000000 0.000000
# 2 -0.006182 0.012227 -0.001566 0.000000 0.000000 0.000000
# 3 -0.006286 -0.001566 0.012331 0.000000 0.000000 0.000000
# 4 0.000000 0.000000 0.000000 0.023580 0.000000 0.000000
# 5 0.000000 0.000000 0.000000 0.000000 0.030617 0.000000
# 6 0.000000 0.000000 0.000000 0.000000 0.000000 0.026420
#
#
# Mechanical properties :
#
#
# Convention : Reuss Voigt Hill
#
# Bulk Modulus (GPa) = 67.17880 67.44150 67.31015
# Shear Modulus (GPa) = 31.92827 33.96458 32.94643
#
# Velocity S-wave (km/s) = 4.04650 4.17354 4.11051
# Velocity P-wave (km/s) = 7.50228 7.60338 7.55300
#
# Compressibility (1/GPa) = 0.01488565
#
# Stress axis : x y z
#
# Youngs Moduli (GPa) = 54.36015 81.78455 81.09830
#
# Poissons Ratio (x) = 0.50557 0.50979
# Poissons Ratio (y) = 0.33604 0.12702
# Poissons Ratio (z) = 0.34171 0.12809
#
# Static dielectric constant tensor:
#      x y z
#    x 3.682950 0.000000 0.000000 
#    y 0.000000 4.227610 0.000000 
#    z 0.000000 0.000000 3.537980 
# 
# 
# High freq. dielectric constant tensor:
#      x y z
#    x 1.769980 0.000000 0.000000 
#    y 0.000000 1.780080 0.000000 
#    z 0.000000 0.000000 1.767350 
# 
# From -- ./inp_files/6623.got.cif
#   From: 2010.03.12/outbox.cif.g09.slc.cpg/sg53_4_cif.got.tgz:6623.got - 2010.04.16 14:36:59.
