data_PCOD8220366
_publ_section_title
;
Structure prediction by ZEFSAII (Michael W. Deem and Ramdas Pophale) SiO2 
 PCOD8220366
Probable space group: P M N A
;
_chemical_formula_sum "Si O2"
_cell_formula_units_Z 64
_cell_length_a 8.920943
_cell_length_b 12.459763
_cell_length_c 30.232144
_cell_angle_alpha 90.000000
_cell_angle_beta 90.000000
_cell_angle_gamma 90.000000
_cell_volume 3360.388529
_symmetry_space_group_name_H-M "P M N A"
_symmetry_group_IT_number 53
_symmetry_cell_setting 'orthorhombic'
loop_
_space_group_symop_operation_xyz
x,y,z
1/2-x,-y,1/2+z
x,-y,-z
1/2-x,y,1/2-z
-x,-y,-z
1/2+x,y,1/2-z
-x,y,z
1/2+x,-y,1/2+z
loop_
_atom_site_type_symbol
_atom_site_label
_atom_site_fract_x
_atom_site_fract_y
_atom_site_fract_z
Si Si1 0.822673 0.823181 0.379392
Si Si2 0.324295 0.379686 0.589608
Si Si3 0.676935 0.624454 0.587303
Si Si4 0.322413 0.176222 0.120783
Si Si5 0.834732 0.374258 0.501356
Si Si6 0.665069 0.121218 0.291350
Si Si7 0.164064 0.876876 0.208881
Si Si8 0.322514 0.001503 0.949336
O O1 0.760989 0.701422 0.378230
O O2 0.761641 0.876464 0.335298
O O3 0.768125 0.892275 0.422340
O O4 0.000000 0.821013 0.377408
O O5 0.500000 0.364088 0.594529
O O6 0.276791 0.502613 0.600036
O O7 0.274381 0.343113 0.540916
O O8 0.500000 0.631740 0.581195
O O9 0.739445 0.708108 0.622791
O O10 0.756361 0.665703 0.542824
O O11 0.500000 0.192494 0.121082
O O12 0.269589 0.120940 0.165568
O O13 0.271456 0.103751 0.078573
O O14 0.857051 0.500000 0.500000
O O15 0.000000 0.319420 0.506543
O O16 0.750000 0.178977 0.250000
O O17 0.500000 0.174893 0.299298
O O18 0.637202 0.999170 0.277755
O O19 0.250000 0.819249 0.250000
O O20 0.000000 0.821924 0.201930
O O21 0.500000 0.002836 0.952000
O O22 0.256852 0.000000 0.000000
#
# Coordination Sequence:
#
# PCOD8220366 Si02
#       8
#     8   8   8   8   8   8   8   8
#     4  11  21  35  58  83 113 149 190 233 278 334
#     4  10  21  36  53  76 109 147 187 234 284 329
#     4  10  21  36  53  76 109 147 187 234 284 329
#     4  11  21  35  58  83 113 149 190 233 278 334
#     4   9  17  31  51  74  99 134 185 235 277 322
#     4  10  20  35  57  83 113 144 182 230 281 334
#     4  10  20  35  57  83 113 144 182 230 281 334
#     4   9  20  36  52  77 114 153 189 228 273 324
#
# _framework density 19.045417
#
# number of rings (size 3 to 8) (size 9 to 14) (size 15 to 20)
#    0.000    2.000    1.250    2.625    1.750    4.000 
#    0.000    0.000    0.000    3.750    0.000    0.000 
#    0.000    0.000    0.000    0.000    0.000    0.000 
#
# Total GULP energy -793186.066857 kJ/mol
# GULP energy per Si atom -12393.532295 kJ/mol
# Density = 1.900207 g / cm^3
# Si number density = 19.045417 Si / 1000 Ang^3
#
#
#
# Elastic Constant Matrix: (Units=GPa)
#
#
# Indices 1 2 3 4 5 6 
#
# 1 90.6561 35.9845 35.8530 0.0000 0.0000 0.0000
# 2 35.9845 81.3052 29.3709 0.0000 0.0000 0.0000
# 3 35.8530 29.3709 117.0375 0.0000 0.0000 0.0000
# 4 0.0000 0.0000 0.0000 13.3469 0.0000 0.0000
# 5 0.0000 0.0000 0.0000 0.0000 31.9939 0.0000
# 6 0.0000 0.0000 0.0000 0.0000 0.0000 23.7779
#
#
#
# Elastic Compliance Matrix: (Units=1/GPa)
#
#
# Indices 1 2 3 4 5 6 
#
# 1 0.014322 -0.005228 -0.003075 0.000000 0.000000 0.000000
# 2 -0.005228 0.015434 -0.002272 0.000000 0.000000 0.000000
# 3 -0.003075 -0.002272 0.010056 0.000000 0.000000 0.000000
# 4 0.000000 0.000000 0.000000 0.074924 0.000000 0.000000
# 5 0.000000 0.000000 0.000000 0.000000 0.031256 0.000000
# 6 0.000000 0.000000 0.000000 0.000000 0.000000 0.042056
#
#
# Mechanical properties :
#
#
# Convention : Reuss Voigt Hill
#
# Bulk Modulus (GPa) = 53.58350 54.60172 54.09261
# Shear Modulus (GPa) = 23.21062 26.34308 24.77685
#
# Velocity S-wave (km/s) = 3.49477 3.72314 3.61076
# Velocity P-wave (km/s) = 6.66935 6.87123 6.77104
#
# Compressibility (1/GPa) = 0.01866246
#
# Stress axis : x y z
#
# Youngs Moduli (GPa) = 69.82233 64.79340 99.43830
#
# Poissons Ratio (x) = 0.33872 0.30582
# Poissons Ratio (y) = 0.36501 0.22589
# Poissons Ratio (z) = 0.21474 0.14719
#
# Static dielectric constant tensor:
#      x y z
#    x 3.621790 0.000000 0.000000 
#    y 0.000000 3.372530 0.000000 
#    z 0.000000 0.000000 3.493030 
# 
# 
# High freq. dielectric constant tensor:
#      x y z
#    x 1.746270 0.000000 0.000000 
#    y 0.000000 1.716150 0.000000 
#    z 0.000000 0.000000 1.729670 
# 
# From -- ./inp_files/38126.got.cif
#   From: 2010.03.12/outbox.cif.g09.slc.cpg/sg53_20_cif.got.tgz:38126.got - 2010.04.16 14:36:59.
