data_PCOD8220128
_publ_section_title
;
Structure prediction by ZEFSAII (Michael W. Deem and Ramdas Pophale) SiO2 
 PCOD8220128
Probable space group: P M N A
;
_chemical_formula_sum "Si O2"
_cell_formula_units_Z 56
_cell_length_a 9.015280
_cell_length_b 20.877486
_cell_length_c 15.002504
_cell_angle_alpha 90.000000
_cell_angle_beta 90.000000
_cell_angle_gamma 90.000000
_cell_volume 2823.717024
_symmetry_space_group_name_H-M "P M N A"
_symmetry_group_IT_number 53
_symmetry_cell_setting 'orthorhombic'
loop_
_space_group_symop_operation_xyz
x,y,z
1/2-x,-y,1/2+z
x,-y,-z
1/2-x,y,1/2-z
-x,-y,-z
1/2+x,y,1/2-z
-x,y,z
1/2+x,-y,1/2+z
loop_
_atom_site_type_symbol
_atom_site_label
_atom_site_fract_x
_atom_site_fract_y
_atom_site_fract_z
Si Si1 0.175993 0.342524 0.346907
Si Si2 0.329419 0.288381 0.512802
Si Si3 0.331546 0.142235 0.510515
Si Si4 0.163213 0.035371 0.593829
Si Si5 0.325623 0.378928 0.846634
Si Si6 0.825134 0.903942 0.662485
Si Si7 0.668830 0.482249 0.159071
O O1 0.250000 0.333164 0.250000
O O2 0.250564 0.294491 0.416727
O O3 0.211401 0.414466 0.386713
O O4 0.000000 0.329074 0.340267
O O5 0.500000 0.310586 0.504904
O O6 0.318672 0.214866 0.543781
O O7 0.246210 0.328692 0.587256
O O8 0.500000 0.123451 0.488043
O O9 0.274295 0.095708 0.589996
O O10 0.234201 0.133892 0.422533
O O11 0.000000 0.061175 0.620374
O O12 0.154174 0.000000 0.500000
O O13 0.217273 0.979796 0.661041
O O14 0.250000 0.373219 0.750000
O O15 0.500000 0.364195 0.836396
O O16 0.301725 0.450291 0.892059
O O17 0.750000 0.873667 0.750000
O O18 0.000000 0.893569 0.666041
O O19 0.750000 0.489617 0.250000
O O20 0.500000 0.477194 0.186588
#
# Coordination Sequence:
#
# PCOD8220128 Si02
#       7
#     8   8   8   8   8   8   8
#     4  10  20  36  57  81 111 147 185 230 282 335
#     4  11  24  39  54  79 113 151 194 231 271 329
#     4  10  21  36  54  75 104 142 180 218 260 311
#     4   8  16  32  53  76 101 129 162 203 250 299
#     4  10  20  37  60  83 108 140 180 232 288 339
#     4  10  20  34  55  83 111 137 170 213 260 312
#     4   8  16  31  53  80 107 136 176 226 282 338
#
# _framework density 19.832015999999999
#
# number of rings (size 3 to 8) (size 9 to 14) (size 15 to 20)
#    0.000    2.429    0.000    3.000    0.000    7.714 
#    0.000    3.571    0.000    1.714    0.000    0.000 
#    0.000    0.000    0.000    0.000    0.000    0.000 
#
# Total GULP energy -693855.200589 kJ/mol
# GULP energy per Si atom -12390.271439 kJ/mol
# Density = 1.978688 g / cm^3
# Si number density = 19.832016 Si / 1000 Ang^3
#
#
#
# Elastic Constant Matrix: (Units=GPa)
#
#
# Indices 1 2 3 4 5 6 
#
# 1 106.3619 39.2261 20.9359 0.0000 0.0000 0.0000
# 2 39.2261 79.7006 5.4334 0.0000 0.0000 0.0000
# 3 20.9359 5.4334 38.9085 0.0000 0.0000 0.0000
# 4 0.0000 0.0000 0.0000 21.5411 0.0000 0.0000
# 5 0.0000 0.0000 0.0000 0.0000 29.8254 0.0000
# 6 0.0000 0.0000 0.0000 0.0000 0.0000 30.8724
#
#
#
# Elastic Compliance Matrix: (Units=1/GPa)
#
#
# Indices 1 2 3 4 5 6 
#
# 1 0.012755 -0.005865 -0.006044 0.000000 0.000000 0.000000
# 2 -0.005865 0.015365 0.001010 0.000000 0.000000 0.000000
# 3 -0.006044 0.001010 0.028812 0.000000 0.000000 0.000000
# 4 0.000000 0.000000 0.000000 0.046423 0.000000 0.000000
# 5 0.000000 0.000000 0.000000 0.000000 0.033528 0.000000
# 6 0.000000 0.000000 0.000000 0.000000 0.000000 0.032391
#
#
# Mechanical properties :
#
#
# Convention : Reuss Voigt Hill
#
# Bulk Modulus (GPa) = 28.46244 39.57351 34.01798
# Shear Modulus (GPa) = 24.65679 27.07282 25.86480
#
# Velocity S-wave (km/s) = 3.52985 3.69874 3.61528
# Velocity P-wave (km/s) = 5.56741 6.18374 5.88365
#
# Compressibility (1/GPa) = 0.03513402
#
# Stress axis : x y z
#
# Youngs Moduli (GPa) = 78.40253 65.08368 34.70729
#
# Poissons Ratio (x) = 0.38174 0.20977
# Poissons Ratio (y) = 0.45986 -0.03507
# Poissons Ratio (z) = 0.47386 -0.06576
#
# Static dielectric constant tensor:
#      x y z
#    x 3.716830 0.000000 0.000000 
#    y 0.000000 3.936600 0.000000 
#    z 0.000000 0.000000 3.367240 
# 
# 
# High freq. dielectric constant tensor:
#      x y z
#    x 1.785870 0.000000 0.000000 
#    y 0.000000 1.777660 0.000000 
#    z 0.000000 0.000000 1.743930 
# 
# From -- ./inp_files/20609.got.cif
#   From: 2010.03.12/outbox.cif.g09.slc.cpg/sg53_11_cif.got.tgz:20609.got - 2010.04.16 14:36:59.
