data_PCOD8220308
_publ_section_title
;
Structure prediction by ZEFSAII (Michael W. Deem and Ramdas Pophale) SiO2 
 PCOD8220308
Probable space group: P M N A
;
_chemical_formula_sum "Si O2"
_cell_formula_units_Z 48
_cell_length_a 8.796693
_cell_length_b 30.289274
_cell_length_c 9.462259
_cell_angle_alpha 90.000000
_cell_angle_beta 90.000000
_cell_angle_gamma 90.000000
_cell_volume 2521.175806
_symmetry_space_group_name_H-M "P M N A"
_symmetry_group_IT_number 53
_symmetry_cell_setting 'orthorhombic'
loop_
_space_group_symop_operation_xyz
x,y,z
1/2-x,-y,1/2+z
x,-y,-z
1/2-x,y,1/2-z
-x,-y,-z
1/2+x,y,1/2-z
-x,y,z
1/2+x,-y,1/2+z
loop_
_atom_site_type_symbol
_atom_site_label
_atom_site_fract_x
_atom_site_fract_y
_atom_site_fract_z
Si Si1 0.321525 0.541517 0.597665
Si Si2 0.821652 0.287576 0.604386
Si Si3 0.679132 0.211508 0.097531
Si Si4 0.820898 0.959591 0.099711
Si Si5 0.180393 0.869015 0.402344
Si Si6 0.179539 0.611582 0.398540
O O1 0.282581 0.500000 0.500000
O O2 0.250000 0.532820 0.750000
O O3 0.500000 0.549096 0.614159
O O4 0.247927 0.584603 0.528302
O O5 0.750000 0.270917 0.750000
O O6 0.762420 0.256146 0.478979
O O7 0.774209 0.337824 0.571319
O O8 0.000000 0.283006 0.622876
O O9 0.750000 0.208686 0.250000
O O10 0.500000 0.212342 0.113699
O O11 0.732527 0.169286 0.008226
O O12 0.750000 0.970973 0.250000
O O13 0.746343 0.915012 0.037489
O O14 0.000000 0.952446 0.114519
O O15 0.778405 0.000000 0.000000
O O16 0.250000 0.858410 0.250000
O O17 0.000000 0.872176 0.388568
O O18 0.250000 0.595348 0.250000
O O19 0.000000 0.604506 0.390794
#
# Coordination Sequence:
#
# PCOD8220308 Si02
#       6
#     8   8   8   8   8   8
#     4  11  24  40  59  83 112 147 185 227 276 327
#     4   9  19  36  57  82 110 143 182 221 265 319
#     4  10  22  37  53  78 110 142 178 220 267 316
#     4  10  21  36  55  79 106 138 175 215 262 315
#     4  10  20  35  56  79 104 137 177 219 262 313
#     4  10  20  36  59  85 114 146 183 227 272 323
#
# _framework density 19.038737000000001
#
# number of rings (size 3 to 8) (size 9 to 14) (size 15 to 20)
#    0.000    2.000    0.000    4.000    0.000    8.000 
#    0.000    5.000    0.000    0.000    0.000    0.000 
#    0.000    0.000    0.000    0.000    0.000    0.000 
#
# Total GULP energy -595353.679646 kJ/mol
# GULP energy per Si atom -12403.201659 kJ/mol
# Density = 1.899540 g / cm^3
# Si number density = 19.038737 Si / 1000 Ang^3
#
#
#
# Elastic Constant Matrix: (Units=GPa)
#
#
# Indices 1 2 3 4 5 6 
#
# 1 75.0003 54.8279 55.7068 0.0000 0.0000 0.0000
# 2 54.8279 134.7585 91.7374 0.0000 0.0000 0.0000
# 3 55.7068 91.7374 146.4295 0.0000 0.0000 0.0000
# 4 0.0000 0.0000 0.0000 44.4663 0.0000 0.0000
# 5 0.0000 0.0000 0.0000 0.0000 37.4306 0.0000
# 6 0.0000 0.0000 0.0000 0.0000 0.0000 27.5210
#
#
#
# Elastic Compliance Matrix: (Units=1/GPa)
#
#
# Indices 1 2 3 4 5 6 
#
# 1 0.020547 -0.005298 -0.004498 0.000000 0.000000 0.000000
# 2 -0.005298 0.014305 -0.006947 0.000000 0.000000 0.000000
# 3 -0.004498 -0.006947 0.012892 0.000000 0.000000 0.000000
# 4 0.000000 0.000000 0.000000 0.022489 0.000000 0.000000
# 5 0.000000 0.000000 0.000000 0.000000 0.026716 0.000000
# 6 0.000000 0.000000 0.000000 0.000000 0.000000 0.036336
#
#
# Mechanical properties :
#
#
# Convention : Reuss Voigt Hill
#
# Bulk Modulus (GPa) = 70.12612 84.52583 77.32598
# Shear Modulus (GPa) = 29.15064 32.14464 30.64764
#
# Velocity S-wave (km/s) = 3.91720 4.11345 4.01652
# Velocity P-wave (km/s) = 7.57447 8.18864 7.88753
#
# Compressibility (1/GPa) = 0.01426002
#
# Stress axis : x y z
#
# Youngs Moduli (GPa) = 48.66918 69.90510 77.56599
#
# Poissons Ratio (x) = 0.37035 0.34886
# Poissons Ratio (y) = 0.25785 0.53882
# Poissons Ratio (z) = 0.21889 0.48560
#
# Static dielectric constant tensor:
#      x y z
#    x 3.523850 0.000000 0.000000 
#    y 0.000000 3.779300 0.000000 
#    z 0.000000 0.000000 3.312750 
# 
# 
# High freq. dielectric constant tensor:
#      x y z
#    x 1.747660 0.000000 0.000000 
#    y 0.000000 1.754730 0.000000 
#    z 0.000000 0.000000 1.738150 
# 
# From -- ./inp_files/6596.got.cif
#   From: 2010.03.12/outbox.cif.g09.slc.cpg/sg53_4_cif.got.tgz:6596.got - 2010.04.16 14:36:59.
