data_PCOD8220769
_publ_section_title
;
Structure prediction by ZEFSAII (Michael W. Deem and Ramdas Pophale) SiO2 
 PCOD8220769
Probable space group: P M N A
;
_chemical_formula_sum "Si O2"
_cell_formula_units_Z 64
_cell_length_a 8.815844
_cell_length_b 15.004406
_cell_length_c 23.844518
_cell_angle_alpha 90.000000
_cell_angle_beta 90.000000
_cell_angle_gamma 90.000000
_cell_volume 3154.069447
_symmetry_space_group_name_H-M "P M N A"
_symmetry_group_IT_number 53
_symmetry_cell_setting 'orthorhombic'
loop_
_space_group_symop_operation_xyz
x,y,z
1/2-x,-y,1/2+z
x,-y,-z
1/2-x,y,1/2-z
-x,-y,-z
1/2+x,y,1/2-z
-x,y,z
1/2+x,-y,1/2+z
loop_
_atom_site_type_symbol
_atom_site_label
_atom_site_fract_x
_atom_site_fract_y
_atom_site_fract_z
Si Si1 0.821174 0.696960 0.307978
Si Si2 0.322549 0.102680 0.997384
Si Si3 0.673540 0.640303 0.589079
Si Si4 0.832091 0.600388 0.480395
Si Si5 0.322339 0.549788 0.371508
Si Si6 0.825554 0.834742 0.891152
Si Si7 0.822483 0.011891 0.189646
Si Si8 0.679255 0.156216 0.616208
O O1 0.750000 0.730995 0.250000
O O2 0.767031 0.595452 0.320168
O O3 0.763059 0.759700 0.357457
O O4 0.000000 0.701042 0.303152
O O5 0.500000 0.114456 0.985632
O O6 0.229580 0.150476 0.948178
O O7 0.280041 0.147096 0.056000
O O8 0.274240 0.000000 0.000000
O O9 0.500000 0.621868 0.571884
O O10 0.765166 0.657342 0.531645
O O11 0.731107 0.553768 0.623744
O O12 0.690869 0.730230 0.625888
O O13 0.845010 0.500000 0.500000
O O14 0.720740 0.605040 0.427421
O O15 0.000000 0.637106 0.464505
O O16 0.500000 0.558336 0.360185
O O17 0.772165 0.894590 0.838638
O O18 0.000000 0.857798 0.906695
O O19 0.750000 0.001481 0.250000
O O20 0.000000 0.007939 0.198822
O O21 0.768061 0.932514 0.149085
O O22 0.500000 0.170553 0.619731
#
# Coordination Sequence:
#
# PCOD8220769 Si02
#       8
#     8   8   8   8   8   8   8   8
#     4  12  26  44  64  89 120 157 203 257 311 370
#     4  11  23  38  59  91 128 165 203 252 306 361
#     4   9  19  35  58  84 116 156 199 244 294 355
#     4   9  17  30  50  78 112 148 188 237 290 347
#     4  10  20  37  59  84 114 153 198 245 299 356
#     4  10  21  39  60  87 123 164 205 248 299 364
#     4  10  22  39  62  87 115 154 199 244 296 352
#     4  11  23  41  65  91 120 161 202 248 306 369
#
# _framework density 20.291246999999998
#
# number of rings (size 3 to 8) (size 9 to 14) (size 15 to 20)
#    0.000    1.750    1.250    3.000    1.750    5.500 
#    0.000    0.625    0.000    1.500    0.000    0.000 
#    0.000    0.000    0.000    0.000    0.000    0.000 
#
# Total GULP energy -793716.439550 kJ/mol
# GULP energy per Si atom -12401.819368 kJ/mol
# Density = 2.024506 g / cm^3
# Si number density = 20.291247 Si / 1000 Ang^3
#
#
#
# Elastic Constant Matrix: (Units=GPa)
#
#
# Indices 1 2 3 4 5 6 
#
# 1 90.6749 31.6444 28.8213 0.0000 0.0000 0.0000
# 2 31.6444 92.4324 17.8463 0.0000 0.0000 0.0000
# 3 28.8213 17.8463 75.6477 0.0000 0.0000 0.0000
# 4 0.0000 0.0000 0.0000 24.4410 0.0000 0.0000
# 5 0.0000 0.0000 0.0000 0.0000 35.5771 0.0000
# 6 0.0000 0.0000 0.0000 0.0000 0.0000 20.3121
#
#
#
# Elastic Compliance Matrix: (Units=1/GPa)
#
#
# Indices 1 2 3 4 5 6 
#
# 1 0.013756 -0.003874 -0.004327 0.000000 0.000000 0.000000
# 2 -0.003874 0.012426 -0.001456 0.000000 0.000000 0.000000
# 3 -0.004327 -0.001456 0.015211 0.000000 0.000000 0.000000
# 4 0.000000 0.000000 0.000000 0.040915 0.000000 0.000000
# 5 0.000000 0.000000 0.000000 0.000000 0.028108 0.000000
# 6 0.000000 0.000000 0.000000 0.000000 0.000000 0.049232
#
#
# Mechanical properties :
#
#
# Convention : Reuss Voigt Hill
#
# Bulk Modulus (GPa) = 45.28970 46.15322 45.72146
# Shear Modulus (GPa) = 26.83556 28.09557 27.46557
#
# Velocity S-wave (km/s) = 3.64059 3.72508 3.68308
# Velocity P-wave (km/s) = 6.32773 6.42623 6.37717
#
# Compressibility (1/GPa) = 0.02208007
#
# Stress axis : x y z
#
# Youngs Moduli (GPa) = 72.69731 80.47664 65.74155
#
# Poissons Ratio (x) = 0.31175 0.28446
# Poissons Ratio (y) = 0.28162 0.09569
# Poissons Ratio (z) = 0.31456 0.11714
#
# Static dielectric constant tensor:
#      x y z
#    x 3.693120 0.000000 0.000000 
#    y 0.000000 3.904440 0.000000 
#    z 0.000000 0.000000 3.613680 
# 
# 
# High freq. dielectric constant tensor:
#      x y z
#    x 1.793470 0.000000 0.000000 
#    y 0.000000 1.803400 0.000000 
#    z 0.000000 0.000000 1.773840 
# 
# From -- ./inp_files/34193.got.cif
#   From: 2010.03.12/outbox.cif.g09.slc.cpg/sg53_18_cif.got.tgz:34193.got - 2010.04.16 14:36:59.
