data_PCOD8220091
_publ_section_title
;
Structure prediction by ZEFSAII (Michael W. Deem and Ramdas Pophale) SiO2 
 PCOD8220091
Probable space group: P M N A
;
_chemical_formula_sum "Si O2"
_cell_formula_units_Z 56
_cell_length_a 8.962049
_cell_length_b 21.933018
_cell_length_c 14.554399
_cell_angle_alpha 90.000000
_cell_angle_beta 90.000000
_cell_angle_gamma 90.000000
_cell_volume 2860.882267
_symmetry_space_group_name_H-M "P M N A"
_symmetry_group_IT_number 53
_symmetry_cell_setting 'orthorhombic'
loop_
_space_group_symop_operation_xyz
x,y,z
1/2-x,-y,1/2+z
x,-y,-z
1/2-x,y,1/2-z
-x,-y,-z
1/2+x,y,1/2-z
-x,y,z
1/2+x,-y,1/2+z
loop_
_atom_site_type_symbol
_atom_site_label
_atom_site_fract_x
_atom_site_fract_y
_atom_site_fract_z
Si Si1 0.175463 0.756584 0.151232
Si Si2 0.172754 0.035497 0.656672
Si Si3 0.176968 0.643194 0.035508
Si Si4 0.324308 0.872588 0.471572
Si Si5 0.824102 0.604691 0.842511
Si Si6 0.175643 0.533855 0.157919
Si Si7 0.172951 0.108131 0.343716
O O1 0.250000 0.759930 0.250000
O O2 0.242541 0.699541 0.093668
O O3 0.215360 0.816907 0.094897
O O4 0.000000 0.749449 0.165786
O O5 0.250000 0.058852 0.750000
O O6 0.250944 0.066700 0.569945
O O7 0.000000 0.054308 0.660137
O O8 0.194474 0.963882 0.644651
O O9 0.229579 0.578437 0.076839
O O10 0.000000 0.647316 0.037292
O O11 0.230551 0.645189 0.929193
O O12 0.500000 0.882464 0.482746
O O13 0.253793 0.858964 0.571186
O O14 0.750000 0.630735 0.750000
O O15 0.772468 0.535151 0.862080
O O16 0.000000 0.608098 0.829569
O O17 0.250000 0.559143 0.250000
O O18 0.000000 0.537177 0.170571
O O19 0.250000 0.130941 0.250000
O O20 0.000000 0.126574 0.341425
#
# Coordination Sequence:
#
# PCOD8220091 Si02
#       7
#     8   8   8   8   8   8   8
#     4  10  22  38  55  76 102 134 171 211 253 299
#     4  10  20  34  54  81 110 139 172 212 261 313
#     4   9  17  32  52  71  97 134 171 206 248 300
#     4  11  22  35  53  77 106 141 178 214 256 306
#     4   9  17  30  49  73 100 129 164 206 251 301
#     4   9  16  27  47  74 100 129 164 203 251 303
#     4  10  21  37  57  81 108 137 171 213 260 310
#
# _framework density 19.574380999999999
#
# number of rings (size 3 to 8) (size 9 to 14) (size 15 to 20)
#    0.000    2.286    0.000    3.000    0.000    7.429 
#    0.000    2.143    0.000    5.143    0.000    0.000 
#    0.000    0.000    0.000    0.000    0.000    0.000 
#
# Total GULP energy -694425.765055 kJ/mol
# GULP energy per Si atom -12400.460090 kJ/mol
# Density = 1.952983 g / cm^3
# Si number density = 19.574381 Si / 1000 Ang^3
#
#
#
# Elastic Constant Matrix: (Units=GPa)
#
#
# Indices 1 2 3 4 5 6 
#
# 1 71.4691 31.8667 59.9616 0.0000 0.0000 0.0000
# 2 31.8667 52.1083 50.4892 0.0000 0.0000 0.0000
# 3 59.9616 50.4892 189.6027 0.0000 0.0000 0.0000
# 4 0.0000 0.0000 0.0000 27.7104 0.0000 0.0000
# 5 0.0000 0.0000 0.0000 0.0000 38.3717 0.0000
# 6 0.0000 0.0000 0.0000 0.0000 0.0000 17.0320
#
#
#
# Elastic Compliance Matrix: (Units=1/GPa)
#
#
# Indices 1 2 3 4 5 6 
#
# 1 0.021754 -0.008946 -0.004498 0.000000 0.000000 0.000000
# 2 -0.008946 0.029543 -0.005038 0.000000 0.000000 0.000000
# 3 -0.004498 -0.005038 0.008038 0.000000 0.000000 0.000000
# 4 0.000000 0.000000 0.000000 0.036087 0.000000 0.000000
# 5 0.000000 0.000000 0.000000 0.000000 0.026061 0.000000
# 6 0.000000 0.000000 0.000000 0.000000 0.000000 0.058713
#
#
# Mechanical properties :
#
#
# Convention : Reuss Voigt Hill
#
# Bulk Modulus (GPa) = 44.69750 66.42389 55.56069
# Shear Modulus (GPa) = 22.26012 28.01367 25.13689
#
# Velocity S-wave (km/s) = 3.37591 3.78714 3.58742
# Velocity P-wave (km/s) = 6.17089 7.28910 6.75318
#
# Compressibility (1/GPa) = 0.02237262
#
# Stress axis : x y z
#
# Youngs Moduli (GPa) = 45.96797 33.84897 124.40830
#
# Poissons Ratio (x) = 0.30281 0.55953
# Poissons Ratio (y) = 0.41123 0.62675
# Poissons Ratio (z) = 0.20674 0.17053
#
# Static dielectric constant tensor:
#      x y z
#    x 3.409390 0.000000 0.000000 
#    y 0.000000 3.475650 0.000000 
#    z 0.000000 0.000000 3.678280 
# 
# 
# High freq. dielectric constant tensor:
#      x y z
#    x 1.745280 0.000000 0.000000 
#    y 0.000000 1.741740 0.000000 
#    z 0.000000 0.000000 1.780030 
# 
# From -- ./inp_files/20620.got.cif
#   From: 2010.03.12/outbox.cif.g09.slc.cpg/sg53_11_cif.got.tgz:20620.got - 2010.04.16 14:36:59.
