data_PCOD8220852
_publ_section_title
;
Structure prediction by ZEFSAII (Michael W. Deem and Ramdas Pophale) SiO2 
 PCOD8220852
Probable space group: P M N A
;
_chemical_formula_sum "Si O2"
_cell_formula_units_Z 64
_cell_length_a 8.730967
_cell_length_b 11.818962
_cell_length_c 30.836406
_cell_angle_alpha 90.000000
_cell_angle_beta 90.000000
_cell_angle_gamma 90.000000
_cell_volume 3182.038560
_symmetry_space_group_name_H-M "P M N A"
_symmetry_group_IT_number 53
_symmetry_cell_setting 'orthorhombic'
loop_
_space_group_symop_operation_xyz
x,y,z
1/2-x,-y,1/2+z
x,-y,-z
1/2-x,y,1/2-z
-x,-y,-z
1/2+x,y,1/2-z
-x,y,z
1/2+x,-y,1/2+z
loop_
_atom_site_type_symbol
_atom_site_label
_atom_site_fract_x
_atom_site_fract_y
_atom_site_fract_z
Si Si1 0.820517 0.620068 0.628817
Si Si2 0.178928 0.621618 0.124617
Si Si3 0.820419 0.223618 0.793425
Si Si4 0.820093 0.228256 0.956257
Si Si5 0.319832 0.758469 0.955040
Si Si6 0.818616 0.003497 0.325302
Si Si7 0.180705 0.996637 0.423956
Si Si8 0.319097 0.763192 0.704894
O O1 0.782322 0.488718 0.626667
O O2 0.768512 0.676467 0.583707
O O3 0.728209 0.676523 0.667625
O O4 0.000000 0.639763 0.636825
O O5 0.216072 0.693959 0.167045
O O6 0.234742 0.692557 0.083062
O O7 0.000000 0.589600 0.121736
O O8 0.750000 0.280011 0.750000
O O9 0.734154 0.105260 0.799000
O O10 0.000000 0.201585 0.788651
O O11 0.000000 0.217645 0.956035
O O12 0.752049 0.103227 0.951958
O O13 0.763032 0.282966 0.001203
O O14 0.500000 0.753058 0.962614
O O15 0.264733 0.885002 0.943967
O O16 0.000000 0.018654 0.322854
O O17 0.761050 0.990388 0.374612
O O18 0.742119 0.112117 0.304257
O O19 0.000000 0.984590 0.426207
O O20 0.250000 0.718164 0.750000
O O21 0.500000 0.766503 0.708567
#
# Coordination Sequence:
#
# PCOD8220852 Si02
#       8
#     8   8   8   8   8   8   8   8
#     4  11  24  44  67  91 121 160 211 260 308 366
#     4  10  24  44  62  86 124 164 207 259 312 366
#     4  11  23  41  63  91 126 162 205 253 308 368
#     4  11  23  39  61  92 126 161 206 253 304 367
#     4  10  22  41  62  90 125 161 202 251 309 370
#     4  11  21  38  64  94 127 163 205 249 306 369
#     4  10  20  37  62  89 125 163 199 248 309 371
#     4  12  25  42  66  94 128 165 204 251 308 367
#
# _framework density 20.112891999999999
#
# number of rings (size 3 to 8) (size 9 to 14) (size 15 to 20)
#    0.000    1.250    2.500    3.375    0.000    6.500 
#    0.000    3.750    0.000    0.000    0.000    0.000 
#    0.000    0.000    0.000    0.000    0.000    0.000 
#
# Total GULP energy -794013.279239 kJ/mol
# GULP energy per Si atom -12406.457488 kJ/mol
# Density = 2.006711 g / cm^3
# Si number density = 20.112892 Si / 1000 Ang^3
#
#
#
# Elastic Constant Matrix: (Units=GPa)
#
#
# Indices 1 2 3 4 5 6 
#
# 1 73.9042 36.5723 44.1573 0.0000 0.0000 0.0000
# 2 36.5723 113.7871 51.5758 0.0000 0.0000 0.0000
# 3 44.1573 51.5758 160.1114 0.0000 0.0000 0.0000
# 4 0.0000 0.0000 0.0000 7.5108 0.0000 0.0000
# 5 0.0000 0.0000 0.0000 0.0000 36.3780 0.0000
# 6 0.0000 0.0000 0.0000 0.0000 0.0000 31.7164
#
#
#
# Elastic Compliance Matrix: (Units=1/GPa)
#
#
# Indices 1 2 3 4 5 6 
#
# 1 0.017672 -0.004064 -0.003565 0.000000 0.000000 0.000000
# 2 -0.004064 0.011226 -0.002495 0.000000 0.000000 0.000000
# 3 -0.003565 -0.002495 0.008032 0.000000 0.000000 0.000000
# 4 0.000000 0.000000 0.000000 0.133142 0.000000 0.000000
# 5 0.000000 0.000000 0.000000 0.000000 0.027489 0.000000
# 6 0.000000 0.000000 0.000000 0.000000 0.000000 0.031529
#
#
# Mechanical properties :
#
#
# Convention : Reuss Voigt Hill
#
# Bulk Modulus (GPa) = 59.94437 68.04595 63.99516
# Shear Modulus (GPa) = 19.61556 29.48752 24.55154
#
# Velocity S-wave (km/s) = 3.12632 3.83312 3.49762
# Velocity P-wave (km/s) = 6.54985 7.31409 6.94249
#
# Compressibility (1/GPa) = 0.01668213
#
# Stress axis : x y z
#
# Youngs Moduli (GPa) = 56.58630 89.08205 124.49437
#
# Poissons Ratio (x) = 0.36205 0.44377
# Poissons Ratio (y) = 0.22998 0.31063
# Poissons Ratio (z) = 0.20171 0.22227
#
# Static dielectric constant tensor:
#      x y z
#    x 3.580090 0.000000 0.000000 
#    y 0.000000 3.623690 0.000000 
#    z 0.000000 0.000000 4.035320 
# 
# 
# High freq. dielectric constant tensor:
#      x y z
#    x 1.786160 0.000000 0.000000 
#    y 0.000000 1.780430 0.000000 
#    z 0.000000 0.000000 1.807290 
# 
# From -- ./inp_files/38273.got.cif
#   From: 2010.03.12/outbox.cif.g09.slc.cpg/sg53_20_cif.got.tgz:38273.got - 2010.04.16 14:36:59.
