data_PCOD8220851
_publ_section_title
;
Structure prediction by ZEFSAII (Michael W. Deem and Ramdas Pophale) SiO2 
 PCOD8220851
Probable space group: P M N A
;
_chemical_formula_sum "Si O2"
_cell_formula_units_Z 64
_cell_length_a 8.975832
_cell_length_b 14.340685
_cell_length_c 24.038132
_cell_angle_alpha 90.000000
_cell_angle_beta 90.000000
_cell_angle_gamma 90.000000
_cell_volume 3094.178239
_symmetry_space_group_name_H-M "P M N A"
_symmetry_group_IT_number 53
_symmetry_cell_setting 'orthorhombic'
loop_
_space_group_symop_operation_xyz
x,y,z
1/2-x,-y,1/2+z
x,-y,-z
1/2-x,y,1/2-z
-x,-y,-z
1/2+x,y,1/2-z
-x,y,z
1/2+x,-y,1/2+z
loop_
_atom_site_type_symbol
_atom_site_label
_atom_site_fract_x
_atom_site_fract_y
_atom_site_fract_z
Si Si1 0.175034 0.981683 0.807079
Si Si2 0.832282 0.108230 0.606933
Si Si3 0.170076 0.824367 0.632092
Si Si4 0.174484 0.466405 0.807384
Si Si5 0.831601 0.839915 0.509845
Si Si6 0.827975 0.631935 0.889439
Si Si7 0.829777 0.671718 0.381117
Si Si8 0.169952 0.655898 0.010989
O O1 0.250000 0.015839 0.750000
O O2 0.232558 0.878612 0.822562
O O3 0.000000 0.979377 0.798722
O O4 0.215087 0.052960 0.856192
O O5 0.808240 0.085920 0.540619
O O6 0.804931 0.217902 0.616071
O O7 0.000000 0.079751 0.625001
O O8 0.181859 0.880205 0.572631
O O9 0.225082 0.718868 0.626729
O O10 0.000000 0.822905 0.652796
O O11 0.250000 0.494736 0.750000
O O12 0.217749 0.546080 0.851198
O O13 0.237449 0.367884 0.829100
O O14 0.000000 0.456602 0.798317
O O15 0.704869 0.762538 0.504382
O O16 0.000000 0.797025 0.502267
O O17 0.000000 0.661241 0.880990
O O18 0.802231 0.598852 0.953669
O O19 0.773073 0.622808 0.438177
O O20 0.000000 0.644215 0.372310
O O21 0.000000 0.646651 0.031080
#
# Coordination Sequence:
#
# PCOD8220851 Si02
#       8
#     8   8   8   8   8   8   8   8
#     4  12  26  42  59  81 111 148 194 241 283 335
#     4   9  19  38  61  85 115 149 185 228 279 335
#     4  10  20  37  62  89 118 152 188 230 281 336
#     4  11  24  41  59  81 112 150 195 241 283 334
#     4   8  16  32  56  86 118 150 183 222 276 341
#     4   9  20  38  59  85 118 154 190 233 285 338
#     4  10  21  38  60  86 117 151 187 231 284 342
#     4   9  16  30  55  85 116 148 185 230 281 337
#
# _framework density 20.684007000000001
#
# number of rings (size 3 to 8) (size 9 to 14) (size 15 to 20)
#    0.000    2.250    0.000    3.375    0.000    6.500 
#    0.000    6.250    0.000    0.000    0.000    0.000 
#    0.000    0.000    0.000    0.000    0.000    0.000 
#
# Total GULP energy -793451.618184 kJ/mol
# GULP energy per Si atom -12397.681534 kJ/mol
# Density = 2.063693 g / cm^3
# Si number density = 20.684007 Si / 1000 Ang^3
#
#
#
# Elastic Constant Matrix: (Units=GPa)
#
#
# Indices 1 2 3 4 5 6 
#
# 1 119.3684 29.2476 43.6558 0.0000 0.0000 0.0000
# 2 29.2476 29.2439 14.4460 0.0000 0.0000 0.0000
# 3 43.6558 14.4460 94.2220 0.0000 0.0000 0.0000
# 4 0.0000 0.0000 0.0000 30.5516 0.0000 0.0000
# 5 0.0000 0.0000 0.0000 0.0000 35.1432 0.0000
# 6 0.0000 0.0000 0.0000 0.0000 0.0000 24.3686
#
#
#
# Elastic Compliance Matrix: (Units=1/GPa)
#
#
# Indices 1 2 3 4 5 6 
#
# 1 0.012450 -0.010389 -0.004176 0.000000 0.000000 0.000000
# 2 -0.010389 0.045666 -0.002188 0.000000 0.000000 0.000000
# 3 -0.004176 -0.002188 0.012883 0.000000 0.000000 0.000000
# 4 0.000000 0.000000 0.000000 0.032731 0.000000 0.000000
# 5 0.000000 0.000000 0.000000 0.000000 0.028455 0.000000
# 6 0.000000 0.000000 0.000000 0.000000 0.000000 0.041036
#
#
# Mechanical properties :
#
#
# Convention : Reuss Voigt Hill
#
# Bulk Modulus (GPa) = 26.67060 46.39258 36.53159
# Shear Modulus (GPa) = 22.80754 28.37834 25.59294
#
# Velocity S-wave (km/s) = 3.32424 3.70806 3.52139
# Velocity P-wave (km/s) = 5.25894 6.38834 5.85095
#
# Compressibility (1/GPa) = 0.03749446
#
# Stress axis : x y z
#
# Youngs Moduli (GPa) = 80.32108 21.89808 77.61923
#
# Poissons Ratio (x) = 0.22750 0.32411
# Poissons Ratio (y) = 0.83445 0.16983
# Poissons Ratio (z) = 0.33539 0.04791
#
# Static dielectric constant tensor:
#      x y z
#    x 3.719110 0.000000 0.000000 
#    y 0.000000 3.404430 0.000000 
#    z 0.000000 0.000000 3.986630 
# 
# 
# High freq. dielectric constant tensor:
#      x y z
#    x 1.811510 0.000000 0.000000 
#    y 0.000000 1.786330 0.000000 
#    z 0.000000 0.000000 1.818290 
# 
# From -- ./inp_files/34199.got.cif
#   From: 2010.03.12/outbox.cif.g09.slc.cpg/sg53_18_cif.got.tgz:34199.got - 2010.04.16 14:36:59.
