data_PCOD8220644
_publ_section_title
;
Structure prediction by ZEFSAII (Michael W. Deem and Ramdas Pophale) SiO2 
 PCOD8220644
Probable space group: P M N A
;
_chemical_formula_sum "Si O2"
_cell_formula_units_Z 64
_cell_length_a 8.811697
_cell_length_b 20.195395
_cell_length_c 18.436654
_cell_angle_alpha 90.000000
_cell_angle_beta 90.000000
_cell_angle_gamma 90.000000
_cell_volume 3280.907697
_symmetry_space_group_name_H-M "P M N A"
_symmetry_group_IT_number 53
_symmetry_cell_setting 'orthorhombic'
loop_
_space_group_symop_operation_xyz
x,y,z
1/2-x,-y,1/2+z
x,-y,-z
1/2-x,y,1/2-z
-x,-y,-z
1/2+x,y,1/2-z
-x,y,z
1/2+x,-y,1/2+z
loop_
_atom_site_type_symbol
_atom_site_label
_atom_site_fract_x
_atom_site_fract_y
_atom_site_fract_z
Si Si1 0.820787 0.623439 0.173414
Si Si2 0.821615 0.372791 0.171247
Si Si3 0.177505 0.736142 0.417012
Si Si4 0.821510 0.251528 0.069303
Si Si5 0.176737 0.112136 0.427683
Si Si6 0.327264 0.112642 0.904593
Si Si7 0.677770 0.003579 0.326936
Si Si8 0.320880 0.496715 0.419221
O O1 0.750000 0.604610 0.250000
O O2 0.745252 0.690406 0.145207
O O3 0.776453 0.564543 0.119653
O O4 0.000000 0.633270 0.180342
O O5 0.750000 0.371088 0.250000
O O6 0.780488 0.305344 0.129882
O O7 0.753682 0.434513 0.125445
O O8 0.000000 0.381339 0.180601
O O9 0.261995 0.721820 0.492383
O O10 0.206689 0.810625 0.389891
O O11 0.000000 0.722981 0.428980
O O12 0.740341 0.184034 0.093096
O O13 0.000000 0.239273 0.062908
O O14 0.205084 0.096308 0.511729
O O15 0.000000 0.110806 0.408151
O O16 0.263437 0.056468 0.384090
O O17 0.500000 0.094406 0.884804
O O18 0.218435 0.070102 0.853491
O O19 0.750000 0.019436 0.250000
O O20 0.500000 0.010177 0.319271
O O21 0.250053 0.500000 0.500000
O O22 0.500000 0.487345 0.424872
#
# Coordination Sequence:
#
# PCOD8220644 Si02
#       8
#     8   8   8   8   8   8   8   8
#     4  11  22  36  57  83 115 152 189 233 283 339
#     4  10  21  36  56  82 114 151 187 229 281 336
#     4  10  21  38  60  85 114 148 188 234 284 337
#     4  10  20  36  59  86 114 148 192 235 280 335
#     4  10  21  39  62  86 116 151 187 232 283 336
#     4   9  20  39  61  84 112 147 184 228 282 337
#     4  12  25  39  58  84 115 150 189 235 284 337
#     4   9  18  35  58  82 109 145 189 235 284 336
#
# _framework density 19.506796999999999
#
# number of rings (size 3 to 8) (size 9 to 14) (size 15 to 20)
#    0.000    1.875    0.000    4.875    0.000    8.500 
#    0.000    1.875    0.000    2.625    0.000    0.000 
#    0.000    0.000    0.000    0.000    0.000    0.000 
#
# Total GULP energy -793880.674732 kJ/mol
# GULP energy per Si atom -12404.385543 kJ/mol
# Density = 1.946240 g / cm^3
# Si number density = 19.506797 Si / 1000 Ang^3
#
#
#
# Elastic Constant Matrix: (Units=GPa)
#
#
# Indices 1 2 3 4 5 6 
#
# 1 87.5906 38.8002 29.2694 0.0000 0.0000 0.0000
# 2 38.8002 87.3980 38.7372 0.0000 0.0000 0.0000
# 3 29.2694 38.7372 88.7445 0.0000 0.0000 0.0000
# 4 0.0000 0.0000 0.0000 75.4739 0.0000 0.0000
# 5 0.0000 0.0000 0.0000 0.0000 35.2758 0.0000
# 6 0.0000 0.0000 0.0000 0.0000 0.0000 25.3365
#
#
#
# Elastic Compliance Matrix: (Units=1/GPa)
#
#
# Indices 1 2 3 4 5 6 
#
# 1 0.014635 -0.005403 -0.002468 0.000000 0.000000 0.000000
# 2 -0.005403 0.016181 -0.005281 0.000000 0.000000 0.000000
# 3 -0.002468 -0.005281 0.014388 0.000000 0.000000 0.000000
# 4 0.000000 0.000000 0.000000 0.013250 0.000000 0.000000
# 5 0.000000 0.000000 0.000000 0.000000 0.028348 0.000000
# 6 0.000000 0.000000 0.000000 0.000000 0.000000 0.039469
#
#
# Mechanical properties :
#
#
# Convention : Reuss Voigt Hill
#
# Bulk Modulus (GPa) = 52.91377 53.03854 52.97616
# Shear Modulus (GPa) = 31.47121 37.67899 34.57510
#
# Velocity S-wave (km/s) = 4.02101 4.39975 4.21463
# Velocity P-wave (km/s) = 6.98160 7.28417 7.13449
#
# Compressibility (1/GPa) = 0.01889867
#
# Stress axis : x y z
#
# Youngs Moduli (GPa) = 68.32914 61.79945 69.50405
#
# Poissons Ratio (x) = 0.33391 0.17156
# Poissons Ratio (y) = 0.36919 0.36706
# Poissons Ratio (z) = 0.16866 0.32637
#
# Static dielectric constant tensor:
#      x y z
#    x 3.511920 0.000000 0.000000 
#    y 0.000000 3.672670 0.000000 
#    z 0.000000 0.000000 2.663580 
# 
# 
# High freq. dielectric constant tensor:
#      x y z
#    x 1.755160 0.000000 0.000000 
#    y 0.000000 1.773960 0.000000 
#    z 0.000000 0.000000 1.763770 
# 
# From -- ./inp_files/26974.got.cif
#   From: 2010.03.12/outbox.cif.g09.slc.cpg/sg53_14_cif.got.tgz:26974.got - 2010.04.16 14:36:59.
