data_PCOD8220222
_publ_section_title
;
Structure prediction by ZEFSAII (Michael W. Deem and Ramdas Pophale) SiO2 
 PCOD8220222
Probable space group: P M N A
;
_chemical_formula_sum "Si O2"
_cell_formula_units_Z 40
_cell_length_a 25.717523
_cell_length_b 10.418773
_cell_length_c 7.453605
_cell_angle_alpha 90.000000
_cell_angle_beta 90.000000
_cell_angle_gamma 90.000000
_cell_volume 1997.156447
_symmetry_space_group_name_H-M "P M N A"
_symmetry_group_IT_number 53
_symmetry_cell_setting 'orthorhombic'
loop_
_space_group_symop_operation_xyz
x,y,z
1/2-x,-y,1/2+z
x,-y,-z
1/2-x,y,1/2-z
-x,-y,-z
1/2+x,y,1/2-z
-x,y,z
1/2+x,-y,1/2+z
loop_
_atom_site_type_symbol
_atom_site_label
_atom_site_fract_x
_atom_site_fract_y
_atom_site_fract_z
Si Si1 0.693944 0.784839 0.303382
Si Si2 0.382227 0.860348 0.017317
Si Si3 0.689132 0.247333 0.277457
Si Si4 0.942624 0.382028 0.633015
Si Si5 0.657095 0.477335 0.701942
O O1 0.750000 0.842831 0.250000
O O2 0.650845 0.867031 0.200976
O O3 0.678582 0.784208 0.513593
O O4 0.692674 0.638729 0.223449
O O5 0.424709 0.747012 0.028691
O O6 0.343742 0.847780 0.846458
O O7 0.409864 0.000000 0.000000
O O8 0.750000 0.229698 0.250000
O O9 0.670338 0.387966 0.203529
O O10 0.945352 0.500000 0.500000
O O11 0.902524 0.427855 0.785637
O O12 0.000000 0.356748 0.716228
O O13 0.672649 0.500000 0.500000
#
# Coordination Sequence:
#
# PCOD8220222 Si02
#       5
#     8   8   8   8   8
#     4  10  20  35  53  85 114 154 198 229 276 347
#     4  11  24  39  57  83 118 156 193 237 287 342
#     4  11  20  35  56  83 119 159 187 234 281 337
#     4  10  20  38  64  86 110 146 194 246 293 345
#     4   9  19  33  56  87 116 144 188 238 293 339
#
# _framework density 20.028476999999999
#
# number of rings (size 3 to 8) (size 9 to 14) (size 15 to 20)
#    0.000    1.800    4.000    0.600    0.000    2.400 
#    0.000    0.000    0.000    0.000    0.000    5.600 
#    0.000    0.000    0.000    0.000    0.000    0.000 
#
# Total GULP energy -495602.609317 kJ/mol
# GULP energy per Si atom -12390.065233 kJ/mol
# Density = 1.998289 g / cm^3
# Si number density = 20.028477 Si / 1000 Ang^3
#
#
#
# Elastic Constant Matrix: (Units=GPa)
#
#
# Indices 1 2 3 4 5 6 
#
# 1 86.7654 15.5158 2.0085 0.0000 0.0000 0.0000
# 2 15.5158 112.3325 13.0906 0.0000 0.0000 0.0000
# 3 2.0085 13.0906 73.5912 0.0000 0.0000 0.0000
# 4 0.0000 0.0000 0.0000 15.6789 0.0000 0.0000
# 5 0.0000 0.0000 0.0000 0.0000 7.7447 0.0000
# 6 0.0000 0.0000 0.0000 0.0000 0.0000 -156.0745
#
#
#
# Elastic Compliance Matrix: (Units=1/GPa)
#
#
# Indices 1 2 3 4 5 6 
#
# 1 0.011817 -0.001628 -0.000033 0.000000 0.000000 0.000000
# 2 -0.001628 0.009315 -0.001613 0.000000 0.000000 0.000000
# 3 -0.000033 -0.001613 0.013876 0.000000 0.000000 0.000000
# 4 0.000000 0.000000 0.000000 0.063780 0.000000 0.000000
# 5 0.000000 0.000000 0.000000 0.000000 0.129121 0.000000
# 6 0.000000 0.000000 0.000000 0.000000 0.000000 -0.006407
#
#
# Mechanical properties :
#
#
# Convention : Reuss Voigt Hill
#
# Bulk Modulus (GPa) = 35.13582 37.10209 36.11895
# Shear Modulus (GPa) = 21.04937 -10.39190 5.32873
#
# Velocity S-wave (km/s) = 3.24539 -2.28031 1.63290
# Velocity P-wave (km/s) = 5.62356 3.41054 4.65060
#
# Compressibility (1/GPa) = 0.02846099
#
# Stress axis : x y z
#
# Youngs Moduli (GPa) = 84.62174 107.35394 72.06518
#
# Poissons Ratio (x) = 0.17482 0.00237
# Poissons Ratio (y) = 0.13780 0.11621
# Poissons Ratio (z) = 0.00278 0.17311
#
# Static dielectric constant tensor:
#      x y z
#    x 3.802420 0.000000 0.000000 
#    y 0.000000 3.863450 0.000000 
#    z 0.000000 0.000000 3.577070 
# 
# 
# High freq. dielectric constant tensor:
#      x y z
#    x 1.761250 0.000000 0.000000 
#    y 0.000000 1.785300 0.000000 
#    z 0.000000 0.000000 1.771940 
# 
# From -- ./inp_files/12252.got.cif
#   From: 2010.03.12/outbox.cif.g09.slc.cpg/sg53_7_cif.got.tgz:12252.got - 2010.04.16 14:36:59.
