data_PCOD8220659
_publ_section_title
;
Structure prediction by ZEFSAII (Michael W. Deem and Ramdas Pophale) SiO2 
 PCOD8220659
Probable space group: P M N A
;
_chemical_formula_sum "Si O2"
_cell_formula_units_Z 48
_cell_length_a 8.720978
_cell_length_b 15.315502
_cell_length_c 17.691511
_cell_angle_alpha 90.000000
_cell_angle_beta 90.000000
_cell_angle_gamma 90.000000
_cell_volume 2362.987118
_symmetry_space_group_name_H-M "P M N A"
_symmetry_group_IT_number 53
_symmetry_cell_setting 'orthorhombic'
loop_
_space_group_symop_operation_xyz
x,y,z
1/2-x,-y,1/2+z
x,-y,-z
1/2-x,y,1/2-z
-x,-y,-z
1/2+x,y,1/2-z
-x,y,z
1/2+x,-y,1/2+z
loop_
_atom_site_type_symbol
_atom_site_label
_atom_site_fract_x
_atom_site_fract_y
_atom_site_fract_z
Si Si1 0.176624 0.176766 0.076206
Si Si2 0.818478 0.686225 0.167641
Si Si3 0.822200 0.994760 0.831873
Si Si4 0.820449 0.848754 0.417281
Si Si5 0.680444 0.655662 0.669342
Si Si6 0.682494 0.513501 0.415952
O O1 0.227874 0.268544 0.111401
O O2 0.000000 0.179022 0.048745
O O3 0.201261 0.103580 0.139743
O O4 0.284758 0.159173 0.005462
O O5 0.750000 0.675101 0.250000
O O6 0.765107 0.775540 0.130655
O O7 0.759319 0.605658 0.116565
O O8 0.000000 0.686329 0.173883
O O9 0.750000 0.005491 0.750000
O O10 0.736749 0.057239 0.890432
O O11 0.000000 0.020766 0.828082
O O12 0.000000 0.839585 0.403255
O O13 0.750000 0.676534 0.750000
O O14 0.500000 0.652496 0.679029
O O15 0.744920 0.564255 0.637204
O O16 0.749727 0.500000 0.500000
O O17 0.500000 0.510523 0.418669
#
# Coordination Sequence:
#
# PCOD8220659 Si02
#       6
#     8   8   8   8   8   8
#     4  10  22  40  62  87 117 154 192 233 285 344
#     4  11  22  38  60  85 117 154 194 239 287 342
#     4  11  23  40  62  88 119 154 193 236 285 342
#     4  12  25  40  60  86 116 151 194 243 292 342
#     4  10  20  36  59  87 118 152 191 234 283 341
#     4   9  18  34  58  85 114 152 194 235 283 340
#
# _framework density 20.313272999999999
#
# number of rings (size 3 to 8) (size 9 to 14) (size 15 to 20)
#    0.000    1.500    0.000    5.500    0.000    6.667 
#    0.000    0.833    0.000    3.500    0.000    0.000 
#    0.000    0.000    0.000    0.000    0.000    0.000 
#
# Total GULP energy -595470.873373 kJ/mol
# GULP energy per Si atom -12405.643195 kJ/mol
# Density = 2.026704 g / cm^3
# Si number density = 20.313273 Si / 1000 Ang^3
#
#
#
# Elastic Constant Matrix: (Units=GPa)
#
#
# Indices 1 2 3 4 5 6 
#
# 1 62.3786 29.0266 38.5102 0.0000 0.0000 0.0000
# 2 29.0266 86.3940 4.7732 0.0000 0.0000 0.0000
# 3 38.5102 4.7732 101.5380 0.0000 0.0000 0.0000
# 4 0.0000 0.0000 0.0000 6.9263 0.0000 0.0000
# 5 0.0000 0.0000 0.0000 0.0000 35.0860 0.0000
# 6 0.0000 0.0000 0.0000 0.0000 0.0000 16.6133
#
#
#
# Elastic Compliance Matrix: (Units=1/GPa)
#
#
# Indices 1 2 3 4 5 6 
#
# 1 0.025525 -0.008062 -0.009302 0.000000 0.000000 0.000000
# 2 -0.008062 0.014151 0.002392 0.000000 0.000000 0.000000
# 3 -0.009302 0.002392 0.013264 0.000000 0.000000 0.000000
# 4 0.000000 0.000000 0.000000 0.144378 0.000000 0.000000
# 5 0.000000 0.000000 0.000000 0.000000 0.028501 0.000000
# 6 0.000000 0.000000 0.000000 0.000000 0.000000 0.060193
#
#
# Mechanical properties :
#
#
# Convention : Reuss Voigt Hill
#
# Bulk Modulus (GPa) = 43.48288 43.88117 43.68202
# Shear Modulus (GPa) = 15.45014 23.59181 19.52098
#
# Velocity S-wave (km/s) = 2.76088 3.41163 3.10336
# Velocity P-wave (km/s) = 5.62280 6.09656 5.86447
#
# Compressibility (1/GPa) = 0.02299756
#
# Stress axis : x y z
#
# Youngs Moduli (GPa) = 39.17678 70.66450 75.39199
#
# Poissons Ratio (x) = 0.56970 0.70129
# Poissons Ratio (y) = 0.31585 -0.18037
# Poissons Ratio (z) = 0.36442 -0.16906
#
# Static dielectric constant tensor:
#      x y z
#    x 3.542380 0.000000 0.000000 
#    y 0.000000 4.064810 0.000000 
#    z 0.000000 0.000000 3.769070 
# 
# 
# High freq. dielectric constant tensor:
#      x y z
#    x 1.775850 0.000000 0.000000 
#    y 0.000000 1.813420 0.000000 
#    z 0.000000 0.000000 1.808690 
# 
# From -- ./inp_files/26228.got.cif
#   From: 2010.03.12/outbox.cif.g09.slc.cpg/sg53_14_cif.got.tgz:26228.got - 2010.04.16 14:36:59.
