data_PCOD8220497
_publ_section_title
;
Structure prediction by ZEFSAII (Michael W. Deem and Ramdas Pophale) SiO2 
 PCOD8220497
Probable space group: P M N A
;
_chemical_formula_sum "Si O2"
_cell_formula_units_Z 56
_cell_length_a 9.262729
_cell_length_b 22.249553
_cell_length_c 13.969504
_cell_angle_alpha 90.000000
_cell_angle_beta 90.000000
_cell_angle_gamma 90.000000
_cell_volume 2878.997149
_symmetry_space_group_name_H-M "P M N A"
_symmetry_group_IT_number 53
_symmetry_cell_setting 'orthorhombic'
loop_
_space_group_symop_operation_xyz
x,y,z
1/2-x,-y,1/2+z
x,-y,-z
1/2-x,y,1/2-z
-x,-y,-z
1/2+x,y,1/2-z
-x,y,z
1/2+x,-y,1/2+z
loop_
_atom_site_type_symbol
_atom_site_label
_atom_site_fract_x
_atom_site_fract_y
_atom_site_fract_z
Si Si1 0.668684 0.591349 0.044896
Si Si2 0.167271 0.530836 0.651877
Si Si3 0.163375 0.182274 0.958738
Si Si4 0.663125 0.026914 0.099220
Si Si5 0.664982 0.857714 0.661394
Si Si6 0.671426 0.696315 0.351744
Si Si7 0.839389 0.101633 0.663068
O O1 0.500000 0.608751 0.052918
O O2 0.703220 0.535818 0.114916
O O3 0.770794 0.644727 0.078791
O O4 0.708401 0.576365 0.934430
O O5 0.250000 0.546221 0.750000
O O6 0.000000 0.536864 0.676284
O O7 0.212960 0.242177 0.905190
O O8 0.266158 0.126219 0.933492
O O9 0.000000 0.165416 0.930448
O O10 0.177163 0.188886 0.073459
O O11 0.500000 0.052719 0.085785
O O12 0.768731 0.077167 0.138954
O O13 0.661356 0.970327 0.171070
O O14 0.722152 0.000000 0.000000
O O15 0.750000 0.828083 0.750000
O O16 0.500000 0.868923 0.691192
O O17 0.750000 0.693631 0.250000
O O18 0.500000 0.689079 0.337360
O O19 0.750000 0.130348 0.750000
O O20 0.000000 0.127720 0.668539
#
# Coordination Sequence:
#
# PCOD8220497 Si02
#       7
#     8   8   8   8   8   8   8
#     4   9  19  36  56  83 118 155 193 233 278 330
#     4   9  18  33  55  84 120 156 192 234 279 328
#     4  10  23  41  58  79 108 141 183 229 273 323
#     4  10  20  36  56  82 111 139 174 219 272 332
#     4  11  23  39  60  82 107 142 183 227 277 334
#     4  11  23  39  59  84 113 146 186 231 278 330
#     4  11  22  35  55  80 109 140 174 217 269 328
#
# _framework density 19.451218000000001
#
# number of rings (size 3 to 8) (size 9 to 14) (size 15 to 20)
#    0.000    1.857    1.429    3.429    0.000    7.714 
#    0.000    2.143    0.000    3.429    0.000    0.000 
#    0.000    0.000    0.000    0.000    0.000    0.000 
#
# Total GULP energy -694327.021801 kJ/mol
# GULP energy per Si atom -12398.696818 kJ/mol
# Density = 1.940695 g / cm^3
# Si number density = 19.451218 Si / 1000 Ang^3
#
#
#
# Elastic Constant Matrix: (Units=GPa)
#
#
# Indices 1 2 3 4 5 6 
#
# 1 110.3563 41.6297 61.5762 0.0000 0.0000 0.0000
# 2 41.6297 74.1341 35.2401 0.0000 0.0000 0.0000
# 3 61.5762 35.2401 131.8640 0.0000 0.0000 0.0000
# 4 0.0000 0.0000 0.0000 28.1592 0.0000 0.0000
# 5 0.0000 0.0000 0.0000 0.0000 38.3863 0.0000
# 6 0.0000 0.0000 0.0000 0.0000 0.0000 21.6503
#
#
#
# Elastic Compliance Matrix: (Units=1/GPa)
#
#
# Indices 1 2 3 4 5 6 
#
# 1 0.013926 -0.005417 -0.005055 0.000000 0.000000 0.000000
# 2 -0.005417 0.017559 -0.002163 0.000000 0.000000 0.000000
# 3 -0.005055 -0.002163 0.010522 0.000000 0.000000 0.000000
# 4 0.000000 0.000000 0.000000 0.035512 0.000000 0.000000
# 5 0.000000 0.000000 0.000000 0.000000 0.026051 0.000000
# 6 0.000000 0.000000 0.000000 0.000000 0.000000 0.046189
#
#
# Mechanical properties :
#
#
# Convention : Reuss Voigt Hill
#
# Bulk Modulus (GPa) = 59.74891 65.91628 62.83259
# Shear Modulus (GPa) = 27.68423 29.49973 28.59198
#
# Velocity S-wave (km/s) = 3.77671 3.89858 3.83813
# Velocity P-wave (km/s) = 7.05706 7.36389 7.21210
#
# Compressibility (1/GPa) = 0.01673671
#
# Stress axis : x y z
#
# Youngs Moduli (GPa) = 71.81002 56.95042 95.03669
#
# Poissons Ratio (x) = 0.30849 0.48043
# Poissons Ratio (y) = 0.38899 0.20557
# Poissons Ratio (z) = 0.36301 0.12319
#
# Static dielectric constant tensor:
#      x y z
#    x 3.564170 0.000000 0.000000 
#    y 0.000000 3.291590 0.000000 
#    z 0.000000 0.000000 3.732300 
# 
# 
# High freq. dielectric constant tensor:
#      x y z
#    x 1.762440 0.000000 0.000000 
#    y 0.000000 1.729720 0.000000 
#    z 0.000000 0.000000 1.771690 
# 
# From -- ./inp_files/20627.got.cif
#   From: 2010.03.12/outbox.cif.g09.slc.cpg/sg53_11_cif.got.tgz:20627.got - 2010.04.16 14:36:59.
