data_PCOD8220937
_publ_section_title
;
Structure prediction by ZEFSAII (Michael W. Deem and Ramdas Pophale) SiO2 
 PCOD8220937
Probable space group: P M N A
;
_chemical_formula_sum "Si O2"
_cell_formula_units_Z 40
_cell_length_a 18.257722
_cell_length_b 11.367322
_cell_length_c 9.979086
_cell_angle_alpha 90.000000
_cell_angle_beta 90.000000
_cell_angle_gamma 90.000000
_cell_volume 2071.073529
_symmetry_space_group_name_H-M "P M N A"
_symmetry_group_IT_number 53
_symmetry_cell_setting 'orthorhombic'
loop_
_space_group_symop_operation_xyz
x,y,z
1/2-x,-y,1/2+z
x,-y,-z
1/2-x,y,1/2-z
-x,-y,-z
1/2+x,y,1/2-z
-x,y,z
1/2+x,-y,1/2+z
loop_
_atom_site_type_symbol
_atom_site_label
_atom_site_fract_x
_atom_site_fract_y
_atom_site_fract_z
Si Si1 0.150696 0.863009 0.000542
Si Si2 0.164950 0.272828 0.734151
Si Si3 0.914640 0.497317 0.652332
Si Si4 0.820312 0.865511 0.527430
Si Si5 0.584191 0.754568 0.750024
O O1 0.097757 0.789353 0.903630
O O2 0.137379 0.813206 0.148950
O O3 0.234065 0.844285 0.952762
O O4 0.129079 0.000000 0.000000
O O5 0.250000 0.299286 0.750000
O O6 0.123748 0.396634 0.739453
O O7 0.147235 0.210645 0.593739
O O8 0.883805 0.500000 0.500000
O O9 0.896465 0.618339 0.727335
O O10 0.000000 0.468530 0.649267
O O11 0.862390 0.833937 0.662022
O O12 0.836873 0.000000 0.500000
O O13 0.500000 0.778840 0.789324
#
# Coordination Sequence:
#
# PCOD8220937 Si02
#       5
#     8   8   8   8   8
#     4  10  22  40  60  87 123 154 185 240 300 345
#     4  10  21  37  60  90 115 149 200 243 288 344
#     4  10  21  40  61  82 116 156 195 242 289 338
#     4  10  20  38  63  86 114 155 199 238 286 346
#     4  11  23  38  59  87 117 155 197 236 289 347
#
# _framework density 19.313656000000002
#
# number of rings (size 3 to 8) (size 9 to 14) (size 15 to 20)
#    0.000    1.800    2.000    1.800    0.000    7.200 
#    0.000    4.000    0.000    0.000    0.000    0.000 
#    0.000    0.000    0.000    0.000    0.000    0.000 
#
# Total GULP energy -496218.568473 kJ/mol
# GULP energy per Si atom -12405.464212 kJ/mol
# Density = 1.926970 g / cm^3
# Si number density = 19.313656 Si / 1000 Ang^3
#
#
#
# Elastic Constant Matrix: (Units=GPa)
#
#
# Indices 1 2 3 4 5 6 
#
# 1 38.0271 39.9264 22.5443 0.0000 0.0000 0.0000
# 2 39.9264 133.0722 43.1656 0.0000 0.0000 0.0000
# 3 22.5443 43.1656 84.5802 0.0000 0.0000 0.0000
# 4 0.0000 0.0000 0.0000 38.4474 0.0000 0.0000
# 5 0.0000 0.0000 0.0000 0.0000 22.6356 0.0000
# 6 0.0000 0.0000 0.0000 0.0000 0.0000 25.3360
#
#
#
# Elastic Compliance Matrix: (Units=1/GPa)
#
#
# Indices 1 2 3 4 5 6 
#
# 1 0.040414 -0.010344 -0.005493 0.000000 0.000000 0.000000
# 2 -0.010344 0.011653 -0.003190 0.000000 0.000000 0.000000
# 3 -0.005493 -0.003190 0.014915 0.000000 0.000000 0.000000
# 4 0.000000 0.000000 0.000000 0.026010 0.000000 0.000000
# 5 0.000000 0.000000 0.000000 0.000000 0.044178 0.000000
# 6 0.000000 0.000000 0.000000 0.000000 0.000000 0.039470
#
#
# Mechanical properties :
#
#
# Convention : Reuss Voigt Hill
#
# Bulk Modulus (GPa) = 34.56810 51.88357 43.22584
# Shear Modulus (GPa) = 22.28794 27.28667 24.78731
#
# Velocity S-wave (km/s) = 3.40074 3.76282 3.58636
# Velocity P-wave (km/s) = 5.77557 6.76760 6.29117
#
# Compressibility (1/GPa) = 0.02892840
#
# Stress axis : x y z
#
# Youngs Moduli (GPa) = 24.74387 85.81462 67.04527
#
# Poissons Ratio (x) = 0.88765 0.36829
# Poissons Ratio (y) = 0.25595 0.21388
# Poissons Ratio (z) = 0.13592 0.27375
#
# Static dielectric constant tensor:
#      x y z
#    x 3.404350 0.000000 0.000000 
#    y 0.000000 3.540590 0.000000 
#    z 0.000000 0.000000 3.586390 
# 
# 
# High freq. dielectric constant tensor:
#      x y z
#    x 1.741150 0.000000 0.000000 
#    y 0.000000 1.762720 0.000000 
#    z 0.000000 0.000000 1.756270 
# 
# From -- ./inp_files/9603.got.cif
#   From: 2010.03.12/outbox.cif.g09.slc.cpg/sg53_5_cif.got.tgz:9603.got - 2010.04.16 14:36:59.
