data_PCOD8220145
_publ_section_title
;
Structure prediction by ZEFSAII (Michael W. Deem and Ramdas Pophale) SiO2 
 PCOD8220145
Probable space group: P M N A
;
_chemical_formula_sum "Si O2"
_cell_formula_units_Z 64
_cell_length_a 8.898462
_cell_length_b 17.366516
_cell_length_c 22.247734
_cell_angle_alpha 90.000000
_cell_angle_beta 90.000000
_cell_angle_gamma 90.000000
_cell_volume 3438.059863
_symmetry_space_group_name_H-M "P M N A"
_symmetry_group_IT_number 53
_symmetry_cell_setting 'orthorhombic'
loop_
_space_group_symop_operation_xyz
x,y,z
1/2-x,-y,1/2+z
x,-y,-z
1/2-x,y,1/2-z
-x,-y,-z
1/2+x,y,1/2-z
-x,y,z
1/2+x,-y,1/2+z
loop_
_atom_site_type_symbol
_atom_site_label
_atom_site_fract_x
_atom_site_fract_y
_atom_site_fract_z
Si Si1 0.824268 0.073988 0.810842
Si Si2 0.322715 0.818296 0.418603
Si Si3 0.176815 0.336207 0.552422
Si Si4 0.169099 0.489767 0.929125
Si Si5 0.328297 0.090501 0.357993
Si Si6 0.825862 0.086383 0.481364
Si Si7 0.822669 0.355420 0.413793
Si Si8 0.172904 0.256424 0.188510
O O1 0.750000 0.104037 0.750000
O O2 0.764619 0.126803 0.865170
O O3 0.000000 0.083713 0.803885
O O4 0.778732 0.985327 0.821723
O O5 0.500000 0.806395 0.417325
O O6 0.243215 0.736273 0.412241
O O7 0.276476 0.856094 0.481197
O O8 0.245507 0.410690 0.585387
O O9 0.220562 0.331681 0.481855
O O10 0.000000 0.339369 0.560563
O O11 0.256324 0.560548 0.898291
O O12 0.000000 0.486586 0.903389
O O13 0.168141 0.500000 0.000000
O O14 0.500000 0.081407 0.381562
O O15 0.213870 0.100177 0.412516
O O16 0.312270 0.164124 0.315137
O O17 0.000000 0.106219 0.492284
O O18 0.786178 0.000000 0.500000
O O19 0.752373 0.293277 0.369145
O O20 0.000000 0.357928 0.404605
O O21 0.250000 0.284853 0.250000
O O22 0.000000 0.282503 0.189275
#
# Coordination Sequence:
#
# PCOD8220145 Si02
#       8
#     8   8   8   8   8   8   8   8
#     4  10  22  38  56  76 100 137 183 228 273 319
#     4  11  22  36  55  78 109 145 182 223 273 327
#     4  10  20  34  55  85 117 145 179 222 275 329
#     4   9  17  31  54  83 113 143 176 211 258 320
#     4  10  21  38  57  78 106 142 182 226 276 328
#     4  11  22  34  52  80 109 140 178 223 276 328
#     4  10  20  35  55  80 113 147 180 221 271 325
#     4  11  23  37  55  78 107 145 189 232 276 327
#
# _framework density 18.61515
#
# number of rings (size 3 to 8) (size 9 to 14) (size 15 to 20)
#    0.000    1.750    1.250    3.375    0.000    8.000 
#    0.000    0.000    0.000    0.750    0.000    3.500 
#    0.000    0.000    0.000    0.000    0.000    0.000 
#
# Total GULP energy -793860.175677 kJ/mol
# GULP energy per Si atom -12404.065245 kJ/mol
# Density = 1.857278 g / cm^3
# Si number density = 18.615150 Si / 1000 Ang^3
#
#
#
# Elastic Constant Matrix: (Units=GPa)
#
#
# Indices 1 2 3 4 5 6 
#
# 1 86.6790 48.2521 29.9736 0.0000 0.0000 0.0000
# 2 48.2521 120.8983 23.1967 0.0000 0.0000 0.0000
# 3 29.9736 23.1967 59.9265 0.0000 0.0000 0.0000
# 4 0.0000 0.0000 0.0000 15.6673 0.0000 0.0000
# 5 0.0000 0.0000 0.0000 0.0000 28.3061 0.0000
# 6 0.0000 0.0000 0.0000 0.0000 0.0000 -0.0458
#
#
#
# Elastic Compliance Matrix: (Units=1/GPa)
#
#
# Indices 1 2 3 4 5 6 
#
# 1 0.016755 -0.005487 -0.006256 0.000000 0.000000 0.000000
# 2 -0.005487 0.010732 -0.001410 0.000000 0.000000 0.000000
# 3 -0.006256 -0.001410 0.020362 0.000000 0.000000 0.000000
# 4 0.000000 0.000000 0.000000 0.063827 0.000000 0.000000
# 5 0.000000 0.000000 0.000000 0.000000 0.035328 0.000000
# 6 0.000000 0.000000 0.000000 0.000000 0.000000-21.848664
#
#
# Mechanical properties :
#
#
# Convention : Reuss Voigt Hill
#
# Bulk Modulus (GPa) = 46.41937 52.26095 49.34016
# Shear Modulus (GPa) = -0.23075 19.85762 9.81343
#
# Velocity S-wave (km/s) = -0.35246 3.26965 2.29852
# Velocity P-wave (km/s) = 4.98245 6.51072 5.79717
#
# Compressibility (1/GPa) = 0.02154273
#
# Stress axis : x y z
#
# Youngs Moduli (GPa) = 59.68539 93.18216 49.11077
#
# Poissons Ratio (x) = 0.51125 0.30726
# Poissons Ratio (y) = 0.32747 0.06924
# Poissons Ratio (z) = 0.37342 0.13137
#
# Static dielectric constant tensor:
#      x y z
#    x 3.480110 0.000000 0.000000 
#    y 0.000000 3.587770 0.000000 
#    z 0.000000 0.000000 3.162680 
# 
# 
# High freq. dielectric constant tensor:
#      x y z
#    x 1.733730 0.000000 0.000000 
#    y 0.000000 1.728960 0.000000 
#    z 0.000000 0.000000 1.692580 
# 
# From -- ./inp_files/34503.got.cif
#   From: 2010.03.12/outbox.cif.g09.slc.cpg/sg53_18_cif.got.tgz:34503.got - 2010.04.16 14:36:59.
