data_PCOD8220953
_publ_section_title
;
Structure prediction by ZEFSAII (Michael W. Deem and Ramdas Pophale) SiO2 
 PCOD8220953
Probable space group: P M N A
;
_chemical_formula_sum "Si O2"
_cell_formula_units_Z 60
_cell_length_a 19.148936
_cell_length_b 12.166528
_cell_length_c 12.084297
_cell_angle_alpha 90.000000
_cell_angle_beta 90.000000
_cell_angle_gamma 90.000000
_cell_volume 2815.351976
_symmetry_space_group_name_H-M "P M N A"
_symmetry_group_IT_number 53
_symmetry_cell_setting 'orthorhombic'
loop_
_space_group_symop_operation_xyz
x,y,z
1/2-x,-y,1/2+z
x,-y,-z
1/2-x,y,1/2-z
-x,-y,-z
1/2+x,y,1/2-z
-x,y,z
1/2+x,-y,1/2+z
loop_
_atom_site_type_symbol
_atom_site_label
_atom_site_fract_x
_atom_site_fract_y
_atom_site_fract_z
Si Si1 0.802816 0.572388 0.599783
Si Si2 0.255779 0.798020 0.881941
Si Si3 0.312220 0.000000 0.000000
Si Si4 0.832184 0.885251 0.281478
Si Si5 0.076922 0.973449 0.875265
Si Si6 0.894716 0.254736 0.064026
Si Si7 0.921758 0.701718 0.175538
Si Si8 0.355662 0.468417 0.330209
O O1 0.832014 0.500000 0.500000
O O2 0.810502 0.704021 0.578624
O O3 0.722472 0.540014 0.622521
O O4 0.854313 0.543921 0.699113
O O5 0.250000 0.789268 0.750000
O O6 0.270645 0.921905 0.916595
O O7 0.187023 0.765332 0.947037
O O8 0.349422 0.081044 0.910344
O O9 0.750000 0.871805 0.250000
O O10 0.872103 0.770206 0.258734
O O11 0.864831 0.980431 0.206272
O O12 0.073482 0.841244 0.858552
O O13 0.000000 0.022819 0.847938
O O14 0.100406 0.000000 0.000000
O O15 0.906554 0.375187 0.117435
O O16 0.928117 0.238123 0.942886
O O17 0.887790 0.585904 0.142922
O O18 0.000000 0.690088 0.225991
#
# Coordination Sequence:
#
# PCOD8220953 Si02
#       8
#     8   8   4   8   8   8   8   8
#     4  10  20  38  64  93 135 172 219 280 341 402
#     4  11  21  40  62 101 143 174 221 288 341 402
#     4  12  26  38  65  98 137 178 222 282 354 414
#     4  12  27  43  69 102 135 180 231 287 346 416
#     4  11  23  43  69  97 137 184 229 281 344 411
#     4  11  20  37  65  95 133 179 219 269 342 407
#     4  12  26  43  63  95 139 176 225 285 342 412
#     4  10  22  38  62  97 131 174 218 276 339 406
#
# _framework density 21.311722
#
# number of rings (size 3 to 8) (size 9 to 14) (size 15 to 20)
#    0.000    0.933    4.000    5.600    5.600    1.600 
#    0.000    1.333    0.000    0.400    0.000    0.000 
#    0.000    0.000    0.000    0.000    0.000    0.000 
#
# Total GULP energy -743530.795261 kJ/mol
# GULP energy per Si atom -12392.179921 kJ/mol
# Density = 2.126322 g / cm^3
# Si number density = 21.311722 Si / 1000 Ang^3
#
#
#
# Elastic Constant Matrix: (Units=GPa)
#
#
# Indices 1 2 3 4 5 6 
#
# 1 81.4386 21.5370 24.9311 0.0000 0.0000 0.0000
# 2 21.5370 140.2335 26.1242 0.0000 0.0000 0.0000
# 3 24.9311 26.1242 103.4461 0.0000 0.0000 0.0000
# 4 0.0000 0.0000 0.0000 38.6822 0.0000 0.0000
# 5 0.0000 0.0000 0.0000 0.0000 17.9740 0.0000
# 6 0.0000 0.0000 0.0000 0.0000 0.0000 14.2909
#
#
#
# Elastic Compliance Matrix: (Units=1/GPa)
#
#
# Indices 1 2 3 4 5 6 
#
# 1 0.013570 -0.001548 -0.002880 0.000000 0.000000 0.000000
# 2 -0.001548 0.007660 -0.001561 0.000000 0.000000 0.000000
# 3 -0.002880 -0.001561 0.010755 0.000000 0.000000 0.000000
# 4 0.000000 0.000000 0.000000 0.025852 0.000000 0.000000
# 5 0.000000 0.000000 0.000000 0.000000 0.055636 0.000000
# 6 0.000000 0.000000 0.000000 0.000000 0.000000 0.069975
#
#
# Mechanical properties :
#
#
# Convention : Reuss Voigt Hill
#
# Bulk Modulus (GPa) = 49.98117 52.25586 51.11851
# Shear Modulus (GPa) = 24.74106 31.02448 27.88277
#
# Velocity S-wave (km/s) = 3.41091 3.81956 3.62101
# Velocity P-wave (km/s) = 6.24626 6.63514 6.44364
#
# Compressibility (1/GPa) = 0.02000754
#
# Stress axis : x y z
#
# Youngs Moduli (GPa) = 73.69181 130.55663 92.97846
#
# Poissons Ratio (x) = 0.20205 0.26774
# Poissons Ratio (y) = 0.11405 0.14517
# Poissons Ratio (z) = 0.21220 0.20384
#
# Static dielectric constant tensor:
#      x y z
#    x 3.610640 0.000000 0.000000 
#    y 0.000000 4.355400 0.000000 
#    z 0.000000 0.000000 3.857680 
# 
# 
# High freq. dielectric constant tensor:
#      x y z
#    x 1.798140 0.000000 0.000000 
#    y 0.000000 1.866350 0.000000 
#    z 0.000000 0.000000 1.824100 
# 
# From -- ./inp_files/17928.got.cif
#   From: 2010.03.12/outbox.cif.g09.slc.cpg/sg53_9_cif.got.tgz:17928.got - 2010.04.16 14:36:59.
