data_PCOD8220400
_publ_section_title
;
Structure prediction by ZEFSAII (Michael W. Deem and Ramdas Pophale) SiO2 
 PCOD8220400
Probable space group: P M N A
;
_chemical_formula_sum "Si O2"
_cell_formula_units_Z 48
_cell_length_a 15.189741
_cell_length_b 18.387186
_cell_length_c 8.413500
_cell_angle_alpha 90.000000
_cell_angle_beta 90.000000
_cell_angle_gamma 90.000000
_cell_volume 2349.861886
_symmetry_space_group_name_H-M "P M N A"
_symmetry_group_IT_number 53
_symmetry_cell_setting 'orthorhombic'
loop_
_space_group_symop_operation_xyz
x,y,z
1/2-x,-y,1/2+z
x,-y,-z
1/2-x,y,1/2-z
-x,-y,-z
1/2+x,y,1/2-z
-x,y,z
1/2+x,-y,1/2+z
loop_
_atom_site_type_symbol
_atom_site_label
_atom_site_fract_x
_atom_site_fract_y
_atom_site_fract_z
Si Si1 0.898671 0.162853 0.551253
Si Si2 0.101766 0.189859 0.919649
Si Si3 0.664789 0.301161 0.139378
Si Si4 0.096355 0.344154 0.051640
Si Si5 0.744041 0.577011 0.062638
Si Si6 0.260289 0.078127 0.437620
O O1 0.884599 0.185422 0.732261
O O2 0.870315 0.227592 0.435908
O O3 0.834472 0.095516 0.516012
O O4 0.000000 0.140658 0.518326
O O5 0.000000 0.175171 0.968164
O O6 0.132113 0.270382 0.969412
O O7 0.163948 0.134234 0.012171
O O8 0.750000 0.286550 0.250000
O O9 0.591430 0.333237 0.258006
O O10 0.680591 0.359233 0.999605
O O11 0.000000 0.363330 0.986592
O O12 0.158683 0.411161 0.008072
O O13 0.750000 0.578331 0.250000
O O14 0.708001 0.500000 0.000000
O O15 0.250000 0.078233 0.250000
O O16 0.291120 0.000000 0.500000
#
# Coordination Sequence:
#
# PCOD8220400 Si02
#       6
#     8   8   8   8   8   8
#     4  11  22  38  62  89 118 152 193 239 285 339
#     4  10  22  40  62  89 118 151 192 238 287 339
#     4  10  20  35  58  86 115 151 193 235 283 337
#     4  10  20  36  59  86 116 148 187 235 284 336
#     4  11  22  38  58  81 113 152 193 235 285 344
#     4  12  25  41  61  85 117 155 193 237 289 345
#
# _framework density 20.426731
#
# number of rings (size 3 to 8) (size 9 to 14) (size 15 to 20)
#    0.000    1.333    0.000    8.000    0.000    3.000 
#    0.000    0.833    0.000    3.500    0.000    0.000 
#    0.000    0.000    0.000    0.000    0.000    0.000 
#
# Total GULP energy -595282.679783 kJ/mol
# GULP energy per Si atom -12401.722495 kJ/mol
# Density = 2.038024 g / cm^3
# Si number density = 20.426731 Si / 1000 Ang^3
#
#
#
# Elastic Constant Matrix: (Units=GPa)
#
#
# Indices 1 2 3 4 5 6 
#
# 1 77.1634 17.1552 13.9541 0.0000 0.0000 0.0000
# 2 17.1552 48.8015 9.8294 0.0000 0.0000 0.0000
# 3 13.9541 9.8294 128.3312 0.0000 0.0000 0.0000
# 4 0.0000 0.0000 0.0000 35.4140 0.0000 0.0000
# 5 0.0000 0.0000 0.0000 0.0000 15.3289 0.0000
# 6 0.0000 0.0000 0.0000 0.0000 0.0000 21.1880
#
#
#
# Elastic Compliance Matrix: (Units=1/GPa)
#
#
# Indices 1 2 3 4 5 6 
#
# 1 0.014233 -0.004765 -0.001183 0.000000 0.000000 0.000000
# 2 -0.004765 0.022408 -0.001198 0.000000 0.000000 0.000000
# 3 -0.001183 -0.001198 0.008013 0.000000 0.000000 0.000000
# 4 0.000000 0.000000 0.000000 0.028237 0.000000 0.000000
# 5 0.000000 0.000000 0.000000 0.000000 0.065236 0.000000
# 6 0.000000 0.000000 0.000000 0.000000 0.000000 0.047197
#
#
# Mechanical properties :
#
#
# Convention : Reuss Voigt Hill
#
# Bulk Modulus (GPa) = 32.93659 37.35261 35.14460
# Shear Modulus (GPa) = 23.83956 28.60999 26.22478
#
# Velocity S-wave (km/s) = 3.41996 3.74654 3.58697
# Velocity P-wave (km/s) = 5.63507 6.08615 5.86495
#
# Compressibility (1/GPa) = 0.03036137
#
# Stress axis : x y z
#
# Youngs Moduli (GPa) = 70.26048 44.62780 124.80188
#
# Poissons Ratio (x) = 0.21265 0.14759
# Poissons Ratio (y) = 0.33479 0.14953
# Poissons Ratio (z) = 0.08309 0.05347
#
# Static dielectric constant tensor:
#      x y z
#    x 3.859050 0.000000 0.000000 
#    y 0.000000 3.698760 0.000000 
#    z 0.000000 0.000000 3.961280 
# 
# 
# High freq. dielectric constant tensor:
#      x y z
#    x 1.799420 0.000000 0.000000 
#    y 0.000000 1.790280 0.000000 
#    z 0.000000 0.000000 1.817610 
# 
# From -- ./inp_files/8641.got.cif
#   From: 2010.03.12/outbox.cif.g09.slc.cpg/sg53_5_cif.got.tgz:8641.got - 2010.04.16 14:36:59.
