data_PCOD8220906
_publ_section_title
;
Structure prediction by ZEFSAII (Michael W. Deem and Ramdas Pophale) SiO2 
 PCOD8220906
Probable space group: P M N A
;
_chemical_formula_sum "Si O2"
_cell_formula_units_Z 48
_cell_length_a 9.207361
_cell_length_b 29.299468
_cell_length_c 9.176605
_cell_angle_alpha 90.000000
_cell_angle_beta 90.000000
_cell_angle_gamma 90.000000
_cell_volume 2475.579879
_symmetry_space_group_name_H-M "P M N A"
_symmetry_group_IT_number 53
_symmetry_cell_setting 'orthorhombic'
loop_
_space_group_symop_operation_xyz
x,y,z
1/2-x,-y,1/2+z
x,-y,-z
1/2-x,y,1/2-z
-x,-y,-z
1/2+x,y,1/2-z
-x,y,z
1/2+x,-y,1/2+z
loop_
_atom_site_type_symbol
_atom_site_label
_atom_site_fract_x
_atom_site_fract_y
_atom_site_fract_z
Si Si1 0.669507 0.132438 0.399634
Si Si2 0.170309 0.780157 0.096228
Si Si3 0.325417 0.704038 0.906109
Si Si4 0.000000 0.450955 0.926348
Si Si5 0.244846 0.386480 0.580431
Si Si6 0.170971 0.042972 0.399549
Si Si7 0.000000 0.454650 0.590414
O O1 0.750000 0.147169 0.250000
O O2 0.500000 0.122237 0.366280
O O3 0.684727 0.171222 0.519644
O O4 0.750238 0.087850 0.465295
O O5 0.250000 0.782996 0.250000
O O6 0.000000 0.766241 0.113933
O O7 0.256996 0.744276 0.999669
O O8 0.250000 0.705256 0.750000
O O9 0.500000 0.709472 0.893469
O O10 0.281649 0.657509 0.984001
O O11 0.122103 0.415918 0.972786
O O12 0.000000 0.465954 0.759723
O O13 0.000000 0.500000 0.000000
O O14 0.250000 0.371216 0.750000
O O15 0.130458 0.424120 0.543662
O O16 0.250000 0.031114 0.250000
O O17 0.000000 0.052479 0.377638
O O18 0.199343 0.000000 0.500000
O O19 0.000000 0.500000 0.500000
#
# Coordination Sequence:
#
# PCOD8220906 Si02
#       7
#     8   8   8   4   8   8   4
#     4  10  21  38  61  89 121 161 206 255 310 364
#     4  11  25  43  66  94 125 163 204 251 308 369
#     4  12  26  43  65  93 124 160 204 254 308 368
#     4  10  22  36  60  92 120 156 202 248 295 358
#     4  10  22  40  62  88 120 161 200 244 304 360
#     4  10  21  36  57  86 120 162 208 256 310 365
#     4  10  20  38  60  84 122 160 198 244 297 354
#
# _framework density 19.389396999999999
#
# number of rings (size 3 to 8) (size 9 to 14) (size 15 to 20)
#    0.000    1.500    0.833    4.500    2.333    7.333 
#    0.000    3.333    0.000    0.000    0.000    0.000 
#    0.000    0.000    0.000    0.000    0.000    0.000 
#
# Total GULP energy -594745.065097 kJ/mol
# GULP energy per Si atom -12390.522190 kJ/mol
# Density = 1.934527 g / cm^3
# Si number density = 19.389397 Si / 1000 Ang^3
#
#
#
# Elastic Constant Matrix: (Units=GPa)
#
#
# Indices 1 2 3 4 5 6 
#
# 1 199.8555 89.3920 75.3127 0.0000 0.0000 0.0000
# 2 89.3920 157.1284 91.3783 0.0000 0.0000 0.0000
# 3 75.3127 91.3783 117.0558 0.0000 0.0000 0.0000
# 4 0.0000 0.0000 0.0000 45.7293 0.0000 0.0000
# 5 0.0000 0.0000 0.0000 0.0000 33.2706 0.0000
# 6 0.0000 0.0000 0.0000 0.0000 0.0000 37.9508
#
#
#
# Elastic Compliance Matrix: (Units=1/GPa)
#
#
# Indices 1 2 3 4 5 6 
#
# 1 0.007118 -0.002539 -0.002598 0.000000 0.000000 0.000000
# 2 -0.002539 0.012561 -0.008172 0.000000 0.000000 0.000000
# 3 -0.002598 -0.008172 0.016594 0.000000 0.000000 0.000000
# 4 0.000000 0.000000 0.000000 0.021868 0.000000 0.000000
# 5 0.000000 0.000000 0.000000 0.000000 0.030057 0.000000
# 6 0.000000 0.000000 0.000000 0.000000 0.000000 0.026350
#
#
# Mechanical properties :
#
#
# Convention : Reuss Voigt Hill
#
# Bulk Modulus (GPa) = 103.56916 109.57842 106.57379
# Shear Modulus (GPa) = 34.62986 37.92059 36.27523
#
# Velocity S-wave (km/s) = 4.23072 4.42717 4.33006
# Velocity P-wave (km/s) = 8.79754 9.09783 8.94894
#
# Compressibility (1/GPa) = 0.00965538
#
# Stress axis : x y z
#
# Youngs Moduli (GPa) = 140.48607 79.61028 60.26267
#
# Poissons Ratio (x) = 0.20211 0.15656
# Poissons Ratio (y) = 0.35666 0.49249
# Poissons Ratio (z) = 0.36497 0.65060
#
# Static dielectric constant tensor:
#      x y z
#    x 3.989150 0.000000 0.000000 
#    y 0.000000 3.708800 0.000000 
#    z 0.000000 0.000000 3.524700 
# 
# 
# High freq. dielectric constant tensor:
#      x y z
#    x 1.783520 0.000000 0.000000 
#    y 0.000000 1.772950 0.000000 
#    z 0.000000 0.000000 1.751280 
# 
# From -- ./inp_files/6798.got.cif
#   From: 2010.03.12/outbox.cif.g09.slc.cpg/sg53_4_cif.got.tgz:6798.got - 2010.04.16 14:36:59.
