data_PCOD8220653
_publ_section_title
;
Structure prediction by ZEFSAII (Michael W. Deem and Ramdas Pophale) SiO2 
 PCOD8220653
Probable space group: P M N A
;
_chemical_formula_sum "Si O2"
_cell_formula_units_Z 48
_cell_length_a 29.965862
_cell_length_b 8.432312
_cell_length_c 9.776662
_cell_angle_alpha 90.000000
_cell_angle_beta 90.000000
_cell_angle_gamma 90.000000
_cell_volume 2470.381597
_symmetry_space_group_name_H-M "P M N A"
_symmetry_group_IT_number 53
_symmetry_cell_setting 'orthorhombic'
loop_
_space_group_symop_operation_xyz
x,y,z
1/2-x,-y,1/2+z
x,-y,-z
1/2-x,y,1/2-z
-x,-y,-z
1/2+x,y,1/2-z
-x,y,z
1/2+x,-y,1/2+z
loop_
_atom_site_type_symbol
_atom_site_label
_atom_site_fract_x
_atom_site_fract_y
_atom_site_fract_z
Si Si1 0.138639 0.313296 0.998820
Si Si2 0.652967 0.872292 0.223532
Si Si3 0.548772 0.158134 0.418058
Si Si4 0.801338 0.814442 0.769677
Si Si5 0.357877 0.319160 0.033691
Si Si6 0.572145 0.087881 0.127873
O O1 0.142195 0.245093 0.847157
O O2 0.146411 0.500000 0.000000
O O3 0.089079 0.281154 0.060113
O O4 0.178229 0.230228 0.083277
O O5 0.692839 0.996206 0.250755
O O6 0.610110 0.975820 0.189220
O O7 0.666130 0.766954 0.093499
O O8 0.500000 0.220952 0.470359
O O9 0.540817 0.126310 0.256026
O O10 0.562016 0.000000 0.500000
O O11 0.750000 0.771566 0.750000
O O12 0.826143 0.702630 0.662304
O O13 0.406451 0.247766 0.066782
O O14 0.365845 0.500000 0.000000
O O15 0.547252 0.000000 0.000000
#
# Coordination Sequence:
#
# PCOD8220653 Si02
#       6
#     8   8   8   8   8   8
#     4  12  23  39  62  88 123 162 197 251 309 359
#     4  10  20  36  60  85 113 157 203 239 293 361
#     4  11  21  38  64  91 122 159 205 252 293 358
#     4  11  23  40  61  86 117 155 202 250 299 364
#     4  10  20  36  59  87 115 151 193 242 299 354
#     4   9  18  35  59  86 114 153 196 240 288 351
#
# _framework density 19.430195000000001
#
# number of rings (size 3 to 8) (size 9 to 14) (size 15 to 20)
#    0.000    1.500    5.000    3.000    0.000    4.000 
#    0.000    1.667    0.000    0.500    0.000    0.000 
#    0.000    0.000    0.000    0.000    0.000    0.000 
#
# Total GULP energy -594978.843386 kJ/mol
# GULP energy per Si atom -12395.392571 kJ/mol
# Density = 1.938597 g / cm^3
# Si number density = 19.430195 Si / 1000 Ang^3
#
#
#
# Elastic Constant Matrix: (Units=GPa)
#
#
# Indices 1 2 3 4 5 6 
#
# 1 71.5715 7.8865 -8.0534 0.0000 0.0000 0.0000
# 2 7.8865 121.3612 25.4421 0.0000 0.0000 0.0000
# 3 -8.0534 25.4421 90.1416 0.0000 0.0000 0.0000
# 4 0.0000 0.0000 0.0000 31.1279 0.0000 0.0000
# 5 0.0000 0.0000 0.0000 0.0000 6.6830 0.0000
# 6 0.0000 0.0000 0.0000 0.0000 0.0000 8.6386
#
#
#
# Elastic Compliance Matrix: (Units=1/GPa)
#
#
# Indices 1 2 3 4 5 6 
#
# 1 0.014296 -0.001272 0.001636 0.000000 0.000000 0.000000
# 2 -0.001272 0.008871 -0.002618 0.000000 0.000000 0.000000
# 3 0.001636 -0.002618 0.011979 0.000000 0.000000 0.000000
# 4 0.000000 0.000000 0.000000 0.032126 0.000000 0.000000
# 5 0.000000 0.000000 0.000000 0.000000 0.149634 0.000000
# 6 0.000000 0.000000 0.000000 0.000000 0.000000 0.115760
#
#
# Mechanical properties :
#
#
# Convention : Reuss Voigt Hill
#
# Bulk Modulus (GPa) = 32.63749 37.06943 34.85346
# Shear Modulus (GPa) = 14.39325 26.47650 20.43487
#
# Velocity S-wave (km/s) = 2.72466 3.69541 3.24652
# Velocity P-wave (km/s) = 5.17031 6.10964 5.65950
#
# Compressibility (1/GPa) = 0.03063961
#
# Stress axis : x y z
#
# Youngs Moduli (GPa) = 69.94804 112.72353 83.48206
#
# Poissons Ratio (x) = 0.14339 -0.13660
# Poissons Ratio (y) = 0.08898 0.21852
# Poissons Ratio (z) = -0.11445 0.29506
#
# Static dielectric constant tensor:
#      x y z
#    x 3.298880 0.000000 0.000000 
#    y 0.000000 3.480690 0.000000 
#    z 0.000000 0.000000 4.037350 
# 
# 
# High freq. dielectric constant tensor:
#      x y z
#    x 1.732900 0.000000 0.000000 
#    y 0.000000 1.745700 0.000000 
#    z 0.000000 0.000000 1.779480 
# 
# From -- ./inp_files/13041.got.cif
#   From: 2010.03.12/outbox.cif.g09.slc.cpg/sg53_7_cif.got.tgz:13041.got - 2010.04.16 14:36:59.
