data_PCOD8220485
_publ_section_title
;
Structure prediction by ZEFSAII (Michael W. Deem and Ramdas Pophale) SiO2 
 PCOD8220485
Probable space group: P M N A
;
_chemical_formula_sum "Si O2"
_cell_formula_units_Z 64
_cell_length_a 8.747799
_cell_length_b 19.939995
_cell_length_c 19.703622
_cell_angle_alpha 90.000000
_cell_angle_beta 90.000000
_cell_angle_gamma 90.000000
_cell_volume 3436.923835
_symmetry_space_group_name_H-M "P M N A"
_symmetry_group_IT_number 53
_symmetry_cell_setting 'orthorhombic'
loop_
_space_group_symop_operation_xyz
x,y,z
1/2-x,-y,1/2+z
x,-y,-z
1/2-x,y,1/2-z
-x,-y,-z
1/2+x,y,1/2-z
-x,y,z
1/2+x,-y,1/2+z
loop_
_atom_site_type_symbol
_atom_site_label
_atom_site_fract_x
_atom_site_fract_y
_atom_site_fract_z
Si Si1 0.680909 0.068995 0.321362
Si Si2 0.678432 0.576857 0.680456
Si Si3 0.177297 0.814993 0.923781
Si Si4 0.819245 0.423034 0.820730
Si Si5 0.678159 0.820364 0.419587
Si Si6 0.819315 0.073306 0.678318
Si Si7 0.821923 0.319367 0.579185
Si Si8 0.175846 0.676896 0.578577
O O1 0.750000 0.093399 0.250000
O O2 0.500000 0.061158 0.314299
O O3 0.727628 0.122257 0.378467
O O4 0.751460 0.998243 0.343582
O O5 0.750000 0.604732 0.750000
O O6 0.500000 0.583369 0.688698
O O7 0.727775 0.500173 0.667715
O O8 0.730978 0.620142 0.617008
O O9 0.271276 0.750691 0.898641
O O10 0.000000 0.797652 0.914597
O O11 0.214881 0.832738 0.001469
O O12 0.750000 0.396691 0.750000
O O13 0.742327 0.382806 0.881361
O O14 0.000000 0.411994 0.820708
O O15 0.500000 0.829469 0.402956
O O16 0.776854 0.873724 0.378878
O O17 0.730375 0.746405 0.397166
O O18 0.750000 0.096933 0.750000
O O19 0.000000 0.067471 0.685595
O O20 0.791591 0.333857 0.500518
O O21 0.000000 0.308384 0.594596
O O22 0.000000 0.668665 0.597473
#
# Coordination Sequence:
#
# PCOD8220485 Si02
#       8
#     8   8   8   8   8   8   8   8
#     4  10  20  36  56  80 108 141 179 219 264 315
#     4  10  21  37  57  80 109 142 181 224 269 320
#     4   9  20  37  57  79 108 144 181 221 267 318
#     4  10  21  37  57  81 108 142 180 223 270 320
#     4  10  20  37  58  80 107 141 180 223 267 316
#     4  11  22  37  56  80 109 141 177 220 267 318
#     4  10  21  37  56  81 111 143 179 222 268 319
#     4  10  21  36  56  81 111 144 180 222 269 318
#
# _framework density 18.621302
#
# number of rings (size 3 to 8) (size 9 to 14) (size 15 to 20)
#    0.000    2.000    0.000    4.125    0.000    6.500 
#    0.000    8.750    0.000    0.000    0.000    0.000 
#    0.000    0.000    0.000    0.000    0.000    0.000 
#
# Total GULP energy -793915.969235 kJ/mol
# GULP energy per Si atom -12404.937019 kJ/mol
# Density = 1.857892 g / cm^3
# Si number density = 18.621302 Si / 1000 Ang^3
#
#
#
# Elastic Constant Matrix: (Units=GPa)
#
#
# Indices 1 2 3 4 5 6 
#
# 1 88.1888 47.6162 43.4804 0.0000 0.0000 0.0000
# 2 47.6162 106.9559 70.5718 0.0000 0.0000 0.0000
# 3 43.4804 70.5718 86.6839 0.0000 0.0000 0.0000
# 4 0.0000 0.0000 0.0000 28.3496 0.0000 0.0000
# 5 0.0000 0.0000 0.0000 0.0000 33.9349 0.0000
# 6 0.0000 0.0000 0.0000 0.0000 0.0000 34.4523
#
#
#
# Elastic Compliance Matrix: (Units=1/GPa)
#
#
# Indices 1 2 3 4 5 6 
#
# 1 0.015782 -0.003895 -0.004745 0.000000 0.000000 0.000000
# 2 -0.003895 0.021163 -0.015275 0.000000 0.000000 0.000000
# 3 -0.004745 -0.015275 0.026352 0.000000 0.000000 0.000000
# 4 0.000000 0.000000 0.000000 0.035274 0.000000 0.000000
# 5 0.000000 0.000000 0.000000 0.000000 0.029468 0.000000
# 6 0.000000 0.000000 0.000000 0.000000 0.000000 0.029026
#
#
# Mechanical properties :
#
#
# Convention : Reuss Voigt Hill
#
# Bulk Modulus (GPa) = 64.65826 67.24059 65.94943
# Shear Modulus (GPa) = 23.80371 27.35804 25.58088
#
# Velocity S-wave (km/s) = 3.57922 3.83715 3.71042
# Velocity P-wave (km/s) = 7.20272 7.47124 7.33821
#
# Compressibility (1/GPa) = 0.01546593
#
# Stress axis : x y z
#
# Youngs Moduli (GPa) = 63.36363 47.25276 37.94724
#
# Poissons Ratio (x) = 0.18406 0.18006
# Poissons Ratio (y) = 0.24681 0.57966
# Poissons Ratio (z) = 0.30066 0.72180
#
# Static dielectric constant tensor:
#      x y z
#    x 3.547740 0.000000 0.000000 
#    y 0.000000 3.450380 0.000000 
#    z 0.000000 0.000000 3.420800 
# 
# 
# High freq. dielectric constant tensor:
#      x y z
#    x 1.738940 0.000000 0.000000 
#    y 0.000000 1.725690 0.000000 
#    z 0.000000 0.000000 1.723380 
# 
# From -- ./inp_files/31290.got.cif
#   From: 2010.03.12/outbox.cif.g09.slc.cpg/sg53_16_cif.got.tgz:31290.got - 2010.04.16 14:36:59.
