data_PCOD8220322
_publ_section_title
;
Structure prediction by ZEFSAII (Michael W. Deem and Ramdas Pophale) SiO2 
 PCOD8220322
Probable space group: P M N A
;
_chemical_formula_sum "Si O2"
_cell_formula_units_Z 56
_cell_length_a 9.430685
_cell_length_b 18.558998
_cell_length_c 15.783063
_cell_angle_alpha 90.000000
_cell_angle_beta 90.000000
_cell_angle_gamma 90.000000
_cell_volume 2762.415829
_symmetry_space_group_name_H-M "P M N A"
_symmetry_group_IT_number 53
_symmetry_cell_setting 'orthorhombic'
loop_
_space_group_symop_operation_xyz
x,y,z
1/2-x,-y,1/2+z
x,-y,-z
1/2-x,y,1/2-z
-x,-y,-z
1/2+x,y,1/2-z
-x,y,z
1/2+x,-y,1/2+z
loop_
_atom_site_type_symbol
_atom_site_label
_atom_site_fract_x
_atom_site_fract_y
_atom_site_fract_z
Si Si1 0.336783 0.037708 0.909688
Si Si2 0.162665 0.659026 0.332012
Si Si3 0.162533 0.080350 0.173869
Si Si4 0.161632 0.414948 0.493412
Si Si5 0.838592 0.800174 0.421344
Si Si6 0.843310 0.219448 0.073554
Si Si7 0.665097 0.358410 0.334268
O O1 0.500000 0.034020 0.879045
O O2 0.277839 0.119715 0.905713
O O3 0.235303 0.995691 0.846009
O O4 0.320342 0.000000 0.000000
O O5 0.250000 0.633187 0.250000
O O6 0.215333 0.618626 0.417149
O O7 0.180219 0.746033 0.342283
O O8 0.000000 0.638657 0.314655
O O9 0.250000 0.116114 0.250000
O O10 0.176613 0.136030 0.097196
O O11 0.000000 0.067118 0.199458
O O12 0.165936 0.500000 0.500000
O O13 0.266250 0.393922 0.417337
O O14 0.000000 0.388273 0.475041
O O15 0.765440 0.760624 0.500260
O O16 0.000000 0.809373 0.448605
O O17 0.821637 0.271919 0.154038
O O18 0.000000 0.231380 0.036014
O O19 0.750000 0.381902 0.250000
O O20 0.500000 0.382066 0.325644
#
# Coordination Sequence:
#
# PCOD8220322 Si02
#       7
#     8   8   8   8   8   8   8
#     4  10  20  35  56  81 109 146 193 244 301 361
#     4  10  22  40  63  90 121 159 202 248 300 356
#     4  11  23  37  54  79 113 150 192 242 298 355
#     4  10  22  42  67  95 127 161 200 248 302 361
#     4  10  20  36  60  86 113 151 199 249 302 357
#     4  10  21  36  57  86 116 152 198 246 298 355
#     4  11  23  39  62  93 127 163 203 249 300 358
#
# _framework density 20.272110000000001
#
# number of rings (size 3 to 8) (size 9 to 14) (size 15 to 20)
#    0.000    1.714    2.857    1.286    0.000    4.571 
#    0.000    2.857    0.000    0.000    0.000    0.000 
#    0.000    0.000    0.000    0.000    0.000    0.000 
#
# Total GULP energy -694254.478692 kJ/mol
# GULP energy per Si atom -12397.401405 kJ/mol
# Density = 2.022597 g / cm^3
# Si number density = 20.272110 Si / 1000 Ang^3
#
#
#
# Elastic Constant Matrix: (Units=GPa)
#
#
# Indices 1 2 3 4 5 6 
#
# 1 111.8536 27.6171 70.1133 0.0000 0.0000 0.0000
# 2 27.6171 84.3270 29.1904 0.0000 0.0000 0.0000
# 3 70.1133 29.1904 120.9477 0.0000 0.0000 0.0000
# 4 0.0000 0.0000 0.0000 18.3473 0.0000 0.0000
# 5 0.0000 0.0000 0.0000 0.0000 39.7598 0.0000
# 6 0.0000 0.0000 0.0000 0.0000 0.0000 22.7710
#
#
#
# Elastic Compliance Matrix: (Units=1/GPa)
#
#
# Indices 1 2 3 4 5 6 
#
# 1 0.014341 -0.001985 -0.007835 0.000000 0.000000 0.000000
# 2 -0.001985 0.013214 -0.002039 0.000000 0.000000 0.000000
# 3 -0.007835 -0.002039 0.013302 0.000000 0.000000 0.000000
# 4 0.000000 0.000000 0.000000 0.054504 0.000000 0.000000
# 5 0.000000 0.000000 0.000000 0.000000 0.025151 0.000000
# 6 0.000000 0.000000 0.000000 0.000000 0.000000 0.043916
#
#
# Mechanical properties :
#
#
# Convention : Reuss Voigt Hill
#
# Bulk Modulus (GPa) = 58.33872 63.44111 60.88991
# Shear Modulus (GPa) = 25.79209 28.85611 27.32410
#
# Velocity S-wave (km/s) = 3.57079 3.77694 3.67531
# Velocity P-wave (km/s) = 6.77060 7.09811 6.93629
#
# Compressibility (1/GPa) = 0.01714128
#
# Stress axis : x y z
#
# Youngs Moduli (GPa) = 69.72879 75.67554 75.17784
#
# Poissons Ratio (x) = 0.15020 0.58899
# Poissons Ratio (y) = 0.13839 0.15326
# Poissons Ratio (z) = 0.54630 0.15428
#
# Static dielectric constant tensor:
#      x y z
#    x 3.708600 0.000000 0.000000 
#    y 0.000000 3.753190 0.000000 
#    z 0.000000 0.000000 3.453440 
# 
# 
# High freq. dielectric constant tensor:
#      x y z
#    x 1.791370 0.000000 0.000000 
#    y 0.000000 1.795400 0.000000 
#    z 0.000000 0.000000 1.778380 
# 
# From -- ./inp_files/20503.got.cif
#   From: 2010.03.12/outbox.cif.g09.slc.cpg/sg53_11_cif.got.tgz:20503.got - 2010.04.16 14:36:59.
