data_PCOD8220562
_publ_section_title
;
Structure prediction by ZEFSAII (Michael W. Deem and Ramdas Pophale) SiO2 
 PCOD8220562
Probable space group: P M N A
;
_chemical_formula_sum "Si O2"
_cell_formula_units_Z 48
_cell_length_a 9.011364
_cell_length_b 9.643505
_cell_length_c 30.158736
_cell_angle_alpha 90.000000
_cell_angle_beta 90.000000
_cell_angle_gamma 90.000000
_cell_volume 2620.828352
_symmetry_space_group_name_H-M "P M N A"
_symmetry_group_IT_number 53
_symmetry_cell_setting 'orthorhombic'
loop_
_space_group_symop_operation_xyz
x,y,z
1/2-x,-y,1/2+z
x,-y,-z
1/2-x,y,1/2-z
-x,-y,-z
1/2+x,y,1/2-z
-x,y,z
1/2+x,-y,1/2+z
loop_
_atom_site_type_symbol
_atom_site_label
_atom_site_fract_x
_atom_site_fract_y
_atom_site_fract_z
Si Si1 0.325024 0.650509 0.985332
Si Si2 0.828590 0.004831 0.864646
Si Si3 0.828139 0.702771 0.893515
Si Si4 0.175544 0.798996 0.297008
Si Si5 0.168911 0.221978 0.936315
Si Si6 0.170965 0.415345 0.855155
O O1 0.500000 0.650255 0.983880
O O2 0.268026 0.691241 0.937311
O O3 0.262873 0.500000 0.000000
O O4 0.272126 0.765013 0.020759
O O5 0.787773 0.843500 0.867803
O O6 0.000000 0.028884 0.850875
O O7 0.724290 0.073725 0.828047
O O8 0.799708 0.075123 0.912553
O O9 0.792028 0.577985 0.859502
O O10 0.000000 0.699680 0.907701
O O11 0.250000 0.822387 0.250000
O O12 0.227403 0.651643 0.317187
O O13 0.000000 0.798373 0.291970
O O14 0.206803 0.345433 0.902275
O O15 0.000000 0.232295 0.952632
O O16 0.000000 0.388584 0.842105
#
# Coordination Sequence:
#
# PCOD8220562 Si02
#       6
#     8   8   8   8   8   8
#     4  11  22  32  47  75 111 148 191 238 274 314
#     4   9  20  38  58  83 111 142 182 227 277 330
#     4  10  20  36  58  80 109 147 184 226 275 326
#     4  11  22  38  62  86 110 141 176 218 266 326
#     4   9  17  32  53  75 104 143 188 229 267 321
#     4   9  18  34  57  83 108 138 179 224 269 320
#
# _framework density 18.314820999999998
#
# number of rings (size 3 to 8) (size 9 to 14) (size 15 to 20)
#    0.000    2.167    1.667    3.000    0.000    5.333 
#    0.000    4.167    0.000    0.000    0.000    0.000 
#    0.000    0.000    0.000    0.000    0.000    0.000 
#
# Total GULP energy -595312.306104 kJ/mol
# GULP energy per Si atom -12402.339710 kJ/mol
# Density = 1.827314 g / cm^3
# Si number density = 18.314821 Si / 1000 Ang^3
#
#
#
# Elastic Constant Matrix: (Units=GPa)
#
#
# Indices 1 2 3 4 5 6 
#
# 1 96.2060 39.7747 54.5947 0.0000 0.0000 0.0000
# 2 39.7747 132.6924 37.3638 0.0000 0.0000 0.0000
# 3 54.5947 37.3638 90.2263 0.0000 0.0000 0.0000
# 4 0.0000 0.0000 0.0000 14.5136 0.0000 0.0000
# 5 0.0000 0.0000 0.0000 0.0000 33.3041 0.0000
# 6 0.0000 0.0000 0.0000 0.0000 0.0000 -3.2267
#
#
#
# Elastic Compliance Matrix: (Units=1/GPa)
#
#
# Indices 1 2 3 4 5 6 
#
# 1 0.016486 -0.002414 -0.008976 0.000000 0.000000 0.000000
# 2 -0.002414 0.008885 -0.002218 0.000000 0.000000 0.000000
# 3 -0.008976 -0.002218 0.017433 0.000000 0.000000 0.000000
# 4 0.000000 0.000000 0.000000 0.068901 0.000000 0.000000
# 5 0.000000 0.000000 0.000000 0.000000 0.030026 0.000000
# 6 0.000000 0.000000 0.000000 0.000000 0.000000 -0.309918
#
#
# Mechanical properties :
#
#
# Convention : Reuss Voigt Hill
#
# Bulk Modulus (GPa) = 64.15653 64.73235 64.44444
# Shear Modulus (GPa) = -36.82571 21.41097 -7.70737
#
# Velocity S-wave (km/s) = -4.48895 3.42285 -2.05363
# Velocity P-wave (km/s) = 2.87024 7.14438 5.44428
#
# Compressibility (1/GPa) = 0.01558688
#
# Stress axis : x y z
#
# Youngs Moduli (GPa) = 60.65751 112.55472 57.36267
#
# Poissons Ratio (x) = 0.27174 0.51487
# Poissons Ratio (y) = 0.14645 0.12725
# Poissons Ratio (z) = 0.54444 0.24968
#
# Static dielectric constant tensor:
#      x y z
#    x 3.273520 0.000000 0.000000 
#    y 0.000000 3.578140 0.000000 
#    z 0.000000 0.000000 3.154700 
# 
# 
# High freq. dielectric constant tensor:
#      x y z
#    x 1.704880 0.000000 0.000000 
#    y 0.000000 1.712140 0.000000 
#    z 0.000000 0.000000 1.694170 
# 
# From -- ./inp_files/37788.got.cif
#   From: 2010.03.12/outbox.cif.g09.slc.cpg/sg53_19_cif.got.tgz:37788.got - 2010.04.16 14:36:59.
