data_PCOD8220763
_publ_section_title
;
Structure prediction by ZEFSAII (Michael W. Deem and Ramdas Pophale) SiO2 
 PCOD8220763
Probable space group: P M N A
;
_chemical_formula_sum "Si O2"
_cell_formula_units_Z 48
_cell_length_a 8.711549
_cell_length_b 14.999770
_cell_length_c 18.979057
_cell_angle_alpha 90.000000
_cell_angle_beta 90.000000
_cell_angle_gamma 90.000000
_cell_volume 2480.016748
_symmetry_space_group_name_H-M "P M N A"
_symmetry_group_IT_number 53
_symmetry_cell_setting 'orthorhombic'
loop_
_space_group_symop_operation_xyz
x,y,z
1/2-x,-y,1/2+z
x,-y,-z
1/2-x,y,1/2-z
-x,-y,-z
1/2+x,y,1/2-z
-x,y,z
1/2+x,-y,1/2+z
loop_
_atom_site_type_symbol
_atom_site_label
_atom_site_fract_x
_atom_site_fract_y
_atom_site_fract_z
Si Si1 0.821026 0.101367 0.822738
Si Si2 0.181675 0.595561 0.825329
Si Si3 0.818552 0.592604 0.324736
Si Si4 0.180399 0.748982 0.583094
Si Si5 0.678411 0.242978 0.920161
Si Si6 0.681620 0.896865 0.676001
O O1 0.750000 0.137594 0.750000
O O2 0.767008 0.158944 0.888627
O O3 0.000000 0.110608 0.813891
O O4 0.772587 0.999411 0.836726
O O5 0.250000 0.623481 0.750000
O O6 0.246445 0.500376 0.850124
O O7 0.229007 0.667832 0.882459
O O8 0.000000 0.590521 0.818764
O O9 0.750000 0.622546 0.250000
O O10 0.771499 0.666258 0.381734
O O11 0.000000 0.580863 0.317542
O O12 0.222765 0.747925 0.501236
O O13 0.238776 0.842261 0.613884
O O14 0.000000 0.737579 0.596354
O O15 0.500000 0.224397 0.909153
O O16 0.750000 0.862913 0.750000
O O17 0.500000 0.880881 0.675689
#
# Coordination Sequence:
#
# PCOD8220763 Si02
#       6
#     8   8   8   8   8   8
#     4  10  21  37  60  85 113 146 186 233 279 328
#     4  11  22  38  60  85 111 144 185 231 278 330
#     4  10  20  37  59  84 111 143 184 230 275 326
#     4  11  23  39  57  81 114 152 187 227 278 334
#     4  10  23  39  57  82 115 152 188 226 277 333
#     4  10  21  38  59  85 112 145 187 233 280 329
#
# _framework density 19.354707999999999
#
# number of rings (size 3 to 8) (size 9 to 14) (size 15 to 20)
#    0.000    1.667    0.000    5.500    0.000    7.333 
#    0.000    6.667    0.000    0.000    0.000    0.000 
#    0.000    0.000    0.000    0.000    0.000    0.000 
#
# Total GULP energy -595476.119561 kJ/mol
# GULP energy per Si atom -12405.752491 kJ/mol
# Density = 1.931066 g / cm^3
# Si number density = 19.354708 Si / 1000 Ang^3
#
#
#
# Elastic Constant Matrix: (Units=GPa)
#
#
# Indices 1 2 3 4 5 6 
#
# 1 95.9559 53.4174 52.0673 0.0000 0.0000 0.0000
# 2 53.4174 121.6534 83.3915 0.0000 0.0000 0.0000
# 3 52.0673 83.3915 128.8853 0.0000 0.0000 0.0000
# 4 0.0000 0.0000 0.0000 1.9309 0.0000 0.0000
# 5 0.0000 0.0000 0.0000 0.0000 32.4136 0.0000
# 6 0.0000 0.0000 0.0000 0.0000 0.0000 17.5996
#
#
#
# Elastic Compliance Matrix: (Units=1/GPa)
#
#
# Indices 1 2 3 4 5 6 
#
# 1 0.014457 -0.004213 -0.003114 0.000000 0.000000 0.000000
# 2 -0.004213 0.015999 -0.008650 0.000000 0.000000 0.000000
# 3 -0.003114 -0.008650 0.014614 0.000000 0.000000 0.000000
# 4 0.000000 0.000000 0.000000 0.517893 0.000000 0.000000
# 5 0.000000 0.000000 0.000000 0.000000 0.030851 0.000000
# 6 0.000000 0.000000 0.000000 0.000000 0.000000 0.056820
#
#
# Mechanical properties :
#
#
# Convention : Reuss Voigt Hill
#
# Bulk Modulus (GPa) = 76.24784 80.47190 78.35987
# Shear Modulus (GPa) = 7.27845 20.89671 14.08758
#
# Velocity S-wave (km/s) = 1.94132 3.28940 2.70082
# Velocity P-wave (km/s) = 6.67124 7.48963 7.09225
#
# Compressibility (1/GPa) = 0.01311513
#
# Stress axis : x y z
#
# Youngs Moduli (GPa) = 69.17219 62.50228 68.42913
#
# Poissons Ratio (x) = 0.26333 0.21311
# Poissons Ratio (y) = 0.29143 0.59191
# Poissons Ratio (z) = 0.21542 0.54064
#
# Static dielectric constant tensor:
#      x y z
#    x 3.632910 0.000000 0.000000 
#    y 0.000000 3.654950 0.000000 
#    z 0.000000 0.000000 3.684650 
# 
# 
# High freq. dielectric constant tensor:
#      x y z
#    x 1.766990 0.000000 0.000000 
#    y 0.000000 1.765900 0.000000 
#    z 0.000000 0.000000 1.749700 
# 
# From -- ./inp_files/26284.got.cif
#   From: 2010.03.12/outbox.cif.g09.slc.cpg/sg53_14_cif.got.tgz:26284.got - 2010.04.16 14:36:59.
