data_PCOD8220140
_publ_section_title
;
Structure prediction by ZEFSAII (Michael W. Deem and Ramdas Pophale) SiO2 
 PCOD8220140
Probable space group: P M N A
;
_chemical_formula_sum "Si O2"
_cell_formula_units_Z 64
_cell_length_a 8.707917
_cell_length_b 25.043627
_cell_length_c 14.504177
_cell_angle_alpha 90.000000
_cell_angle_beta 90.000000
_cell_angle_gamma 90.000000
_cell_volume 3163.039378
_symmetry_space_group_name_H-M "P M N A"
_symmetry_group_IT_number 53
_symmetry_cell_setting 'orthorhombic'
loop_
_space_group_symop_operation_xyz
x,y,z
1/2-x,-y,1/2+z
x,-y,-z
1/2-x,y,1/2-z
-x,-y,-z
1/2+x,y,1/2-z
-x,y,z
1/2+x,-y,1/2+z
loop_
_atom_site_type_symbol
_atom_site_label
_atom_site_fract_x
_atom_site_fract_y
_atom_site_fract_z
Si Si1 0.829593 0.019298 0.396970
Si Si2 0.180683 0.677314 0.532326
Si Si3 0.819887 0.519810 0.099864
Si Si4 0.319085 0.415664 0.161562
Si Si5 0.180729 0.123933 0.044250
Si Si6 0.681394 0.367771 0.845867
Si Si7 0.181023 0.086616 0.842117
Si Si8 0.182163 0.223342 0.352413
O O1 0.726617 0.072499 0.395146
O O2 0.000000 0.030356 0.355705
O O3 0.847320 0.000000 0.500000
O O4 0.744752 0.973649 0.339456
O O5 0.227649 0.620057 0.574211
O O6 0.235811 0.673945 0.425705
O O7 0.252164 0.725994 0.590966
O O8 0.000000 0.684838 0.537104
O O9 0.770045 0.471714 0.165230
O O10 0.733793 0.572663 0.131265
O O11 0.000000 0.530901 0.105338
O O12 0.764911 0.500000 0.000000
O O13 0.250000 0.384312 0.250000
O O14 0.500000 0.424651 0.167706
O O15 0.272757 0.172772 0.086743
O O16 0.000000 0.133463 0.053698
O O17 0.229447 0.117101 0.936390
O O18 0.750000 0.346921 0.750000
O O19 0.500000 0.368662 0.838146
O O20 0.250000 0.115456 0.750000
O O21 0.000000 0.084741 0.834479
O O22 0.250000 0.221036 0.250000
O O23 0.000000 0.226241 0.342859
#
# Coordination Sequence:
#
# PCOD8220140 Si02
#       8
#     8   8   8   8   8   8   8   8
#     4   9  17  31  53  81 114 153 195 238 286 339
#     4   9  21  40  62  84 112 147 186 233 287 341
#     4  11  22  36  55  84 117 151 191 232 277 333
#     4  11  21  36  57  83 113 149 186 227 279 336
#     4  10  21  38  58  85 119 156 197 244 294 346
#     4  11  22  40  62  86 116 153 193 233 284 341
#     4  10  20  34  55  84 121 160 199 241 287 342
#     4  11  23  42  65  89 114 146 188 239 295 349
#
# _framework density 20.233702000000001
#
# number of rings (size 3 to 8) (size 9 to 14) (size 15 to 20)
#    0.000    1.750    1.250    3.375    0.000    4.000 
#    0.000    7.500    0.000    3.000    0.000    0.000 
#    0.000    0.000    0.000    0.000    0.000    0.000 
#
# Total GULP energy -793347.998870 kJ/mol
# GULP energy per Si atom -12396.062482 kJ/mol
# Density = 2.018765 g / cm^3
# Si number density = 20.233702 Si / 1000 Ang^3
#
#
#
# Elastic Constant Matrix: (Units=GPa)
#
#
# Indices 1 2 3 4 5 6 
#
# 1 71.1747 21.7966 44.7944 0.0000 0.0000 0.0000
# 2 21.7966 94.4707 53.7940 0.0000 0.0000 0.0000
# 3 44.7944 53.7940 157.9480 0.0000 0.0000 0.0000
# 4 0.0000 0.0000 0.0000 17.8928 0.0000 0.0000
# 5 0.0000 0.0000 0.0000 0.0000 32.4380 0.0000
# 6 0.0000 0.0000 0.0000 0.0000 0.0000 10.0463
#
#
#
# Elastic Compliance Matrix: (Units=1/GPa)
#
#
# Indices 1 2 3 4 5 6 
#
# 1 0.017268 -0.001483 -0.004392 0.000000 0.000000 0.000000
# 2 -0.001483 0.013259 -0.004095 0.000000 0.000000 0.000000
# 3 -0.004392 -0.004095 0.008972 0.000000 0.000000 0.000000
# 4 0.000000 0.000000 0.000000 0.055888 0.000000 0.000000
# 5 0.000000 0.000000 0.000000 0.000000 0.030828 0.000000
# 6 0.000000 0.000000 0.000000 0.000000 0.000000 0.099539
#
#
# Mechanical properties :
#
#
# Convention : Reuss Voigt Hill
#
# Bulk Modulus (GPa) = 51.12961 62.70704 56.91833
# Shear Modulus (GPa) = 19.82430 25.62264 22.72347
#
# Velocity S-wave (km/s) = 3.13352 3.56242 3.35483
# Velocity P-wave (km/s) = 6.19809 6.92674 6.57252
#
# Compressibility (1/GPa) = 0.01955814
#
# Stress axis : x y z
#
# Youngs Moduli (GPa) = 57.90911 75.41787 111.46257
#
# Poissons Ratio (x) = 0.11186 0.48957
# Poissons Ratio (y) = 0.08589 0.45647
# Poissons Ratio (z) = 0.25435 0.30886
#
# Static dielectric constant tensor:
#      x y z
#    x 3.624250 0.000000 0.000000 
#    y 0.000000 3.587880 0.000000 
#    z 0.000000 0.000000 4.809910 
# 
# 
# High freq. dielectric constant tensor:
#      x y z
#    x 1.789050 0.000000 0.000000 
#    y 0.000000 1.767360 0.000000 
#    z 0.000000 0.000000 1.808490 
# 
# From -- ./inp_files/21006.got.cif
#   From: 2010.03.12/outbox.cif.g09.slc.cpg/sg53_11_cif.got.tgz:21006.got - 2010.04.16 14:36:59.
