data_PCOD8220543
_publ_section_title
;
Structure prediction by ZEFSAII (Michael W. Deem and Ramdas Pophale) SiO2 
 PCOD8220543
Probable space group: P M N A
;
_chemical_formula_sum "Si O2"
_cell_formula_units_Z 48
_cell_length_a 8.467375
_cell_length_b 30.571071
_cell_length_c 9.398528
_cell_angle_alpha 90.000000
_cell_angle_beta 90.000000
_cell_angle_gamma 90.000000
_cell_volume 2432.872153
_symmetry_space_group_name_H-M "P M N A"
_symmetry_group_IT_number 53
_symmetry_cell_setting 'orthorhombic'
loop_
_space_group_symop_operation_xyz
x,y,z
1/2-x,-y,1/2+z
x,-y,-z
1/2-x,y,1/2-z
-x,-y,-z
1/2+x,y,1/2-z
-x,y,z
1/2+x,-y,1/2+z
loop_
_atom_site_type_symbol
_atom_site_label
_atom_site_fract_x
_atom_site_fract_y
_atom_site_fract_z
Si Si1 0.686253 0.459562 0.091316
Si Si2 0.814531 0.883562 0.905220
Si Si3 0.313666 0.040482 0.907575
Si Si4 0.687390 0.376948 0.906683
Si Si5 0.686356 0.714518 0.408038
Si Si6 0.684893 0.210285 0.099419
O O1 0.750000 0.460790 0.250000
O O2 0.500000 0.463203 0.098816
O O3 0.755707 0.500000 0.000000
O O4 0.738831 0.415102 0.013828
O O5 0.750000 0.896278 0.750000
O O6 0.770327 0.834225 0.947809
O O7 0.000000 0.889438 0.903141
O O8 0.742558 0.914302 0.025085
O O9 0.250000 0.035504 0.750000
O O10 0.500000 0.040022 0.902745
O O11 0.247803 0.000000 0.000000
O O12 0.750000 0.388742 0.750000
O O13 0.500000 0.370283 0.898902
O O14 0.768748 0.333161 0.969295
O O15 0.750000 0.716308 0.250000
O O16 0.500000 0.722580 0.417302
O O17 0.779691 0.751952 0.488956
O O18 0.750000 0.226599 0.250000
O O19 0.500000 0.200814 0.110258
#
# Coordination Sequence:
#
# PCOD8220543 Si02
#       6
#     8   8   8   8   8   8
#     4  10  22  38  57  83 113 146 186 231 279 335
#     4  11  22  39  62  88 119 155 195 239 290 344
#     4  11  24  41  62  89 120 155 196 241 290 344
#     4  10  20  36  57  82 112 147 189 234 283 338
#     4  11  22  38  59  85 116 152 193 237 288 341
#     4  11  22  39  61  87 118 153 194 238 288 343
#
# _framework density 19.729768
#
# number of rings (size 3 to 8) (size 9 to 14) (size 15 to 20)
#    0.000    1.333    0.000    8.500    0.000    5.667 
#    0.000    5.000    0.000    0.000    0.000    0.000 
#    0.000    0.000    0.000    0.000    0.000    0.000 
#
# Total GULP energy -595402.959776 kJ/mol
# GULP energy per Si atom -12404.228329 kJ/mol
# Density = 1.968486 g / cm^3
# Si number density = 19.729768 Si / 1000 Ang^3
#
#
#
# Elastic Constant Matrix: (Units=GPa)
#
#
# Indices 1 2 3 4 5 6 
#
# 1 45.1647 9.0199 24.5966 0.0000 0.0000 0.0000
# 2 9.0199 121.8614 79.6956 0.0000 0.0000 0.0000
# 3 24.5966 79.6956 122.8578 0.0000 0.0000 0.0000
# 4 0.0000 0.0000 0.0000 87.6521 0.0000 0.0000
# 5 0.0000 0.0000 0.0000 0.0000 36.2934 0.0000
# 6 0.0000 0.0000 0.0000 0.0000 0.0000 4.2681
#
#
#
# Elastic Compliance Matrix: (Units=1/GPa)
#
#
# Indices 1 2 3 4 5 6 
#
# 1 0.025281 0.002499 -0.006682 0.000000 0.000000 0.000000
# 2 0.002499 0.014499 -0.009906 0.000000 0.000000 0.000000
# 3 -0.006682 -0.009906 0.015903 0.000000 0.000000 0.000000
# 4 0.000000 0.000000 0.000000 0.011409 0.000000 0.000000
# 5 0.000000 0.000000 0.000000 0.000000 0.027553 0.000000
# 6 0.000000 0.000000 0.000000 0.000000 0.000000 0.234298
#
#
# Mechanical properties :
#
#
# Convention : Reuss Voigt Hill
#
# Bulk Modulus (GPa) = 36.35673 57.38980 46.87326
# Shear Modulus (GPa) = 13.65036 37.41416 25.53226
#
# Velocity S-wave (km/s) = 2.63319 4.35941 3.60126
# Velocity P-wave (km/s) = 5.26424 7.38176 6.41103
#
# Compressibility (1/GPa) = 0.02750523
#
# Stress axis : x y z
#
# Youngs Moduli (GPa) = 39.55479 68.96894 62.88113
#
# Poissons Ratio (x) = -0.17235 0.42020
# Poissons Ratio (y) = -0.09885 0.62288
# Poissons Ratio (z) = 0.26432 0.68319
#
# Static dielectric constant tensor:
#      x y z
#    x 3.713740 0.000000 0.000000 
#    y 0.000000 3.885740 0.000000 
#    z 0.000000 0.000000 3.583430 
# 
# 
# High freq. dielectric constant tensor:
#      x y z
#    x 1.783570 0.000000 0.000000 
#    y 0.000000 1.785570 0.000000 
#    z 0.000000 0.000000 1.768880 
# 
# From -- ./inp_files/6736.got.cif
#   From: 2010.03.12/outbox.cif.g09.slc.cpg/sg53_4_cif.got.tgz:6736.got - 2010.04.16 14:36:59.
