data_PCOD8220632
_publ_section_title
;
Structure prediction by ZEFSAII (Michael W. Deem and Ramdas Pophale) SiO2 
 PCOD8220632
Probable space group: P M N A
;
_chemical_formula_sum "Si O2"
_cell_formula_units_Z 48
_cell_length_a 8.821479
_cell_length_b 9.731873
_cell_length_c 29.392063
_cell_angle_alpha 90.000000
_cell_angle_beta 90.000000
_cell_angle_gamma 90.000000
_cell_volume 2523.294303
_symmetry_space_group_name_H-M "P M N A"
_symmetry_group_IT_number 53
_symmetry_cell_setting 'orthorhombic'
loop_
_space_group_symop_operation_xyz
x,y,z
1/2-x,-y,1/2+z
x,-y,-z
1/2-x,y,1/2-z
-x,-y,-z
1/2+x,y,1/2-z
-x,y,z
1/2+x,-y,1/2+z
loop_
_atom_site_type_symbol
_atom_site_label
_atom_site_fract_x
_atom_site_fract_y
_atom_site_fract_z
Si Si1 0.178288 0.636545 0.523018
Si Si2 0.822360 0.783998 0.203503
Si Si3 0.679614 0.009249 0.625699
Si Si4 0.680360 0.287141 0.123242
Si Si5 0.320241 0.470975 0.298009
Si Si6 0.831804 0.868878 0.031204
O O1 0.248982 0.500000 0.500000
O O2 0.242146 0.661325 0.573985
O O3 0.216901 0.761462 0.490077
O O4 0.000000 0.622842 0.526460
O O5 0.750000 0.836271 0.250000
O O6 0.772135 0.628382 0.191948
O O7 0.000000 0.790471 0.209433
O O8 0.766723 0.887856 0.164980
O O9 0.500000 0.980000 0.625870
O O10 0.768161 0.868013 0.631747
O O11 0.731476 0.084377 0.579767
O O12 0.500000 0.295906 0.126205
O O13 0.753005 0.381475 0.161591
O O14 0.250000 0.422227 0.250000
O O15 0.500000 0.451379 0.295923
O O16 0.000000 0.803021 0.035780
O O17 0.840666 0.000000 0.000000
#
# Coordination Sequence:
#
# PCOD8220632 Si02
#       6
#     8   8   8   8   8   8
#     4  10  23  40  56  81 117 154 192 236 285 339
#     4   9  20  38  60  85 113 144 183 229 281 338
#     4  10  21  38  58  84 116 149 187 237 289 339
#     4  11  23  38  57  84 116 152 194 234 281 339
#     4  10  21  39  62  86 114 148 186 232 285 338
#     4  10  20  36  59  84 112 148 191 235 283 338
#
# _framework density 19.022752000000001
#
# number of rings (size 3 to 8) (size 9 to 14) (size 15 to 20)
#    0.000    2.000    1.667    1.000    2.333    4.000 
#    0.000    1.667    0.000    0.000    0.000    0.000 
#    0.000    0.000    0.000    0.000    0.000    0.000 
#
# Total GULP energy -595265.100664 kJ/mol
# GULP energy per Si atom -12401.356264 kJ/mol
# Density = 1.897946 g / cm^3
# Si number density = 19.022752 Si / 1000 Ang^3
#
#
#
# Elastic Constant Matrix: (Units=GPa)
#
#
# Indices 1 2 3 4 5 6 
#
# 1 41.8009 35.3549 42.7582 0.0000 0.0000 0.0000
# 2 35.3549 121.4027 96.9781 0.0000 0.0000 0.0000
# 3 42.7582 96.9781 186.8354 0.0000 0.0000 0.0000
# 4 0.0000 0.0000 0.0000 47.8385 0.0000 0.0000
# 5 0.0000 0.0000 0.0000 0.0000 33.3314 0.0000
# 6 0.0000 0.0000 0.0000 0.0000 0.0000 32.1528
#
#
#
# Elastic Compliance Matrix: (Units=1/GPa)
#
#
# Indices 1 2 3 4 5 6 
#
# 1 0.033809 -0.006261 -0.004487 0.000000 0.000000 0.000000
# 2 -0.006261 0.015231 -0.006473 0.000000 0.000000 0.000000
# 3 -0.004487 -0.006473 0.009739 0.000000 0.000000 0.000000
# 4 0.000000 0.000000 0.000000 0.020904 0.000000 0.000000
# 5 0.000000 0.000000 0.000000 0.000000 0.030002 0.000000
# 6 0.000000 0.000000 0.000000 0.000000 0.000000 0.031101
#
#
# Mechanical properties :
#
#
# Convention : Reuss Voigt Hill
#
# Bulk Modulus (GPa) = 41.09143 77.80235 59.44689
# Shear Modulus (GPa) = 27.27164 34.32773 30.79969
#
# Velocity S-wave (km/s) = 3.79044 4.25262 4.02817
# Velocity P-wave (km/s) = 6.38786 8.06855 7.27689
#
# Compressibility (1/GPa) = 0.02433598
#
# Stress axis : x y z
#
# Youngs Moduli (GPa) = 29.57809 65.65540 102.67952
#
# Poissons Ratio (x) = 0.41108 0.46076
# Poissons Ratio (y) = 0.18519 0.66463
# Poissons Ratio (z) = 0.13273 0.42498
#
# Static dielectric constant tensor:
#      x y z
#    x 3.411670 0.000000 0.000000 
#    y 0.000000 3.575930 0.000000 
#    z 0.000000 0.000000 3.743440 
# 
# 
# High freq. dielectric constant tensor:
#      x y z
#    x 1.732340 0.000000 0.000000 
#    y 0.000000 1.743250 0.000000 
#    z 0.000000 0.000000 1.754830 
# 
# From -- ./inp_files/37671.got.cif
#   From: 2010.03.12/outbox.cif.g09.slc.cpg/sg53_19_cif.got.tgz:37671.got - 2010.04.16 14:36:59.
