data_PCOD8220650
_publ_section_title
;
Structure prediction by ZEFSAII (Michael W. Deem and Ramdas Pophale) SiO2 
 PCOD8220650
Probable space group: P M N A
;
_chemical_formula_sum "Si O2"
_cell_formula_units_Z 56
_cell_length_a 9.256304
_cell_length_b 14.606178
_cell_length_c 19.994113
_cell_angle_alpha 90.000000
_cell_angle_beta 90.000000
_cell_angle_gamma 90.000000
_cell_volume 2703.188559
_symmetry_space_group_name_H-M "P M N A"
_symmetry_group_IT_number 53
_symmetry_cell_setting 'orthorhombic'
loop_
_space_group_symop_operation_xyz
x,y,z
1/2-x,-y,1/2+z
x,-y,-z
1/2-x,y,1/2-z
-x,-y,-z
1/2+x,y,1/2-z
-x,y,z
1/2+x,-y,1/2+z
loop_
_atom_site_type_symbol
_atom_site_label
_atom_site_fract_x
_atom_site_fract_y
_atom_site_fract_z
Si Si1 0.336116 0.324977 0.357337
Si Si2 0.338820 0.523170 0.311344
Si Si3 0.669911 0.999219 0.076127
Si Si4 0.839658 0.398384 0.476530
Si Si5 0.172074 0.846959 0.319792
Si Si6 0.171552 0.148312 0.315991
Si Si7 0.160133 0.657299 0.382374
O O1 0.500000 0.287063 0.363367
O O2 0.332755 0.413784 0.310307
O O3 0.281471 0.357367 0.429071
O O4 0.230611 0.250399 0.325841
O O5 0.250000 0.564405 0.250000
O O6 0.500000 0.560410 0.307038
O O7 0.262990 0.568827 0.375037
O O8 0.500000 0.989576 0.068453
O O9 0.710068 0.091320 0.117137
O O10 0.726913 0.915267 0.121596
O O11 0.736919 0.000000 0.000000
O O12 0.797233 0.500000 0.500000
O O13 0.844559 0.326914 0.538159
O O14 0.000000 0.400773 0.442523
O O15 0.250000 0.870683 0.250000
O O16 0.219281 0.746364 0.344136
O O17 0.000000 0.856326 0.309716
O O18 0.250000 0.106078 0.250000
O O19 0.000000 0.150635 0.303046
O O20 0.000000 0.633488 0.355655
#
# Coordination Sequence:
#
# PCOD8220650 Si02
#       7
#     8   8   8   8   8   8   8
#     4  11  24  39  58  86 121 160 203 251 304 362
#     4  11  23  37  55  79 113 155 198 245 295 351
#     4   9  20  39  65  94 121 154 198 246 298 361
#     4  10  20  36  59  86 117 158 205 252 302 358
#     4  10  21  38  62  90 121 156 196 243 295 357
#     4  11  23  40  66  93 122 160 203 254 308 367
#     4  10  21  36  58  87 118 154 199 245 293 355
#
# _framework density 20.716277000000002
#
# number of rings (size 3 to 8) (size 9 to 14) (size 15 to 20)
#    0.000    1.714    1.429    2.571    2.000    5.429 
#    0.000    0.714    0.000    2.143    0.000    0.000 
#    0.000    0.000    0.000    0.000    0.000    0.000 
#
# Total GULP energy -694154.110279 kJ/mol
# GULP energy per Si atom -12395.609112 kJ/mol
# Density = 2.066913 g / cm^3
# Si number density = 20.716277 Si / 1000 Ang^3
#
#
#
# Elastic Constant Matrix: (Units=GPa)
#
#
# Indices 1 2 3 4 5 6 
#
# 1 98.1849 36.2898 44.4951 0.0000 0.0000 0.0000
# 2 36.2898 82.7861 33.4318 0.0000 0.0000 0.0000
# 3 44.4951 33.4318 131.1318 0.0000 0.0000 0.0000
# 4 0.0000 0.0000 0.0000 33.7265 0.0000 0.0000
# 5 0.0000 0.0000 0.0000 0.0000 31.8455 0.0000
# 6 0.0000 0.0000 0.0000 0.0000 0.0000 5.7235
#
#
#
# Elastic Compliance Matrix: (Units=1/GPa)
#
#
# Indices 1 2 3 4 5 6 
#
# 1 0.013386 -0.004496 -0.003396 0.000000 0.000000 0.000000
# 2 -0.004496 0.014976 -0.002292 0.000000 0.000000 0.000000
# 3 -0.003396 -0.002292 0.009363 0.000000 0.000000 0.000000
# 4 0.000000 0.000000 0.000000 0.029650 0.000000 0.000000
# 5 0.000000 0.000000 0.000000 0.000000 0.031402 0.000000
# 6 0.000000 0.000000 0.000000 0.000000 0.000000 0.174719
#
#
# Mechanical properties :
#
#
# Convention : Reuss Voigt Hill
#
# Bulk Modulus (GPa) = 57.61901 60.05958 58.83929
# Shear Modulus (GPa) = 16.68616 27.45150 22.06883
#
# Velocity S-wave (km/s) = 2.84114 3.64417 3.26742
# Velocity P-wave (km/s) = 6.21583 6.83820 6.53443
#
# Compressibility (1/GPa) = 0.01735538
#
# Stress axis : x y z
#
# Youngs Moduli (GPa) = 74.70733 66.77304 106.80863
#
# Poissons Ratio (x) = 0.30024 0.36268
# Poissons Ratio (y) = 0.33591 0.24485
# Poissons Ratio (z) = 0.25367 0.15307
#
# Static dielectric constant tensor:
#      x y z
#    x 3.618780 0.000000 0.000000 
#    y 0.000000 3.728340 0.000000 
#    z 0.000000 0.000000 4.023290 
# 
# 
# High freq. dielectric constant tensor:
#      x y z
#    x 1.792100 0.000000 0.000000 
#    y 0.000000 1.806660 0.000000 
#    z 0.000000 0.000000 1.820480 
# 
# From -- ./inp_files/30758.got.cif
#   From: 2010.03.12/outbox.cif.g09.slc.cpg/sg53_16_cif.got.tgz:30758.got - 2010.04.16 14:36:59.
