data_PCOD8220484
_publ_section_title
;
Structure prediction by ZEFSAII (Michael W. Deem and Ramdas Pophale) SiO2 
 PCOD8220484
Probable space group: P M N A
;
_chemical_formula_sum "Si O2"
_cell_formula_units_Z 64
_cell_length_a 22.691211
_cell_length_b 5.065438
_cell_length_c 26.830515
_cell_angle_alpha 90.000000
_cell_angle_beta 90.000000
_cell_angle_gamma 90.000000
_cell_volume 3083.924144
_symmetry_space_group_name_H-M "P M N A"
_symmetry_group_IT_number 53
_symmetry_cell_setting 'orthorhombic'
loop_
_space_group_symop_operation_xyz
x,y,z
1/2-x,-y,1/2+z
x,-y,-z
1/2-x,y,1/2-z
-x,-y,-z
1/2+x,y,1/2-z
-x,y,z
1/2+x,-y,1/2+z
loop_
_atom_site_type_symbol
_atom_site_label
_atom_site_fract_x
_atom_site_fract_y
_atom_site_fract_z
Si Si1 0.190820 0.727145 0.137645
Si Si2 0.874028 0.196089 0.320915
Si Si3 0.244135 0.746128 0.467219
Si Si4 0.741510 0.222617 0.309202
Si Si5 0.434888 0.181513 0.659717
Si Si6 0.064666 0.681471 0.776308
Si Si7 0.933440 0.305455 0.638663
Si Si8 0.893233 0.746845 0.468336
O O1 0.223198 0.753795 0.085297
O O2 0.203253 0.454041 0.166033
O O3 0.120799 0.751485 0.124461
O O4 0.209574 0.950527 0.177069
O O5 0.805699 0.223283 0.334707
O O6 0.883955 0.266501 0.263148
O O7 0.909737 0.397414 0.355615
O O8 0.894092 0.896338 0.329650
O O9 0.265666 0.500000 0.500000
O O10 0.175405 0.726339 0.454287
O O11 0.259552 0.000000 0.500000
O O12 0.750000 0.252688 0.250000
O O13 0.500000 0.217333 0.633847
O O14 0.430408 0.379333 0.706535
O O15 0.427907 0.880496 0.677605
O O16 0.000000 0.726243 0.751652
O O17 0.931618 0.231038 0.581039
O O18 0.000000 0.289436 0.658506
O O19 0.914784 0.500000 0.500000
O O20 0.907961 0.000000 0.500000
#
# Coordination Sequence:
#
# PCOD8220484 Si02
#       8
#     8   8   8   8   8   8   8   8
#     4  12  23  40  62  89 122 155 195 244 297 351
#     4  12  23  39  56  80 118 151 189 239 287 332
#     4  10  21  38  61  87 113 149 197 244 295 352
#     4  12  25  39  60  90 124 161 198 241 297 357
#     4  10  21  37  59  85 115 152 192 229 274 339
#     4  10  20  36  56  79 112 157 199 231 269 328
#     4  12  25  39  58  84 111 149 195 236 288 344
#     4  10  21  38  58  78 105 140 183 236 288 339
#
# _framework density 20.752780999999999
#
# number of rings (size 3 to 8) (size 9 to 14) (size 15 to 20)
#    0.000    1.000    0.000    8.250    0.000    3.500 
#    0.000    0.000    0.000    0.750    0.000    0.000 
#    0.000    0.000    0.000    0.000    0.000    0.000 
#
# Total GULP energy -793754.655128 kJ/mol
# GULP energy per Si atom -12402.416486 kJ/mol
# Density = 2.070555 g / cm^3
# Si number density = 20.752781 Si / 1000 Ang^3
#
#
#
# Elastic Constant Matrix: (Units=GPa)
#
#
# Indices 1 2 3 4 5 6 
#
# 1 108.0787 19.2066 5.4906 0.0000 0.0000 0.0000
# 2 19.2066 108.2914 18.3472 0.0000 0.0000 0.0000
# 3 5.4906 18.3472 67.3197 0.0000 0.0000 0.0000
# 4 0.0000 0.0000 0.0000 16.4627 0.0000 0.0000
# 5 0.0000 0.0000 0.0000 0.0000 34.5351 0.0000
# 6 0.0000 0.0000 0.0000 0.0000 0.0000 37.4960
#
#
#
# Elastic Compliance Matrix: (Units=1/GPa)
#
#
# Indices 1 2 3 4 5 6 
#
# 1 0.009561 -0.001639 -0.000333 0.000000 0.000000 0.000000
# 2 -0.001639 0.009962 -0.002581 0.000000 0.000000 0.000000
# 3 -0.000333 -0.002581 0.015585 0.000000 0.000000 0.000000
# 4 0.000000 0.000000 0.000000 0.060743 0.000000 0.000000
# 5 0.000000 0.000000 0.000000 0.000000 0.028956 0.000000
# 6 0.000000 0.000000 0.000000 0.000000 0.000000 0.026670
#
#
# Mechanical properties :
#
#
# Convention : Reuss Voigt Hill
#
# Bulk Modulus (GPa) = 38.46018 41.08652 39.77335
# Shear Modulus (GPa) = 29.54179 33.74178 31.64179
#
# Velocity S-wave (km/s) = 3.77704 4.03661 3.90898
# Velocity P-wave (km/s) = 6.13140 6.44722 6.29130
#
# Compressibility (1/GPa) = 0.02600092
#
# Stress axis : x y z
#
# Youngs Moduli (GPa) = 104.59433 100.37690 64.16345
#
# Poissons Ratio (x) = 0.16455 0.02137
# Poissons Ratio (y) = 0.17146 0.16564
# Poissons Ratio (z) = 0.03483 0.25912
#
# Static dielectric constant tensor:
#      x y z
#    x 4.085520 0.000000 0.000000 
#    y 0.000000 3.877430 0.000000 
#    z 0.000000 0.000000 3.369580 
# 
# 
# High freq. dielectric constant tensor:
#      x y z
#    x 1.822260 0.000000 0.000000 
#    y 0.000000 1.834100 0.000000 
#    z 0.000000 0.000000 1.779610 
# 
# From -- ./inp_files/35728.got.cif
#   From: 2010.03.12/outbox.cif.g09.slc.cpg/sg53_18_cif.got.tgz:35728.got - 2010.04.16 14:36:59.
