data_PCOD8220210
_publ_section_title
;
Structure prediction by ZEFSAII (Michael W. Deem and Ramdas Pophale) SiO2 
 PCOD8220210
Probable space group: P M N A
;
_chemical_formula_sum "Si O2"
_cell_formula_units_Z 64
_cell_length_a 8.731712
_cell_length_b 18.339348
_cell_length_c 23.239760
_cell_angle_alpha 90.000000
_cell_angle_beta 90.000000
_cell_angle_gamma 90.000000
_cell_volume 3721.473520
_symmetry_space_group_name_H-M "P M N A"
_symmetry_group_IT_number 53
_symmetry_cell_setting 'orthorhombic'
loop_
_space_group_symop_operation_xyz
x,y,z
1/2-x,-y,1/2+z
x,-y,-z
1/2-x,y,1/2-z
-x,-y,-z
1/2+x,y,1/2-z
-x,y,z
1/2+x,-y,1/2+z
loop_
_atom_site_type_symbol
_atom_site_label
_atom_site_fract_x
_atom_site_fract_y
_atom_site_fract_z
Si Si1 0.819857 0.084207 0.000312
Si Si2 0.181181 0.411839 0.313273
Si Si3 0.180241 0.725024 0.312895
Si Si4 0.180908 0.137600 0.615783
Si Si5 0.819091 0.863584 0.614656
Si Si6 0.178653 0.432681 0.688158
Si Si7 0.819048 0.734132 0.813557
Si Si8 0.821271 0.000150 0.311472
O O1 0.777154 0.123149 0.941094
O O2 0.000000 0.089391 0.011513
O O3 0.730441 0.129290 0.048717
O O4 0.764792 0.000000 0.000000
O O5 0.250000 0.416123 0.250000
O O6 0.220837 0.490544 0.344479
O O7 0.261628 0.342143 0.342709
O O8 0.000000 0.397953 0.311108
O O9 0.250000 0.737974 0.250000
O O10 0.236560 0.785289 0.358253
O O11 0.226599 0.645122 0.340206
O O12 0.000000 0.732581 0.304792
O O13 0.227267 0.077292 0.662715
O O14 0.000000 0.135167 0.601844
O O15 0.733397 0.796504 0.643504
O O16 0.000000 0.851346 0.618917
O O17 0.762870 0.936758 0.646247
O O18 0.250000 0.434225 0.750000
O O19 0.000000 0.432616 0.698291
O O20 0.750000 0.746327 0.750000
O O21 0.000000 0.733954 0.807874
O O22 0.750000 0.012447 0.250000
O O23 0.000000 0.005880 0.303450
#
# Coordination Sequence:
#
# PCOD8220210 Si02
#       8
#     8   8   8   8   8   8   8   8
#     4  11  23  38  56  76  95 123 165 215 257 294
#     4   9  15  25  42  65  96 132 168 200 239 287
#     4   9  17  29  47  72 104 136 167 203 246 292
#     4  10  20  35  52  72  98 132 168 204 247 295
#     4  11  22  37  55  73  97 130 167 207 253 299
#     4   8  14  24  40  65  96 131 166 200 236 285
#     4  11  21  33  49  73 105 135 168 205 248 298
#     4  10  21  33  49  72  98 129 162 196 238 291
#
# _framework density 17.197489999999998
#
# number of rings (size 3 to 8) (size 9 to 14) (size 15 to 20)
#    0.000    2.125    1.250    3.750    0.000    4.000 
#    0.000    0.000    0.000    0.000    0.000    0.875 
#    0.000    7.000    0.000    0.000    0.000    0.000 
#
# Total GULP energy -793044.784342 kJ/mol
# GULP energy per Si atom -12391.324755 kJ/mol
# Density = 1.715835 g / cm^3
# Si number density = 17.197490 Si / 1000 Ang^3
#
#
#
# Elastic Constant Matrix: (Units=GPa)
#
#
# Indices 1 2 3 4 5 6 
#
# 1 60.7553 46.6356 27.0673 0.0000 0.0000 0.0000
# 2 46.6356 150.9533 30.8894 0.0000 0.0000 0.0000
# 3 27.0673 30.8894 62.5026 0.0000 0.0000 0.0000
# 4 0.0000 0.0000 0.0000 12.4138 0.0000 0.0000
# 5 0.0000 0.0000 0.0000 0.0000 25.2431 0.0000
# 6 0.0000 0.0000 0.0000 0.0000 0.0000 0.0960
#
#
#
# Elastic Compliance Matrix: (Units=1/GPa)
#
#
# Indices 1 2 3 4 5 6 
#
# 1 0.024461 -0.005996 -0.007630 0.000000 0.000000 0.000000
# 2 -0.005996 0.008839 -0.001772 0.000000 0.000000 0.000000
# 3 -0.007630 -0.001772 0.020179 0.000000 0.000000 0.000000
# 4 0.000000 0.000000 0.000000 0.080556 0.000000 0.000000
# 5 0.000000 0.000000 0.000000 0.000000 0.039615 0.000000
# 6 0.000000 0.000000 0.000000 0.000000 0.000000 10.412678
#
#
# Mechanical properties :
#
#
# Convention : Reuss Voigt Hill
#
# Bulk Modulus (GPa) = 44.08312 53.71064 48.89688
# Shear Modulus (GPa) = 0.47060 18.85851 9.66456
#
# Velocity S-wave (km/s) = 0.52368 3.31507 2.37317
# Velocity P-wave (km/s) = 5.10439 6.77882 6.00030
#
# Compressibility (1/GPa) = 0.02268442
#
# Stress axis : x y z
#
# Youngs Moduli (GPa) = 40.88137 113.12858 49.55568
#
# Poissons Ratio (x) = 0.67829 0.37811
# Poissons Ratio (y) = 0.24511 0.08782
# Poissons Ratio (z) = 0.31192 0.20047
#
# Static dielectric constant tensor:
#      x y z
#    x 3.621650 0.000000 0.000000 
#    y 0.000000 4.142480 0.000000 
#    z 0.000000 0.000000 2.813050 
# 
# 
# High freq. dielectric constant tensor:
#      x y z
#    x 1.669590 0.000000 0.000000 
#    y 0.000000 1.687530 0.000000 
#    z 0.000000 0.000000 1.616600 
# 
# From -- ./inp_files/34490.got.cif
#   From: 2010.03.12/outbox.cif.g09.slc.cpg/sg53_18_cif.got.tgz:34490.got - 2010.04.16 14:36:59.
