data_PCOD8220741
_publ_section_title
;
Structure prediction by ZEFSAII (Michael W. Deem and Ramdas Pophale) SiO2 
 PCOD8220741
Probable space group: P M N A
;
_chemical_formula_sum "Si O2"
_cell_formula_units_Z 48
_cell_length_a 8.551035
_cell_length_b 9.584247
_cell_length_c 30.772779
_cell_angle_alpha 90.000000
_cell_angle_beta 90.000000
_cell_angle_gamma 90.000000
_cell_volume 2521.990228
_symmetry_space_group_name_H-M "P M N A"
_symmetry_group_IT_number 53
_symmetry_cell_setting 'orthorhombic'
loop_
_space_group_symop_operation_xyz
x,y,z
1/2-x,-y,1/2+z
x,-y,-z
1/2-x,y,1/2-z
-x,-y,-z
1/2+x,y,1/2-z
-x,y,z
1/2+x,-y,1/2+z
loop_
_atom_site_type_symbol
_atom_site_label
_atom_site_fract_x
_atom_site_fract_y
_atom_site_fract_z
Si Si1 0.682200 0.711205 0.108951
Si Si2 0.317038 0.200377 0.297406
Si Si3 0.316504 0.435017 0.361664
Si Si4 0.182332 0.342937 0.985105
Si Si5 0.683598 0.229100 0.068959
Si Si6 0.683762 0.996825 0.626739
O O1 0.500000 0.743912 0.110850
O O2 0.721767 0.578990 0.139230
O O3 0.733443 0.680366 0.060233
O O4 0.775564 0.841268 0.128619
O O5 0.250000 0.182004 0.250000
O O6 0.500000 0.194823 0.293085
O O7 0.266493 0.347717 0.318931
O O8 0.259241 0.074318 0.328265
O O9 0.500000 0.468053 0.362907
O O10 0.276644 0.346561 0.404436
O O11 0.000000 0.308923 0.980099
O O12 0.213036 0.500000 0.000000
O O13 0.260221 0.237087 0.019273
O O14 0.500000 0.257470 0.072668
O O15 0.725780 0.075618 0.086690
O O16 0.500000 0.973152 0.619830
#
# Coordination Sequence:
#
# PCOD8220741 Si02
#       6
#     8   8   8   8   8   8
#     4  12  24  37  57  87 117 149 193 246 291 329
#     4   9  20  38  64  90 113 144 186 231 279 343
#     4  10  20  37  58  83 115 153 189 226 282 346
#     4  11  22  36  57  81 113 158 200 237 285 343
#     4  11  21  35  57  85 114 148 196 247 282 324
#     4  10  22  41  60  82 117 158 192 229 289 356
#
# _framework density 19.032588000000001
#
# number of rings (size 3 to 8) (size 9 to 14) (size 15 to 20)
#    0.000    1.500    1.667    5.500    0.000    5.333 
#    0.000    4.167    0.000    0.000    0.000    0.000 
#    0.000    0.000    0.000    0.000    0.000    0.000 
#
# Total GULP energy -595388.035691 kJ/mol
# GULP energy per Si atom -12403.917410 kJ/mol
# Density = 1.898927 g / cm^3
# Si number density = 19.032588 Si / 1000 Ang^3
#
#
#
# Elastic Constant Matrix: (Units=GPa)
#
#
# Indices 1 2 3 4 5 6 
#
# 1 55.9688 4.1885 16.9756 0.0000 0.0000 0.0000
# 2 4.1885 96.3836 28.8158 0.0000 0.0000 0.0000
# 3 16.9756 28.8158 94.1737 0.0000 0.0000 0.0000
# 4 0.0000 0.0000 0.0000 17.7570 0.0000 0.0000
# 5 0.0000 0.0000 0.0000 0.0000 31.8219 0.0000
# 6 0.0000 0.0000 0.0000 0.0000 0.0000 41.4740
#
#
#
# Elastic Compliance Matrix: (Units=1/GPa)
#
#
# Indices 1 2 3 4 5 6 
#
# 1 0.018905 0.000217 -0.003474 0.000000 0.000000 0.000000
# 2 0.000217 0.011422 -0.003534 0.000000 0.000000 0.000000
# 3 -0.003474 -0.003534 0.012326 0.000000 0.000000 0.000000
# 4 0.000000 0.000000 0.000000 0.056316 0.000000 0.000000
# 5 0.000000 0.000000 0.000000 0.000000 0.031425 0.000000
# 6 0.000000 0.000000 0.000000 0.000000 0.000000 0.024112
#
#
# Mechanical properties :
#
#
# Convention : Reuss Voigt Hill
#
# Bulk Modulus (GPa) = 34.39873 38.49843 36.44858
# Shear Modulus (GPa) = 28.12489 31.31365 29.71927
#
# Velocity S-wave (km/s) = 3.84829 4.06059 3.95586
# Velocity P-wave (km/s) = 6.15293 6.50046 6.32908
#
# Compressibility (1/GPa) = 0.02907084
#
# Stress axis : x y z
#
# Youngs Moduli (GPa) = 52.89726 87.54723 81.12704
#
# Poissons Ratio (x) = -0.01901 0.28185
# Poissons Ratio (y) = -0.01149 0.28672
# Poissons Ratio (z) = 0.18377 0.30941
#
# Static dielectric constant tensor:
#      x y z
#    x 3.507600 0.000000 0.000000 
#    y 0.000000 3.607960 0.000000 
#    z 0.000000 0.000000 2.868110 
# 
# 
# High freq. dielectric constant tensor:
#      x y z
#    x 1.750580 0.000000 0.000000 
#    y 0.000000 1.740270 0.000000 
#    z 0.000000 0.000000 1.726960 
# 
# From -- ./inp_files/37684.got.cif
#   From: 2010.03.12/outbox.cif.g09.slc.cpg/sg53_19_cif.got.tgz:37684.got - 2010.04.16 14:36:59.
