data_PCOD8220105
_publ_section_title
;
Structure prediction by ZEFSAII (Michael W. Deem and Ramdas Pophale) SiO2 
 PCOD8220105
Probable space group: P M N A
;
_chemical_formula_sum "Si O2"
_cell_formula_units_Z 64
_cell_length_a 8.910537
_cell_length_b 14.457590
_cell_length_c 24.702444
_cell_angle_alpha 90.000000
_cell_angle_beta 90.000000
_cell_angle_gamma 90.000000
_cell_volume 3182.289646
_symmetry_space_group_name_H-M "P M N A"
_symmetry_group_IT_number 53
_symmetry_cell_setting 'orthorhombic'
loop_
_space_group_symop_operation_xyz
x,y,z
1/2-x,-y,1/2+z
x,-y,-z
1/2-x,y,1/2-z
-x,-y,-z
1/2+x,y,1/2-z
-x,y,z
1/2+x,-y,1/2+z
loop_
_atom_site_type_symbol
_atom_site_label
_atom_site_fract_x
_atom_site_fract_y
_atom_site_fract_z
Si Si1 0.322003 0.783741 0.805806
Si Si2 0.831675 0.222185 0.010950
Si Si3 0.324169 0.516616 0.061541
Si Si4 0.325221 0.725023 0.093706
Si Si5 0.828687 0.348617 0.107528
Si Si6 0.828575 0.993216 0.668603
Si Si7 0.822671 0.178939 0.804330
Si Si8 0.669286 0.058693 0.051414
O O1 0.250000 0.748688 0.750000
O O2 0.500000 0.774816 0.803691
O O3 0.263503 0.718467 0.853386
O O4 0.274119 0.890543 0.815117
O O5 0.721385 0.218771 0.959798
O O6 0.000000 0.205450 0.989914
O O7 0.819964 0.315876 0.045136
O O8 0.783546 0.143678 0.053703
O O9 0.500000 0.496086 0.064301
O O10 0.284442 0.618844 0.082232
O O11 0.242635 0.450468 0.105066
O O12 0.266919 0.500000 0.000000
O O13 0.500000 0.741296 0.104412
O O14 0.235928 0.762375 0.145111
O O15 0.000000 0.353012 0.128143
O O16 0.813307 0.004639 0.604074
O O17 0.000000 0.010907 0.687306
O O18 0.721959 0.070520 0.693993
O O19 0.750000 0.222037 0.750000
O O20 0.000000 0.187733 0.801564
O O21 0.500000 0.097861 0.047860
O O22 0.715016 0.000000 0.000000
#
# Coordination Sequence:
#
# PCOD8220105 Si02
#       8
#     8   8   8   8   8   8   8   8
#     4  11  23  40  63  89 123 164 211 259 307 365
#     4  11  22  35  56  89 126 162 199 246 306 365
#     4  10  21  39  65  95 124 161 205 250 305 369
#     4  11  23  41  66  93 125 162 205 254 307 369
#     4  11  23  38  60  91 128 163 200 251 307 364
#     4  10  21  38  61  91 123 163 211 257 306 360
#     4  12  26  44  66  91 124 163 208 258 308 363
#     4  10  20  34  54  82 119 164 207 250 304 365
#
# _framework density 20.111305000000002
#
# number of rings (size 3 to 8) (size 9 to 14) (size 15 to 20)
#    0.000    1.250    2.500    3.750    0.000    6.000 
#    0.000    0.625    0.000    3.000    0.000    0.000 
#    0.000    0.000    0.000    0.000    0.000    0.000 
#
# Total GULP energy -793734.262373 kJ/mol
# GULP energy per Si atom -12402.097850 kJ/mol
# Density = 2.006553 g / cm^3
# Si number density = 20.111305 Si / 1000 Ang^3
#
#
#
# Elastic Constant Matrix: (Units=GPa)
#
#
# Indices 1 2 3 4 5 6 
#
# 1 109.8988 53.2286 44.9508 0.0000 0.0000 0.0000
# 2 53.2286 85.0616 36.5119 0.0000 0.0000 0.0000
# 3 44.9508 36.5119 106.0290 0.0000 0.0000 0.0000
# 4 0.0000 0.0000 0.0000 15.8172 0.0000 0.0000
# 5 0.0000 0.0000 0.0000 0.0000 32.0170 0.0000
# 6 0.0000 0.0000 0.0000 0.0000 0.0000 27.0321
#
#
#
# Elastic Compliance Matrix: (Units=1/GPa)
#
#
# Indices 1 2 3 4 5 6 
#
# 1 0.014048 -0.007316 -0.003436 0.000000 0.000000 0.000000
# 2 -0.007316 0.017605 -0.002961 0.000000 0.000000 0.000000
# 3 -0.003436 -0.002961 0.011908 0.000000 0.000000 0.000000
# 4 0.000000 0.000000 0.000000 0.063222 0.000000 0.000000
# 5 0.000000 0.000000 0.000000 0.000000 0.031233 0.000000
# 6 0.000000 0.000000 0.000000 0.000000 0.000000 0.036993
#
#
# Mechanical properties :
#
#
# Convention : Reuss Voigt Hill
#
# Bulk Modulus (GPa) = 61.97781 63.37466 62.67624
# Shear Modulus (GPa) = 24.05993 26.05982 25.05987
#
# Velocity S-wave (km/s) = 3.46256 3.60360 3.53379
# Velocity P-wave (km/s) = 6.84617 6.99249 6.91972
#
# Compressibility (1/GPa) = 0.01613481
#
# Stress axis : x y z
#
# Youngs Moduli (GPa) = 71.18347 56.80173 83.97797
#
# Poissons Ratio (x) = 0.41555 0.28859
# Poissons Ratio (y) = 0.52076 0.24865
# Poissons Ratio (z) = 0.24462 0.16819
#
# Static dielectric constant tensor:
#      x y z
#    x 3.603500 0.000000 0.000000 
#    y 0.000000 3.607600 0.000000 
#    z 0.000000 0.000000 3.703320 
# 
# 
# High freq. dielectric constant tensor:
#      x y z
#    x 1.787790 0.000000 0.000000 
#    y 0.000000 1.778180 0.000000 
#    z 0.000000 0.000000 1.787990 
# 
# From -- ./inp_files/34251.got.cif
#   From: 2010.03.12/outbox.cif.g09.slc.cpg/sg53_18_cif.got.tgz:34251.got - 2010.04.16 14:36:59.
