data_PCOD8220335
_publ_section_title
;
Structure prediction by ZEFSAII (Michael W. Deem and Ramdas Pophale) SiO2 
 PCOD8220335
Probable space group: P M N A
;
_chemical_formula_sum "Si O2"
_cell_formula_units_Z 64
_cell_length_a 9.809246
_cell_length_b 21.998614
_cell_length_c 15.578973
_cell_angle_alpha 90.000000
_cell_angle_beta 90.000000
_cell_angle_gamma 90.000000
_cell_volume 3361.783723
_symmetry_space_group_name_H-M "P M N A"
_symmetry_group_IT_number 53
_symmetry_cell_setting 'orthorhombic'
loop_
_space_group_symop_operation_xyz
x,y,z
1/2-x,-y,1/2+z
x,-y,-z
1/2-x,y,1/2-z
-x,-y,-z
1/2+x,y,1/2-z
-x,y,z
1/2+x,-y,1/2+z
loop_
_atom_site_type_symbol
_atom_site_label
_atom_site_fract_x
_atom_site_fract_y
_atom_site_fract_z
Si Si1 0.845453 0.732408 0.888630
Si Si2 0.158608 0.866135 0.829183
Si Si3 0.339530 0.857149 0.332491
Si Si4 0.844145 0.728739 0.087408
Si Si5 0.348152 0.371969 0.120421
Si Si6 0.158406 0.495235 0.672726
Si Si7 0.161717 0.931264 0.001515
Si Si8 0.649765 0.624502 0.081243
O O1 0.820985 0.794188 0.837561
O O2 0.751337 0.680651 0.844942
O O3 0.000000 0.709609 0.879318
O O4 0.810789 0.744355 0.988468
O O5 0.250000 0.889898 0.750000
O O6 0.214415 0.897750 0.915805
O O7 0.000000 0.882495 0.812399
O O8 0.250000 0.875485 0.250000
O O9 0.500000 0.868016 0.313640
O O10 0.310457 0.787284 0.355658
O O11 0.287223 0.898230 0.412016
O O12 0.755032 0.672317 0.122521
O O13 0.000000 0.708984 0.097824
O O14 0.500000 0.361512 0.157915
O O15 0.290520 0.438097 0.145051
O O16 0.350379 0.367285 0.019276
O O17 0.250000 0.471935 0.750000
O O18 0.186511 0.445844 0.598657
O O19 0.000000 0.497449 0.698498
O O20 0.000000 0.928710 0.001047
O O21 0.217236 0.000000 0.000000
O O22 0.500000 0.639322 0.119349
#
# Coordination Sequence:
#
# PCOD8220335 Si02
#       8
#     8   8   8   8   8   8   8   8
#     4   9  17  32  53  75 102 136 174 216 263 316
#     4  10  20  35  56  83 113 146 184 226 272 322
#     4  10  20  35  56  83 113 146 184 226 272 322
#     4   9  17  32  53  75 102 136 174 216 263 316
#     4   9  18  33  53  74  96 128 171 215 261 311
#     4  10  21  35  49  67  97 132 166 210 262 314
#     4   9  18  36  61  83 109 150 191 222 262 325
#     4   9  18  33  53  74  96 128 171 215 261 311
#
# _framework density 19.037512
#
# number of rings (size 3 to 8) (size 9 to 14) (size 15 to 20)
#    0.000    2.625    1.250    0.375    0.000    5.000 
#    0.000    5.625    0.000    4.500    0.000    0.000 
#    0.000    0.000    0.000    0.000    0.000    0.000 
#
# Total GULP energy -793450.297927 kJ/mol
# GULP energy per Si atom -12397.660905 kJ/mol
# Density = 1.899418 g / cm^3
# Si number density = 19.037512 Si / 1000 Ang^3
#
#
#
# Elastic Constant Matrix: (Units=GPa)
#
#
# Indices 1 2 3 4 5 6 
#
# 1 64.7008 46.6678 44.8716 0.0000 0.0000 0.0000
# 2 46.6678 106.3840 41.6346 0.0000 0.0000 0.0000
# 3 44.8716 41.6346 89.5999 0.0000 0.0000 0.0000
# 4 0.0000 0.0000 0.0000 13.0273 0.0000 0.0000
# 5 0.0000 0.0000 0.0000 0.0000 28.1567 0.0000
# 6 0.0000 0.0000 0.0000 0.0000 0.0000 20.2639
#
#
#
# Elastic Compliance Matrix: (Units=1/GPa)
#
#
# Indices 1 2 3 4 5 6 
#
# 1 0.028926 -0.008580 -0.010499 0.000000 0.000000 0.000000
# 2 -0.008580 0.014034 -0.002224 0.000000 0.000000 0.000000
# 3 -0.010499 -0.002224 0.017452 0.000000 0.000000 0.000000
# 4 0.000000 0.000000 0.000000 0.076762 0.000000 0.000000
# 5 0.000000 0.000000 0.000000 0.000000 0.035515 0.000000
# 6 0.000000 0.000000 0.000000 0.000000 0.000000 0.049349
#
#
# Mechanical properties :
#
#
# Convention : Reuss Voigt Hill
#
# Bulk Modulus (GPa) = 56.16342 58.55920 57.36131
# Shear Modulus (GPa) = 18.47873 20.79029 19.63451
#
# Velocity S-wave (km/s) = 3.11890 3.30823 3.21496
# Velocity P-wave (km/s) = 6.52193 6.73938 6.63155
#
# Compressibility (1/GPa) = 0.01780518
#
# Stress axis : x y z
#
# Youngs Moduli (GPa) = 34.57117 71.25389 57.29887
#
# Poissons Ratio (x) = 0.61136 0.60159
# Poissons Ratio (y) = 0.29662 0.12746
# Poissons Ratio (z) = 0.36297 0.15850
#
# Static dielectric constant tensor:
#      x y z
#    x -1.723650 0.000000 0.000000 
#    y 0.000000 3.584420 0.000000 
#    z 0.000000 0.000000 3.336220 
# 
# 
# High freq. dielectric constant tensor:
#      x y z
#    x 1.719860 0.000000 0.000000 
#    y 0.000000 1.742770 0.000000 
#    z 0.000000 0.000000 1.732310 
# 
# From -- ./inp_files/21947.got.cif
#   From: 2010.03.12/outbox.cif.g09.slc.cpg/sg53_11_cif.got.tgz:21947.got - 2010.04.16 14:36:59.
