data_PCOD8220536
_publ_section_title
;
Structure prediction by ZEFSAII (Michael W. Deem and Ramdas Pophale) SiO2 
 PCOD8220536
Probable space group: P M N A
;
_chemical_formula_sum "Si O2"
_cell_formula_units_Z 48
_cell_length_a 8.725204
_cell_length_b 30.166921
_cell_length_c 9.436207
_cell_angle_alpha 90.000000
_cell_angle_beta 90.000000
_cell_angle_gamma 90.000000
_cell_volume 2483.728010
_symmetry_space_group_name_H-M "P M N A"
_symmetry_group_IT_number 53
_symmetry_cell_setting 'orthorhombic'
loop_
_space_group_symop_operation_xyz
x,y,z
1/2-x,-y,1/2+z
x,-y,-z
1/2-x,y,1/2-z
-x,-y,-z
1/2+x,y,1/2-z
-x,y,z
1/2+x,-y,1/2+z
loop_
_atom_site_type_symbol
_atom_site_label
_atom_site_fract_x
_atom_site_fract_y
_atom_site_fract_z
Si Si1 0.319478 0.541255 0.096273
Si Si2 0.180791 0.040784 0.094213
Si Si3 0.318802 0.214257 0.903051
Si Si4 0.677433 0.388138 0.399618
Si Si5 0.181603 0.876713 0.095525
Si Si6 0.678116 0.714882 0.601289
O O1 0.250000 0.533926 0.250000
O O2 0.500000 0.545250 0.110248
O O3 0.268970 0.500000 0.000000
O O4 0.256301 0.586142 0.027757
O O5 0.250000 0.039159 0.250000
O O6 0.000000 0.037730 0.110407
O O7 0.231402 0.085533 0.014669
O O8 0.243073 0.000000 0.000000
O O9 0.250000 0.221358 0.750000
O O10 0.500000 0.209869 0.896130
O O11 0.248741 0.169070 0.967991
O O12 0.271546 0.257403 0.988310
O O13 0.750000 0.402252 0.250000
O O14 0.500000 0.400616 0.392537
O O15 0.704178 0.336625 0.432028
O O16 0.250000 0.887446 0.250000
O O17 0.000000 0.873085 0.111036
O O18 0.750000 0.727960 0.750000
O O19 0.500000 0.727666 0.599067
#
# Coordination Sequence:
#
# PCOD8220536 Si02
#       6
#     8   8   8   8   8   8
#     4  11  24  40  60  86 116 151 190 233 281 334
#     4  10  22  38  57  83 112 144 183 226 273 328
#     4  11  22  37  58  83 113 150 190 233 282 334
#     4  10  21  38  61  86 115 150 188 233 282 335
#     4  10  20  36  57  81 111 145 185 231 278 331
#     4  10  21  38  59  85 115 149 189 232 282 336
#
# _framework density 19.325786000000001
#
# number of rings (size 3 to 8) (size 9 to 14) (size 15 to 20)
#    0.000    1.667    0.000    5.500    0.000    7.667 
#    0.000    1.667    0.000    0.000    0.000    0.000 
#    0.000    0.000    0.000    0.000    0.000    0.000 
#
# Total GULP energy -595390.099242 kJ/mol
# GULP energy per Si atom -12403.960401 kJ/mol
# Density = 1.928180 g / cm^3
# Si number density = 19.325786 Si / 1000 Ang^3
#
#
#
# Elastic Constant Matrix: (Units=GPa)
#
#
# Indices 1 2 3 4 5 6 
#
# 1 104.9568 57.0891 63.1567 0.0000 0.0000 0.0000
# 2 57.0891 109.3667 80.2194 0.0000 0.0000 0.0000
# 3 63.1567 80.2194 136.1289 0.0000 0.0000 0.0000
# 4 0.0000 0.0000 0.0000 43.8589 0.0000 0.0000
# 5 0.0000 0.0000 0.0000 0.0000 39.4565 0.0000
# 6 0.0000 0.0000 0.0000 0.0000 0.0000 31.3231
#
#
#
# Elastic Compliance Matrix: (Units=1/GPa)
#
#
# Indices 1 2 3 4 5 6 
#
# 1 0.014431 -0.004618 -0.003974 0.000000 0.000000 0.000000
# 2 -0.004618 0.017582 -0.008219 0.000000 0.000000 0.000000
# 3 -0.003974 -0.008219 0.014033 0.000000 0.000000 0.000000
# 4 0.000000 0.000000 0.000000 0.022800 0.000000 0.000000
# 5 0.000000 0.000000 0.000000 0.000000 0.025344 0.000000
# 6 0.000000 0.000000 0.000000 0.000000 0.000000 0.031925
#
#
# Mechanical properties :
#
#
# Convention : Reuss Voigt Hill
#
# Bulk Modulus (GPa) = 80.48243 83.48698 81.98471
# Shear Modulus (GPa) = 30.51037 32.92686 31.71861
#
# Velocity S-wave (km/s) = 3.97765 4.13216 4.05564
# Velocity P-wave (km/s) = 7.92660 8.12773 8.02780
#
# Compressibility (1/GPa) = 0.01242507
#
# Stress axis : x y z
#
# Youngs Moduli (GPa) = 69.29611 56.87480 71.26205
#
# Poissons Ratio (x) = 0.26266 0.28317
# Poissons Ratio (y) = 0.32002 0.58567
# Poissons Ratio (z) = 0.27536 0.46743
#
# Static dielectric constant tensor:
#      x y z
#    x 3.642580 0.000000 0.000000 
#    y 0.000000 3.754860 0.000000 
#    z 0.000000 0.000000 3.479880 
# 
# 
# High freq. dielectric constant tensor:
#      x y z
#    x 1.766420 0.000000 0.000000 
#    y 0.000000 1.765320 0.000000 
#    z 0.000000 0.000000 1.753370 
# 
# From -- ./inp_files/6660.got.cif
#   From: 2010.03.12/outbox.cif.g09.slc.cpg/sg53_4_cif.got.tgz:6660.got - 2010.04.16 14:36:59.
