data_PCOD8220904
_publ_section_title
;
Structure prediction by ZEFSAII (Michael W. Deem and Ramdas Pophale) SiO2 
 PCOD8220904
Probable space group: P M N A
;
_chemical_formula_sum "Si O2"
_cell_formula_units_Z 40
_cell_length_a 9.437107
_cell_length_b 23.821804
_cell_length_c 9.412903
_cell_angle_alpha 90.000000
_cell_angle_beta 90.000000
_cell_angle_gamma 90.000000
_cell_volume 2116.104494
_symmetry_space_group_name_H-M "P M N A"
_symmetry_group_IT_number 53
_symmetry_cell_setting 'orthorhombic'
loop_
_space_group_symop_operation_xyz
x,y,z
1/2-x,-y,1/2+z
x,-y,-z
1/2-x,y,1/2-z
-x,-y,-z
1/2+x,y,1/2-z
-x,y,z
1/2+x,-y,1/2+z
loop_
_atom_site_type_symbol
_atom_site_label
_atom_site_fract_x
_atom_site_fract_y
_atom_site_fract_z
Si Si1 0.743851 0.863328 0.914597
Si Si2 0.000000 0.946102 0.595465
Si Si3 0.000000 0.059262 0.077630
Si Si4 0.161111 0.455826 0.112793
Si Si5 0.827758 0.755583 0.400493
Si Si6 0.832554 0.672876 0.897109
O O1 0.750000 0.843756 0.750000
O O2 0.630479 0.909471 0.946935
O O3 0.877759 0.898122 0.964624
O O4 0.712911 0.809680 0.008794
O O5 0.000000 0.961112 0.760578
O O6 0.000000 0.000000 0.500000
O O7 0.000000 0.000000 0.000000
O O8 0.250000 0.467211 0.250000
O O9 0.176892 0.392135 0.059189
O O10 0.000000 0.469836 0.150442
O O11 0.220959 0.500000 0.000000
O O12 0.750000 0.761294 0.250000
O O13 0.754330 0.703444 0.479115
O O14 0.000000 0.748535 0.387020
O O15 0.750000 0.684852 0.750000
O O16 0.000000 0.691578 0.885912
#
# Coordination Sequence:
#
# PCOD8220904 Si02
#       6
#     8   4   4   8   8   8
#     4  10  22  40  62  86 116 156 197 238 293 360
#     4  10  20  38  60  84 118 154 193 236 287 350
#     4  10  22  36  60  92 118 150 193 240 291 352
#     4   9  19  36  58  88 123 160 204 248 296 353
#     4  12  26  42  61  88 121 157 201 255 310 362
#     4  10  21  39  64  90 121 163 206 250 300 360
#
# _framework density 18.902657999999999
#
# number of rings (size 3 to 8) (size 9 to 14) (size 15 to 20)
#    0.000    1.800    1.000    2.400    2.800    3.600 
#    0.000    2.000    0.000    0.000    0.000    0.000 
#    0.000    0.000    0.000    0.000    0.000    0.000 
#
# Total GULP energy -495626.996485 kJ/mol
# GULP energy per Si atom -12390.674912 kJ/mol
# Density = 1.885964 g / cm^3
# Si number density = 18.902658 Si / 1000 Ang^3
#
#
#
# Elastic Constant Matrix: (Units=GPa)
#
#
# Indices 1 2 3 4 5 6 
#
# 1 165.9734 69.7288 66.9412 0.0000 0.0000 0.0000
# 2 69.7288 126.3433 85.2129 0.0000 0.0000 0.0000
# 3 66.9412 85.2129 114.8150 0.0000 0.0000 0.0000
# 4 0.0000 0.0000 0.0000 44.2012 0.0000 0.0000
# 5 0.0000 0.0000 0.0000 0.0000 34.6246 0.0000
# 6 0.0000 0.0000 0.0000 0.0000 0.0000 41.8578
#
#
#
# Elastic Compliance Matrix: (Units=1/GPa)
#
#
# Indices 1 2 3 4 5 6 
#
# 1 0.008294 -0.002635 -0.002880 0.000000 0.000000 0.000000
# 2 -0.002635 0.016685 -0.010847 0.000000 0.000000 0.000000
# 3 -0.002880 -0.010847 0.018439 0.000000 0.000000 0.000000
# 4 0.000000 0.000000 0.000000 0.022624 0.000000 0.000000
# 5 0.000000 0.000000 0.000000 0.000000 0.028881 0.000000
# 6 0.000000 0.000000 0.000000 0.000000 0.000000 0.023890
#
#
# Mechanical properties :
#
#
# Convention : Reuss Voigt Hill
#
# Bulk Modulus (GPa) = 93.50889 94.54416 94.02652
# Shear Modulus (GPa) = 32.23708 36.48665 34.36186
#
# Velocity S-wave (km/s) = 4.13416 4.39821 4.26823
# Velocity P-wave (km/s) = 8.50673 8.71305 8.61051
#
# Compressibility (1/GPa) = 0.01069417
#
# Stress axis : x y z
#
# Youngs Moduli (GPa) = 120.57558 59.93461 54.23268
#
# Poissons Ratio (x) = 0.15792 0.15619
# Poissons Ratio (y) = 0.31770 0.58826
# Poissons Ratio (z) = 0.34725 0.65010
#
# Static dielectric constant tensor:
#      x y z
#    x 3.848160 0.000000 0.000000 
#    y 0.000000 3.533970 0.000000 
#    z 0.000000 0.000000 3.417240 
# 
# 
# High freq. dielectric constant tensor:
#      x y z
#    x 1.758250 0.000000 0.000000 
#    y 0.000000 1.747570 0.000000 
#    z 0.000000 0.000000 1.728890 
# 
# From -- ./inp_files/6368.got.cif
#   From: 2010.03.12/outbox.cif.g09.slc.cpg/sg53_4_cif.got.tgz:6368.got - 2010.04.16 14:36:59.
