data_PCOD8220523
_publ_section_title
;
Structure prediction by ZEFSAII (Michael W. Deem and Ramdas Pophale) SiO2 
 PCOD8220523
Probable space group: P M N A
;
_chemical_formula_sum "Si O2"
_cell_formula_units_Z 40
_cell_length_a 8.761801
_cell_length_b 13.777688
_cell_length_c 17.826980
_cell_angle_alpha 90.000000
_cell_angle_beta 90.000000
_cell_angle_gamma 90.000000
_cell_volume 2152.025971
_symmetry_space_group_name_H-M "P M N A"
_symmetry_group_IT_number 53
_symmetry_cell_setting 'orthorhombic'
loop_
_space_group_symop_operation_xyz
x,y,z
1/2-x,-y,1/2+z
x,-y,-z
1/2-x,y,1/2-z
-x,-y,-z
1/2+x,y,1/2-z
-x,y,z
1/2+x,-y,1/2+z
loop_
_atom_site_type_symbol
_atom_site_label
_atom_site_fract_x
_atom_site_fract_y
_atom_site_fract_z
Si Si1 0.174823 0.296356 0.450745
Si Si2 0.322050 0.384262 0.890034
Si Si3 0.177785 0.103089 0.532903
Si Si4 0.179726 0.194465 0.826747
Si Si5 0.820911 0.420118 0.169192
O O1 0.206033 0.364622 0.522347
O O2 0.213977 0.185215 0.471121
O O3 0.284056 0.327580 0.382915
O O4 0.000000 0.307045 0.424572
O O5 0.500000 0.384353 0.870268
O O6 0.243876 0.301882 0.840386
O O7 0.250765 0.486612 0.870009
O O8 0.274535 0.120810 0.607475
O O9 0.000000 0.107149 0.554966
O O10 0.226951 0.000000 0.500000
O O11 0.250000 0.153109 0.750000
O O12 0.000000 0.199955 0.820056
O O13 0.750000 0.401426 0.250000
O O14 0.000000 0.434270 0.177419
#
# Coordination Sequence:
#
# PCOD8220523 Si02
#       5
#     8   8   8   8   8
#     4   9  19  36  57  80 107 139 175 217 265 319
#     4  10  20  36  57  80 109 143 178 218 268 321
#     4   9  19  38  62  84 108 140 177 220 273 328
#     4  11  21  34  54  82 114 143 178 223 270 319
#     4  12  24  36  52  76 109 146 184 222 262 312
#
# _framework density 18.587136999999998
#
# number of rings (size 3 to 8) (size 9 to 14) (size 15 to 20)
#    0.000    1.800    0.000    6.600    0.000    6.800 
#    0.000    1.000    0.000    0.000    0.000    0.000 
#    0.000    0.000    0.000    0.000    0.000    0.000 
#
# Total GULP energy -496183.209735 kJ/mol
# GULP energy per Si atom -12404.580243 kJ/mol
# Density = 1.854483 g / cm^3
# Si number density = 18.587137 Si / 1000 Ang^3
#
#
#
# Elastic Constant Matrix: (Units=GPa)
#
#
# Indices 1 2 3 4 5 6 
#
# 1 135.2087 50.7144 64.5507 0.0000 0.0000 0.0000
# 2 50.7144 115.2799 71.6337 0.0000 0.0000 0.0000
# 3 64.5507 71.6337 110.2285 0.0000 0.0000 0.0000
# 4 0.0000 0.0000 0.0000 12.8858 0.0000 0.0000
# 5 0.0000 0.0000 0.0000 0.0000 34.3461 0.0000
# 6 0.0000 0.0000 0.0000 0.0000 0.0000 18.8890
#
#
#
# Elastic Compliance Matrix: (Units=1/GPa)
#
#
# Indices 1 2 3 4 5 6 
#
# 1 0.010385 -0.001324 -0.005221 0.000000 0.000000 0.000000
# 2 -0.001324 0.014719 -0.008790 0.000000 0.000000 0.000000
# 3 -0.005221 -0.008790 0.017842 0.000000 0.000000 0.000000
# 4 0.000000 0.000000 0.000000 0.077605 0.000000 0.000000
# 5 0.000000 0.000000 0.000000 0.000000 0.029115 0.000000
# 6 0.000000 0.000000 0.000000 0.000000 0.000000 0.052941
#
#
# Mechanical properties :
#
#
# Convention : Reuss Voigt Hill
#
# Bulk Modulus (GPa) = 81.46259 81.61274 81.53767
# Shear Modulus (GPa) = 21.06418 24.81207 22.93813
#
# Velocity S-wave (km/s) = 3.37005 3.65760 3.51677
# Velocity P-wave (km/s) = 7.68541 7.86390 7.77517
#
# Compressibility (1/GPa) = 0.01227557
#
# Stress axis : x y z
#
# Youngs Moduli (GPa) = 96.28939 67.93886 56.04832
#
# Poissons Ratio (x) = 0.08998 0.29263
# Poissons Ratio (y) = 0.12753 0.49265
# Poissons Ratio (z) = 0.50273 0.59717
#
# Static dielectric constant tensor:
#      x y z
#    x 3.439790 0.000000 0.000000 
#    y 0.000000 3.377640 0.000000 
#    z 0.000000 0.000000 3.458030 
# 
# 
# High freq. dielectric constant tensor:
#      x y z
#    x 1.727580 0.000000 0.000000 
#    y 0.000000 1.709920 0.000000 
#    z 0.000000 0.000000 1.724670 
# 
# From -- ./inp_files/19838.got.cif
#   From: 2010.03.12/outbox.cif.g09.slc.cpg/sg53_10_cif.got.tgz:19838.got - 2010.04.16 14:36:59.
