data_PCOD8220621
_publ_section_title
;
Structure prediction by ZEFSAII (Michael W. Deem and Ramdas Pophale) SiO2 
 PCOD8220621
Probable space group: P M N A
;
_chemical_formula_sum "Si O2"
_cell_formula_units_Z 64
_cell_length_a 15.147153
_cell_length_b 10.647311
_cell_length_c 18.533046
_cell_angle_alpha 90.000000
_cell_angle_beta 90.000000
_cell_angle_gamma 90.000000
_cell_volume 2988.943844
_symmetry_space_group_name_H-M "P M N A"
_symmetry_group_IT_number 53
_symmetry_cell_setting 'orthorhombic'
loop_
_space_group_symop_operation_xyz
x,y,z
1/2-x,-y,1/2+z
x,-y,-z
1/2-x,y,1/2-z
-x,-y,-z
1/2+x,y,1/2-z
-x,y,z
1/2+x,-y,1/2+z
loop_
_atom_site_type_symbol
_atom_site_label
_atom_site_fract_x
_atom_site_fract_y
_atom_site_fract_z
Si Si1 0.097811 0.145605 0.976171
Si Si2 0.402931 0.641682 0.361935
Si Si3 0.767618 0.787245 0.902284
Si Si4 0.600497 0.698160 0.106233
Si Si5 0.241845 0.504401 0.584411
Si Si6 0.648404 0.179724 0.752587
Si Si7 0.402540 0.862784 0.968218
Si Si8 0.597839 0.038923 0.350217
O O1 0.095946 0.229994 0.905467
O O2 0.000000 0.152027 0.012929
O O3 0.114372 0.008225 0.935630
O O4 0.176170 0.203579 0.023921
O O5 0.500000 0.579527 0.358333
O O6 0.339380 0.542010 0.398010
O O7 0.371448 0.684072 0.282560
O O8 0.741478 0.644673 0.883635
O O9 0.673602 0.858192 0.907954
O O10 0.827207 0.853480 0.839486
O O11 0.500000 0.648688 0.109089
O O12 0.666447 0.581633 0.121370
O O13 0.614907 0.808231 0.165344
O O14 0.621405 0.760174 0.029166
O O15 0.223375 0.500000 0.500000
O O16 0.750000 0.146776 0.750000
O O17 0.600664 0.066312 0.711162
O O18 0.500000 0.832833 0.935596
O O19 0.403642 0.000000 0.000000
O O20 0.500000 0.097612 0.345482
#
# Coordination Sequence:
#
# PCOD8220621 Si02
#       8
#     8   8   8   8   8   8   8   8
#     4   9  17  31  54  87 123 161 200 244 304 373
#     4  10  20  36  58  89 126 163 209 261 306 365
#     4  12  22  34  59  84 132 168 204 249 318 372
#     4  11  23  42  68  94 122 169 221 275 324 371
#     4  12  23  38  56  93 130 174 221 256 303 389
#     4  11  22  40  71  95 121 156 212 275 323 371
#     4  10  22  37  58  90 125 160 209 264 324 380
#     4  10  22  38  60  96 128 160 206 258 318 384
#
# _framework density 21.412244999999999
#
# number of rings (size 3 to 8) (size 9 to 14) (size 15 to 20)
#    0.000    1.375    3.750    3.375    3.500    3.000 
#    0.000    0.000    2.750    0.000    0.000    0.000 
#    0.000    0.000    0.000    0.000    0.000    0.000 
#
# Total GULP energy -793363.752361 kJ/mol
# GULP energy per Si atom -12396.308631 kJ/mol
# Density = 2.136351 g / cm^3
# Si number density = 21.412245 Si / 1000 Ang^3
#
#
#
# Elastic Constant Matrix: (Units=GPa)
#
#
# Indices 1 2 3 4 5 6 
#
# 1 171.8797 51.3722 22.7600 0.0000 0.0000 0.0000
# 2 51.3722 101.0094 9.0984 0.0000 0.0000 0.0000
# 3 22.7600 9.0984 36.3704 0.0000 0.0000 0.0000
# 4 0.0000 0.0000 0.0000 23.3328 0.0000 0.0000
# 5 0.0000 0.0000 0.0000 0.0000 22.9006 0.0000
# 6 0.0000 0.0000 0.0000 0.0000 0.0000 23.7534
#
#
#
# Elastic Compliance Matrix: (Units=1/GPa)
#
#
# Indices 1 2 3 4 5 6 
#
# 1 0.007326 -0.003389 -0.003737 0.000000 0.000000 0.000000
# 2 -0.003389 0.011696 -0.000805 0.000000 0.000000 0.000000
# 3 -0.003737 -0.000805 0.030035 0.000000 0.000000 0.000000
# 4 0.000000 0.000000 0.000000 0.042858 0.000000 0.000000
# 5 0.000000 0.000000 0.000000 0.000000 0.043667 0.000000
# 6 0.000000 0.000000 0.000000 0.000000 0.000000 0.042099
#
#
# Mechanical properties :
#
#
# Convention : Reuss Voigt Hill
#
# Bulk Modulus (GPa) = 30.12491 52.85785 41.49138
# Shear Modulus (GPa) = 24.43703 29.06595 26.75149
#
# Velocity S-wave (km/s) = 3.38192 3.68835 3.53846
# Velocity P-wave (km/s) = 5.41751 6.54813 6.00947
#
# Compressibility (1/GPa) = 0.03319512
#
# Stress axis : x y z
#
# Youngs Moduli (GPa) = 136.50376 85.49698 33.29499
#
# Poissons Ratio (x) = 0.28977 0.12441
# Poissons Ratio (y) = 0.46265 0.02680
# Poissons Ratio (z) = 0.51005 0.06882
#
# Static dielectric constant tensor:
#      x y z
#    x 4.279280 0.000000 0.000000 
#    y 0.000000 3.786770 0.000000 
#    z 0.000000 0.000000 3.711000 
# 
# 
# High freq. dielectric constant tensor:
#      x y z
#    x 1.861760 0.000000 0.000000 
#    y 0.000000 1.826130 0.000000 
#    z 0.000000 0.000000 1.810820 
# 
# From -- ./inp_files/28530.got.cif
#   From: 2010.03.12/outbox.cif.g09.slc.cpg/sg53_15_cif.got.tgz:28530.got - 2010.04.16 14:36:59.
