data_PCOD8220416
_publ_section_title
;
Structure prediction by ZEFSAII (Michael W. Deem and Ramdas Pophale) SiO2 
 PCOD8220416
Probable space group: P M N A
;
_chemical_formula_sum "Si O2"
_cell_formula_units_Z 56
_cell_length_a 14.051562
_cell_length_b 13.447080
_cell_length_c 14.242320
_cell_angle_alpha 90.000000
_cell_angle_beta 90.000000
_cell_angle_gamma 90.000000
_cell_volume 2691.121661
_symmetry_space_group_name_H-M "P M N A"
_symmetry_group_IT_number 53
_symmetry_cell_setting 'orthorhombic'
loop_
_space_group_symop_operation_xyz
x,y,z
1/2-x,-y,1/2+z
x,-y,-z
1/2-x,y,1/2-z
-x,-y,-z
1/2+x,y,1/2-z
-x,y,z
1/2+x,-y,1/2+z
loop_
_atom_site_type_symbol
_atom_site_label
_atom_site_fract_x
_atom_site_fract_y
_atom_site_fract_z
Si Si1 0.389848 0.519701 0.283122
Si Si2 0.395109 0.093981 0.701494
Si Si3 0.107435 0.708197 0.097206
Si Si4 0.892433 0.109277 0.589389
Si Si5 0.231023 0.960364 0.904991
Si Si6 0.217534 0.547041 0.603461
Si Si7 0.231668 0.751671 0.537543
O O1 0.500000 0.485145 0.289844
O O2 0.378085 0.634303 0.315057
O O3 0.353074 0.509127 0.175931
O O4 0.325395 0.456329 0.355723
O O5 0.500000 0.049567 0.686101
O O6 0.371443 0.179824 0.628385
O O7 0.386799 0.143802 0.803062
O O8 0.321681 0.003676 0.686195
O O9 0.000000 0.696710 0.057714
O O10 0.183843 0.690960 0.015289
O O11 0.843745 0.198269 0.532402
O O12 0.000000 0.094037 0.554194
O O13 0.839122 0.002380 0.585787
O O14 0.229011 0.840877 0.896800
O O15 0.177534 0.000000 0.000000
O O16 0.208355 0.500000 0.500000
O O17 0.185177 0.663592 0.599253
#
# Coordination Sequence:
#
# PCOD8220416 Si02
#       7
#     8   8   8   8   8   8   8
#     4  10  24  45  67  94 131 172 216 271 329 393
#     4  10  20  35  58  90 123 158 201 256 314 372
#     4  10  20  36  64  96 123 159 211 263 322 382
#     4  10  22  38  59  87 121 166 210 248 306 381
#     4  10  20  36  57  85 121 160 195 250 303 372
#     4  11  24  43  68  97 129 169 220 277 329 387
#     4  11  23  39  63  94 123 168 210 264 321 374
#
# _framework density 20.809166999999999
#
# number of rings (size 3 to 8) (size 9 to 14) (size 15 to 20)
#    0.000    1.714    4.286    0.429    2.000    5.143 
#    5.143    0.000    0.000    0.000    0.000    0.000 
#    0.000    0.000    0.000    0.000    0.000    0.000 
#
# Total GULP energy -694070.285557 kJ/mol
# GULP energy per Si atom -12394.112242 kJ/mol
# Density = 2.076180 g / cm^3
# Si number density = 20.809167 Si / 1000 Ang^3
#
#
#
# Elastic Constant Matrix: (Units=GPa)
#
#
# Indices 1 2 3 4 5 6 
#
# 1 126.9048 52.6610 45.6477 0.0000 0.0000 0.0000
# 2 52.6610 122.7195 32.7986 0.0000 0.0000 0.0000
# 3 45.6477 32.7986 74.2533 0.0000 0.0000 0.0000
# 4 0.0000 0.0000 0.0000 33.8412 0.0000 0.0000
# 5 0.0000 0.0000 0.0000 0.0000 25.2522 0.0000
# 6 0.0000 0.0000 0.0000 0.0000 0.0000 19.7250
#
#
#
# Elastic Compliance Matrix: (Units=1/GPa)
#
#
# Indices 1 2 3 4 5 6 
#
# 1 0.011225 -0.003371 -0.005412 0.000000 0.000000 0.000000
# 2 -0.003371 0.010251 -0.002456 0.000000 0.000000 0.000000
# 3 -0.005412 -0.002456 0.017879 0.000000 0.000000 0.000000
# 4 0.000000 0.000000 0.000000 0.029550 0.000000 0.000000
# 5 0.000000 0.000000 0.000000 0.000000 0.039601 0.000000
# 6 0.000000 0.000000 0.000000 0.000000 0.000000 0.050697
#
#
# Mechanical properties :
#
#
# Convention : Reuss Voigt Hill
#
# Bulk Modulus (GPa) = 59.24599 65.12133 62.18366
# Shear Modulus (GPa) = 26.69412 28.61503 27.65458
#
# Velocity S-wave (km/s) = 3.58551 3.71228 3.64945
# Velocity P-wave (km/s) = 6.75826 7.05246 6.90693
#
# Compressibility (1/GPa) = 0.01687878
#
# Stress axis : x y z
#
# Youngs Moduli (GPa) = 89.08473 97.54724 55.93030
#
# Poissons Ratio (x) = 0.32878 0.30270
# Poissons Ratio (y) = 0.30026 0.13737
# Poissons Ratio (z) = 0.48213 0.23959
#
# Static dielectric constant tensor:
#      x y z
#    x 3.840280 0.000000 0.000000 
#    y 0.000000 3.663970 0.000000 
#    z 0.000000 0.000000 3.868850 
# 
# 
# High freq. dielectric constant tensor:
#      x y z
#    x 1.810930 0.000000 0.000000 
#    y 0.000000 1.805120 0.000000 
#    z 0.000000 0.000000 1.812240 
# 
# From -- ./inp_files/22937.got.cif
#   From: 2010.03.12/outbox.cif.g09.slc.cpg/sg53_12_cif.got.tgz:22937.got - 2010.04.16 14:36:59.
