data_PCOD8220511
_publ_section_title
;
Structure prediction by ZEFSAII (Michael W. Deem and Ramdas Pophale) SiO2 
 PCOD8220511
Probable space group: P M N A
;
_chemical_formula_sum "Si O2"
_cell_formula_units_Z 56
_cell_length_a 8.924984
_cell_length_b 16.391189
_cell_length_c 19.589783
_cell_angle_alpha 90.000000
_cell_angle_beta 90.000000
_cell_angle_gamma 90.000000
_cell_volume 2865.810895
_symmetry_space_group_name_H-M "P M N A"
_symmetry_group_IT_number 53
_symmetry_cell_setting 'orthorhombic'
loop_
_space_group_symop_operation_xyz
x,y,z
1/2-x,-y,1/2+z
x,-y,-z
1/2-x,y,1/2-z
-x,-y,-z
1/2+x,y,1/2-z
-x,y,z
1/2+x,-y,1/2+z
loop_
_atom_site_type_symbol
_atom_site_label
_atom_site_fract_x
_atom_site_fract_y
_atom_site_fract_z
Si Si1 0.677276 0.190942 0.680266
Si Si2 0.823003 0.641926 0.824795
Si Si3 0.825045 0.320275 0.923311
Si Si4 0.176658 0.931312 0.554065
Si Si5 0.674034 0.236899 0.441067
Si Si6 0.177920 0.501692 0.077262
Si Si7 0.676273 0.993334 0.319676
O O1 0.750000 0.220885 0.750000
O O2 0.500000 0.196567 0.687559
O O3 0.747741 0.248389 0.621722
O O4 0.725974 0.098806 0.662535
O O5 0.750000 0.645034 0.750000
O O6 0.785415 0.725211 0.866802
O O7 0.758464 0.565905 0.869832
O O8 0.000000 0.632781 0.814831
O O9 0.771818 0.408681 0.896364
O O10 0.000000 0.313790 0.911172
O O11 0.790793 0.307763 0.003583
O O12 0.226852 0.840012 0.535007
O O13 0.261223 0.946823 0.623999
O O14 0.000000 0.935014 0.564335
O O15 0.229267 0.000000 0.500000
O O16 0.500000 0.210899 0.443729
O O17 0.000000 0.490131 0.073590
O O18 0.242598 0.500000 0.000000
O O19 0.750000 0.022738 0.250000
O O20 0.500000 0.003114 0.313853
#
# Coordination Sequence:
#
# PCOD8220511 Si02
#       7
#     8   8   8   8   8   8   8
#     4   9  18  31  49  76 107 138 172 218 270 323
#     4  10  21  36  57  85 115 148 186 231 280 330
#     4   9  16  29  53  80 106 137 182 228 266 315
#     4  11  24  39  56  82 115 147 185 235 289 341
#     4  10  20  36  58  81 105 142 190 235 278 327
#     4   9  15  29  54  82 108 139 183 230 268 311
#     4  10  20  36  57  79 107 145 186 229 280 336
#
# _framework density 19.540717000000001
#
# number of rings (size 3 to 8) (size 9 to 14) (size 15 to 20)
#    0.000    2.286    1.429    1.714    0.000    4.571 
#    0.000    2.143    0.000    1.286    0.000    0.000 
#    0.000    0.000    0.000    0.000    0.000    0.000 
#
# Total GULP energy -694090.317252 kJ/mol
# GULP energy per Si atom -12394.469951 kJ/mol
# Density = 1.949624 g / cm^3
# Si number density = 19.540717 Si / 1000 Ang^3
#
#
#
# Elastic Constant Matrix: (Units=GPa)
#
#
# Indices 1 2 3 4 5 6 
#
# 1 38.8417 21.0816 24.2196 0.0000 0.0000 0.0000
# 2 21.0816 93.7979 37.6196 0.0000 0.0000 0.0000
# 3 24.2196 37.6196 96.9710 0.0000 0.0000 0.0000
# 4 0.0000 0.0000 0.0000 36.4110 0.0000 0.0000
# 5 0.0000 0.0000 0.0000 0.0000 28.5927 0.0000
# 6 0.0000 0.0000 0.0000 0.0000 0.0000 16.6140
#
#
#
# Elastic Compliance Matrix: (Units=1/GPa)
#
#
# Indices 1 2 3 4 5 6 
#
# 1 0.032187 -0.004749 -0.006197 0.000000 0.000000 0.000000
# 2 -0.004749 0.013326 -0.003984 0.000000 0.000000 0.000000
# 3 -0.006197 -0.003984 0.013406 0.000000 0.000000 0.000000
# 4 0.000000 0.000000 0.000000 0.027464 0.000000 0.000000
# 5 0.000000 0.000000 0.000000 0.000000 0.034974 0.000000
# 6 0.000000 0.000000 0.000000 0.000000 0.000000 0.060190
#
#
# Mechanical properties :
#
#
# Convention : Reuss Voigt Hill
#
# Bulk Modulus (GPa) = 34.41154 43.93913 39.17534
# Shear Modulus (GPa) = 22.61493 26.10285 24.35889
#
# Velocity S-wave (km/s) = 3.40564 3.65885 3.53451
# Velocity P-wave (km/s) = 5.75438 6.35487 6.06206
#
# Compressibility (1/GPa) = 0.02906002
#
# Stress axis : x y z
#
# Youngs Moduli (GPa) = 31.06848 75.03923 74.59577
#
# Poissons Ratio (x) = 0.35635 0.46225
# Poissons Ratio (y) = 0.14754 0.29718
# Poissons Ratio (z) = 0.19252 0.29894
#
# Static dielectric constant tensor:
#      x y z
#    x 3.174500 0.000000 0.000000 
#    y 0.000000 3.788570 0.000000 
#    z 0.000000 0.000000 3.630380 
# 
# 
# High freq. dielectric constant tensor:
#      x y z
#    x 1.719300 0.000000 0.000000 
#    y 0.000000 1.771870 0.000000 
#    z 0.000000 0.000000 1.765420 
# 
# From -- ./inp_files/30724.got.cif
#   From: 2010.03.12/outbox.cif.g09.slc.cpg/sg53_16_cif.got.tgz:30724.got - 2010.04.16 14:36:59.
