data_PCOD8220525
_publ_section_title
;
Structure prediction by ZEFSAII (Michael W. Deem and Ramdas Pophale) SiO2 
 PCOD8220525
Probable space group: P M N A
;
_chemical_formula_sum "Si O2"
_cell_formula_units_Z 48
_cell_length_a 16.164642
_cell_length_b 15.841787
_cell_length_c 9.041089
_cell_angle_alpha 90.000000
_cell_angle_beta 90.000000
_cell_angle_gamma 90.000000
_cell_volume 2315.213280
_symmetry_space_group_name_H-M "P M N A"
_symmetry_group_IT_number 53
_symmetry_cell_setting 'orthorhombic'
loop_
_space_group_symop_operation_xyz
x,y,z
1/2-x,-y,1/2+z
x,-y,-z
1/2-x,y,1/2-z
-x,-y,-z
1/2+x,y,1/2-z
-x,y,z
1/2+x,-y,1/2+z
loop_
_atom_site_type_symbol
_atom_site_label
_atom_site_fract_x
_atom_site_fract_y
_atom_site_fract_z
Si Si1 0.595698 0.845390 0.360618
Si Si2 0.597069 0.660266 0.339395
Si Si3 0.660255 0.003963 0.823166
Si Si4 0.158219 0.161622 0.185384
Si Si5 0.596986 0.658728 0.666801
Si Si6 0.900944 0.497850 0.664035
O O1 0.500000 0.846347 0.413787
O O2 0.616069 0.755240 0.281999
O O3 0.609616 0.915679 0.235957
O O4 0.652481 0.855166 0.507785
O O5 0.500000 0.643784 0.346522
O O6 0.635248 0.652332 0.503238
O O7 0.636289 0.587290 0.237714
O O8 0.750000 0.010297 0.750000
O O9 0.614918 0.918635 0.765388
O O10 0.664689 0.000000 0.000000
O O11 0.250000 0.165200 0.250000
O O12 0.116008 0.249169 0.234489
O O13 0.500000 0.646685 0.662358
O O14 0.635672 0.581966 0.759661
O O15 0.865971 0.500000 0.500000
O O16 0.000000 0.497340 0.667121
#
# Coordination Sequence:
#
# PCOD8220525 Si02
#       6
#     8   8   8   8   8   8
#     4  10  21  38  61  87 115 149 193 244 289 335
#     4   8  15  29  49  75 105 138 178 220 269 328
#     4  11  23  39  58  81 112 152 193 232 286 354
#     4  10  20  36  57  80 109 147 186 229 284 344
#     4   9  17  30  51  75 100 138 185 227 267 321
#     4   9  16  26  44  72 105 138 173 220 274 324
#
# _framework density 20.732430000000001
#
# number of rings (size 3 to 8) (size 9 to 14) (size 15 to 20)
#    0.000    2.500    0.000    4.500    0.000    5.667 
#    0.000    1.667    0.000    5.000    0.000    0.000 
#    0.000    0.000    0.000    0.000    0.000    0.000 
#
# Total GULP energy -594763.448001 kJ/mol
# GULP energy per Si atom -12390.905167 kJ/mol
# Density = 2.068524 g / cm^3
# Si number density = 20.732430 Si / 1000 Ang^3
#
#
#
# Elastic Constant Matrix: (Units=GPa)
#
#
# Indices 1 2 3 4 5 6 
#
# 1 27.2926 15.0544 25.2352 0.0000 0.0000 0.0000
# 2 15.0544 234.7875 107.0417 0.0000 0.0000 0.0000
# 3 25.2352 107.0417 143.9272 0.0000 0.0000 0.0000
# 4 0.0000 0.0000 0.0000 24.6204 0.0000 0.0000
# 5 0.0000 0.0000 0.0000 0.0000 21.2990 0.0000
# 6 0.0000 0.0000 0.0000 0.0000 0.0000 4.1762
#
#
#
# Elastic Compliance Matrix: (Units=1/GPa)
#
#
# Indices 1 2 3 4 5 6 
#
# 1 0.043900 0.001051 -0.008478 0.000000 0.000000 0.000000
# 2 0.001051 0.006469 -0.004996 0.000000 0.000000 0.000000
# 3 -0.008478 -0.004996 0.012150 0.000000 0.000000 0.000000
# 4 0.000000 0.000000 0.000000 0.040617 0.000000 0.000000
# 5 0.000000 0.000000 0.000000 0.000000 0.046951 0.000000
# 6 0.000000 0.000000 0.000000 0.000000 0.000000 0.239454
#
#
# Mechanical properties :
#
#
# Convention : Reuss Voigt Hill
#
# Bulk Modulus (GPa) = 26.54487 77.85222 52.19855
# Shear Modulus (GPa) = 11.71113 27.26418 19.48765
#
# Velocity S-wave (km/s) = 2.37928 3.63030 3.06920
# Velocity P-wave (km/s) = 4.51434 7.42997 6.14751
#
# Compressibility (1/GPa) = 0.03767206
#
# Stress axis : x y z
#
# Youngs Moduli (GPa) = 22.77917 154.57536 82.30577
#
# Poissons Ratio (x) = -0.16239 0.69782
# Poissons Ratio (y) = -0.02393 0.41116
# Poissons Ratio (z) = 0.19313 0.77219
#
# Static dielectric constant tensor:
#      x y z
#    x 3.220990 0.000000 0.000000 
#    y 0.000000 4.541710 0.000000 
#    z 0.000000 0.000000 3.795360 
# 
# 
# High freq. dielectric constant tensor:
#      x y z
#    x 1.761100 0.000000 0.000000 
#    y 0.000000 1.842360 0.000000 
#    z 0.000000 0.000000 1.801550 
# 
# From -- ./inp_files/9945.got.cif
#   From: 2010.03.12/outbox.cif.g09.slc.cpg/sg53_5_cif.got.tgz:9945.got - 2010.04.16 14:36:59.
