data_PCOD8220877
_publ_section_title
;
Structure prediction by ZEFSAII (Michael W. Deem and Ramdas Pophale) SiO2 
 PCOD8220877
Probable space group: P M N A
;
_chemical_formula_sum "Si O2"
_cell_formula_units_Z 56
_cell_length_a 17.263496
_cell_length_b 14.014014
_cell_length_c 11.307771
_cell_angle_alpha 90.000000
_cell_angle_beta 90.000000
_cell_angle_gamma 90.000000
_cell_volume 2735.698928
_symmetry_space_group_name_H-M "P M N A"
_symmetry_group_IT_number 53
_symmetry_cell_setting 'orthorhombic'
loop_
_space_group_symop_operation_xyz
x,y,z
1/2-x,-y,1/2+z
x,-y,-z
1/2-x,y,1/2-z
-x,-y,-z
1/2+x,y,1/2-z
-x,y,z
1/2+x,-y,1/2+z
loop_
_atom_site_type_symbol
_atom_site_label
_atom_site_fract_x
_atom_site_fract_y
_atom_site_fract_z
Si Si1 0.356813 0.304331 0.590100
Si Si2 0.672206 0.225665 0.174154
Si Si3 0.089120 0.356225 0.163828
Si Si4 0.319274 0.307822 0.917737
Si Si5 0.910000 0.838389 0.258120
Si Si6 0.412289 0.965020 0.866962
Si Si7 0.911569 0.551455 0.275648
O O1 0.364511 0.329522 0.453757
O O2 0.268092 0.315239 0.629247
O O3 0.385697 0.196795 0.625554
O O4 0.409159 0.374642 0.667583
O O5 0.750000 0.232194 0.250000
O O6 0.600599 0.269788 0.246025
O O7 0.651055 0.116554 0.150468
O O8 0.681721 0.287999 0.056633
O O9 0.122487 0.451845 0.225671
O O10 0.000000 0.369664 0.130275
O O11 0.362597 0.221123 0.854528
O O12 0.361798 0.408260 0.886490
O O13 0.000000 0.819543 0.283321
O O14 0.891367 0.950135 0.275099
O O15 0.500000 0.928357 0.843891
O O16 0.404658 0.000000 0.000000
O O17 0.000000 0.538121 0.318146
#
# Coordination Sequence:
#
# PCOD8220877 Si02
#       7
#     8   8   8   8   8   8   8
#     4  11  21  39  62  94 129 166 203 253 314 383
#     4  12  25  42  59  91 129 166 207 258 325 382
#     4  11  24  42  63  89 128 171 207 252 312 377
#     4  11  22  39  62  92 125 160 211 262 315 371
#     4  10  20  37  66  96 121 158 213 266 315 372
#     4  10  21  40  66  92 118 159 213 266 316 371
#     4  10  22  40  65  94 120 161 217 261 306 368
#
# _framework density 20.470088000000001
#
# number of rings (size 3 to 8) (size 9 to 14) (size 15 to 20)
#    0.000    1.286    2.857    5.143    0.000    5.714 
#    2.571    2.143    0.000    2.571    0.000    0.000 
#    0.000    0.000    0.000    0.000    0.000    0.000 
#
# Total GULP energy -694366.821732 kJ/mol
# GULP energy per Si atom -12399.407531 kJ/mol
# Density = 2.042350 g / cm^3
# Si number density = 20.470088 Si / 1000 Ang^3
#
#
#
# Elastic Constant Matrix: (Units=GPa)
#
#
# Indices 1 2 3 4 5 6 
#
# 1 84.6419 36.9206 42.3693 0.0000 0.0000 0.0000
# 2 36.9206 112.5238 66.1548 0.0000 0.0000 0.0000
# 3 42.3693 66.1548 108.0863 0.0000 0.0000 0.0000
# 4 0.0000 0.0000 0.0000 33.1054 0.0000 0.0000
# 5 0.0000 0.0000 0.0000 0.0000 22.6393 0.0000
# 6 0.0000 0.0000 0.0000 0.0000 0.0000 21.3862
#
#
#
# Elastic Compliance Matrix: (Units=1/GPa)
#
#
# Indices 1 2 3 4 5 6 
#
# 1 0.015070 -0.002299 -0.004500 0.000000 0.000000 0.000000
# 2 -0.002299 0.014233 -0.007810 0.000000 0.000000 0.000000
# 3 -0.004500 -0.007810 0.015796 0.000000 0.000000 0.000000
# 4 0.000000 0.000000 0.000000 0.030207 0.000000 0.000000
# 5 0.000000 0.000000 0.000000 0.000000 0.044171 0.000000
# 6 0.000000 0.000000 0.000000 0.000000 0.000000 0.046759
#
#
# Mechanical properties :
#
#
# Convention : Reuss Voigt Hill
#
# Bulk Modulus (GPa) = 62.97060 66.23791 64.60426
# Shear Modulus (GPa) = 24.90678 26.08001 25.49340
#
# Velocity S-wave (km/s) = 3.49196 3.57326 3.53285
# Velocity P-wave (km/s) = 6.86203 7.03228 6.94767
#
# Compressibility (1/GPa) = 0.01588043
#
# Stress axis : x y z
#
# Youngs Moduli (GPa) = 66.35716 70.25863 63.30580
#
# Poissons Ratio (x) = 0.16151 0.28490
# Poissons Ratio (y) = 0.15254 0.49444
# Poissons Ratio (z) = 0.29863 0.54874
#
# Static dielectric constant tensor:
#      x y z
#    x 3.688920 0.000000 0.000000 
#    y 0.000000 3.836600 0.000000 
#    z 0.000000 0.000000 3.744280 
# 
# 
# High freq. dielectric constant tensor:
#      x y z
#    x 1.807320 0.000000 0.000000 
#    y 0.000000 1.797570 0.000000 
#    z 0.000000 0.000000 1.797750 
# 
# From -- ./inp_files/16026.got.cif
#   From: 2010.03.12/outbox.cif.g09.slc.cpg/sg53_9_cif.got.tgz:16026.got - 2010.04.16 14:36:59.
