data_PCOD8220422
_publ_section_title
;
Structure prediction by ZEFSAII (Michael W. Deem and Ramdas Pophale) SiO2 
 PCOD8220422
Probable space group: P M N A
;
_chemical_formula_sum "Si O2"
_cell_formula_units_Z 64
_cell_length_a 17.218902
_cell_length_b 12.137841
_cell_length_c 15.314345
_cell_angle_alpha 90.000000
_cell_angle_beta 90.000000
_cell_angle_gamma 90.000000
_cell_volume 3200.702618
_symmetry_space_group_name_H-M "P M N A"
_symmetry_group_IT_number 53
_symmetry_cell_setting 'orthorhombic'
loop_
_space_group_symop_operation_xyz
x,y,z
1/2-x,-y,1/2+z
x,-y,-z
1/2-x,y,1/2-z
-x,-y,-z
1/2+x,y,1/2-z
-x,y,z
1/2+x,-y,1/2+z
loop_
_atom_site_type_symbol
_atom_site_label
_atom_site_fract_x
_atom_site_fract_y
_atom_site_fract_z
Si Si1 0.654058 0.875018 0.571928
Si Si2 0.087833 0.099069 0.895402
Si Si3 0.088070 0.535805 0.721673
Si Si4 0.091747 0.897209 0.299677
Si Si5 0.698464 0.673387 0.669383
Si Si6 0.348821 0.322212 0.072912
Si Si7 0.330785 0.931898 0.916545
Si Si8 0.409005 0.328614 0.886767
O O1 0.641835 0.843624 0.469379
O O2 0.642187 0.769166 0.633548
O O3 0.738051 0.928896 0.586079
O O4 0.590346 0.965941 0.596904
O O5 0.117202 0.131932 0.799168
O O6 0.000000 0.139357 0.909478
O O7 0.145818 0.570501 0.800416
O O8 0.093226 0.620418 0.640950
O O9 0.113561 0.414886 0.689154
O O10 0.000000 0.535345 0.756987
O O11 0.116489 0.793058 0.358035
O O12 0.000000 0.920565 0.304390
O O13 0.137338 0.005741 0.331035
O O14 0.750000 0.719617 0.750000
O O15 0.759654 0.642064 0.593418
O O16 0.363977 0.191549 0.080831
O O17 0.364961 0.362493 0.975038
O O18 0.361378 0.000000 0.000000
O O19 0.500000 0.334850 0.905869
#
# Coordination Sequence:
#
# PCOD8220422 Si02
#       8
#     8   8   8   8   8   8   8   8
#     4  10  20  36  58  81 115 152 196 239 285 347
#     4  10  21  36  55  82 115 153 194 236 283 346
#     4  10  21  37  61  88 113 151 202 246 295 347
#     4  10  23  37  56  88 124 158 191 237 295 356
#     4   9  21  37  58  83 116 150 187 249 299 337
#     4  10  20  35  59  85 122 153 192 239 297 351
#     4  11  20  36  57  86 121 159 187 234 296 358
#     4  10  20  37  61  87 120 156 191 242 296 352
#
# _framework density 19.995609000000002
#
# number of rings (size 3 to 8) (size 9 to 14) (size 15 to 20)
#    0.000    2.000    2.500    1.500    5.250    3.250 
#    0.000    0.000   33.000    0.000    0.000    3.500 
#    0.000    0.000    0.000    0.000    0.000    0.000 
#
# Total GULP energy -793556.670289 kJ/mol
# GULP energy per Si atom -12399.322973 kJ/mol
# Density = 1.995010 g / cm^3
# Si number density = 19.995609 Si / 1000 Ang^3
#
#
#
# Elastic Constant Matrix: (Units=GPa)
#
#
# Indices 1 2 3 4 5 6 
#
# 1 69.5492 34.2431 48.2313 0.0000 0.0000 0.0000
# 2 34.2431 84.3322 27.3701 0.0000 0.0000 0.0000
# 3 48.2313 27.3701 106.2445 0.0000 0.0000 0.0000
# 4 0.0000 0.0000 0.0000 32.4570 0.0000 0.0000
# 5 0.0000 0.0000 0.0000 0.0000 34.7943 0.0000
# 6 0.0000 0.0000 0.0000 0.0000 0.0000 23.1042
#
#
#
# Elastic Compliance Matrix: (Units=1/GPa)
#
#
# Indices 1 2 3 4 5 6 
#
# 1 0.024100 -0.006804 -0.009188 0.000000 0.000000 0.000000
# 2 -0.006804 0.014861 -0.000740 0.000000 0.000000 0.000000
# 3 -0.009188 -0.000740 0.013774 0.000000 0.000000 0.000000
# 4 0.000000 0.000000 0.000000 0.030810 0.000000 0.000000
# 5 0.000000 0.000000 0.000000 0.000000 0.028740 0.000000
# 6 0.000000 0.000000 0.000000 0.000000 0.000000 0.043282
#
#
# Mechanical properties :
#
#
# Convention : Reuss Voigt Hill
#
# Bulk Modulus (GPa) = 51.88933 53.31277 52.60105
# Shear Modulus (GPa) = 25.58165 28.08988 26.83576
#
# Velocity S-wave (km/s) = 3.58070 3.75214 3.66742
# Velocity P-wave (km/s) = 6.56520 6.74474 6.65558
#
# Compressibility (1/GPa) = 0.01927179
#
# Stress axis : x y z
#
# Youngs Moduli (GPa) = 41.49425 67.29203 72.60241
#
# Poissons Ratio (x) = 0.45784 0.66705
# Poissons Ratio (y) = 0.28232 0.05370
# Poissons Ratio (z) = 0.38123 0.04977
#
# Static dielectric constant tensor:
#      x y z
#    x 3.485530 0.000000 0.000000 
#    y 0.000000 3.583350 0.000000 
#    z 0.000000 0.000000 3.775740 
# 
# 
# High freq. dielectric constant tensor:
#      x y z
#    x 1.767940 0.000000 0.000000 
#    y 0.000000 1.763800 0.000000 
#    z 0.000000 0.000000 1.782790 
# 
# From -- ./inp_files/23889.got.cif
#   From: 2010.03.12/outbox.cif.g09.slc.cpg/sg53_12_cif.got.tgz:23889.got - 2010.04.16 14:36:59.
