data_PCOD8220060
_publ_section_title
;
Structure prediction by ZEFSAII (Michael W. Deem and Ramdas Pophale) SiO2 
 PCOD8220060
Probable space group: P M N A
;
_chemical_formula_sum "Si O2"
_cell_formula_units_Z 48
_cell_length_a 8.846834
_cell_length_b 17.210544
_cell_length_c 15.922645
_cell_angle_alpha 90.000000
_cell_angle_beta 90.000000
_cell_angle_gamma 90.000000
_cell_volume 2424.363232
_symmetry_space_group_name_H-M "P M N A"
_symmetry_group_IT_number 53
_symmetry_cell_setting 'orthorhombic'
loop_
_space_group_symop_operation_xyz
x,y,z
1/2-x,-y,1/2+z
x,-y,-z
1/2-x,y,1/2-z
-x,-y,-z
1/2+x,y,1/2-z
-x,y,z
1/2+x,-y,1/2+z
loop_
_atom_site_type_symbol
_atom_site_label
_atom_site_fract_x
_atom_site_fract_y
_atom_site_fract_z
Si Si1 0.819738 0.192757 0.657616
Si Si2 0.323543 0.352977 0.165410
Si Si3 0.320413 0.822330 0.838099
Si Si4 0.680877 0.347578 0.659693
Si Si5 0.320879 0.087370 0.998058
Si Si6 0.837314 0.490010 0.094754
O O1 0.750000 0.173355 0.750000
O O2 0.752284 0.271741 0.614453
O O3 0.772393 0.126693 0.590138
O O4 0.000000 0.199746 0.667106
O O5 0.250000 0.385134 0.250000
O O6 0.500000 0.353268 0.174313
O O7 0.266244 0.266314 0.145066
O O8 0.272328 0.415860 0.097377
O O9 0.250000 0.852868 0.750000
O O10 0.500000 0.828610 0.829878
O O11 0.257610 0.869934 0.918155
O O12 0.750000 0.336874 0.750000
O O13 0.500000 0.343514 0.656944
O O14 0.741066 0.430270 0.626226
O O15 0.500000 0.088100 0.004336
O O16 0.256279 0.000000 0.000000
O O17 0.000000 0.476028 0.141684
O O18 0.878482 0.500000 0.000000
#
# Coordination Sequence:
#
# PCOD8220060 Si02
#       6
#     8   8   8   8   8   8
#     4  10  20  35  58  83 111 145 183 227 272 324
#     4  10  20  34  54  77 104 139 181 226 268 320
#     4   9  19  36  57  83 111 143 185 225 272 327
#     4  10  20  35  54  75 103 140 180 221 266 317
#     4   9  19  36  58  83 112 146 180 220 273 331
#     4  10  22  36  50  75 109 143 179 222 271 318
#
# _framework density 19.799015000000001
#
# number of rings (size 3 to 8) (size 9 to 14) (size 15 to 20)
#    0.000    2.333    0.000    3.000    2.333    4.333 
#    0.000    1.667    0.000    3.500    0.000    0.000 
#    0.000    0.000    0.000    0.000    0.000    0.000 
#
# Total GULP energy -594725.877960 kJ/mol
# GULP energy per Si atom -12390.122457 kJ/mol
# Density = 1.975395 g / cm^3
# Si number density = 19.799015 Si / 1000 Ang^3
#
#
#
# Elastic Constant Matrix: (Units=GPa)
#
#
# Indices 1 2 3 4 5 6 
#
# 1 54.3806 33.8423 26.3118 0.0000 0.0000 0.0000
# 2 33.8423 150.0781 64.9312 0.0000 0.0000 0.0000
# 3 26.3118 64.9312 103.7089 0.0000 0.0000 0.0000
# 4 0.0000 0.0000 0.0000 43.2525 0.0000 0.0000
# 5 0.0000 0.0000 0.0000 0.0000 23.9539 0.0000
# 6 0.0000 0.0000 0.0000 0.0000 0.0000 22.8505
#
#
#
# Elastic Compliance Matrix: (Units=1/GPa)
#
#
# Indices 1 2 3 4 5 6 
#
# 1 0.022248 -0.003531 -0.003434 0.000000 0.000000 0.000000
# 2 -0.003531 0.009699 -0.005177 0.000000 0.000000 0.000000
# 3 -0.003434 -0.005177 0.013755 0.000000 0.000000 0.000000
# 4 0.000000 0.000000 0.000000 0.023120 0.000000 0.000000
# 5 0.000000 0.000000 0.000000 0.000000 0.041747 0.000000
# 6 0.000000 0.000000 0.000000 0.000000 0.000000 0.043763
#
#
# Mechanical properties :
#
#
# Convention : Reuss Voigt Hill
#
# Bulk Modulus (GPa) = 46.68849 62.03759 54.36304
# Shear Modulus (GPa) = 26.91736 30.21687 28.56712
#
# Velocity S-wave (km/s) = 3.69118 3.91087 3.80261
# Velocity P-wave (km/s) = 6.46520 7.19687 6.84083
#
# Compressibility (1/GPa) = 0.02141856
#
# Stress axis : x y z
#
# Youngs Moduli (GPa) = 44.94820 103.10157 72.70335
#
# Poissons Ratio (x) = 0.36409 0.24963
# Poissons Ratio (y) = 0.15873 0.37636
# Poissons Ratio (z) = 0.15433 0.53372
#
# Static dielectric constant tensor:
#      x y z
#    x 3.422480 0.000000 0.000000 
#    y 0.000000 1.506400 0.000000 
#    z 0.000000 0.000000 3.545980 
# 
# 
# High freq. dielectric constant tensor:
#      x y z
#    x 1.754300 0.000000 0.000000 
#    y 0.000000 1.779110 0.000000 
#    z 0.000000 0.000000 1.767250 
# 
# From -- ./inp_files/20248.got.cif
#   From: 2010.03.12/outbox.cif.g09.slc.cpg/sg53_11_cif.got.tgz:20248.got - 2010.04.16 14:36:59.
