data_PCOD8220723
_publ_section_title
;
Structure prediction by ZEFSAII (Michael W. Deem and Ramdas Pophale) SiO2 
 PCOD8220723
Probable space group: P M N A
;
_chemical_formula_sum "Si O2"
_cell_formula_units_Z 32
_cell_length_a 26.981337
_cell_length_b 11.039935
_cell_length_c 5.309119
_cell_angle_alpha 90.000000
_cell_angle_beta 90.000000
_cell_angle_gamma 90.000000
_cell_volume 1581.438992
_symmetry_space_group_name_H-M "P M N A"
_symmetry_group_IT_number 53
_symmetry_cell_setting 'orthorhombic'
loop_
_space_group_symop_operation_xyz
x,y,z
1/2-x,-y,1/2+z
x,-y,-z
1/2-x,y,1/2-z
-x,-y,-z
1/2+x,y,1/2-z
-x,y,z
1/2+x,-y,1/2+z
loop_
_atom_site_type_symbol
_atom_site_label
_atom_site_fract_x
_atom_site_fract_y
_atom_site_fract_z
Si Si1 0.718082 0.000000 0.000000
Si Si2 0.942462 0.623066 0.253205
Si Si3 0.901778 0.643505 0.754054
Si Si4 0.250000 0.576912 0.250000
Si Si5 0.801383 0.740354 0.597229
O O1 0.750000 0.977020 0.250000
O O2 0.684593 0.120183 0.036199
O O3 0.927342 0.699204 0.501839
O O4 0.909929 0.500799 0.249745
O O5 0.000000 0.588261 0.256169
O O6 0.928288 0.698968 0.002717
O O7 0.844029 0.678018 0.761990
O O8 0.265787 0.500000 0.500000
O O9 0.204499 0.663230 0.338165
O O10 0.750000 0.735344 0.750000
#
# Coordination Sequence:
#
# PCOD8220723 Si02
#       5
#     4   8   8   4   8
#     4  10  22  42  64  78 113 172 221 254 284 338
#     4  10  20  37  55  82 117 156 197 240 307 381
#     4  10  21  31  57  82 112 151 197 241 298 351
#     4  12  26  36  56  82 132 162 190 238 310 358
#     4  11  25  41  60  88 125 167 211 248 297 355
#
# _framework density 20.234736000000002
#
# number of rings (size 3 to 8) (size 9 to 14) (size 15 to 20)
#    0.000    1.500    2.500    3.750    7.000    2.000 
#    0.000    0.000    0.000    0.000    0.000    9.625 
#    0.000    0.000    0.000    0.000    0.000    0.000 
#
# Total GULP energy -396439.781036 kJ/mol
# GULP energy per Si atom -12388.743157 kJ/mol
# Density = 2.018868 g / cm^3
# Si number density = 20.234736 Si / 1000 Ang^3
#
#
#
# Elastic Constant Matrix: (Units=GPa)
#
#
# Indices 1 2 3 4 5 6 
#
# 1 128.7885 49.3045 50.9303 0.0000 0.0000 0.0000
# 2 49.3045 100.7581 26.9335 0.0000 0.0000 0.0000
# 3 50.9303 26.9335 194.1381 0.0000 0.0000 0.0000
# 4 0.0000 0.0000 0.0000 16.7081 0.0000 0.0000
# 5 0.0000 0.0000 0.0000 0.0000 33.1710 0.0000
# 6 0.0000 0.0000 0.0000 0.0000 0.0000 5.9071
#
#
#
# Elastic Compliance Matrix: (Units=1/GPa)
#
#
# Indices 1 2 3 4 5 6 
#
# 1 0.010305 -0.004486 -0.002081 0.000000 0.000000 0.000000
# 2 -0.004486 0.012260 -0.000524 0.000000 0.000000 0.000000
# 3 -0.002081 -0.000524 0.005770 0.000000 0.000000 0.000000
# 4 0.000000 0.000000 0.000000 0.059851 0.000000 0.000000
# 5 0.000000 0.000000 0.000000 0.000000 0.030147 0.000000
# 6 0.000000 0.000000 0.000000 0.000000 0.000000 0.169287
#
#
# Mechanical properties :
#
#
# Convention : Reuss Voigt Hill
#
# Bulk Modulus (GPa) = 70.66051 75.33568 72.99810
# Shear Modulus (GPa) = 16.31213 30.92501 23.61857
#
# Velocity S-wave (km/s) = 2.84235 3.91361 3.42018
# Velocity P-wave (km/s) = 6.76522 7.59825 7.19380
#
# Compressibility (1/GPa) = 0.01415218
#
# Stress axis : x y z
#
# Youngs Moduli (GPa) = 97.03861 81.56498 173.32217
#
# Poissons Ratio (x) = 0.36593 0.36069
# Poissons Ratio (y) = 0.43535 0.09081
# Poissons Ratio (z) = 0.20194 0.04273
#
# Static dielectric constant tensor:
#      x y z
#    x 3.379690 0.000000 0.000000 
#    y 0.000000 3.621260 0.000000 
#    z 0.000000 0.000000 5.590000 
# 
# 
# High freq. dielectric constant tensor:
#      x y z
#    x 1.763900 0.000000 0.000000 
#    y 0.000000 1.730110 0.000000 
#    z 0.000000 0.000000 1.833540 
# 
# From -- ./inp_files/3420.got.cif
#   From: 2010.03.12/outbox.cif.g09.slc.cpg/sg53_2_cif.got.tgz:3420.got - 2010.04.16 14:36:59.
