data_PCOD8220590
_publ_section_title
;
Structure prediction by ZEFSAII (Michael W. Deem and Ramdas Pophale) SiO2 
 PCOD8220590
Probable space group: P M N A
;
_chemical_formula_sum "Si O2"
_cell_formula_units_Z 48
_cell_length_a 9.427802
_cell_length_b 29.469682
_cell_length_c 9.125635
_cell_angle_alpha 90.000000
_cell_angle_beta 90.000000
_cell_angle_gamma 90.000000
_cell_volume 2535.414658
_symmetry_space_group_name_H-M "P M N A"
_symmetry_group_IT_number 53
_symmetry_cell_setting 'orthorhombic'
loop_
_space_group_symop_operation_xyz
x,y,z
1/2-x,-y,1/2+z
x,-y,-z
1/2-x,y,1/2-z
-x,-y,-z
1/2+x,y,1/2-z
-x,y,z
1/2+x,-y,1/2+z
loop_
_atom_site_type_symbol
_atom_site_label
_atom_site_fract_x
_atom_site_fract_y
_atom_site_fract_z
Si Si1 0.500000 0.451540 0.075246
Si Si2 0.000000 0.453599 0.084641
Si Si3 0.670310 0.130352 0.597921
Si Si4 0.166603 0.042794 0.603135
Si Si5 0.836708 0.784481 0.898111
Si Si6 0.332111 0.698996 0.401095
Si Si7 0.747089 0.611436 0.578616
O O1 0.500000 0.464254 0.244655
O O2 0.623767 0.418644 0.026621
O O3 0.500000 0.500000 0.000000
O O4 0.127416 0.423079 0.035038
O O5 0.000000 0.500000 0.000000
O O6 0.750000 0.142370 0.750000
O O7 0.500000 0.123762 0.621630
O O8 0.747670 0.085392 0.533467
O O9 0.701777 0.169486 0.482008
O O10 0.250000 0.029837 0.750000
O O11 0.000000 0.054765 0.631834
O O12 0.179643 0.000000 0.500000
O O13 0.750000 0.780623 0.750000
O O14 0.000000 0.783159 0.852814
O O15 0.798517 0.743160 0.004032
O O16 0.250000 0.704717 0.250000
O O17 0.500000 0.692700 0.374476
O O18 0.265232 0.656941 0.486728
O O19 0.750000 0.624833 0.750000
#
# Coordination Sequence:
#
# PCOD8220590 Si02
#       7
#     4   4   8   8   8   8   8
#     4  10  22  36  58  88 114 148 194 232 281 340
#     4  10  20  36  58  82 116 154 186 234 283 328
#     4  10  20  36  59  85 117 154 196 245 293 346
#     4  10  21  36  56  83 116 156 200 246 297 351
#     4  10  23  41  61  88 119 153 192 236 289 346
#     4  11  24  41  61  88 118 150 190 237 286 341
#     4  10  21  39  60  83 116 153 189 234 284 338
#
# _framework density 18.931813999999999
#
# number of rings (size 3 to 8) (size 9 to 14) (size 15 to 20)
#    0.000    1.833    0.833    3.500    1.167    5.333 
#    0.000    3.333    0.000    0.000    0.000    0.000 
#    0.000    0.000    0.000    0.000    0.000    0.000 
#
# Total GULP energy -594865.631597 kJ/mol
# GULP energy per Si atom -12393.033992 kJ/mol
# Density = 1.888872 g / cm^3
# Si number density = 18.931814 Si / 1000 Ang^3
#
#
#
# Elastic Constant Matrix: (Units=GPa)
#
#
# Indices 1 2 3 4 5 6 
#
# 1 158.0098 81.1723 69.9833 0.0000 0.0000 0.0000
# 2 81.1723 169.2597 90.5521 0.0000 0.0000 0.0000
# 3 69.9833 90.5521 107.6772 0.0000 0.0000 0.0000
# 4 0.0000 0.0000 0.0000 39.9262 0.0000 0.0000
# 5 0.0000 0.0000 0.0000 0.0000 34.6672 0.0000
# 6 0.0000 0.0000 0.0000 0.0000 0.0000 34.8719
#
#
#
# Elastic Compliance Matrix: (Units=1/GPa)
#
#
# Indices 1 2 3 4 5 6 
#
# 1 0.009331 -0.002237 -0.004183 0.000000 0.000000 0.000000
# 2 -0.002237 0.011276 -0.008029 0.000000 0.000000 0.000000
# 3 -0.004183 -0.008029 0.018758 0.000000 0.000000 0.000000
# 4 0.000000 0.000000 0.000000 0.025046 0.000000 0.000000
# 5 0.000000 0.000000 0.000000 0.000000 0.028846 0.000000
# 6 0.000000 0.000000 0.000000 0.000000 0.000000 0.028676
#
#
# Mechanical properties :
#
#
# Convention : Reuss Voigt Hill
#
# Bulk Modulus (GPa) = 95.54200 102.04022 98.79111
# Shear Modulus (GPa) = 32.40014 34.77566 33.58790
#
# Velocity S-wave (km/s) = 4.14141 4.29055 4.21664
# Velocity P-wave (km/s) = 8.56996 8.86346 8.71795
#
# Compressibility (1/GPa) = 0.01046660
#
# Stress axis : x y z
#
# Youngs Moduli (GPa) = 107.17502 88.68218 53.31025
#
# Poissons Ratio (x) = 0.19835 0.22301
# Poissons Ratio (y) = 0.23971 0.42804
# Poissons Ratio (z) = 0.44835 0.71204
#
# Static dielectric constant tensor:
#      x y z
#    x 3.765910 0.000000 0.000000 
#    y 0.000000 3.591350 0.000000 
#    z 0.000000 0.000000 3.285030 
# 
# 
# High freq. dielectric constant tensor:
#      x y z
#    x 1.755020 0.000000 0.000000 
#    y 0.000000 1.755040 0.000000 
#    z 0.000000 0.000000 1.728730 
# 
# From -- ./inp_files/6844.got.cif
#   From: 2010.03.12/outbox.cif.g09.slc.cpg/sg53_4_cif.got.tgz:6844.got - 2010.04.16 14:36:59.
