data_PCOD8220767
_publ_section_title
;
Structure prediction by ZEFSAII (Michael W. Deem and Ramdas Pophale) SiO2 
 PCOD8220767
Probable space group: P M N A
;
_chemical_formula_sum "Si O2"
_cell_formula_units_Z 48
_cell_length_a 8.691206
_cell_length_b 30.464563
_cell_length_c 9.164763
_cell_angle_alpha 90.000000
_cell_angle_beta 90.000000
_cell_angle_gamma 90.000000
_cell_volume 2426.589059
_symmetry_space_group_name_H-M "P M N A"
_symmetry_group_IT_number 53
_symmetry_cell_setting 'orthorhombic'
loop_
_space_group_symop_operation_xyz
x,y,z
1/2-x,-y,1/2+z
x,-y,-z
1/2-x,y,1/2-z
-x,-y,-z
1/2+x,y,1/2-z
-x,y,z
1/2+x,-y,1/2+z
loop_
_atom_site_type_symbol
_atom_site_label
_atom_site_fract_x
_atom_site_fract_y
_atom_site_fract_z
Si Si1 0.819249 0.620564 0.097973
Si Si2 0.317478 0.279784 0.593832
Si Si3 0.818920 0.041319 0.090363
Si Si4 0.817634 0.873366 0.091048
Si Si5 0.817295 0.794930 0.591230
Si Si6 0.318022 0.458878 0.407414
O O1 0.750000 0.604964 0.250000
O O2 0.769037 0.670135 0.059345
O O3 0.000000 0.617615 0.114359
O O4 0.758323 0.587006 0.975728
O O5 0.250000 0.264859 0.750000
O O6 0.500000 0.272795 0.595783
O O7 0.241890 0.252069 0.464155
O O8 0.750000 0.041810 0.250000
O O9 0.000000 0.037290 0.105954
O O10 0.770420 0.085432 0.007730
O O11 0.752710 0.000000 0.000000
O O12 0.750000 0.881823 0.250000
O O13 0.000000 0.866716 0.099831
O O14 0.740671 0.830615 0.023330
O O15 0.750000 0.805359 0.750000
O O16 0.000000 0.795395 0.600140
O O17 0.256602 0.500000 0.500000
O O18 0.250000 0.463750 0.250000
O O19 0.500000 0.459333 0.398496
#
# Coordination Sequence:
#
# PCOD8220767 Si02
#       6
#     8   8   8   8   8   8
#     4   9  19  35  56  82 111 144 183 227 273 327
#     4  10  20  37  59  84 114 148 188 231 279 334
#     4  10  22  39  60  88 120 154 193 236 283 336
#     4  11  23  40  62  88 118 153 194 237 285 339
#     4  12  25  41  60  84 115 150 190 236 287 339
#     4  10  21  36  54  79 110 143 182 226 273 327
#
# _framework density 19.780854000000001
#
# number of rings (size 3 to 8) (size 9 to 14) (size 15 to 20)
#    0.000    1.667    0.000    4.500    0.000    5.333 
#    0.000    1.667    0.000    0.000    0.000    0.000 
#    0.000    0.000    0.000    0.000    0.000    0.000 
#
# Total GULP energy -595397.824558 kJ/mol
# GULP energy per Si atom -12404.121345 kJ/mol
# Density = 1.973583 g / cm^3
# Si number density = 19.780854 Si / 1000 Ang^3
#
#
#
# Elastic Constant Matrix: (Units=GPa)
#
#
# Indices 1 2 3 4 5 6 
#
# 1 70.9943 40.7808 45.2919 0.0000 0.0000 0.0000
# 2 40.7808 128.4625 75.0420 0.0000 0.0000 0.0000
# 3 45.2919 75.0420 163.9489 0.0000 0.0000 0.0000
# 4 0.0000 0.0000 0.0000 50.2343 0.0000 0.0000
# 5 0.0000 0.0000 0.0000 0.0000 39.5317 0.0000
# 6 0.0000 0.0000 0.0000 0.0000 0.0000 16.2708
#
#
#
# Elastic Compliance Matrix: (Units=1/GPa)
#
#
# Indices 1 2 3 4 5 6 
#
# 1 0.018447 -0.003930 -0.003297 0.000000 0.000000 0.000000
# 2 -0.003930 0.011463 -0.004161 0.000000 0.000000 0.000000
# 3 -0.003297 -0.004161 0.008915 0.000000 0.000000 0.000000
# 4 0.000000 0.000000 0.000000 0.019907 0.000000 0.000000
# 5 0.000000 0.000000 0.000000 0.000000 0.025296 0.000000
# 6 0.000000 0.000000 0.000000 0.000000 0.000000 0.061460
#
#
# Mechanical properties :
#
#
# Convention : Reuss Voigt Hill
#
# Bulk Modulus (GPa) = 62.31320 76.18167 69.24744
# Shear Modulus (GPa) = 28.79989 34.69344 31.74667
#
# Velocity S-wave (km/s) = 3.81983 4.19249 4.01049
# Velocity P-wave (km/s) = 7.14317 7.87607 7.51856
#
# Compressibility (1/GPa) = 0.01604796
#
# Stress axis : x y z
#
# Youngs Moduli (GPa) = 54.21071 87.24076 112.17211
#
# Poissons Ratio (x) = 0.34284 0.36986
# Poissons Ratio (y) = 0.21304 0.46674
# Poissons Ratio (z) = 0.17875 0.36300
#
# Static dielectric constant tensor:
#      x y z
#    x 3.580500 0.000000 0.000000 
#    y 0.000000 3.978730 0.000000 
#    z 0.000000 0.000000 3.643880 
# 
# 
# High freq. dielectric constant tensor:
#      x y z
#    x 1.771180 0.000000 0.000000 
#    y 0.000000 1.789660 0.000000 
#    z 0.000000 0.000000 1.778640 
# 
# From -- ./inp_files/6586.got.cif
#   From: 2010.03.12/outbox.cif.g09.slc.cpg/sg53_4_cif.got.tgz:6586.got - 2010.04.16 14:36:59.
