data_PCOD8220319
_publ_section_title
;
Structure prediction by ZEFSAII (Michael W. Deem and Ramdas Pophale) SiO2 
 PCOD8220319
Probable space group: P M N A
;
_chemical_formula_sum "Si O2"
_cell_formula_units_Z 48
_cell_length_a 8.688114
_cell_length_b 18.135061
_cell_length_c 15.245927
_cell_angle_alpha 90.000000
_cell_angle_beta 90.000000
_cell_angle_gamma 90.000000
_cell_volume 2402.140290
_symmetry_space_group_name_H-M "P M N A"
_symmetry_group_IT_number 53
_symmetry_cell_setting 'orthorhombic'
loop_
_space_group_symop_operation_xyz
x,y,z
1/2-x,-y,1/2+z
x,-y,-z
1/2-x,y,1/2-z
-x,-y,-z
1/2+x,y,1/2-z
-x,y,z
1/2+x,-y,1/2+z
loop_
_atom_site_type_symbol
_atom_site_label
_atom_site_fract_x
_atom_site_fract_y
_atom_site_fract_z
Si Si1 0.681427 0.560563 0.658216
Si Si2 0.682337 0.891294 0.160246
Si Si3 0.679828 0.402151 0.840312
Si Si4 0.679605 0.174805 0.486458
Si Si5 0.820992 0.329537 0.478785
Si Si6 0.830883 0.041873 0.408734
O O1 0.750000 0.589878 0.750000
O O2 0.500000 0.556390 0.667194
O O3 0.744881 0.479983 0.635301
O O4 0.725406 0.614665 0.580173
O O5 0.750000 0.858296 0.250000
O O6 0.500000 0.878554 0.153243
O O7 0.763037 0.848054 0.082046
O O8 0.724727 0.978857 0.158989
O O9 0.750000 0.369691 0.750000
O O10 0.500000 0.415184 0.826360
O O11 0.713583 0.345242 0.918744
O O12 0.500000 0.191047 0.488616
O O13 0.768569 0.247342 0.455673
O O14 0.713843 0.110372 0.415183
O O15 0.000000 0.339437 0.457220
O O16 0.000000 0.072614 0.383134
O O17 0.843327 0.000000 0.500000
#
# Coordination Sequence:
#
# PCOD8220319 Si02
#       6
#     8   8   8   8   8   8
#     4  11  22  38  61  86 113 146 188 238 288 341
#     4  10  20  35  56  81 109 142 180 224 273 326
#     4  10  21  37  59  85 114 150 190 235 284 336
#     4  11  22  35  54  80 110 144 183 225 275 334
#     4  11  23  39  58  82 116 155 194 236 286 341
#     4   8  16  33  54  74 100 135 173 213 260 312
#
# _framework density 19.982181000000001
#
# number of rings (size 3 to 8) (size 9 to 14) (size 15 to 20)
#    0.000    1.833    0.000    7.000    0.000    9.000 
#    0.000    2.500    0.000    2.000    0.000    0.000 
#    0.000    0.000    0.000    0.000    0.000    0.000 
#
# Total GULP energy -595197.400205 kJ/mol
# GULP energy per Si atom -12399.945838 kJ/mol
# Density = 1.993670 g / cm^3
# Si number density = 19.982181 Si / 1000 Ang^3
#
#
#
# Elastic Constant Matrix: (Units=GPa)
#
#
# Indices 1 2 3 4 5 6 
#
# 1 106.2067 30.4947 29.7827 0.0000 0.0000 0.0000
# 2 30.4947 65.5080 2.7468 0.0000 0.0000 0.0000
# 3 29.7827 2.7468 38.8557 0.0000 0.0000 0.0000
# 4 0.0000 0.0000 0.0000 15.6779 0.0000 0.0000
# 5 0.0000 0.0000 0.0000 0.0000 25.1100 0.0000
# 6 0.0000 0.0000 0.0000 0.0000 0.0000 17.5455
#
#
#
# Elastic Compliance Matrix: (Units=1/GPa)
#
#
# Indices 1 2 3 4 5 6 
#
# 1 0.014077 -0.006119 -0.010357 0.000000 0.000000 0.000000
# 2 -0.006119 0.017970 0.003420 0.000000 0.000000 0.000000
# 3 -0.010357 0.003420 0.033433 0.000000 0.000000 0.000000
# 4 0.000000 0.000000 0.000000 0.063784 0.000000 0.000000
# 5 0.000000 0.000000 0.000000 0.000000 0.039825 0.000000
# 6 0.000000 0.000000 0.000000 0.000000 0.000000 0.056995
#
#
# Mechanical properties :
#
#
# Convention : Reuss Voigt Hill
#
# Bulk Modulus (GPa) = 25.40154 37.40208 31.40181
# Shear Modulus (GPa) = 18.84521 21.50309 20.17415
#
# Velocity S-wave (km/s) = 3.07433 3.28397 3.18088
# Velocity P-wave (km/s) = 5.03405 5.75653 5.40737
#
# Compressibility (1/GPa) = 0.03936769
#
# Stress axis : x y z
#
# Youngs Moduli (GPa) = 71.03858 55.64757 29.91023
#
# Poissons Ratio (x) = 0.34049 0.30979
# Poissons Ratio (y) = 0.43466 -0.10228
# Poissons Ratio (z) = 0.73577 -0.19029
#
# Static dielectric constant tensor:
#      x y z
#    x 3.682540 0.000000 0.000000 
#    y 0.000000 3.620310 0.000000 
#    z 0.000000 0.000000 3.880140 
# 
# 
# High freq. dielectric constant tensor:
#      x y z
#    x 1.790770 0.000000 0.000000 
#    y 0.000000 1.773110 0.000000 
#    z 0.000000 0.000000 1.769630 
# 
# From -- ./inp_files/26296.got.cif
#   From: 2010.03.12/outbox.cif.g09.slc.cpg/sg53_14_cif.got.tgz:26296.got - 2010.04.16 14:36:59.
