data_PCOD8220804
_publ_section_title
;
Structure prediction by ZEFSAII (Michael W. Deem and Ramdas Pophale) SiO2 
 PCOD8220804
Probable space group: P M N A
;
_chemical_formula_sum "Si O2"
_cell_formula_units_Z 40
_cell_length_a 8.878849
_cell_length_b 24.950138
_cell_length_c 9.180162
_cell_angle_alpha 90.000000
_cell_angle_beta 90.000000
_cell_angle_gamma 90.000000
_cell_volume 2033.667590
_symmetry_space_group_name_H-M "P M N A"
_symmetry_group_IT_number 53
_symmetry_cell_setting 'orthorhombic'
loop_
_space_group_symop_operation_xyz
x,y,z
1/2-x,-y,1/2+z
x,-y,-z
1/2-x,y,1/2-z
-x,-y,-z
1/2+x,y,1/2-z
-x,y,z
1/2+x,-y,1/2+z
loop_
_atom_site_type_symbol
_atom_site_label
_atom_site_fract_x
_atom_site_fract_y
_atom_site_fract_z
Si Si1 0.825560 0.447497 0.595849
Si Si2 0.174521 0.051567 0.401768
Si Si3 0.321826 0.137752 0.598505
Si Si4 0.677336 0.356393 0.406567
Si Si5 0.824877 0.740584 0.102258
O O1 0.804731 0.500000 0.500000
O O2 0.750000 0.459138 0.750000
O O3 0.742235 0.398716 0.519254
O O4 0.000000 0.432718 0.617558
O O5 0.250000 0.037436 0.250000
O O6 0.256435 0.103004 0.468108
O O7 0.000000 0.065373 0.380803
O O8 0.199923 0.000000 0.500000
O O9 0.250000 0.118074 0.750000
O O10 0.500000 0.130299 0.608056
O O11 0.273265 0.198984 0.565694
O O12 0.750000 0.364309 0.250000
O O13 0.500000 0.365149 0.391988
O O14 0.718479 0.297319 0.466950
O O15 0.750000 0.719047 0.250000
O O16 0.000000 0.738629 0.133811
#
# Coordination Sequence:
#
# PCOD8220804 Si02
#       5
#     8   8   8   8   8
#     4  11  24  41  62  88 118 152 191 236 286 340
#     4  11  24  40  59  84 114 149 189 234 285 339
#     4  10  20  37  60  86 117 151 190 234 283 338
#     4  11  23  39  59  85 118 154 194 238 286 338
#     4   9  20  37  58  85 115 150 190 234 283 337
#
# _framework density 19.668896
#
# number of rings (size 3 to 8) (size 9 to 14) (size 15 to 20)
#    0.000    1.600    0.000    4.200    0.000   11.200 
#    0.000    2.000    0.000    0.000    0.000    0.000 
#    0.000    0.000    0.000    0.000    0.000    0.000 
#
# Total GULP energy -496213.440344 kJ/mol
# GULP energy per Si atom -12405.336009 kJ/mol
# Density = 1.962413 g / cm^3
# Si number density = 19.668896 Si / 1000 Ang^3
#
#
#
# Elastic Constant Matrix: (Units=GPa)
#
#
# Indices 1 2 3 4 5 6 
#
# 1 116.5506 56.9583 69.4521 0.0000 0.0000 0.0000
# 2 56.9583 88.5618 47.7270 0.0000 0.0000 0.0000
# 3 69.4521 47.7270 136.7324 0.0000 0.0000 0.0000
# 4 0.0000 0.0000 0.0000 40.6922 0.0000 0.0000
# 5 0.0000 0.0000 0.0000 0.0000 38.8229 0.0000
# 6 0.0000 0.0000 0.0000 0.0000 0.0000 26.7402
#
#
#
# Elastic Compliance Matrix: (Units=1/GPa)
#
#
# Indices 1 2 3 4 5 6 
#
# 1 0.015063 -0.006854 -0.005259 0.000000 0.000000 0.000000
# 2 -0.006854 0.017026 -0.002462 0.000000 0.000000 0.000000
# 3 -0.005259 -0.002462 0.010844 0.000000 0.000000 0.000000
# 4 0.000000 0.000000 0.000000 0.024575 0.000000 0.000000
# 5 0.000000 0.000000 0.000000 0.000000 0.025758 0.000000
# 6 0.000000 0.000000 0.000000 0.000000 0.000000 0.037397
#
#
# Mechanical properties :
#
#
# Convention : Reuss Voigt Hill
#
# Bulk Modulus (GPa) = 72.54461 76.67996 74.61228
# Shear Modulus (GPa) = 30.41240 32.43155 31.42197
#
# Velocity S-wave (km/s) = 3.93646 4.06504 4.00127
# Velocity P-wave (km/s) = 7.59105 7.81682 7.70476
#
# Compressibility (1/GPa) = 0.01378462
#
# Stress axis : x y z
#
# Youngs Moduli (GPa) = 66.38730 58.73305 92.21654
#
# Poissons Ratio (x) = 0.40254 0.48495
# Poissons Ratio (y) = 0.45500 0.22701
# Poissons Ratio (z) = 0.34912 0.14459
#
# Static dielectric constant tensor:
#      x y z
#    x 3.742230 0.000000 0.000000 
#    y 0.000000 3.862180 0.000000 
#    z 0.000000 0.000000 3.476780 
# 
# 
# High freq. dielectric constant tensor:
#      x y z
#    x 1.780080 0.000000 0.000000 
#    y 0.000000 1.778970 0.000000 
#    z 0.000000 0.000000 1.772200 
# 
# From -- ./inp_files/6263.got.cif
#   From: 2010.03.12/outbox.cif.g09.slc.cpg/sg53_4_cif.got.tgz:6263.got - 2010.04.16 14:36:59.
