data_PCOD8220680
_publ_section_title
;
Structure prediction by ZEFSAII (Michael W. Deem and Ramdas Pophale) SiO2 
 PCOD8220680
Probable space group: P M N A
;
_chemical_formula_sum "Si O2"
_cell_formula_units_Z 64
_cell_length_a 8.859232
_cell_length_b 15.448797
_cell_length_c 23.839598
_cell_angle_alpha 90.000000
_cell_angle_beta 90.000000
_cell_angle_gamma 90.000000
_cell_volume 3262.794106
_symmetry_space_group_name_H-M "P M N A"
_symmetry_group_IT_number 53
_symmetry_cell_setting 'orthorhombic'
loop_
_space_group_symop_operation_xyz
x,y,z
1/2-x,-y,1/2+z
x,-y,-z
1/2-x,y,1/2-z
-x,-y,-z
1/2+x,y,1/2-z
-x,y,z
1/2+x,-y,1/2+z
loop_
_atom_site_type_symbol
_atom_site_label
_atom_site_fract_x
_atom_site_fract_y
_atom_site_fract_z
Si Si1 0.322051 0.000983 0.810219
Si Si2 0.678491 0.400308 0.999987
Si Si3 0.322580 0.500587 0.310438
Si Si4 0.821257 0.341664 0.113612
Si Si5 0.321993 0.660288 0.386316
Si Si6 0.321974 0.835667 0.116587
Si Si7 0.820996 0.834364 0.620700
Si Si8 0.321458 0.903907 0.997381
O O1 0.250000 0.010137 0.750000
O O2 0.500000 0.001451 0.804122
O O3 0.268312 0.912138 0.839056
O O4 0.268836 0.081685 0.847808
O O5 0.500000 0.389712 0.002933
O O6 0.749144 0.351929 0.052669
O O7 0.729792 0.500000 0.000000
O O8 0.737473 0.354581 0.944499
O O9 0.250000 0.497760 0.250000
O O10 0.500000 0.497160 0.302632
O O11 0.265113 0.419055 0.346496
O O12 0.271610 0.587535 0.342089
O O13 0.762508 0.252474 0.141014
O O14 0.000000 0.341265 0.107764
O O15 0.500000 0.658346 0.396639
O O16 0.268352 0.752118 0.361174
O O17 0.500000 0.819833 0.122679
O O18 0.273942 0.850366 0.052082
O O19 0.763384 0.854947 0.557819
O O20 0.000000 0.820770 0.623112
O O21 0.500000 0.913660 0.993872
O O22 0.250065 0.000000 0.000000
#
# Coordination Sequence:
#
# PCOD8220680 Si02
#       8
#     8   8   8   8   8   8   8   8
#     4  10  22  39  59  83 117 158 200 246 296 348
#     4  11  22  37  62  93 121 156 198 239 287 352
#     4  10  24  43  62  83 113 156 200 244 297 348
#     4  11  23  40  61  88 123 159 192 241 303 355
#     4  11  23  40  61  88 123 159 192 241 303 355
#     4  10  20  36  60  89 116 150 195 242 293 353
#     4  10  20  36  60  89 116 150 195 242 293 353
#     4   9  15  30  58  85 111 142 181 232 287 338
#
# _framework density 19.615089999999999
#
# number of rings (size 3 to 8) (size 9 to 14) (size 15 to 20)
#    0.000    1.750    2.500    1.875    0.000    5.500 
#    0.000    5.000    0.000    0.750    0.000    0.000 
#    0.000    0.000    0.000    0.000    0.000    0.000 
#
# Total GULP energy -793835.768840 kJ/mol
# GULP energy per Si atom -12403.683888 kJ/mol
# Density = 1.957045 g / cm^3
# Si number density = 19.615090 Si / 1000 Ang^3
#
#
#
# Elastic Constant Matrix: (Units=GPa)
#
#
# Indices 1 2 3 4 5 6 
#
# 1 41.1365 34.2420 22.0862 0.0000 0.0000 0.0000
# 2 34.2420 126.5774 10.7758 0.0000 0.0000 0.0000
# 3 22.0862 10.7758 81.6271 0.0000 0.0000 0.0000
# 4 0.0000 0.0000 0.0000 12.4012 0.0000 0.0000
# 5 0.0000 0.0000 0.0000 0.0000 32.4041 0.0000
# 6 0.0000 0.0000 0.0000 0.0000 0.0000 30.9468
#
#
#
# Elastic Compliance Matrix: (Units=1/GPa)
#
#
# Indices 1 2 3 4 5 6 
#
# 1 0.036604 -0.009162 -0.008695 0.000000 0.000000 0.000000
# 2 -0.009162 0.010283 0.001121 0.000000 0.000000 0.000000
# 3 -0.008695 0.001121 0.014455 0.000000 0.000000 0.000000
# 4 0.000000 0.000000 0.000000 0.080638 0.000000 0.000000
# 5 0.000000 0.000000 0.000000 0.000000 0.030860 0.000000
# 6 0.000000 0.000000 0.000000 0.000000 0.000000 0.032314
#
#
# Mechanical properties :
#
#
# Convention : Reuss Voigt Hill
#
# Bulk Modulus (GPa) = 35.87785 42.61655 39.24720
# Shear Modulus (GPa) = 20.16822 27.29955 23.73388
#
# Velocity S-wave (km/s) = 3.21003 3.73468 3.48225
# Velocity P-wave (km/s) = 5.66301 6.35379 6.01832
#
# Compressibility (1/GPa) = 0.02787235
#
# Stress axis : x y z
#
# Youngs Moduli (GPa) = 27.31955 97.24462 69.17870
#
# Poissons Ratio (x) = 0.89095 0.60148
# Poissons Ratio (y) = 0.25030 -0.07758
# Poissons Ratio (z) = 0.23753 -0.10906
#
# Static dielectric constant tensor:
#      x y z
#    x 3.315430 0.000000 0.000000 
#    y 0.000000 3.903810 0.000000 
#    z 0.000000 0.000000 3.636700 
# 
# 
# High freq. dielectric constant tensor:
#      x y z
#    x 1.743820 0.000000 0.000000 
#    y 0.000000 1.785940 0.000000 
#    z 0.000000 0.000000 1.761800 
# 
# From -- ./inp_files/34160.got.cif
#   From: 2010.03.12/outbox.cif.g09.slc.cpg/sg53_18_cif.got.tgz:34160.got - 2010.04.16 14:36:59.
