data_PCOD8220507
_publ_section_title
;
Structure prediction by ZEFSAII (Michael W. Deem and Ramdas Pophale) SiO2 
 PCOD8220507
Probable space group: P M N A
;
_chemical_formula_sum "Si O2"
_cell_formula_units_Z 64
_cell_length_a 17.528524
_cell_length_b 17.904859
_cell_length_c 10.331141
_cell_angle_alpha 90.000000
_cell_angle_beta 90.000000
_cell_angle_gamma 90.000000
_cell_volume 3242.384703
_symmetry_space_group_name_H-M "P M N A"
_symmetry_group_IT_number 53
_symmetry_cell_setting 'orthorhombic'
loop_
_space_group_symop_operation_xyz
x,y,z
1/2-x,-y,1/2+z
x,-y,-z
1/2-x,y,1/2-z
-x,-y,-z
1/2+x,y,1/2-z
-x,y,z
1/2+x,-y,1/2+z
loop_
_atom_site_type_symbol
_atom_site_label
_atom_site_fract_x
_atom_site_fract_y
_atom_site_fract_z
Si Si1 0.409049 0.916733 0.256420
Si Si2 0.590888 0.160715 0.001705
Si Si3 0.160299 0.583379 0.244370
Si Si4 0.409820 0.328916 0.977769
Si Si5 0.408934 0.915053 0.738914
Si Si6 0.910325 0.652277 0.995434
Si Si7 0.909150 0.178195 0.996828
Si Si8 0.589263 0.575351 0.774571
O O1 0.500000 0.916723 0.257266
O O2 0.377630 0.884164 0.121851
O O3 0.377638 0.864164 0.370640
O O4 0.378087 0.000620 0.275924
O O5 0.500000 0.160199 0.003190
O O6 0.621169 0.245292 0.998448
O O7 0.623165 0.119988 0.128741
O O8 0.250000 0.590430 0.250000
O O9 0.125154 0.640752 0.345949
O O10 0.131933 0.601748 0.100417
O O11 0.136413 0.500174 0.280961
O O12 0.500000 0.329518 0.961252
O O13 0.384693 0.376858 0.101715
O O14 0.500000 0.914981 0.739165
O O15 0.376977 0.865088 0.621758
O O16 0.879456 0.736913 0.003673
O O17 0.000000 0.648067 0.023754
O O18 0.890562 0.621451 0.853796
O O19 0.000000 0.177899 0.000121
O O20 0.500000 0.555865 0.780286
#
# Coordination Sequence:
#
# PCOD8220507 Si02
#       8
#     8   8   8   8   8   8   8   8
#     4   9  15  22  35  60  98 139 168 194 240 299
#     4   9  16  26  42  65  95 132 169 204 246 296
#     4  12  25  38  54  78 107 138 172 214 266 320
#     4  10  20  36  57  79 105 138 177 219 260 307
#     4   9  15  23  37  63 100 135 166 202 246 297
#     4  10  20  36  57  79 105 138 177 219 260 307
#     4   9  16  26  42  65  95 132 169 204 246 296
#     4  10  21  37  58  81 103 134 176 218 262 312
#
# _framework density 19.73856
#
# number of rings (size 3 to 8) (size 9 to 14) (size 15 to 20)
#    0.000    2.250    0.000    4.125    0.000   12.000 
#    0.000    0.000    0.000    0.000    0.000    0.000 
#    0.000   16.000    0.000    0.000    0.000    0.000 
#
# Total GULP energy -793725.976066 kJ/mol
# GULP energy per Si atom -12401.968376 kJ/mol
# Density = 1.969363 g / cm^3
# Si number density = 19.738560 Si / 1000 Ang^3
#
#
#
# Elastic Constant Matrix: (Units=GPa)
#
#
# Indices 1 2 3 4 5 6 
#
# 1 18.5410 9.9045 8.0550 0.0000 0.0000 0.0000
# 2 9.9045 107.0826 13.3585 0.0000 0.0000 0.0000
# 3 8.0550 13.3585 107.9937 0.0000 0.0000 0.0000
# 4 0.0000 0.0000 0.0000 46.2689 0.0000 0.0000
# 5 0.0000 0.0000 0.0000 0.0000 3.1043 0.0000
# 6 0.0000 0.0000 0.0000 0.0000 0.0000 -0.2081
#
#
#
# Elastic Compliance Matrix: (Units=1/GPa)
#
#
# Indices 1 2 3 4 5 6 
#
# 1 0.058182 -0.004916 -0.003732 0.000000 0.000000 0.000000
# 2 -0.004916 0.009900 -0.000858 0.000000 0.000000 0.000000
# 3 -0.003732 -0.000858 0.009644 0.000000 0.000000 0.000000
# 4 0.000000 0.000000 0.000000 0.021613 0.000000 0.000000
# 5 0.000000 0.000000 0.000000 0.000000 0.322133 0.000000
# 6 0.000000 0.000000 0.000000 0.000000 0.000000 -4.805270
#
#
# Mechanical properties :
#
#
# Convention : Reuss Voigt Hill
#
# Bulk Modulus (GPa) = 17.03132 32.91700 24.97416
# Shear Modulus (GPa) = -1.15069 23.31966 11.08448
#
# Velocity S-wave (km/s) = -0.76435 3.44092 2.37231
# Velocity P-wave (km/s) = 2.80503 5.70081 4.49263
#
# Compressibility (1/GPa) = 0.05871537
#
# Stress axis : x y z
#
# Youngs Moduli (GPa) = 17.18755 101.00692 103.68872
#
# Poissons Ratio (x) = 0.49654 0.38692
# Poissons Ratio (y) = 0.08449 0.08896
# Poissons Ratio (z) = 0.06414 0.08666
#
# Static dielectric constant tensor:
#      x y z
#    x 2.903430 0.000000 0.000000 
#    y 0.000000 3.854960 0.000000 
#    z 0.000000 0.000000 3.826240 
# 
# 
# High freq. dielectric constant tensor:
#      x y z
#    x 1.695570 0.000000 0.000000 
#    y 0.000000 1.790380 0.000000 
#    z 0.000000 0.000000 1.790540 
# 
# From -- ./inp_files/11184.got.cif
#   From: 2010.03.12/outbox.cif.g09.slc.cpg/sg53_6_cif.got.tgz:11184.got - 2010.04.16 14:36:59.
