data_PCOD8220721
_publ_section_title
;
Structure prediction by ZEFSAII (Michael W. Deem and Ramdas Pophale) SiO2 
 PCOD8220721
Probable space group: P M N A
;
_chemical_formula_sum "Si O2"
_cell_formula_units_Z 48
_cell_length_a 10.058070
_cell_length_b 26.568691
_cell_length_c 9.637611
_cell_angle_alpha 90.000000
_cell_angle_beta 90.000000
_cell_angle_gamma 90.000000
_cell_volume 2575.456416
_symmetry_space_group_name_H-M "P M N A"
_symmetry_group_IT_number 53
_symmetry_cell_setting 'orthorhombic'
loop_
_space_group_symop_operation_xyz
x,y,z
1/2-x,-y,1/2+z
x,-y,-z
1/2-x,y,1/2-z
-x,-y,-z
1/2+x,y,1/2-z
-x,y,z
1/2+x,-y,1/2+z
loop_
_atom_site_type_symbol
_atom_site_label
_atom_site_fract_x
_atom_site_fract_y
_atom_site_fract_z
Si Si1 0.000000 0.303458 0.366212
Si Si2 0.000000 0.399474 0.550067
Si Si3 0.500000 0.379363 0.633542
Si Si4 0.848389 0.965731 0.369993
Si Si5 0.500000 0.717283 0.549254
Si Si6 0.233677 0.229094 0.407928
Si Si7 0.348225 0.849957 0.128491
Si Si8 0.765794 0.453798 0.907896
O O1 0.000000 0.308933 0.199947
O O2 0.130651 0.274914 0.418543
O O3 0.000000 0.358770 0.428904
O O4 0.000000 0.372872 0.700354
O O5 0.872753 0.434757 0.529986
O O6 0.500000 0.324160 0.570104
O O7 0.630071 0.408497 0.582607
O O8 0.750000 0.983649 0.250000
O O9 0.821497 0.907881 0.410255
O O10 0.000000 0.973556 0.320058
O O11 0.814365 0.000000 0.500000
O O12 0.372333 0.752482 0.528467
O O13 0.250000 0.210933 0.250000
O O14 0.179851 0.181502 0.490830
O O15 0.250000 0.831745 0.250000
O O16 0.500000 0.841705 0.177992
O O17 0.750000 0.472582 0.750000
O O18 0.818108 0.500000 0.000000
#
# Coordination Sequence:
#
# PCOD8220721 Si02
#       8
#     4   4   4   8   4   8   8   8
#     4  10  20  37  55  78 106 145 180 224 274 324
#     4  10  21  35  55  76 106 137 175 214 267 322
#     4  10  21  37  53  78 106 137 171 222 265 320
#     4   9  19  36  57  82 114 149 189 235 283 335
#     4  10  22  35  55  82 108 137 188 224 270 328
#     4  10  21  37  56  79 111 147 184 232 278 331
#     4  10  21  37  57  83 114 149 190 235 281 334
#     4  10  21  36  54  78 105 135 172 214 263 319
#
# _framework density 18.637474000000001
#
# number of rings (size 3 to 8) (size 9 to 14) (size 15 to 20)
#    0.000    2.167    0.833    1.500    1.167    3.667 
#    0.000    0.000    0.000    0.000    0.000    0.000 
#    0.000    0.000    0.000    0.000    0.000    0.000 
#
# Total GULP energy -595436.937371 kJ/mol
# GULP energy per Si atom -12404.936195 kJ/mol
# Density = 1.859505 g / cm^3
# Si number density = 18.637474 Si / 1000 Ang^3
#
#
#
# Elastic Constant Matrix: (Units=GPa)
#
#
# Indices 1 2 3 4 5 6 
#
# 1 107.1680 20.2112 26.6566 0.0000 0.0000 0.0000
# 2 20.2112 62.7680 44.3407 0.0000 0.0000 0.0000
# 3 26.6566 44.3407 75.1935 0.0000 0.0000 0.0000
# 4 0.0000 0.0000 0.0000 37.1770 0.0000 0.0000
# 5 0.0000 0.0000 0.0000 0.0000 13.0495 0.0000
# 6 0.0000 0.0000 0.0000 0.0000 0.0000 49.0705
#
#
#
# Elastic Compliance Matrix: (Units=1/GPa)
#
#
# Indices 1 2 3 4 5 6 
#
# 1 0.010292 -0.001262 -0.002904 0.000000 0.000000 0.000000
# 2 -0.001262 0.027462 -0.015746 0.000000 0.000000 0.000000
# 3 -0.002904 -0.015746 0.023614 0.000000 0.000000 0.000000
# 4 0.000000 0.000000 0.000000 0.026898 0.000000 0.000000
# 5 0.000000 0.000000 0.000000 0.000000 0.076631 0.000000
# 6 0.000000 0.000000 0.000000 0.000000 0.000000 0.020379
#
#
# Mechanical properties :
#
#
# Convention : Reuss Voigt Hill
#
# Bulk Modulus (GPa) = 46.42148 47.50516 46.96332
# Shear Modulus (GPa) = 21.52557 30.12079 25.82318
#
# Velocity S-wave (km/s) = 3.40216 4.02449 3.72634
# Velocity P-wave (km/s) = 6.35567 6.86584 6.61568
#
# Compressibility (1/GPa) = 0.02154175
#
# Stress axis : x y z
#
# Youngs Moduli (GPa) = 97.16700 36.41431 42.34792
#
# Poissons Ratio (x) = 0.04597 0.12298
# Poissons Ratio (y) = 0.12267 0.66682
# Poissons Ratio (z) = 0.28217 0.57339
#
# Static dielectric constant tensor:
#      x y z
#    x 3.712470 0.000000 0.000000 
#    y 0.000000 3.212560 0.000000 
#    z 0.000000 0.000000 3.339330 
# 
# 
# High freq. dielectric constant tensor:
#      x y z
#    x 1.744590 0.000000 0.000000 
#    y 0.000000 1.716350 0.000000 
#    z 0.000000 0.000000 1.716570 
# 
# From -- ./inp_files/6868.got.cif
#   From: 2010.03.12/outbox.cif.g09.slc.cpg/sg53_4_cif.got.tgz:6868.got - 2010.04.16 14:36:59.
