data_PCOD8220471
_publ_section_title
;
Structure prediction by ZEFSAII (Michael W. Deem and Ramdas Pophale) SiO2 
 PCOD8220471
Probable space group: P M N A
;
_chemical_formula_sum "Si O2"
_cell_formula_units_Z 64
_cell_length_a 8.802504
_cell_length_b 23.320096
_cell_length_c 17.397238
_cell_angle_alpha 90.000000
_cell_angle_beta 90.000000
_cell_angle_gamma 90.000000
_cell_volume 3571.222177
_symmetry_space_group_name_H-M "P M N A"
_symmetry_group_IT_number 53
_symmetry_cell_setting 'orthorhombic'
loop_
_space_group_symop_operation_xyz
x,y,z
1/2-x,-y,1/2+z
x,-y,-z
1/2-x,y,1/2-z
-x,-y,-z
1/2+x,y,1/2-z
-x,y,z
1/2+x,-y,1/2+z
loop_
_atom_site_type_symbol
_atom_site_label
_atom_site_fract_x
_atom_site_fract_y
_atom_site_fract_z
Si Si1 0.321982 0.264668 0.031259
Si Si2 0.665754 0.037391 0.924119
Si Si3 0.179286 0.325106 0.172077
Si Si4 0.826790 0.625740 0.441219
Si Si5 0.321734 0.543796 0.333282
Si Si6 0.676733 0.566647 0.897619
Si Si7 0.680694 0.135680 0.021897
Si Si8 0.681507 0.066117 0.168034
O O1 0.500000 0.267940 0.053312
O O2 0.225009 0.282009 0.104796
O O3 0.287657 0.308079 0.961020
O O4 0.269718 0.201060 0.007263
O O5 0.500000 0.053918 0.891355
O O6 0.750628 0.096173 0.952047
O O7 0.745522 0.996926 0.859565
O O8 0.645331 0.000000 0.000000
O O9 0.250000 0.299739 0.250000
O O10 0.246021 0.388498 0.159795
O O11 0.000000 0.328982 0.178469
O O12 0.718752 0.604776 0.372395
O O13 0.797641 0.586635 0.515530
O O14 0.000000 0.619844 0.413418
O O15 0.250000 0.539634 0.250000
O O16 0.500000 0.536586 0.326028
O O17 0.253773 0.494784 0.387858
O O18 0.500000 0.562564 0.876781
O O19 0.500000 0.128900 0.018600
O O20 0.735698 0.113868 0.105922
O O21 0.750000 0.082784 0.250000
O O22 0.500000 0.064679 0.173327
#
# Coordination Sequence:
#
# PCOD8220471 Si02
#       8
#     8   8   8   8   8   8   8   8
#     4   9  18  33  52  72  94 124 163 204 245 288
#     4   7  11  22  42  66  89 118 157 194 223 261
#     4  11  21  33  48  68  98 132 165 199 238 286
#     4   9  19  35  53  73  99 129 160 198 243 291
#     4  12  24  36  53  76 101 127 159 200 247 297
#     4  10  20  36  56  77 102 129 159 196 241 294
#     4   8  14  27  48  70  90 120 164 202 230 273
#     4   9  16  26  43  69 100 128 156 192 235 281
#
# _framework density 17.921035
#
# number of rings (size 3 to 8) (size 9 to 14) (size 15 to 20)
#    0.000    2.625    0.000    5.625    0.000    4.500 
#    0.000    1.875    0.000    4.875    0.000    1.750 
#    0.000    0.000    0.000    0.000    0.000    0.000 
#
# Total GULP energy -793155.615727 kJ/mol
# GULP energy per Si atom -12393.056496 kJ/mol
# Density = 1.788025 g / cm^3
# Si number density = 17.921035 Si / 1000 Ang^3
#
#
#
# Elastic Constant Matrix: (Units=GPa)
#
#
# Indices 1 2 3 4 5 6 
#
# 1 79.4501 31.0117 20.4714 0.0000 0.0000 0.0000
# 2 31.0117 135.3219 38.9237 0.0000 0.0000 0.0000
# 3 20.4714 38.9237 39.8312 0.0000 0.0000 0.0000
# 4 0.0000 0.0000 0.0000 14.8893 0.0000 0.0000
# 5 0.0000 0.0000 0.0000 0.0000 24.4324 0.0000
# 6 0.0000 0.0000 0.0000 0.0000 0.0000 9.0973
#
#
#
# Elastic Compliance Matrix: (Units=1/GPa)
#
#
# Indices 1 2 3 4 5 6 
#
# 1 0.014775 -0.001672 -0.005960 0.000000 0.000000 0.000000
# 2 -0.001672 0.010468 -0.009371 0.000000 0.000000 0.000000
# 3 -0.005960 -0.009371 0.037326 0.000000 0.000000 0.000000
# 4 0.000000 0.000000 0.000000 0.067162 0.000000 0.000000
# 5 0.000000 0.000000 0.000000 0.000000 0.040929 0.000000
# 6 0.000000 0.000000 0.000000 0.000000 0.000000 0.109923
#
#
# Mechanical properties :
#
#
# Convention : Reuss Voigt Hill
#
# Bulk Modulus (GPa) = 35.00819 48.37965 41.69392
# Shear Modulus (GPa) = 15.42690 20.63022 18.02856
#
# Velocity S-wave (km/s) = 2.93717 3.39658 3.17519
# Velocity P-wave (km/s) = 5.57492 6.51436 6.06286
#
# Compressibility (1/GPa) = 0.02856475
#
# Stress axis : x y z
#
# Youngs Moduli (GPa) = 67.68351 95.52748 26.79087
#
# Poissons Ratio (x) = 0.15968 0.15967
# Poissons Ratio (y) = 0.11314 0.25105
# Poissons Ratio (z) = 0.40339 0.89515
#
# Static dielectric constant tensor:
#      x y z
#    x 3.053840 0.000000 0.000000 
#    y 0.000000 3.581420 0.000000 
#    z 0.000000 0.000000 3.253670 
# 
# 
# High freq. dielectric constant tensor:
#      x y z
#    x 1.667750 0.000000 0.000000 
#    y 0.000000 1.692010 0.000000 
#    z 0.000000 0.000000 1.676130 
# 
# From -- ./inp_files/27047.got.cif
#   From: 2010.03.12/outbox.cif.g09.slc.cpg/sg53_14_cif.got.tgz:27047.got - 2010.04.16 14:36:59.
