data_PCOD8220107
_publ_section_title
;
Structure prediction by ZEFSAII (Michael W. Deem and Ramdas Pophale) SiO2 
 PCOD8220107
Probable space group: P M N A
;
_chemical_formula_sum "Si O2"
_cell_formula_units_Z 56
_cell_length_a 8.700033
_cell_length_b 15.583697
_cell_length_c 19.842768
_cell_angle_alpha 90.000000
_cell_angle_beta 90.000000
_cell_angle_gamma 90.000000
_cell_volume 2690.256257
_symmetry_space_group_name_H-M "P M N A"
_symmetry_group_IT_number 53
_symmetry_cell_setting 'orthorhombic'
loop_
_space_group_symop_operation_xyz
x,y,z
1/2-x,-y,1/2+z
x,-y,-z
1/2-x,y,1/2-z
-x,-y,-z
1/2+x,y,1/2-z
-x,y,z
1/2+x,-y,1/2+z
loop_
_atom_site_type_symbol
_atom_site_label
_atom_site_fract_x
_atom_site_fract_y
_atom_site_fract_z
Si Si1 0.180992 0.077316 0.547834
Si Si2 0.318977 0.743410 0.451924
Si Si3 0.818198 0.334096 0.679236
Si Si4 0.681399 0.325765 0.079682
Si Si5 0.678541 0.994219 0.320563
Si Si6 0.819141 0.528946 0.680076
Si Si7 0.178282 0.804924 0.820631
O O1 0.267034 0.162719 0.523111
O O2 0.228253 0.057580 0.623895
O O3 0.000000 0.092596 0.542825
O O4 0.235826 0.000000 0.500000
O O5 0.500000 0.738200 0.446359
O O6 0.246334 0.725483 0.379357
O O7 0.260073 0.673954 0.506359
O O8 0.750000 0.301459 0.750000
O O9 0.764381 0.431996 0.665486
O O10 0.000000 0.325900 0.681594
O O11 0.500000 0.325323 0.069454
O O12 0.737953 0.410721 0.119180
O O13 0.731645 0.241452 0.119898
O O14 0.750000 0.965201 0.250000
O O15 0.500000 0.968951 0.323247
O O16 0.703466 0.094748 0.332328
O O17 0.750000 0.563517 0.750000
O O18 0.000000 0.534294 0.687501
O O19 0.250000 0.775167 0.750000
O O20 0.000000 0.779208 0.821854
#
# Coordination Sequence:
#
# PCOD8220107 Si02
#       7
#     8   8   8   8   8   8   8
#     4  11  24  42  64  88 116 152 194 241 295 354
#     4  12  26  42  61  88 119 155 197 241 294 351
#     4  10  21  42  67  91 120 154 196 245 296 349
#     4  11  22  37  57  85 121 159 199 243 292 347
#     4  10  21  37  58  84 115 150 192 242 293 347
#     4   9  20  37  61  90 121 158 197 240 290 344
#     4  10  20  34  54  83 119 159 199 242 293 348
#
# _framework density 20.815861999999999
#
# number of rings (size 3 to 8) (size 9 to 14) (size 15 to 20)
#    0.000    1.571    0.000    4.714    0.000    9.143 
#    0.000    5.714    0.000    0.000    0.000    0.000 
#    0.000    0.000    0.000    0.000    0.000    0.000 
#
# Total GULP energy -694757.937279 kJ/mol
# GULP energy per Si atom -12406.391737 kJ/mol
# Density = 2.076848 g / cm^3
# Si number density = 20.815862 Si / 1000 Ang^3
#
#
#
# Elastic Constant Matrix: (Units=GPa)
#
#
# Indices 1 2 3 4 5 6 
#
# 1 88.1528 28.8921 38.8185 0.0000 0.0000 0.0000
# 2 28.8921 68.9327 41.9931 0.0000 0.0000 0.0000
# 3 38.8185 41.9931 129.9411 0.0000 0.0000 0.0000
# 4 0.0000 0.0000 0.0000 25.7889 0.0000 0.0000
# 5 0.0000 0.0000 0.0000 0.0000 40.3133 0.0000
# 6 0.0000 0.0000 0.0000 0.0000 0.0000 -4.6504
#
#
#
# Elastic Compliance Matrix: (Units=1/GPa)
#
#
# Indices 1 2 3 4 5 6 
#
# 1 0.013941 -0.004117 -0.002834 0.000000 0.000000 0.000000
# 2 -0.004117 0.019279 -0.005000 0.000000 0.000000 0.000000
# 3 -0.002834 -0.005000 0.010159 0.000000 0.000000 0.000000
# 4 0.000000 0.000000 0.000000 0.038776 0.000000 0.000000
# 5 0.000000 0.000000 0.000000 0.000000 0.024806 0.000000
# 6 0.000000 0.000000 0.000000 0.000000 0.000000 -0.215034
#
#
# Mechanical properties :
#
#
# Convention : Reuss Voigt Hill
#
# Bulk Modulus (GPa) = 51.34681 56.27045 53.80863
# Shear Modulus (GPa) = -64.36732 24.11189 -20.12771
#
# Velocity S-wave (km/s) = -5.56681 3.40714 -3.11294
# Velocity P-wave (km/s) = 4.07412 6.52451 3.60353
#
# Compressibility (1/GPa) = 0.01947541
#
# Stress axis : x y z
#
# Youngs Moduli (GPa) = 71.72921 51.87118 98.43918
#
# Poissons Ratio (x) = 0.21353 0.27902
# Poissons Ratio (y) = 0.29528 0.49224
# Poissons Ratio (z) = 0.20331 0.25938
#
# Static dielectric constant tensor:
#      x y z
#    x 3.760920 0.000000 0.000000 
#    y 0.000000 3.838510 0.000000 
#    z 0.000000 0.000000 3.967370 
# 
# 
# High freq. dielectric constant tensor:
#      x y z
#    x 1.821630 0.000000 0.000000 
#    y 0.000000 1.811650 0.000000 
#    z 0.000000 0.000000 1.824510 
# 
# From -- ./inp_files/30821.got.cif
#   From: 2010.03.12/outbox.cif.g09.slc.cpg/sg53_16_cif.got.tgz:30821.got - 2010.04.16 14:36:59.
