data_PCOD8220012
_publ_section_title
;
Structure prediction by ZEFSAII (Michael W. Deem and Ramdas Pophale) SiO2 
 PCOD8220012
Probable space group: P M N A
;
_chemical_formula_sum "Si O2"
_cell_formula_units_Z 56
_cell_length_a 9.707678
_cell_length_b 17.563688
_cell_length_c 17.181444
_cell_angle_alpha 90.000000
_cell_angle_beta 90.000000
_cell_angle_gamma 90.000000
_cell_volume 2929.481348
_symmetry_space_group_name_H-M "P M N A"
_symmetry_group_IT_number 53
_symmetry_cell_setting 'orthorhombic'
loop_
_space_group_symop_operation_xyz
x,y,z
1/2-x,-y,1/2+z
x,-y,-z
1/2-x,y,1/2-z
-x,-y,-z
1/2+x,y,1/2-z
-x,y,z
1/2+x,-y,1/2+z
loop_
_atom_site_type_symbol
_atom_site_label
_atom_site_fract_x
_atom_site_fract_y
_atom_site_fract_z
Si Si1 0.337469 0.334444 0.822709
Si Si2 0.342831 0.411801 0.985868
Si Si3 0.852573 0.784988 0.111130
Si Si4 0.344171 0.835742 0.900952
Si Si5 0.345821 0.292615 0.445723
Si Si6 0.741244 0.071546 0.954616
Si Si7 0.350077 0.983436 0.814667
O O1 0.250000 0.368650 0.750000
O O2 0.500000 0.327275 0.803492
O O3 0.311939 0.390022 0.896056
O O4 0.274120 0.249910 0.839475
O O5 0.500000 0.388637 0.005735
O O6 0.316697 0.500000 0.000000
O O7 0.241330 0.370134 0.046498
O O8 0.844485 0.875524 0.094786
O O9 0.000000 0.771129 0.154226
O O10 0.857724 0.742636 0.029895
O O11 0.500000 0.806370 0.887911
O O12 0.237599 0.766156 0.890861
O O13 0.300563 0.898486 0.837513
O O14 0.340804 0.873701 0.986718
O O15 0.500000 0.307915 0.411658
O O16 0.638684 0.035100 0.891623
O O17 0.814742 0.000000 0.000000
O O18 0.250000 0.018426 0.750000
O O19 0.500000 0.979947 0.776470
#
# Coordination Sequence:
#
# PCOD8220012 Si02
#       7
#     8   8   8   8   8   8   8
#     4  10  20  34  53  75 103 139 174 210 253 304
#     4   9  18  33  54  80 107 135 168 204 244 295
#     4   9  18  31  47  70  99 129 164 205 248 297
#     4   9  17  32  53  71  90 124 169 209 245 294
#     4   9  17  29  48  75 101 124 155 198 244 286
#     4   9  18  32  51  73  96 127 171 217 257 300
#     4  10  21  34  48  68  94 125 161 206 259 307
#
# _framework density 19.116012000000001
#
# number of rings (size 3 to 8) (size 9 to 14) (size 15 to 20)
#    0.000    2.714    0.000    1.286    0.000    8.571 
#    0.000    2.857    0.000    0.857    0.000    2.000 
#    0.000    0.000    0.000    0.000    0.000    0.000 
#
# Total GULP energy -693797.328408 kJ/mol
# GULP energy per Si atom -12389.238007 kJ/mol
# Density = 1.907250 g / cm^3
# Si number density = 19.116012 Si / 1000 Ang^3
#
#
#
# Elastic Constant Matrix: (Units=GPa)
#
#
# Indices 1 2 3 4 5 6 
#
# 1 126.2316 50.9331 24.9999 0.0000 0.0000 0.0000
# 2 50.9331 105.3391 21.8514 0.0000 0.0000 0.0000
# 3 24.9999 21.8514 49.1429 0.0000 0.0000 0.0000
# 4 0.0000 0.0000 0.0000 18.6478 0.0000 0.0000
# 5 0.0000 0.0000 0.0000 0.0000 22.2175 0.0000
# 6 0.0000 0.0000 0.0000 0.0000 0.0000 17.9796
#
#
#
# Elastic Compliance Matrix: (Units=1/GPa)
#
#
# Indices 1 2 3 4 5 6 
#
# 1 0.010316 -0.004296 -0.003338 0.000000 0.000000 0.000000
# 2 -0.004296 0.012246 -0.003260 0.000000 0.000000 0.000000
# 3 -0.003338 -0.003260 0.023497 0.000000 0.000000 0.000000
# 4 0.000000 0.000000 0.000000 0.053626 0.000000 0.000000
# 5 0.000000 0.000000 0.000000 0.000000 0.045010 0.000000
# 6 0.000000 0.000000 0.000000 0.000000 0.000000 0.055618
#
#
# Mechanical properties :
#
#
# Convention : Reuss Voigt Hill
#
# Bulk Modulus (GPa) = 41.20026 52.92028 47.06027
# Shear Modulus (GPa) = 21.72109 23.96427 22.84268
#
# Velocity S-wave (km/s) = 3.37453 3.54449 3.46056
# Velocity P-wave (km/s) = 6.06488 6.67046 6.37487
#
# Compressibility (1/GPa) = 0.02427169
#
# Stress axis : x y z
#
# Youngs Moduli (GPa) = 96.93411 81.65648 42.55947
#
# Poissons Ratio (x) = 0.35077 0.14206
# Poissons Ratio (y) = 0.41639 0.13875
# Poissons Ratio (z) = 0.32357 0.26621
#
# Static dielectric constant tensor:
#      x y z
#    x 3.703570 0.000000 0.000000 
#    y 0.000000 3.469390 0.000000 
#    z 0.000000 0.000000 3.253600 
# 
# 
# High freq. dielectric constant tensor:
#      x y z
#    x 1.745530 0.000000 0.000000 
#    y 0.000000 1.726240 0.000000 
#    z 0.000000 0.000000 1.712620 
# 
# From -- ./inp_files/31027.got.cif
#   From: 2010.03.12/outbox.cif.g09.slc.cpg/sg53_16_cif.got.tgz:31027.got - 2010.04.16 14:36:59.
