data_PCOD8220724
_publ_section_title
;
Structure prediction by ZEFSAII (Michael W. Deem and Ramdas Pophale) SiO2 
 PCOD8220724
Probable space group: P M N A
;
_chemical_formula_sum "Si O2"
_cell_formula_units_Z 56
_cell_length_a 18.156689
_cell_length_b 17.736999
_cell_length_c 9.449805
_cell_angle_alpha 90.000000
_cell_angle_beta 90.000000
_cell_angle_gamma 90.000000
_cell_volume 3043.264102
_symmetry_space_group_name_H-M "P M N A"
_symmetry_group_IT_number 53
_symmetry_cell_setting 'orthorhombic'
loop_
_space_group_symop_operation_xyz
x,y,z
1/2-x,-y,1/2+z
x,-y,-z
1/2-x,y,1/2-z
-x,-y,-z
1/2+x,y,1/2-z
-x,y,z
1/2+x,-y,1/2+z
loop_
_atom_site_type_symbol
_atom_site_label
_atom_site_fract_x
_atom_site_fract_y
_atom_site_fract_z
Si Si1 0.319820 0.299787 0.500451
Si Si2 0.831120 0.820394 0.235611
Si Si3 0.086757 0.915527 0.014097
Si Si4 0.581799 0.426460 0.593404
Si Si5 0.086957 0.209857 0.205566
Si Si6 0.347575 0.731900 0.987927
Si Si7 0.084941 0.572777 0.421851
O O1 0.329319 0.254602 0.644012
O O2 0.346604 0.383310 0.535612
O O3 0.376562 0.276918 0.380005
O O4 0.236351 0.289501 0.448639
O O5 0.750000 0.856651 0.250000
O O6 0.882846 0.881592 0.160846
O O7 0.859585 0.792110 0.386639
O O8 0.000000 0.915686 0.030899
O O9 0.110280 0.868455 0.873476
O O10 0.118107 0.000000 0.000000
O O11 0.577541 0.500000 0.500000
O O12 0.500000 0.386359 0.582785
O O13 0.598828 0.442103 0.757055
O O14 0.116580 0.218507 0.363561
O O15 0.000000 0.219579 0.204185
O O16 0.383935 0.652043 0.022166
O O17 0.121004 0.500000 0.500000
O O18 0.000000 0.576734 0.461800
#
# Coordination Sequence:
#
# PCOD8220724 Si02
#       7
#     8   8   8   8   8   8   8
#     4  10  20  37  56  79 109 148 191 234 278 329
#     4   9  19  36  57  82 113 147 186 225 274 336
#     4   9  19  38  62  86 115 148 185 227 274 333
#     4  10  21  36  55  78 107 148 198 239 280 341
#     4  10  21  36  57  84 112 145 185 228 279 338
#     4  11  21  36  57  83 114 147 188 238 286 333
#     4  10  22  37  52  77 113 150 187 236 289 332
#
# _framework density 18.401295000000001
#
# number of rings (size 3 to 8) (size 9 to 14) (size 15 to 20)
#    0.000    2.143    1.429    1.286    2.000    2.286 
#    0.000    5.000    0.000    2.571    0.000    0.000 
#    0.000    0.000    0.000    0.000    0.000    0.000 
#
# Total GULP energy -693914.190486 kJ/mol
# GULP energy per Si atom -12391.324830 kJ/mol
# Density = 1.835941 g / cm^3
# Si number density = 18.401295 Si / 1000 Ang^3
#
#
#
# Elastic Constant Matrix: (Units=GPa)
#
#
# Indices 1 2 3 4 5 6 
#
# 1 73.5113 44.9751 47.6918 0.0000 0.0000 0.0000
# 2 44.9751 118.2102 61.1862 0.0000 0.0000 0.0000
# 3 47.6918 61.1862 135.0502 0.0000 0.0000 0.0000
# 4 0.0000 0.0000 0.0000 0.2475 0.0000 0.0000
# 5 0.0000 0.0000 0.0000 0.0000 32.5290 0.0000
# 6 0.0000 0.0000 0.0000 0.0000 0.0000 -181.5907
#
#
#
# Elastic Compliance Matrix: (Units=1/GPa)
#
#
# Indices 1 2 3 4 5 6 
#
# 1 0.019749 -0.005100 -0.004664 0.000000 0.000000 0.000000
# 2 -0.005100 0.012368 -0.003803 0.000000 0.000000 0.000000
# 3 -0.004664 -0.003803 0.010774 0.000000 0.000000 0.000000
# 4 0.000000 0.000000 0.000000 4.040191 0.000000 0.000000
# 5 0.000000 0.000000 0.000000 0.000000 0.030742 0.000000
# 6 0.000000 0.000000 0.000000 0.000000 0.000000 -0.005507
#
#
# Mechanical properties :
#
#
# Convention : Reuss Voigt Hill
#
# Bulk Modulus (GPa) = 63.45433 70.49755 66.97594
# Shear Modulus (GPa) = 1.20752 -18.23494 -8.51371
#
# Velocity S-wave (km/s) = 0.81095 -3.15137 -2.15331
# Velocity P-wave (km/s) = 5.95276 5.01526 5.50401
#
# Compressibility (1/GPa) = 0.01575936
#
# Stress axis : x y z
#
# Youngs Moduli (GPa) = 50.63490 80.85324 92.81297
#
# Poissons Ratio (x) = 0.41235 0.43285
# Poissons Ratio (y) = 0.25824 0.35292
# Poissons Ratio (z) = 0.23614 0.30744
#
# Static dielectric constant tensor:
#      x y z
#    x 3.782540 0.000000 0.000000 
#    y 0.000000 3.335380 0.000000 
#    z 0.000000 0.000000 3.226660 
# 
# 
# High freq. dielectric constant tensor:
#      x y z
#    x 1.715850 0.000000 0.000000 
#    y 0.000000 1.698220 0.000000 
#    z 0.000000 0.000000 1.724360 
# 
# From -- ./inp_files/11031.got.cif
#   From: 2010.03.12/outbox.cif.g09.slc.cpg/sg53_6_cif.got.tgz:11031.got - 2010.04.16 14:36:59.
