data_PCOD8220442
_publ_section_title
;
Structure prediction by ZEFSAII (Michael W. Deem and Ramdas Pophale) SiO2 
 PCOD8220442
Probable space group: P M N A
;
_chemical_formula_sum "Si O2"
_cell_formula_units_Z 48
_cell_length_a 17.152661
_cell_length_b 16.771910
_cell_length_c 9.152326
_cell_angle_alpha 90.000000
_cell_angle_beta 90.000000
_cell_angle_gamma 90.000000
_cell_volume 2632.967562
_symmetry_space_group_name_H-M "P M N A"
_symmetry_group_IT_number 53
_symmetry_cell_setting 'orthorhombic'
loop_
_space_group_symop_operation_xyz
x,y,z
1/2-x,-y,1/2+z
x,-y,-z
1/2-x,y,1/2-z
-x,-y,-z
1/2+x,y,1/2-z
-x,y,z
1/2+x,-y,1/2+z
loop_
_atom_site_type_symbol
_atom_site_label
_atom_site_fract_x
_atom_site_fract_y
_atom_site_fract_z
Si Si1 0.244558 0.920510 0.078861
Si Si2 0.090430 0.703720 0.274834
Si Si3 0.590814 0.412743 0.518759
Si Si4 0.415211 0.845251 0.438027
Si Si5 0.692435 0.757696 0.967785
Si Si6 0.359559 0.725652 0.652402
O O1 0.250000 0.932299 0.250000
O O2 0.153398 0.908683 0.040624
O O3 0.299132 0.848683 0.022686
O O4 0.274765 0.000000 0.000000
O O5 0.120687 0.635758 0.162020
O O6 0.099963 0.791100 0.204367
O O7 0.147717 0.702858 0.414298
O O8 0.000000 0.689553 0.320414
O O9 0.630599 0.500000 0.500000
O O10 0.500000 0.424323 0.540269
O O11 0.607807 0.363678 0.369747
O O12 0.500000 0.887899 0.426385
O O13 0.418449 0.787301 0.577714
O O14 0.777566 0.724384 0.933898
O O15 0.643116 0.752377 0.819547
#
# Coordination Sequence:
#
# PCOD8220442 Si02
#       6
#     8   8   8   8   8   8
#     4  11  23  36  58  79 109 143 176 229 282 327
#     4   9  17  32  56  80 103 141 182 219 268 322
#     4   9  18  34  55  81 112 143 178 220 270 323
#     4   9  18  34  55  78 103 141 186 220 264 326
#     4  10  20  36  53  81 107 140 188 226 263 324
#     4   9  19  32  54  78 110 142 186 222 262 319
#
# _framework density 18.230381000000001
#
# number of rings (size 3 to 8) (size 9 to 14) (size 15 to 20)
#    0.000    2.500    1.667    1.500    4.667    1.667 
#    0.000    4.167    0.000    4.000    0.000    0.000 
#    0.000    0.000    0.000    0.000    0.000    0.000 
#
# Total GULP energy -594877.006480 kJ/mol
# GULP energy per Si atom -12393.270968 kJ/mol
# Density = 1.818889 g / cm^3
# Si number density = 18.230381 Si / 1000 Ang^3
#
#
#
# Elastic Constant Matrix: (Units=GPa)
#
#
# Indices 1 2 3 4 5 6 
#
# 1 45.2248 14.9866 31.5462 0.0000 0.0000 0.0000
# 2 14.9866 102.6796 47.9674 0.0000 0.0000 0.0000
# 3 31.5462 47.9674 131.2152 0.0000 0.0000 0.0000
# 4 0.0000 0.0000 0.0000 15.5659 0.0000 0.0000
# 5 0.0000 0.0000 0.0000 0.0000 23.2009 0.0000
# 6 0.0000 0.0000 0.0000 0.0000 0.0000 10.9349
#
#
#
# Elastic Compliance Matrix: (Units=1/GPa)
#
#
# Indices 1 2 3 4 5 6 
#
# 1 0.026666 -0.001082 -0.006016 0.000000 0.000000 0.000000
# 2 -0.001082 0.011789 -0.004049 0.000000 0.000000 0.000000
# 3 -0.006016 -0.004049 0.010548 0.000000 0.000000 0.000000
# 4 0.000000 0.000000 0.000000 0.064243 0.000000 0.000000
# 5 0.000000 0.000000 0.000000 0.000000 0.043102 0.000000
# 6 0.000000 0.000000 0.000000 0.000000 0.000000 0.091450
#
#
# Mechanical properties :
#
#
# Convention : Reuss Voigt Hill
#
# Bulk Modulus (GPa) = 37.44059 52.01334 44.72697
# Shear Modulus (GPa) = 17.92154 22.24830 20.08492
#
# Velocity S-wave (km/s) = 3.13878 3.49721 3.32283
# Velocity P-wave (km/s) = 5.80672 6.70077 6.26970
#
# Compressibility (1/GPa) = 0.02670898
#
# Stress axis : x y z
#
# Youngs Moduli (GPa) = 37.50044 84.82742 94.80830
#
# Poissons Ratio (x) = 0.09178 0.57032
# Poissons Ratio (y) = 0.04057 0.38391
# Poissons Ratio (z) = 0.22558 0.34350
#
# Static dielectric constant tensor:
#      x y z
#    x 3.356410 0.000000 0.000000 
#    y 0.000000 3.360610 0.000000 
#    z 0.000000 0.000000 3.390670 
# 
# 
# High freq. dielectric constant tensor:
#      x y z
#    x 1.701410 0.000000 0.000000 
#    y 0.000000 1.685740 0.000000 
#    z 0.000000 0.000000 1.702400 
# 
# From -- ./inp_files/10103.got.cif
#   From: 2010.03.12/outbox.cif.g09.slc.cpg/sg53_6_cif.got.tgz:10103.got - 2010.04.16 14:36:59.
