data_PCOD8220183
_publ_section_title
;
Structure prediction by ZEFSAII (Michael W. Deem and Ramdas Pophale) SiO2 
 PCOD8220183
Probable space group: P M N A
;
_chemical_formula_sum "Si O2"
_cell_formula_units_Z 64
_cell_length_a 8.878284
_cell_length_b 19.645344
_cell_length_c 19.895641
_cell_angle_alpha 90.000000
_cell_angle_beta 90.000000
_cell_angle_gamma 90.000000
_cell_volume 3470.136888
_symmetry_space_group_name_H-M "P M N A"
_symmetry_group_IT_number 53
_symmetry_cell_setting 'orthorhombic'
loop_
_space_group_symop_operation_xyz
x,y,z
1/2-x,-y,1/2+z
x,-y,-z
1/2-x,y,1/2-z
-x,-y,-z
1/2+x,y,1/2-z
-x,y,z
1/2+x,-y,1/2+z
loop_
_atom_site_type_symbol
_atom_site_label
_atom_site_fract_x
_atom_site_fract_y
_atom_site_fract_z
Si Si1 0.176334 0.187856 0.068541
Si Si2 0.176682 0.695603 0.393220
Si Si3 0.175140 0.902379 0.681033
Si Si4 0.824136 0.673699 0.547013
Si Si5 0.323105 0.834670 0.414457
Si Si6 0.176430 0.573404 0.180966
Si Si7 0.175679 0.061226 0.680776
Si Si8 0.175568 0.464370 0.067903
O O1 0.253704 0.135573 0.118313
O O2 0.239986 0.263234 0.081601
O O3 0.000000 0.188804 0.082345
O O4 0.215363 0.163515 0.993358
O O5 0.215325 0.670551 0.468172
O O6 0.248395 0.769138 0.379778
O O7 0.249621 0.643948 0.341107
O O8 0.000000 0.699992 0.380123
O O9 0.250000 0.876572 0.750000
O O10 0.000000 0.885472 0.685021
O O11 0.206696 0.981799 0.670191
O O12 0.766533 0.604704 0.581174
O O13 0.000000 0.682649 0.560033
O O14 0.500000 0.832289 0.401326
O O15 0.252845 0.901818 0.381949
O O16 0.250000 0.549055 0.250000
O O17 0.212835 0.514256 0.128572
O O18 0.000000 0.585297 0.189454
O O19 0.250000 0.086900 0.750000
O O20 0.000000 0.078611 0.683027
O O21 0.000000 0.446350 0.062093
O O22 0.233542 0.500000 0.000000
#
# Coordination Sequence:
#
# PCOD8220183 Si02
#       8
#     8   8   8   8   8   8   8   8
#     4  10  21  37  58  84 116 150 187 233 282 335
#     4  10  20  35  55  80 110 144 183 226 275 330
#     4  10  21  38  60  84 112 147 189 234 284 340
#     4  10  20  34  57  86 113 141 182 233 277 328
#     4  10  21  36  56  83 115 150 188 232 280 331
#     4  11  23  38  56  80 113 148 184 229 277 330
#     4  10  21  37  57  81 111 148 189 234 281 337
#     4  10  20  36  59  83 109 145 186 228 277 334
#
# _framework density 18.443076999999999
#
# number of rings (size 3 to 8) (size 9 to 14) (size 15 to 20)
#    0.000    1.875    1.250    2.625    0.000    6.250 
#    0.000    5.625    0.000    1.500    0.000    0.000 
#    0.000    0.000    0.000    0.000    0.000    0.000 
#
# Total GULP energy -793983.634626 kJ/mol
# GULP energy per Si atom -12405.994291 kJ/mol
# Density = 1.840110 g / cm^3
# Si number density = 18.443077 Si / 1000 Ang^3
#
#
#
# Elastic Constant Matrix: (Units=GPa)
#
#
# Indices 1 2 3 4 5 6 
#
# 1 111.1941 64.3561 64.1174 0.0000 0.0000 0.0000
# 2 64.3561 101.4569 64.4830 0.0000 0.0000 0.0000
# 3 64.1174 64.4830 104.1853 0.0000 0.0000 0.0000
# 4 0.0000 0.0000 0.0000 26.3860 0.0000 0.0000
# 5 0.0000 0.0000 0.0000 0.0000 34.0776 0.0000
# 6 0.0000 0.0000 0.0000 0.0000 0.0000 38.0517
#
#
#
# Elastic Compliance Matrix: (Units=1/GPa)
#
#
# Indices 1 2 3 4 5 6 
#
# 1 0.016169 -0.006482 -0.005939 0.000000 0.000000 0.000000
# 2 -0.006482 0.018846 -0.007675 0.000000 0.000000 0.000000
# 3 -0.005939 -0.007675 0.018004 0.000000 0.000000 0.000000
# 4 0.000000 0.000000 0.000000 0.037899 0.000000 0.000000
# 5 0.000000 0.000000 0.000000 0.000000 0.029345 0.000000
# 6 0.000000 0.000000 0.000000 0.000000 0.000000 0.026280
#
#
# Mechanical properties :
#
#
# Convention : Reuss Voigt Hill
#
# Bulk Modulus (GPa) = 77.96222 78.08324 78.02273
# Shear Modulus (GPa) = 26.17641 27.96170 27.06906
#
# Velocity S-wave (km/s) = 3.77146 3.89795 3.83522
# Velocity P-wave (km/s) = 7.83127 7.91758 7.87454
#
# Compressibility (1/GPa) = 0.01282673
#
# Stress axis : x y z
#
# Youngs Moduli (GPa) = 61.84484 53.06111 55.54366
#
# Poissons Ratio (x) = 0.34393 0.32988
# Poissons Ratio (y) = 0.40087 0.42632
# Poissons Ratio (z) = 0.36731 0.40726
#
# Static dielectric constant tensor:
#      x y z
#    x 3.503790 0.000000 0.000000 
#    y 0.000000 3.378070 0.000000 
#    z 0.000000 0.000000 3.330170 
# 
# 
# High freq. dielectric constant tensor:
#      x y z
#    x 1.731560 0.000000 0.000000 
#    y 0.000000 1.719110 0.000000 
#    z 0.000000 0.000000 1.705640 
# 
# From -- ./inp_files/26839.got.cif
#   From: 2010.03.12/outbox.cif.g09.slc.cpg/sg53_14_cif.got.tgz:26839.got - 2010.04.16 14:36:59.
