data_PCOD8220016
_publ_section_title
;
Structure prediction by ZEFSAII (Michael W. Deem and Ramdas Pophale) SiO2 
 PCOD8220016
Probable space group: P M N A
;
_chemical_formula_sum "Si O2"
_cell_formula_units_Z 56
_cell_length_a 9.530197
_cell_length_b 20.971166
_cell_length_c 15.350551
_cell_angle_alpha 90.000000
_cell_angle_beta 90.000000
_cell_angle_gamma 90.000000
_cell_volume 3067.951042
_symmetry_space_group_name_H-M "P M N A"
_symmetry_group_IT_number 53
_symmetry_cell_setting 'orthorhombic'
loop_
_space_group_symop_operation_xyz
x,y,z
1/2-x,-y,1/2+z
x,-y,-z
1/2-x,y,1/2-z
-x,-y,-z
1/2+x,y,1/2-z
-x,y,z
1/2+x,-y,1/2+z
loop_
_atom_site_type_symbol
_atom_site_label
_atom_site_fract_x
_atom_site_fract_y
_atom_site_fract_z
Si Si1 0.334698 0.357066 0.334153
Si Si2 0.664865 0.907384 0.829998
Si Si3 0.662769 0.625691 0.331388
Si Si4 0.834306 0.491568 0.096246
Si Si5 0.336557 0.032378 0.909503
Si Si6 0.665468 0.157860 0.987222
Si Si7 0.337623 0.716422 0.490824
O O1 0.250000 0.332315 0.250000
O O2 0.500000 0.357213 0.313358
O O3 0.277427 0.427572 0.358213
O O4 0.299487 0.310311 0.414099
O O5 0.750000 0.876404 0.750000
O O6 0.500000 0.905040 0.810037
O O7 0.719986 0.981611 0.838441
O O8 0.699518 0.866913 0.915853
O O9 0.750000 0.653278 0.250000
O O10 0.500000 0.632307 0.308139
O O11 0.706577 0.552218 0.345561
O O12 0.699274 0.663327 0.419302
O O13 0.000000 0.484678 0.085367
O O14 0.767754 0.500000 0.000000
O O15 0.500000 0.038663 0.894904
O O16 0.278729 0.105187 0.915507
O O17 0.302638 0.000000 0.000000
O O18 0.500000 0.169677 0.976743
O O19 0.746332 0.222317 0.968257
O O20 0.500000 0.735626 0.486174
#
# Coordination Sequence:
#
# PCOD8220016 Si02
#       7
#     8   8   8   8   8   8   8
#     4  10  20  34  53  76 103 136 172 212 258 309
#     4   9  17  30  50  76 102 127 160 203 250 299
#     4  10  20  35  56  78 100 131 172 216 262 310
#     4   9  15  30  56  78  98 130 170 210 259 315
#     4   7  12  27  49  69  89 118 156 193 232 280
#     4   9  18  33  53  72  95 132 171 205 245 294
#     4  10  21  36  52  73 104 141 176 210 253 308
#
# _framework density 18.253223999999999
#
# number of rings (size 3 to 8) (size 9 to 14) (size 15 to 20)
#    0.000    2.857    1.429    2.143    0.000    2.286 
#    0.000    4.286    0.000    6.857    0.000    0.000 
#    0.000    0.000    0.000    0.000    0.000    0.000 
#
# Total GULP energy -693850.630870 kJ/mol
# GULP energy per Si atom -12390.189837 kJ/mol
# Density = 1.821168 g / cm^3
# Si number density = 18.253224 Si / 1000 Ang^3
#
#
#
# Elastic Constant Matrix: (Units=GPa)
#
#
# Indices 1 2 3 4 5 6 
#
# 1 34.8339 23.3423 24.5919 0.0000 0.0000 0.0000
# 2 23.3423 83.4463 -2.5504 0.0000 0.0000 0.0000
# 3 24.5919 -2.5504 67.9072 0.0000 0.0000 0.0000
# 4 0.0000 0.0000 0.0000 15.0140 0.0000 0.0000
# 5 0.0000 0.0000 0.0000 0.0000 23.8172 0.0000
# 6 0.0000 0.0000 0.0000 0.0000 0.0000 19.6800
#
#
#
# Elastic Compliance Matrix: (Units=1/GPa)
#
#
# Indices 1 2 3 4 5 6 
#
# 1 0.053012 -0.015433 -0.019777 0.000000 0.000000 0.000000
# 2 -0.015433 0.016491 0.006208 0.000000 0.000000 0.000000
# 3 -0.019777 0.006208 0.022121 0.000000 0.000000 0.000000
# 4 0.000000 0.000000 0.000000 0.066605 0.000000 0.000000
# 5 0.000000 0.000000 0.000000 0.000000 0.041987 0.000000
# 6 0.000000 0.000000 0.000000 0.000000 0.000000 0.050813
#
#
# Mechanical properties :
#
#
# Convention : Reuss Voigt Hill
#
# Bulk Modulus (GPa) = 29.74494 30.77278 30.25886
# Shear Modulus (GPa) = 15.61331 21.08915 18.35123
#
# Velocity S-wave (km/s) = 2.92785 3.40275 3.17420
# Velocity P-wave (km/s) = 5.26885 5.68628 5.48154
#
# Compressibility (1/GPa) = 0.03361917
#
# Stress axis : x y z
#
# Youngs Moduli (GPa) = 18.86361 60.64034 45.20515
#
# Poissons Ratio (x) = 0.93589 0.89404
# Poissons Ratio (y) = 0.29113 -0.28065
# Poissons Ratio (z) = 0.37307 -0.37648
#
# Static dielectric constant tensor:
#      x y z
#    x 2.966540 0.000000 0.000000 
#    y 0.000000 3.506840 0.000000 
#    z 0.000000 0.000000 3.332630 
# 
# 
# High freq. dielectric constant tensor:
#      x y z
#    x 1.669820 0.000000 0.000000 
#    y 0.000000 1.711850 0.000000 
#    z 0.000000 0.000000 1.702620 
# 
# From -- ./inp_files/14978.got.cif
#   From: 2010.03.12/outbox.cif.g09.slc.cpg/sg53_8_cif.got.tgz:14978.got - 2010.04.16 14:36:59.
