data_PCOD8220492
_publ_section_title
;
Structure prediction by ZEFSAII (Michael W. Deem and Ramdas Pophale) SiO2 
 PCOD8220492
Probable space group: P M N A
;
_chemical_formula_sum "Si O2"
_cell_formula_units_Z 48
_cell_length_a 8.547674
_cell_length_b 30.421786
_cell_length_c 9.360654
_cell_angle_alpha 90.000000
_cell_angle_beta 90.000000
_cell_angle_gamma 90.000000
_cell_volume 2434.102430
_symmetry_space_group_name_H-M "P M N A"
_symmetry_group_IT_number 53
_symmetry_cell_setting 'orthorhombic'
loop_
_space_group_symop_operation_xyz
x,y,z
1/2-x,-y,1/2+z
x,-y,-z
1/2-x,y,1/2-z
-x,-y,-z
1/2+x,y,1/2-z
-x,y,z
1/2+x,-y,1/2+z
loop_
_atom_site_type_symbol
_atom_site_label
_atom_site_fract_x
_atom_site_fract_y
_atom_site_fract_z
Si Si1 0.184249 0.120971 0.907418
Si Si2 0.681338 0.461625 0.904872
Si Si3 0.817007 0.709415 0.899675
Si Si4 0.317293 0.042992 0.092531
Si Si5 0.315533 0.196622 0.094360
Si Si6 0.182710 0.364132 0.592993
O O1 0.250000 0.111603 0.750000
O O2 0.000000 0.123328 0.895297
O O3 0.231615 0.083007 0.016481
O O4 0.247437 0.166642 0.969058
O O5 0.750000 0.464887 0.750000
O O6 0.500000 0.471171 0.889283
O O7 0.709924 0.413046 0.971927
O O8 0.760188 0.500000 0.000000
O O9 0.750000 0.692761 0.750000
O O10 0.730321 0.753859 0.947028
O O11 0.000000 0.719482 0.887221
O O12 0.785275 0.670811 0.009281
O O13 0.250000 0.035566 0.250000
O O14 0.500000 0.053803 0.102880
O O15 0.283613 0.000000 0.000000
O O16 0.250000 0.183150 0.250000
O O17 0.500000 0.191246 0.099101
O O18 0.250000 0.363546 0.750000
O O19 0.000000 0.351260 0.590533
#
# Coordination Sequence:
#
# PCOD8220492 Si02
#       6
#     8   8   8   8   8   8
#     4  12  25  42  63  90 123 158 199 245 294 347
#     4   9  19  35  54  78 108 142 182 228 277 332
#     4  11  22  38  59  85 115 149 190 235 285 339
#     4  11  24  42  65  93 125 162 203 247 296 348
#     4  11  22  40  63  88 118 153 193 237 288 342
#     4  10  20  36  56  80 111 147 187 231 282 338
#
# _framework density 19.719795000000001
#
# number of rings (size 3 to 8) (size 9 to 14) (size 15 to 20)
#    0.000    1.333    0.000    7.500    0.000    5.000 
#    0.000    5.000    0.000    0.000    0.000    0.000 
#    0.000    0.000    0.000    0.000    0.000    0.000 
#
# Total GULP energy -595302.673032 kJ/mol
# GULP energy per Si atom -12402.139021 kJ/mol
# Density = 1.967491 g / cm^3
# Si number density = 19.719795 Si / 1000 Ang^3
#
#
#
# Elastic Constant Matrix: (Units=GPa)
#
#
# Indices 1 2 3 4 5 6 
#
# 1 131.5705 44.8212 51.0466 0.0000 0.0000 0.0000
# 2 44.8212 101.7079 54.2002 0.0000 0.0000 0.0000
# 3 51.0466 54.2002 100.1852 0.0000 0.0000 0.0000
# 4 0.0000 0.0000 0.0000 48.1884 0.0000 0.0000
# 5 0.0000 0.0000 0.0000 0.0000 34.8982 0.0000
# 6 0.0000 0.0000 0.0000 0.0000 0.0000 64.8528
#
#
#
# Elastic Compliance Matrix: (Units=1/GPa)
#
#
# Indices 1 2 3 4 5 6 
#
# 1 0.009855 -0.002342 -0.003754 0.000000 0.000000 0.000000
# 2 -0.002342 0.014372 -0.006582 0.000000 0.000000 0.000000
# 3 -0.003754 -0.006582 0.015455 0.000000 0.000000 0.000000
# 4 0.000000 0.000000 0.000000 0.020752 0.000000 0.000000
# 5 0.000000 0.000000 0.000000 0.000000 0.028655 0.000000
# 6 0.000000 0.000000 0.000000 0.000000 0.000000 0.015420
#
#
# Mechanical properties :
#
#
# Convention : Reuss Voigt Hill
#
# Bulk Modulus (GPa) = 69.80576 70.39995 70.10286
# Shear Modulus (GPa) = 37.13635 41.81426 39.47531
#
# Velocity S-wave (km/s) = 4.34430 4.60980 4.47901
# Velocity P-wave (km/s) = 7.78714 8.00695 7.89781
#
# Compressibility (1/GPa) = 0.01432547
#
# Stress axis : x y z
#
# Youngs Moduli (GPa) = 101.47177 69.58142 64.70422
#
# Poissons Ratio (x) = 0.16299 0.24291
# Poissons Ratio (y) = 0.23769 0.42586
# Poissons Ratio (z) = 0.38094 0.45795
#
# Static dielectric constant tensor:
#      x y z
#    x 3.759180 0.000000 0.000000 
#    y 0.000000 3.888610 0.000000 
#    z 0.000000 0.000000 3.659840 
# 
# 
# High freq. dielectric constant tensor:
#      x y z
#    x 1.785120 0.000000 0.000000 
#    y 0.000000 1.784330 0.000000 
#    z 0.000000 0.000000 1.768340 
# 
# From -- ./inp_files/6749.got.cif
#   From: 2010.03.12/outbox.cif.g09.slc.cpg/sg53_4_cif.got.tgz:6749.got - 2010.04.16 14:36:59.
