data_PCOD8220263
_publ_section_title
;
Structure prediction by ZEFSAII (Michael W. Deem and Ramdas Pophale) SiO2 
 PCOD8220263
Probable space group: P M N A
;
_chemical_formula_sum "Si O2"
_cell_formula_units_Z 36
_cell_length_a 22.402787
_cell_length_b 15.277307
_cell_length_c 4.871765
_cell_angle_alpha 90.000000
_cell_angle_beta 90.000000
_cell_angle_gamma 90.000000
_cell_volume 1667.382299
_symmetry_space_group_name_H-M "P M N A"
_symmetry_group_IT_number 53
_symmetry_cell_setting 'orthorhombic'
loop_
_space_group_symop_operation_xyz
x,y,z
1/2-x,-y,1/2+z
x,-y,-z
1/2-x,y,1/2-z
-x,-y,-z
1/2+x,y,1/2-z
-x,y,z
1/2+x,-y,1/2+z
loop_
_atom_site_type_symbol
_atom_site_label
_atom_site_fract_x
_atom_site_fract_y
_atom_site_fract_z
Si Si1 0.638989 0.327282 0.891014
Si Si2 0.126348 0.902442 0.941902
Si Si3 0.209213 0.500000 0.500000
Si Si4 0.567780 0.270101 0.375025
Si Si5 0.806063 0.847358 0.436007
O O1 0.615170 0.309498 0.587049
O O2 0.690897 0.257568 0.982291
O O3 0.667456 0.422362 0.894898
O O4 0.582203 0.319489 0.091926
O O5 0.076639 0.835124 0.827818
O O6 0.184638 0.896990 0.732031
O O7 0.137895 0.870302 0.249132
O O8 0.102569 0.000000 0.000000
O O9 0.250000 0.533245 0.750000
O O10 0.500000 0.289000 0.461937
O O11 0.750000 0.877621 0.250000
#
# Coordination Sequence:
#
# PCOD8220263 Si02
#       5
#     8   8   4   8   8
#     4  10  22  39  59  89 117 148 196 237 282 349
#     4  10  21  35  54  83 113 146 196 242 277 338
#     4  12  24  40  65  92 121 152 188 236 286 340
#     4  10  21  40  62  83 117 157 192 239 294 338
#     4  10  20  35  55  77 113 155 186 228 290 345
#
# _framework density 21.590727000000001
#
# number of rings (size 3 to 8) (size 9 to 14) (size 15 to 20)
#    0.000    1.778    0.000    4.000    0.000    5.778 
#    0.000    3.333    0.000    9.333    0.000    0.000 
#    0.000    0.000    0.000    0.000    0.000    0.000 
#
# Total GULP energy -446084.600062 kJ/mol
# GULP energy per Si atom -12391.238891 kJ/mol
# Density = 2.154159 g / cm^3
# Si number density = 21.590727 Si / 1000 Ang^3
#
#
#
# Elastic Constant Matrix: (Units=GPa)
#
#
# Indices 1 2 3 4 5 6 
#
# 1 70.9749 34.5079 11.0758 0.0000 0.0000 0.0000
# 2 34.5079 108.6492 23.4929 0.0000 0.0000 0.0000
# 3 11.0758 23.4929 107.1629 0.0000 0.0000 0.0000
# 4 0.0000 0.0000 0.0000 27.4070 0.0000 0.0000
# 5 0.0000 0.0000 0.0000 0.0000 29.5367 0.0000
# 6 0.0000 0.0000 0.0000 0.0000 0.0000 11.9992
#
#
#
# Elastic Compliance Matrix: (Units=1/GPa)
#
#
# Indices 1 2 3 4 5 6 
#
# 1 0.016698 -0.005176 -0.000591 0.000000 0.000000 0.000000
# 2 -0.005176 0.011266 -0.001935 0.000000 0.000000 0.000000
# 3 -0.000591 -0.001935 0.009817 0.000000 0.000000 0.000000
# 4 0.000000 0.000000 0.000000 0.036487 0.000000 0.000000
# 5 0.000000 0.000000 0.000000 0.000000 0.033856 0.000000
# 6 0.000000 0.000000 0.000000 0.000000 0.000000 0.083339
#
#
# Mechanical properties :
#
#
# Convention : Reuss Voigt Hill
#
# Bulk Modulus (GPa) = 44.68743 47.21560 45.95152
# Shear Modulus (GPa) = 23.32894 28.30260 25.81577
#
# Velocity S-wave (km/s) = 3.29067 3.62452 3.46162
# Velocity P-wave (km/s) = 5.93131 6.27950 6.10789
#
# Compressibility (1/GPa) = 0.02237766
#
# Stress axis : x y z
#
# Youngs Moduli (GPa) = 59.88687 88.76155 101.86546
#
# Poissons Ratio (x) = 0.45940 0.06022
# Poissons Ratio (y) = 0.30995 0.19710
# Poissons Ratio (z) = 0.03541 0.17175
#
# Static dielectric constant tensor:
#      x y z
#    x 3.460400 0.000000 0.000000 
#    y 0.000000 3.900740 0.000000 
#    z 0.000000 0.000000 4.112040 
# 
# 
# High freq. dielectric constant tensor:
#      x y z
#    x 1.810110 0.000000 0.000000 
#    y 0.000000 1.838200 0.000000 
#    z 0.000000 0.000000 1.871880 
# 
# From -- ./inp_files/2777.got.cif
#   From: 2010.03.12/outbox.cif.g09.slc.cpg/sg53_2_cif.got.tgz:2777.got - 2010.04.16 14:36:59.
