data_PCOD8220011
_publ_section_title
;
Structure prediction by ZEFSAII (Michael W. Deem and Ramdas Pophale) SiO2 
 PCOD8220011
Probable space group: P M N A
;
_chemical_formula_sum "Si O2"
_cell_formula_units_Z 40
_cell_length_a 8.790928
_cell_length_b 16.759803
_cell_length_c 14.563250
_cell_angle_alpha 90.000000
_cell_angle_beta 90.000000
_cell_angle_gamma 90.000000
_cell_volume 2145.665101
_symmetry_space_group_name_H-M "P M N A"
_symmetry_group_IT_number 53
_symmetry_cell_setting 'orthorhombic'
loop_
_space_group_symop_operation_xyz
x,y,z
1/2-x,-y,1/2+z
x,-y,-z
1/2-x,y,1/2-z
-x,-y,-z
1/2+x,y,1/2-z
-x,y,z
1/2+x,-y,1/2+z
loop_
_atom_site_type_symbol
_atom_site_label
_atom_site_fract_x
_atom_site_fract_y
_atom_site_fract_z
Si Si1 0.676548 0.080179 0.346264
Si Si2 0.822947 0.197277 0.990638
Si Si3 0.819752 0.376995 0.000170
Si Si4 0.679481 0.082561 0.848636
Si Si5 0.819984 0.500348 0.850420
O O1 0.750000 0.104474 0.250000
O O2 0.500000 0.060899 0.331918
O O3 0.703635 0.154161 0.412854
O O4 0.754682 0.000824 0.387849
O O5 0.724014 0.155054 0.913500
O O6 0.000000 0.195407 0.962193
O O7 0.758298 0.286831 0.999947
O O8 0.761525 0.422765 0.091615
O O9 0.000000 0.377509 0.003505
O O10 0.766476 0.421949 0.907216
O O11 0.750000 0.100193 0.750000
O O12 0.500000 0.075830 0.840760
O O13 0.750000 0.500028 0.750000
O O14 0.000000 0.501751 0.839819
#
# Coordination Sequence:
#
# PCOD8220011 Si02
#       5
#     8   8   8   8   8
#     4  10  20  34  53  75 102 137 175 214 256 304
#     4  10  20  35  54  76 104 137 172 212 258 304
#     4   8  17  34  53  74 103 137 169 201 247 309
#     4  11  22  36  54  75 102 136 174 215 257 304
#     4   9  17  33  56  77 100 134 170 204 248 300
#
# _framework density 18.642237999999999
#
# number of rings (size 3 to 8) (size 9 to 14) (size 15 to 20)
#    0.000    2.400    0.000    5.400    0.000    5.600 
#    0.000    6.000    0.000    0.000    0.000    0.000 
#    0.000    0.000    0.000    0.000    0.000    0.000 
#
# Total GULP energy -495955.771640 kJ/mol
# GULP energy per Si atom -12398.894291 kJ/mol
# Density = 1.859981 g / cm^3
# Si number density = 18.642238 Si / 1000 Ang^3
#
#
#
# Elastic Constant Matrix: (Units=GPa)
#
#
# Indices 1 2 3 4 5 6 
#
# 1 90.8089 56.2214 53.2447 0.0000 0.0000 0.0000
# 2 56.2214 171.2715 82.5462 0.0000 0.0000 0.0000
# 3 53.2447 82.5462 132.5015 0.0000 0.0000 0.0000
# 4 0.0000 0.0000 0.0000 844.3204 0.0000 0.0000
# 5 0.0000 0.0000 0.0000 0.0000 34.2561 0.0000
# 6 0.0000 0.0000 0.0000 0.0000 0.0000 22.6333
#
#
#
# Elastic Compliance Matrix: (Units=1/GPa)
#
#
# Indices 1 2 3 4 5 6 
#
# 1 0.015389 -0.002960 -0.004340 0.000000 0.000000 0.000000
# 2 -0.002960 0.008913 -0.004363 0.000000 0.000000 0.000000
# 3 -0.004340 -0.004363 0.012009 0.000000 0.000000 0.000000
# 4 0.000000 0.000000 0.000000 0.001184 0.000000 0.000000
# 5 0.000000 0.000000 0.000000 0.000000 0.029192 0.000000
# 6 0.000000 0.000000 0.000000 0.000000 0.000000 0.044183
#
#
# Mechanical properties :
#
#
# Convention : Reuss Voigt Hill
#
# Bulk Modulus (GPa) = 77.01045 86.51182 81.76113
# Shear Modulus (GPa) = 36.09413 193.74660 114.92037
#
# Velocity S-wave (km/s) = 4.40494 10.20561 7.85996
# Velocity P-wave (km/s) = 8.20187 13.61542 11.23945
#
# Compressibility (1/GPa) = 0.01298525
#
# Stress axis : x y z
#
# Youngs Moduli (GPa) = 64.97944 112.19186 83.26762
#
# Poissons Ratio (x) = 0.33208 0.36139
# Poissons Ratio (y) = 0.19234 0.36333
# Poissons Ratio (z) = 0.28202 0.48954
#
# Static dielectric constant tensor:
#      x y z
#    x 3.289020 0.000000 0.000000 
#    y 0.000000 3.783700 0.000000 
#    z 0.000000 0.000000 3.464580 
# 
# 
# High freq. dielectric constant tensor:
#      x y z
#    x 1.706160 0.000000 0.000000 
#    y 0.000000 1.726930 0.000000 
#    z 0.000000 0.000000 1.730010 
# 
# From -- ./inp_files/19833.got.cif
#   From: 2010.03.12/outbox.cif.g09.slc.cpg/sg53_10_cif.got.tgz:19833.got - 2010.04.16 14:36:59.
