data_PCOD8220872
_publ_section_title
;
Structure prediction by ZEFSAII (Michael W. Deem and Ramdas Pophale) SiO2 
 PCOD8220872
Probable space group: P M N A
;
_chemical_formula_sum "Si O2"
_cell_formula_units_Z 32
_cell_length_a 16.782235
_cell_length_b 8.949223
_cell_length_c 9.812601
_cell_angle_alpha 90.000000
_cell_angle_beta 90.000000
_cell_angle_gamma 90.000000
_cell_volume 1473.734560
_symmetry_space_group_name_H-M "P M N A"
_symmetry_group_IT_number 53
_symmetry_cell_setting 'orthorhombic'
loop_
_space_group_symop_operation_xyz
x,y,z
1/2-x,-y,1/2+z
x,-y,-z
1/2-x,y,1/2-z
-x,-y,-z
1/2+x,y,1/2-z
-x,y,z
1/2+x,-y,1/2+z
loop_
_atom_site_type_symbol
_atom_site_label
_atom_site_fract_x
_atom_site_fract_y
_atom_site_fract_z
Si Si1 0.406491 0.915132 0.132968
Si Si2 0.409020 0.613728 0.622400
Si Si3 0.094972 0.582285 0.367468
Si Si4 0.178763 0.917117 0.858916
O O1 0.500000 0.902293 0.113664
O O2 0.368522 0.748995 0.138129
O O3 0.390031 0.995610 0.276584
O O4 0.370472 0.000000 0.000000
O O5 0.405651 0.500000 0.500000
O O6 0.500000 0.667540 0.648820
O O7 0.372901 0.520565 0.746953
O O8 0.353373 0.755724 0.597175
O O9 0.127212 0.500000 0.500000
O O10 0.000000 0.591531 0.362309
O O11 0.250000 0.907174 0.750000
O O12 0.202502 0.000000 0.000000
#
# Coordination Sequence:
#
# PCOD8220872 Si02
#       4
#     8   8   8   8
#     4  10  20  37  64  95 124 159 205 255 309 368
#     4  10  21  40  66  94 121 154 205 265 318 369
#     4   9  17  31  55  88 122 152 189 243 301 356
#     4  12  26  43  61  86 125 168 209 255 313 378
#
# _framework density 21.713543000000001
#
# number of rings (size 3 to 8) (size 9 to 14) (size 15 to 20)
#    0.000    1.750    0.000    4.500    0.000    8.000 
#    0.000    8.750    0.000    0.000    0.000    0.000 
#    0.000    0.000    0.000    0.000    0.000    0.000 
#
# Total GULP energy -396707.109889 kJ/mol
# GULP energy per Si atom -12397.097184 kJ/mol
# Density = 2.166412 g / cm^3
# Si number density = 21.713543 Si / 1000 Ang^3
#
#
#
# Elastic Constant Matrix: (Units=GPa)
#
#
# Indices 1 2 3 4 5 6 
#
# 1 40.0179 42.0926 29.6721 0.0000 0.0000 0.0000
# 2 42.0926 168.1381 51.6361 0.0000 0.0000 0.0000
# 3 29.6721 51.6361 142.0209 0.0000 0.0000 0.0000
# 4 0.0000 0.0000 0.0000 38.6792 0.0000 0.0000
# 5 0.0000 0.0000 0.0000 0.0000 28.4764 0.0000
# 6 0.0000 0.0000 0.0000 0.0000 0.0000 13.7950
#
#
#
# Elastic Compliance Matrix: (Units=1/GPa)
#
#
# Indices 1 2 3 4 5 6 
#
# 1 0.036687 -0.007689 -0.004869 0.000000 0.000000 0.000000
# 2 -0.007689 0.008307 -0.001414 0.000000 0.000000 0.000000
# 3 -0.004869 -0.001414 0.008573 0.000000 0.000000 0.000000
# 4 0.000000 0.000000 0.000000 0.025854 0.000000 0.000000
# 5 0.000000 0.000000 0.000000 0.000000 0.035117 0.000000
# 6 0.000000 0.000000 0.000000 0.000000 0.000000 0.072490
#
#
# Mechanical properties :
#
#
# Convention : Reuss Voigt Hill
#
# Bulk Modulus (GPa) = 39.02895 66.33094 52.67994
# Shear Modulus (GPa) = 22.37023 31.30853 26.83938
#
# Velocity S-wave (km/s) = 3.21322 3.80134 3.51959
# Velocity P-wave (km/s) = 5.63737 7.06268 6.38989
#
# Compressibility (1/GPa) = 0.02562201
#
# Stress axis : x y z
#
# Youngs Moduli (GPa) = 27.25768 120.38709 116.65168
#
# Poissons Ratio (x) = 0.92566 0.56802
# Poissons Ratio (y) = 0.20958 0.16491
# Poissons Ratio (z) = 0.13273 0.17019
#
# Static dielectric constant tensor:
#      x y z
#    x 3.563700 0.000000 0.000000 
#    y 0.000000 4.145140 0.000000 
#    z 0.000000 0.000000 4.098540 
# 
# 
# High freq. dielectric constant tensor:
#      x y z
#    x 1.816750 0.000000 0.000000 
#    y 0.000000 1.869380 0.000000 
#    z 0.000000 0.000000 1.868000 
# 
# From -- ./inp_files/10427.got.cif
#   From: 2010.03.12/outbox.cif.g09.slc.cpg/sg53_6_cif.got.tgz:10427.got - 2010.04.16 14:36:59.
