data_PCOD8220544
_publ_section_title
;
Structure prediction by ZEFSAII (Michael W. Deem and Ramdas Pophale) SiO2 
 PCOD8220544
Probable space group: P M N A
;
_chemical_formula_sum "Si O2"
_cell_formula_units_Z 48
_cell_length_a 8.788822
_cell_length_b 15.078965
_cell_length_c 19.158218
_cell_angle_alpha 90.000000
_cell_angle_beta 90.000000
_cell_angle_gamma 90.000000
_cell_volume 2538.968500
_symmetry_space_group_name_H-M "P M N A"
_symmetry_group_IT_number 53
_symmetry_cell_setting 'orthorhombic'
loop_
_space_group_symop_operation_xyz
x,y,z
1/2-x,-y,1/2+z
x,-y,-z
1/2-x,y,1/2-z
-x,-y,-z
1/2+x,y,1/2-z
-x,y,z
1/2+x,-y,1/2+z
loop_
_atom_site_type_symbol
_atom_site_label
_atom_site_fract_x
_atom_site_fract_y
_atom_site_fract_z
Si Si1 0.320642 0.229894 0.586838
Si Si2 0.319105 0.937323 0.324806
Si Si3 0.821759 0.536156 0.575270
Si Si4 0.180074 0.397294 0.826132
Si Si5 0.822835 0.262092 0.440445
Si Si6 0.679758 0.121311 0.175751
O O1 0.500000 0.235723 0.586323
O O2 0.265630 0.139025 0.622435
O O3 0.255681 0.313827 0.629753
O O4 0.263784 0.229668 0.508361
O O5 0.250000 0.913585 0.250000
O O6 0.500000 0.944227 0.318673
O O7 0.251911 0.030020 0.352656
O O8 0.770514 0.500000 0.500000
O O9 0.729652 0.487122 0.635680
O O10 0.775601 0.638766 0.580489
O O11 0.000000 0.520234 0.587489
O O12 0.250000 0.393489 0.750000
O O13 0.000000 0.394762 0.819297
O O14 0.775771 0.198915 0.377108
O O15 0.000000 0.257068 0.457606
O O16 0.750000 0.147341 0.250000
O O17 0.500000 0.109263 0.183585
#
# Coordination Sequence:
#
# PCOD8220544 Si02
#       6
#     8   8   8   8   8   8
#     4  10  22  37  56  84 116 149 187 230 280 337
#     4  10  20  36  57  82 112 149 189 231 281 333
#     4  10  20  38  61  83 112 150 189 232 284 337
#     4  11  23  38  58  86 117 150 190 235 282 336
#     4  10  22  38  59  85 113 148 188 230 282 339
#     4  10  21  38  58  82 111 145 188 233 280 334
#
# _framework density 18.905314000000001
#
# number of rings (size 3 to 8) (size 9 to 14) (size 15 to 20)
#    0.000    1.833    1.667    3.000    0.000    5.667 
#    0.000    5.000    0.000    0.000    0.000    0.000 
#    0.000    0.000    0.000    0.000    0.000    0.000 
#
# Total GULP energy -595397.974279 kJ/mol
# GULP energy per Si atom -12404.124464 kJ/mol
# Density = 1.886228 g / cm^3
# Si number density = 18.905314 Si / 1000 Ang^3
#
#
#
# Elastic Constant Matrix: (Units=GPa)
#
#
# Indices 1 2 3 4 5 6 
#
# 1 56.7918 40.6117 35.1275 0.0000 0.0000 0.0000
# 2 40.6117 164.4122 84.3854 0.0000 0.0000 0.0000
# 3 35.1275 84.3854 116.0428 0.0000 0.0000 0.0000
# 4 0.0000 0.0000 0.0000 37.5221 0.0000 0.0000
# 5 0.0000 0.0000 0.0000 0.0000 31.5487 0.0000
# 6 0.0000 0.0000 0.0000 0.0000 0.0000 -6.8849
#
#
#
# Elastic Compliance Matrix: (Units=1/GPa)
#
#
# Indices 1 2 3 4 5 6 
#
# 1 0.022750 -0.003326 -0.004468 0.000000 0.000000 0.000000
# 2 -0.003326 0.010191 -0.006404 0.000000 0.000000 0.000000
# 3 -0.004468 -0.006404 0.014627 0.000000 0.000000 0.000000
# 4 0.000000 0.000000 0.000000 0.026651 0.000000 0.000000
# 5 0.000000 0.000000 0.000000 0.000000 0.031697 0.000000
# 6 0.000000 0.000000 0.000000 0.000000 0.000000 -0.145245
#
#
# Mechanical properties :
#
#
# Convention : Reuss Voigt Hill
#
# Bulk Modulus (GPa) = 52.15971 73.05511 62.60741
# Shear Modulus (GPa) = -1100.60247 24.24532 -538.17857
#
# Velocity S-wave (km/s) = -24.15429 3.58503 -16.89049
# Velocity P-wave (km/s) = 27.39080 7.47416 18.63321
#
# Compressibility (1/GPa) = 0.01917189
#
# Stress axis : x y z
#
# Youngs Moduli (GPa) = 43.95521 98.12939 68.36856
#
# Poissons Ratio (x) = 0.32643 0.30546
# Poissons Ratio (y) = 0.14622 0.43780
# Poissons Ratio (z) = 0.19638 0.62838
#
# Static dielectric constant tensor:
#      x y z
#    x 3.425110 0.000000 0.000000 
#    y 0.000000 3.761620 0.000000 
#    z 0.000000 0.000000 3.419070 
# 
# 
# High freq. dielectric constant tensor:
#      x y z
#    x 1.735440 0.000000 0.000000 
#    y 0.000000 1.748990 0.000000 
#    z 0.000000 0.000000 1.736700 
# 
# From -- ./inp_files/26248.got.cif
#   From: 2010.03.12/outbox.cif.g09.slc.cpg/sg53_14_cif.got.tgz:26248.got - 2010.04.16 14:36:59.
