data_PCOD8220131
_publ_section_title
;
Structure prediction by ZEFSAII (Michael W. Deem and Ramdas Pophale) SiO2 
 PCOD8220131
Probable space group: P M N A
;
_chemical_formula_sum "Si O2"
_cell_formula_units_Z 64
_cell_length_a 8.941974
_cell_length_b 21.437360
_cell_length_c 17.679621
_cell_angle_alpha 90.000000
_cell_angle_beta 90.000000
_cell_angle_gamma 90.000000
_cell_volume 3389.047491
_symmetry_space_group_name_H-M "P M N A"
_symmetry_group_IT_number 53
_symmetry_cell_setting 'orthorhombic'
loop_
_space_group_symop_operation_xyz
x,y,z
1/2-x,-y,1/2+z
x,-y,-z
1/2-x,y,1/2-z
-x,-y,-z
1/2+x,y,1/2-z
-x,y,z
1/2+x,-y,1/2+z
loop_
_atom_site_type_symbol
_atom_site_label
_atom_site_fract_x
_atom_site_fract_y
_atom_site_fract_z
Si Si1 0.328168 0.680479 0.049348
Si Si2 0.327585 0.888499 0.425990
Si Si3 0.672895 0.008409 0.326212
Si Si4 0.676455 0.219035 0.831095
Si Si5 0.670908 0.742082 0.892623
Si Si6 0.324204 0.370507 0.325934
Si Si7 0.323186 0.568236 0.519440
Si Si8 0.824558 0.883168 0.586952
O O1 0.500000 0.660563 0.050690
O O2 0.282807 0.717234 0.125049
O O3 0.293754 0.726789 0.979949
O O4 0.233766 0.617073 0.043199
O O5 0.500000 0.867586 0.429951
O O6 0.237495 0.839985 0.375728
O O7 0.261271 0.892875 0.509075
O O8 0.310878 0.956550 0.390295
O O9 0.750000 0.983057 0.250000
O O10 0.500000 0.024528 0.310929
O O11 0.760278 0.070097 0.351166
O O12 0.750000 0.223568 0.750000
O O13 0.500000 0.210413 0.822995
O O14 0.500000 0.725614 0.872670
O O15 0.775722 0.701293 0.838066
O O16 0.705691 0.814458 0.879798
O O17 0.250000 0.397795 0.250000
O O18 0.500000 0.374090 0.316818
O O19 0.267260 0.411692 0.397020
O O20 0.258457 0.500000 0.500000
O O21 0.500000 0.568337 0.515944
O O22 0.000000 0.894445 0.573059
#
# Coordination Sequence:
#
# PCOD8220131 Si02
#       8
#     8   8   8   8   8   8   8   8
#     4   9  18  35  56  80 112 144 182 227 271 330
#     4  11  23  39  60  84 112 147 190 237 285 343
#     4  11  25  42  57  79 110 147 190 238 288 343
#     4  11  22  37  57  85 116 148 188 235 288 341
#     4   9  18  35  56  80 109 142 179 225 274 328
#     4  10  20  34  55  83 113 149 186 228 278 328
#     4   9  19  36  58  84 113 148 191 233 275 327
#     4  11  22  38  61  86 112 147 186 233 287 342
#
# _framework density 18.884360999999998
#
# number of rings (size 3 to 8) (size 9 to 14) (size 15 to 20)
#    0.000    1.875    1.250    2.625    0.000    7.750 
#    0.000    0.625    0.000    3.000    0.000    0.000 
#    0.000    0.000    0.000    0.000    0.000    0.000 
#
# Total GULP energy -793831.741210 kJ/mol
# GULP energy per Si atom -12403.620956 kJ/mol
# Density = 1.884138 g / cm^3
# Si number density = 18.884361 Si / 1000 Ang^3
#
#
#
# Elastic Constant Matrix: (Units=GPa)
#
#
# Indices 1 2 3 4 5 6 
#
# 1 74.9995 42.1647 32.3293 0.0000 0.0000 0.0000
# 2 42.1647 107.1153 25.8712 0.0000 0.0000 0.0000
# 3 32.3293 25.8712 80.7265 0.0000 0.0000 0.0000
# 4 0.0000 0.0000 0.0000 22.0677 0.0000 0.0000
# 5 0.0000 0.0000 0.0000 0.0000 29.0434 0.0000
# 6 0.0000 0.0000 0.0000 0.0000 0.0000 27.9137
#
#
#
# Elastic Compliance Matrix: (Units=1/GPa)
#
#
# Indices 1 2 3 4 5 6 
#
# 1 0.019299 -0.006211 -0.005738 0.000000 0.000000 0.000000
# 2 -0.006211 0.012118 -0.001396 0.000000 0.000000 0.000000
# 3 -0.005738 -0.001396 0.015133 0.000000 0.000000 0.000000
# 4 0.000000 0.000000 0.000000 0.045315 0.000000 0.000000
# 5 0.000000 0.000000 0.000000 0.000000 0.034431 0.000000
# 6 0.000000 0.000000 0.000000 0.000000 0.000000 0.035825
#
#
# Mechanical properties :
#
#
# Convention : Reuss Voigt Hill
#
# Bulk Modulus (GPa) = 50.35518 51.50795 50.93156
# Shear Modulus (GPa) = 25.58453 26.63671 26.11062
#
# Velocity S-wave (km/s) = 3.68475 3.75976 3.72245
# Velocity P-wave (km/s) = 6.69523 6.79576 6.74568
#
# Compressibility (1/GPa) = 0.01985893
#
# Stress axis : x y z
#
# Youngs Moduli (GPa) = 51.81711 82.52363 66.08064
#
# Poissons Ratio (x) = 0.51253 0.37919
# Poissons Ratio (y) = 0.32182 0.09226
# Poissons Ratio (z) = 0.29734 0.11522
#
# Static dielectric constant tensor:
#      x y z
#    x 3.536170 0.000000 0.000000 
#    y 0.000000 3.527910 0.000000 
#    z 0.000000 0.000000 3.455010 
# 
# 
# High freq. dielectric constant tensor:
#      x y z
#    x 1.741400 0.000000 0.000000 
#    y 0.000000 1.729410 0.000000 
#    z 0.000000 0.000000 1.733910 
# 
# From -- ./inp_files/26862.got.cif
#   From: 2010.03.12/outbox.cif.g09.slc.cpg/sg53_14_cif.got.tgz:26862.got - 2010.04.16 14:36:59.
