data_PCOD8220920
_publ_section_title
;
Structure prediction by ZEFSAII (Michael W. Deem and Ramdas Pophale) SiO2 
 PCOD8220920
Probable space group: P M N A
;
_chemical_formula_sum "Si O2"
_cell_formula_units_Z 32
_cell_length_a 14.998267
_cell_length_b 7.378707
_cell_length_c 13.530115
_cell_angle_alpha 90.000000
_cell_angle_beta 90.000000
_cell_angle_gamma 90.000000
_cell_volume 1497.348300
_symmetry_space_group_name_H-M "P M N A"
_symmetry_group_IT_number 53
_symmetry_cell_setting 'orthorhombic'
loop_
_space_group_symop_operation_xyz
x,y,z
1/2-x,-y,1/2+z
x,-y,-z
1/2-x,y,1/2-z
-x,-y,-z
1/2+x,y,1/2-z
-x,y,z
1/2+x,-y,1/2+z
loop_
_atom_site_type_symbol
_atom_site_label
_atom_site_fract_x
_atom_site_fract_y
_atom_site_fract_z
Si Si1 0.400225 0.415811 0.600556
Si Si2 0.848859 0.273727 0.235809
Si Si3 0.403237 0.007456 0.117115
Si Si4 0.208944 0.937625 0.112779
O O1 0.359988 0.500000 0.500000
O O2 0.500000 0.343547 0.581135
O O3 0.405384 0.568661 0.685084
O O4 0.339308 0.250230 0.632811
O O5 0.750000 0.352856 0.250000
O O6 0.894396 0.214143 0.340098
O O7 0.845389 0.092446 0.169390
O O8 0.500000 0.926825 0.154601
O O9 0.311469 0.909068 0.153024
O O10 0.405483 0.000000 0.000000
O O11 0.211453 0.000000 0.000000
#
# Coordination Sequence:
#
# PCOD8220920 Si02
#       4
#     8   8   8   8
#     4  11  23  37  60  93 126 164 207 255 314 374
#     4  10  21  38  62  90 124 164 203 255 312 367
#     4   9  19  37  64  89 116 162 210 253 307 368
#     4  10  20  38  61  88 123 162 205 256 313 372
#
# _framework density 21.371110999999999
#
# number of rings (size 3 to 8) (size 9 to 14) (size 15 to 20)
#    0.000    2.000    2.500    0.750    0.000    5.500 
#    0.000    0.000    0.000    6.750    0.000    0.000 
#    0.000    0.000    0.000    0.000    0.000    0.000 
#
# Total GULP energy -396442.088039 kJ/mol
# GULP energy per Si atom -12388.815251 kJ/mol
# Density = 2.132247 g / cm^3
# Si number density = 21.371111 Si / 1000 Ang^3
#
#
#
# Elastic Constant Matrix: (Units=GPa)
#
#
# Indices 1 2 3 4 5 6 
#
# 1 133.7478 58.4524 4.2439 0.0000 0.0000 0.0000
# 2 58.4524 120.3598 35.8442 0.0000 0.0000 0.0000
# 3 4.2439 35.8442 72.7349 0.0000 0.0000 0.0000
# 4 0.0000 0.0000 0.0000 36.5323 0.0000 0.0000
# 5 0.0000 0.0000 0.0000 0.0000 -11.5977 0.0000
# 6 0.0000 0.0000 0.0000 0.0000 0.0000 16.9553
#
#
#
# Elastic Compliance Matrix: (Units=1/GPa)
#
#
# Indices 1 2 3 4 5 6 
#
# 1 0.009750 -0.005351 0.002068 0.000000 0.000000 0.000000
# 2 -0.005351 0.012674 -0.005934 0.000000 0.000000 0.000000
# 3 0.002068 -0.005934 0.016552 0.000000 0.000000 0.000000
# 4 0.000000 0.000000 0.000000 0.027373 0.000000 0.000000
# 5 0.000000 0.000000 0.000000 0.000000 -0.086224 0.000000
# 6 0.000000 0.000000 0.000000 0.000000 0.000000 0.058978
#
#
# Mechanical properties :
#
#
# Convention : Reuss Voigt Hill
#
# Bulk Modulus (GPa) = 48.67850 58.21371 53.44611
# Shear Modulus (GPa) = 77.65959 23.59811 50.62885
#
# Velocity S-wave (km/s) = 6.03469 3.32656 4.87255
# Velocity P-wave (km/s) = 8.44889 6.48485 7.53117
#
# Compressibility (1/GPa) = 0.02054295
#
# Stress axis : x y z
#
# Youngs Moduli (GPa) = 102.56831 78.90109 60.41548
#
# Poissons Ratio (x) = 0.42218 -0.12494
# Poissons Ratio (y) = 0.54882 0.35849
# Poissons Ratio (z) = -0.21211 0.46817
#
# Static dielectric constant tensor:
#      x y z
#    x 4.367290 0.000000 0.000000 
#    y 0.000000 3.462360 0.000000 
#    z 0.000000 0.000000 4.201970 
# 
# 
# High freq. dielectric constant tensor:
#      x y z
#    x 1.854290 0.000000 0.000000 
#    y 0.000000 1.798570 0.000000 
#    z 0.000000 0.000000 1.850300 
# 
# From -- ./inp_files/23156.got.cif
#   From: 2010.03.12/outbox.cif.g09.slc.cpg/sg53_12_cif.got.tgz:23156.got - 2010.04.16 14:36:59.
