data_PCOD8220405
_publ_section_title
;
Structure prediction by ZEFSAII (Michael W. Deem and Ramdas Pophale) SiO2 
 PCOD8220405
Probable space group: P M N A
;
_chemical_formula_sum "Si O2"
_cell_formula_units_Z 64
_cell_length_a 8.932275
_cell_length_b 14.809738
_cell_length_c 23.681798
_cell_angle_alpha 90.000000
_cell_angle_beta 90.000000
_cell_angle_gamma 90.000000
_cell_volume 3132.738419
_symmetry_space_group_name_H-M "P M N A"
_symmetry_group_IT_number 53
_symmetry_cell_setting 'orthorhombic'
loop_
_space_group_symop_operation_xyz
x,y,z
1/2-x,-y,1/2+z
x,-y,-z
1/2-x,y,1/2-z
-x,-y,-z
1/2+x,y,1/2-z
-x,y,z
1/2+x,-y,1/2+z
loop_
_atom_site_type_symbol
_atom_site_label
_atom_site_fract_x
_atom_site_fract_y
_atom_site_fract_z
Si Si1 0.324208 0.861494 0.108374
Si Si2 0.823687 0.213933 0.491088
Si Si3 0.824201 0.449403 0.850597
Si Si4 0.825146 0.715707 0.303764
Si Si5 0.825126 0.180529 0.125211
Si Si6 0.179279 0.019835 0.311013
Si Si7 0.826710 0.358636 0.191311
Si Si8 0.330615 0.590597 0.035801
O O1 0.500000 0.873324 0.107302
O O2 0.279366 0.770020 0.140487
O O3 0.259723 0.947573 0.142378
O O4 0.267773 0.847482 0.044211
O O5 0.734274 0.173738 0.438436
O O6 0.785845 0.320116 0.500259
O O7 0.000000 0.201307 0.480477
O O8 0.740020 0.384691 0.807134
O O9 0.765316 0.549641 0.836729
O O10 0.784408 0.421110 0.913773
O O11 0.000000 0.439919 0.841945
O O12 0.750000 0.764731 0.250000
O O13 0.000000 0.712855 0.293917
O O14 0.733890 0.116342 0.167218
O O15 0.793306 0.281266 0.146182
O O16 0.000000 0.155314 0.127123
O O17 0.250000 0.998135 0.250000
O O18 0.000000 0.018047 0.305153
O O19 0.750000 0.335195 0.250000
O O20 0.000000 0.367646 0.204848
O O21 0.500000 0.603938 0.059357
O O22 0.319556 0.500000 0.000000
#
# Coordination Sequence:
#
# PCOD8220405 Si02
#       8
#     8   8   8   8   8   8   8   8
#     4   9  20  39  63  88 122 161 198 242 297 359
#     4  10  20  39  62  88 122 162 205 245 298 362
#     4  11  22  36  55  84 118 157 199 245 301 358
#     4  11  21  37  58  85 120 157 197 244 293 355
#     4  11  24  42  62  89 122 158 201 255 309 360
#     4  11  23  42  67  94 121 156 199 248 305 366
#     4  10  23  40  58  82 117 157 201 249 304 362
#     4  10  20  35  58  86 118 160 208 254 297 351
#
# _framework density 20.429409
#
# number of rings (size 3 to 8) (size 9 to 14) (size 15 to 20)
#    0.000    1.625    1.250    3.375    0.000    5.250 
#    0.000    5.625    0.000    0.000    0.000    0.000 
#    0.000    0.000    0.000    0.000    0.000    0.000 
#
# Total GULP energy -793621.452896 kJ/mol
# GULP energy per Si atom -12400.335201 kJ/mol
# Density = 2.038291 g / cm^3
# Si number density = 20.429409 Si / 1000 Ang^3
#
#
#
# Elastic Constant Matrix: (Units=GPa)
#
#
# Indices 1 2 3 4 5 6 
#
# 1 67.6332 32.3657 39.2293 0.0000 0.0000 0.0000
# 2 32.3657 87.9979 29.8586 0.0000 0.0000 0.0000
# 3 39.2293 29.8586 123.4942 0.0000 0.0000 0.0000
# 4 0.0000 0.0000 0.0000 56.4123 0.0000 0.0000
# 5 0.0000 0.0000 0.0000 0.0000 40.5332 0.0000
# 6 0.0000 0.0000 0.0000 0.0000 0.0000 20.7829
#
#
#
# Elastic Compliance Matrix: (Units=1/GPa)
#
#
# Indices 1 2 3 4 5 6 
#
# 1 0.020538 -0.005817 -0.005118 0.000000 0.000000 0.000000
# 2 -0.005817 0.014027 -0.001544 0.000000 0.000000 0.000000
# 3 -0.005118 -0.001544 0.010096 0.000000 0.000000 0.000000
# 4 0.000000 0.000000 0.000000 0.017727 0.000000 0.000000
# 5 0.000000 0.000000 0.000000 0.000000 0.024671 0.000000
# 6 0.000000 0.000000 0.000000 0.000000 0.000000 0.048116
#
#
# Mechanical properties :
#
#
# Convention : Reuss Voigt Hill
#
# Bulk Modulus (GPa) = 50.74977 53.55917 52.15447
# Shear Modulus (GPa) = 29.99382 35.39047 32.69215
#
# Velocity S-wave (km/s) = 3.83583 4.16664 4.00465
# Velocity P-wave (km/s) = 6.67185 7.03004 6.85328
#
# Compressibility (1/GPa) = 0.01970452
#
# Stress axis : x y z
#
# Youngs Moduli (GPa) = 48.69053 71.28955 99.04525
#
# Poissons Ratio (x) = 0.41472 0.50687
# Poissons Ratio (y) = 0.28325 0.15288
# Poissons Ratio (z) = 0.24918 0.11004
#
# Static dielectric constant tensor:
#      x y z
#    x 3.565820 0.000000 0.000000 
#    y 0.000000 3.921360 0.000000 
#    z 0.000000 0.000000 3.828270 
# 
# 
# High freq. dielectric constant tensor:
#      x y z
#    x 1.783400 0.000000 0.000000 
#    y 0.000000 1.806400 0.000000 
#    z 0.000000 0.000000 1.810630 
# 
# From -- ./inp_files/34212.got.cif
#   From: 2010.03.12/outbox.cif.g09.slc.cpg/sg53_18_cif.got.tgz:34212.got - 2010.04.16 14:36:59.
