data_PCOD8220703
_publ_section_title
;
Structure prediction by ZEFSAII (Michael W. Deem and Ramdas Pophale) SiO2 
 PCOD8220703
Probable space group: P M N A
;
_chemical_formula_sum "Si O2"
_cell_formula_units_Z 40
_cell_length_a 13.611018
_cell_length_b 7.760910
_cell_length_c 16.442497
_cell_angle_alpha 90.000000
_cell_angle_beta 90.000000
_cell_angle_gamma 90.000000
_cell_volume 1736.884849
_symmetry_space_group_name_H-M "P M N A"
_symmetry_group_IT_number 53
_symmetry_cell_setting 'orthorhombic'
loop_
_space_group_symop_operation_xyz
x,y,z
1/2-x,-y,1/2+z
x,-y,-z
1/2-x,y,1/2-z
-x,-y,-z
1/2+x,y,1/2-z
-x,y,z
1/2+x,-y,1/2+z
loop_
_atom_site_type_symbol
_atom_site_label
_atom_site_fract_x
_atom_site_fract_y
_atom_site_fract_z
Si Si1 0.112563 0.155905 0.230884
Si Si2 0.608474 0.832335 0.552439
Si Si3 0.887940 0.461788 0.794148
Si Si4 0.249849 0.632853 0.440413
Si Si5 0.114171 0.158382 0.667196
O O1 0.156807 0.126070 0.140505
O O2 0.128309 0.356961 0.254773
O O3 0.000000 0.099267 0.228908
O O4 0.158268 0.022545 0.297032
O O5 0.500000 0.752913 0.568558
O O6 0.669769 0.697086 0.503166
O O7 0.599388 0.000000 0.500000
O O8 0.808636 0.454434 0.865915
O O9 0.868864 0.305779 0.733793
O O10 0.000000 0.453649 0.827671
O O11 0.190449 0.500000 0.500000
O O12 0.176681 0.784756 0.411677
O O13 0.000000 0.143998 0.641408
#
# Coordination Sequence:
#
# PCOD8220703 Si02
#       5
#     8   8   8   8   8
#     4   9  18  37  64  89 117 163 217 268 318 373
#     4  10  20  36  61  95 131 163 203 266 340 397
#     4  10  20  38  65  94 124 162 214 272 326 383
#     4  12  23  38  61  98 136 169 211 268 337 390
#     4  10  23  43  64  90 129 177 225 262 305 379
#
# _framework density 23.029734999999999
#
# number of rings (size 3 to 8) (size 9 to 14) (size 15 to 20)
#    0.000    1.800    2.000    2.400    0.000    4.400 
#    3.600    2.000    0.000    0.600    0.000    2.800 
#    0.000    0.000    0.000    0.000    0.000    0.000 
#
# Total GULP energy -495607.269246 kJ/mol
# GULP energy per Si atom -12390.181731 kJ/mol
# Density = 2.297732 g / cm^3
# Si number density = 23.029735 Si / 1000 Ang^3
#
#
#
# Elastic Constant Matrix: (Units=GPa)
#
#
# Indices 1 2 3 4 5 6 
#
# 1 79.4763 23.4353 37.8696 0.0000 0.0000 0.0000
# 2 23.4353 121.7215 27.8478 0.0000 0.0000 0.0000
# 3 37.8696 27.8478 48.3371 0.0000 0.0000 0.0000
# 4 0.0000 0.0000 0.0000 55.6799 0.0000 0.0000
# 5 0.0000 0.0000 0.0000 0.0000 33.8399 0.0000
# 6 0.0000 0.0000 0.0000 0.0000 0.0000 -1.7472
#
#
#
# Elastic Compliance Matrix: (Units=1/GPa)
#
#
# Indices 1 2 3 4 5 6 
#
# 1 0.020087 -0.000308 -0.015560 0.000000 0.000000 0.000000
# 2 -0.000308 0.009467 -0.005213 0.000000 0.000000 0.000000
# 3 -0.015560 -0.005213 0.035882 0.000000 0.000000 0.000000
# 4 0.000000 0.000000 0.000000 0.017960 0.000000 0.000000
# 5 0.000000 0.000000 0.000000 0.000000 0.029551 0.000000
# 6 0.000000 0.000000 0.000000 0.000000 0.000000 -0.572332
#
#
# Mechanical properties :
#
#
# Convention : Reuss Voigt Hill
#
# Bulk Modulus (GPa) = 42.96521 47.53781 45.25151
# Shear Modulus (GPa) = -12.21108 28.24666 8.01779
#
# Velocity S-wave (km/s) = -2.30517 3.50598 1.86790
# Velocity P-wave (km/s) = 3.40761 6.08900 4.93395
#
# Compressibility (1/GPa) = 0.02327465
#
# Stress axis : x y z
#
# Youngs Moduli (GPa) = 49.78270 105.62532 27.86904
#
# Poissons Ratio (x) = 0.03249 0.43365
# Poissons Ratio (y) = 0.01531 0.14529
# Poissons Ratio (z) = 0.77463 0.55067
#
# Static dielectric constant tensor:
#      x y z
#    x 4.329000 0.000000 0.000000 
#    y 0.000000 4.272440 0.000000 
#    z 0.000000 0.000000 4.031510 
# 
# 
# High freq. dielectric constant tensor:
#      x y z
#    x 1.900350 0.000000 0.000000 
#    y 0.000000 1.923290 0.000000 
#    z 0.000000 0.000000 1.893840 
# 
# From -- ./inp_files/22427.got.cif
#   From: 2010.03.12/outbox.cif.g09.slc.cpg/sg53_12_cif.got.tgz:22427.got - 2010.04.16 14:36:59.
