data_PCOD8220215
_publ_section_title
;
Structure prediction by ZEFSAII (Michael W. Deem and Ramdas Pophale) SiO2 
 PCOD8220215
Probable space group: P M N A
;
_chemical_formula_sum "Si O2"
_cell_formula_units_Z 56
_cell_length_a 9.653312
_cell_length_b 21.927885
_cell_length_c 14.452558
_cell_angle_alpha 90.000000
_cell_angle_beta 90.000000
_cell_angle_gamma 90.000000
_cell_volume 3059.270007
_symmetry_space_group_name_H-M "P M N A"
_symmetry_group_IT_number 53
_symmetry_cell_setting 'orthorhombic'
loop_
_space_group_symop_operation_xyz
x,y,z
1/2-x,-y,1/2+z
x,-y,-z
1/2-x,y,1/2-z
-x,-y,-z
1/2+x,y,1/2-z
-x,y,z
1/2+x,-y,1/2+z
loop_
_atom_site_type_symbol
_atom_site_label
_atom_site_fract_x
_atom_site_fract_y
_atom_site_fract_z
Si Si1 0.336206 0.567402 0.513158
Si Si2 0.835751 0.776922 0.969524
Si Si3 0.163254 0.912115 0.969489
Si Si4 0.152608 0.240178 0.827247
Si Si5 0.834656 0.334154 0.156848
Si Si6 0.665328 0.022938 0.654802
Si Si7 0.849259 0.381621 0.824661
O O1 0.270049 0.500000 0.500000
O O2 0.500000 0.562296 0.517226
O O3 0.287979 0.603861 0.604216
O O4 0.287830 0.608017 0.426468
O O5 0.787072 0.844540 0.938804
O O6 0.782060 0.725294 0.899731
O O7 0.000000 0.770918 0.975776
O O8 0.776506 0.766477 0.072574
O O9 0.000000 0.917322 0.969412
O O10 0.216262 0.958944 0.891125
O O11 0.207868 0.927104 0.075997
O O12 0.250000 0.208537 0.750000
O O13 0.136046 0.310823 0.803153
O O14 0.000000 0.208890 0.823862
O O15 0.750000 0.333606 0.250000
O O16 0.000000 0.331990 0.174034
O O17 0.750000 0.034429 0.750000
O O18 0.500000 0.023923 0.675907
O O19 0.750000 0.413693 0.750000
O O20 0.000000 0.413314 0.816481
#
# Coordination Sequence:
#
# PCOD8220215 Si02
#       7
#     8   8   8   8   8   8   8
#     4   9  17  31  51  71  93 125 162 195 231 283
#     4   9  16  30  51  70  94 129 165 195 231 287
#     4   8  16  30  48  70  95 128 165 196 231 286
#     4   9  16  27  45  68  91 117 150 187 229 278
#     4  10  20  35  53  73  97 127 164 202 239 282
#     4   9  17  31  50  71  96 126 162 200 239 281
#     4   9  16  28  46  68  90 115 148 185 227 274
#
# _framework density 18.305021
#
# number of rings (size 3 to 8) (size 9 to 14) (size 15 to 20)
#    0.000    3.000    1.429    0.857    0.000    1.714 
#    0.000    2.857    0.000    2.571    0.000    0.000 
#    0.000    0.000    0.000    0.000    0.000    0.000 
#
# Total GULP energy -693743.803984 kJ/mol
# GULP energy per Si atom -12388.282214 kJ/mol
# Density = 1.826336 g / cm^3
# Si number density = 18.305021 Si / 1000 Ang^3
#
#
#
# Elastic Constant Matrix: (Units=GPa)
#
#
# Indices 1 2 3 4 5 6 
#
# 1 37.0515 13.5791 37.9190 0.0000 0.0000 0.0000
# 2 13.5791 101.5242 40.1664 0.0000 0.0000 0.0000
# 3 37.9190 40.1664 132.0132 0.0000 0.0000 0.0000
# 4 0.0000 0.0000 0.0000 14.4593 0.0000 0.0000
# 5 0.0000 0.0000 0.0000 0.0000 34.6563 0.0000
# 6 0.0000 0.0000 0.0000 0.0000 0.0000 8.1350
#
#
#
# Elastic Compliance Matrix: (Units=1/GPa)
#
#
# Indices 1 2 3 4 5 6 
#
# 1 0.038295 -0.000876 -0.010733 0.000000 0.000000 0.000000
# 2 -0.000876 0.011218 -0.003162 0.000000 0.000000 0.000000
# 3 -0.010733 -0.003162 0.011620 0.000000 0.000000 0.000000
# 4 0.000000 0.000000 0.000000 0.069159 0.000000 0.000000
# 5 0.000000 0.000000 0.000000 0.000000 0.028855 0.000000
# 6 0.000000 0.000000 0.000000 0.000000 0.000000 0.122925
#
#
# Mechanical properties :
#
#
# Convention : Reuss Voigt Hill
#
# Bulk Modulus (GPa) = 31.65388 50.43531 41.04459
# Shear Modulus (GPa) = 15.52102 23.37843 19.44973
#
# Velocity S-wave (km/s) = 2.91505 3.57761 3.26319
# Velocity P-wave (km/s) = 5.35351 6.68418 6.05551
#
# Compressibility (1/GPa) = 0.03159171
#
# Stress axis : x y z
#
# Youngs Moduli (GPa) = 26.11310 89.14379 86.05886
#
# Poissons Ratio (x) = 0.07805 0.92369
# Poissons Ratio (y) = 0.02286 0.27209
# Poissons Ratio (z) = 0.28028 0.28184
#
# Static dielectric constant tensor:
#      x y z
#    x 3.143400 0.000000 0.000000 
#    y 0.000000 3.677580 0.000000 
#    z 0.000000 0.000000 3.414620 
# 
# 
# High freq. dielectric constant tensor:
#      x y z
#    x 1.654420 0.000000 0.000000 
#    y 0.000000 1.708330 0.000000 
#    z 0.000000 0.000000 1.713630 
# 
# From -- ./inp_files/14988.got.cif
#   From: 2010.03.12/outbox.cif.g09.slc.cpg/sg53_8_cif.got.tgz:14988.got - 2010.04.16 14:36:59.
