data_PCOD8220253
_publ_section_title
;
Structure prediction by ZEFSAII (Michael W. Deem and Ramdas Pophale) SiO2 
 PCOD8220253
Probable space group: P M N A
;
_chemical_formula_sum "Si O2"
_cell_formula_units_Z 56
_cell_length_a 21.206711
_cell_length_b 8.982245
_cell_length_c 15.225417
_cell_angle_alpha 90.000000
_cell_angle_beta 90.000000
_cell_angle_gamma 90.000000
_cell_volume 2900.196411
_symmetry_space_group_name_H-M "P M N A"
_symmetry_group_IT_number 53
_symmetry_cell_setting 'orthorhombic'
loop_
_space_group_symop_operation_xyz
x,y,z
1/2-x,-y,1/2+z
x,-y,-z
1/2-x,y,1/2-z
-x,-y,-z
1/2+x,y,1/2-z
-x,y,z
1/2+x,-y,1/2+z
loop_
_atom_site_type_symbol
_atom_site_label
_atom_site_fract_x
_atom_site_fract_y
_atom_site_fract_z
Si Si1 0.333593 0.902161 0.916512
Si Si2 0.426617 0.404194 0.375815
Si Si3 0.807776 0.184076 0.685980
Si Si4 0.118074 0.292982 0.946079
Si Si5 0.929219 0.128331 0.789794
Si Si6 0.928768 0.803784 0.722047
Si Si7 0.739786 0.326896 0.977563
O O1 0.391416 0.819165 0.868940
O O2 0.299773 0.014938 0.849045
O O3 0.285414 0.771568 0.941615
O O4 0.357689 0.000000 0.000000
O O5 0.500000 0.442628 0.368952
O O6 0.388129 0.555064 0.389905
O O7 0.415636 0.298500 0.459820
O O8 0.402349 0.325861 0.286287
O O9 0.750000 0.218057 0.750000
O O10 0.876320 0.208945 0.729897
O O11 0.805072 0.301930 0.606406
O O12 0.085567 0.160931 0.891636
O O13 0.191706 0.261411 0.956868
O O14 0.000000 0.185145 0.764576
O O15 0.924963 0.952545 0.779373
O O16 0.000000 0.767197 0.694572
O O17 0.741616 0.500000 0.000000
#
# Coordination Sequence:
#
# PCOD8220253 Si02
#       7
#     8   8   8   8   8   8   8
#     4   9  21  39  60  83 114 151 190 242 294 345
#     4  10  20  35  54  81 118 152 189 233 287 352
#     4  10  20  39  59  84 117 153 192 243 293 340
#     4  11  20  35  54  79 116 158 189 230 293 344
#     4  10  20  36  60  86 112 147 195 240 289 349
#     4   9  20  38  59  87 114 144 192 242 288 347
#     4  11  22  39  55  84 118 151 197 238 286 348
#
# _framework density 19.309035999999999
#
# number of rings (size 3 to 8) (size 9 to 14) (size 15 to 20)
#    0.000    2.000    2.857    1.714    0.000    4.286 
#    2.571    4.286    0.000    0.857    0.000    0.000 
#    0.000    0.000    0.000    0.000    0.000    0.000 
#
# Total GULP energy -694309.233324 kJ/mol
# GULP energy per Si atom -12398.379166 kJ/mol
# Density = 1.926509 g / cm^3
# Si number density = 19.309036 Si / 1000 Ang^3
#
#
#
# Elastic Constant Matrix: (Units=GPa)
#
#
# Indices 1 2 3 4 5 6 
#
# 1 120.5373 35.9087 46.6749 0.0000 0.0000 0.0000
# 2 35.9087 43.3860 27.3259 0.0000 0.0000 0.0000
# 3 46.6749 27.3259 83.0743 0.0000 0.0000 0.0000
# 4 0.0000 0.0000 0.0000 36.8297 0.0000 0.0000
# 5 0.0000 0.0000 0.0000 0.0000 37.8739 0.0000
# 6 0.0000 0.0000 0.0000 0.0000 0.0000 25.8103
#
#
#
# Elastic Compliance Matrix: (Units=1/GPa)
#
#
# Indices 1 2 3 4 5 6 
#
# 1 0.012191 -0.007285 -0.004453 0.000000 0.000000 0.000000
# 2 -0.007285 0.033425 -0.006902 0.000000 0.000000 0.000000
# 3 -0.004453 -0.006902 0.016809 0.000000 0.000000 0.000000
# 4 0.000000 0.000000 0.000000 0.027152 0.000000 0.000000
# 5 0.000000 0.000000 0.000000 0.000000 0.026403 0.000000
# 6 0.000000 0.000000 0.000000 0.000000 0.000000 0.038744
#
#
# Mechanical properties :
#
#
# Convention : Reuss Voigt Hill
#
# Bulk Modulus (GPa) = 39.76755 51.86853 45.81804
# Shear Modulus (GPa) = 24.95174 29.24197 27.09685
#
# Velocity S-wave (km/s) = 3.59866 3.89578 3.75016
# Velocity P-wave (km/s) = 6.15688 6.86707 6.52165
#
# Compressibility (1/GPa) = 0.02514613
#
# Stress axis : x y z
#
# Youngs Moduli (GPa) = 82.02926 29.91741 59.49020
#
# Poissons Ratio (x) = 0.21795 0.26491
# Poissons Ratio (y) = 0.59759 0.41058
# Poissons Ratio (z) = 0.36528 0.20648
#
# Static dielectric constant tensor:
#      x y z
#    x 3.602580 0.000000 0.000000 
#    y 0.000000 3.407600 0.000000 
#    z 0.000000 0.000000 3.666380 
# 
# 
# High freq. dielectric constant tensor:
#      x y z
#    x 1.750740 0.000000 0.000000 
#    y 0.000000 1.740040 0.000000 
#    z 0.000000 0.000000 1.752440 
# 
# From -- ./inp_files/24363.got.cif
#   From: 2010.03.12/outbox.cif.g09.slc.cpg/sg53_13_cif.got.tgz:24363.got - 2010.04.16 14:36:59.
