data_PCOD8220269
_publ_section_title
;
Structure prediction by ZEFSAII (Michael W. Deem and Ramdas Pophale) SiO2 
 PCOD8220269
Probable space group: P M N A
;
_chemical_formula_sum "Si O2"
_cell_formula_units_Z 32
_cell_length_a 8.777227
_cell_length_b 20.691188
_cell_length_c 9.192371
_cell_angle_alpha 90.000000
_cell_angle_beta 90.000000
_cell_angle_gamma 90.000000
_cell_volume 1669.438024
_symmetry_space_group_name_H-M "P M N A"
_symmetry_group_IT_number 53
_symmetry_cell_setting 'orthorhombic'
loop_
_space_group_symop_operation_xyz
x,y,z
1/2-x,-y,1/2+z
x,-y,-z
1/2-x,y,1/2-z
-x,-y,-z
1/2+x,y,1/2-z
-x,y,z
1/2+x,-y,1/2+z
loop_
_atom_site_type_symbol
_atom_site_label
_atom_site_fract_x
_atom_site_fract_y
_atom_site_fract_z
Si Si1 0.819337 0.806776 0.907924
Si Si2 0.820226 0.061414 0.405755
Si Si3 0.819790 0.438282 0.091171
Si Si4 0.820334 0.683960 0.091963
O O1 0.750000 0.792417 0.750000
O O2 0.753429 0.873677 0.973213
O O3 0.000000 0.811357 0.892699
O O4 0.768078 0.750537 0.017200
O O5 0.750000 0.048183 0.250000
O O6 0.000000 0.071062 0.394383
O O7 0.773956 0.000000 0.500000
O O8 0.750000 0.440709 0.250000
O O9 0.000000 0.437780 0.107668
O O10 0.763306 0.500000 0.000000
O O11 0.760644 0.374661 0.007789
O O12 0.750000 0.678230 0.250000
O O13 0.000000 0.680515 0.108723
#
# Coordination Sequence:
#
# PCOD8220269 Si02
#       4
#     8   8   8   8
#     4  10  20  35  55  78 105 138 177 219 264 316
#     4  10  21  36  55  79 106 138 176 217 264 317
#     4  10  21  37  57  82 111 143 181 222 265 315
#     4  10  22  37  54  80 110 141 179 221 265 315
#
# _framework density 19.168126999999998
#
# number of rings (size 3 to 8) (size 9 to 14) (size 15 to 20)
#    0.000    2.000    0.000    4.500    0.000    6.500 
#    0.000    5.000    0.000    0.000    0.000    0.000 
#    0.000    0.000    0.000    0.000    0.000    0.000 
#
# Total GULP energy -396869.217928 kJ/mol
# GULP energy per Si atom -12402.163060 kJ/mol
# Density = 1.912450 g / cm^3
# Si number density = 19.168127 Si / 1000 Ang^3
#
#
#
# Elastic Constant Matrix: (Units=GPa)
#
#
# Indices 1 2 3 4 5 6 
#
# 1 58.2202 56.5852 42.4132 0.0000 0.0000 0.0000
# 2 56.5852 203.7860 111.9613 0.0000 0.0000 0.0000
# 3 42.4132 111.9613 150.8677 0.0000 0.0000 0.0000
# 4 0.0000 0.0000 0.0000 42.8943 0.0000 0.0000
# 5 0.0000 0.0000 0.0000 0.0000 34.5573 0.0000
# 6 0.0000 0.0000 0.0000 0.0000 0.0000 12.7872
#
#
#
# Elastic Compliance Matrix: (Units=1/GPa)
#
#
# Indices 1 2 3 4 5 6 
#
# 1 0.024347 -0.005065 -0.003086 0.000000 0.000000 0.000000
# 2 -0.005065 0.009339 -0.005507 0.000000 0.000000 0.000000
# 3 -0.003086 -0.005507 0.011582 0.000000 0.000000 0.000000
# 4 0.000000 0.000000 0.000000 0.023313 0.000000 0.000000
# 5 0.000000 0.000000 0.000000 0.000000 0.028937 0.000000
# 6 0.000000 0.000000 0.000000 0.000000 0.000000 0.078203
#
#
# Mechanical properties :
#
#
# Convention : Reuss Voigt Hill
#
# Bulk Modulus (GPa) = 55.69990 92.75481 74.22736
# Shear Modulus (GPa) = 23.92100 31.50871 27.71485
#
# Velocity S-wave (km/s) = 3.53648 4.05879 3.80660
# Velocity P-wave (km/s) = 6.76737 8.39406 7.62422
#
# Compressibility (1/GPa) = 0.01795335
#
# Stress axis : x y z
#
# Youngs Moduli (GPa) = 41.07287 107.07913 86.33838
#
# Poissons Ratio (x) = 0.54237 0.26642
# Poissons Ratio (y) = 0.20804 0.47543
# Poissons Ratio (z) = 0.12674 0.58964
#
# Static dielectric constant tensor:
#      x y z
#    x 3.463320 0.000000 0.000000 
#    y 0.000000 4.011820 0.000000 
#    z 0.000000 0.000000 3.429060 
# 
# 
# High freq. dielectric constant tensor:
#      x y z
#    x 1.745930 0.000000 0.000000 
#    y 0.000000 1.767910 0.000000 
#    z 0.000000 0.000000 1.745310 
# 
# From -- ./inp_files/6027.got.cif
#   From: 2010.03.12/outbox.cif.g09.slc.cpg/sg53_4_cif.got.tgz:6027.got - 2010.04.16 14:36:59.
