data_PCOD8220451
_publ_section_title
;
Structure prediction by ZEFSAII (Michael W. Deem and Ramdas Pophale) SiO2 
 PCOD8220451
Probable space group: P M N A
;
_chemical_formula_sum "Si O2"
_cell_formula_units_Z 64
_cell_length_a 8.820560
_cell_length_b 19.778237
_cell_length_c 20.320291
_cell_angle_alpha 90.000000
_cell_angle_beta 90.000000
_cell_angle_gamma 90.000000
_cell_volume 3544.978930
_symmetry_space_group_name_H-M "P M N A"
_symmetry_group_IT_number 53
_symmetry_cell_setting 'orthorhombic'
loop_
_space_group_symop_operation_xyz
x,y,z
1/2-x,-y,1/2+z
x,-y,-z
1/2-x,y,1/2-z
-x,-y,-z
1/2+x,y,1/2-z
-x,y,z
1/2+x,-y,1/2+z
loop_
_atom_site_type_symbol
_atom_site_label
_atom_site_fract_x
_atom_site_fract_y
_atom_site_fract_z
Si Si1 0.176835 0.075783 0.317349
Si Si2 0.820223 0.577800 0.681568
Si Si3 0.321915 0.829528 0.933918
Si Si4 0.678400 0.424410 0.817852
Si Si5 0.679707 0.824592 0.426306
Si Si6 0.821317 0.080509 0.681428
Si Si7 0.819484 0.317775 0.574923
Si Si8 0.176786 0.676638 0.571530
O O1 0.250000 0.102463 0.250000
O O2 0.239234 0.119212 0.378610
O O3 0.000000 0.087759 0.310109
O O4 0.217683 0.997987 0.330028
O O5 0.750000 0.602619 0.750000
O O6 0.770306 0.500882 0.666045
O O7 0.749860 0.625293 0.624276
O O8 0.000000 0.584413 0.686767
O O9 0.500000 0.839099 0.948587
O O10 0.287717 0.753758 0.908421
O O11 0.232302 0.844457 0.000641
O O12 0.750000 0.398582 0.750000
O O13 0.500000 0.419480 0.810252
O O14 0.736247 0.376411 0.876301
O O15 0.500000 0.823263 0.422911
O O16 0.743559 0.880675 0.377749
O O17 0.744297 0.752375 0.403362
O O18 0.750000 0.105711 0.750000
O O19 0.000000 0.094315 0.682441
O O20 0.761132 0.337813 0.501949
O O21 0.000000 0.307698 0.575741
O O22 0.000000 0.661950 0.571343
#
# Coordination Sequence:
#
# PCOD8220451 Si02
#       8
#     8   8   8   8   8   8   8   8
#     4   9  19  34  54  77 103 134 169 207 249 294
#     4   9  17  30  47  71  99 128 161 199 241 289
#     4   9  18  35  54  74 102 137 171 205 246 296
#     4   9  18  31  49  71  97 127 161 199 242 290
#     4  11  22  35  52  76 102 131 166 209 254 299
#     4  10  20  36  55  76 102 133 167 206 249 298
#     4   9  18  34  52  70  94 128 165 205 248 293
#     4   8  15  29  50  71  95 126 163 202 239 281
#
# _framework density 18.053705000000001
#
# number of rings (size 3 to 8) (size 9 to 14) (size 15 to 20)
#    0.000    2.750    0.000    2.250    0.000    3.500 
#    0.000    8.750    0.000    0.000    0.000    7.000 
#    0.000    0.000    0.000    0.000    0.000    0.000 
#
# Total GULP energy -793577.548738 kJ/mol
# GULP energy per Si atom -12399.649199 kJ/mol
# Density = 1.801261 g / cm^3
# Si number density = 18.053705 Si / 1000 Ang^3
#
#
#
# Elastic Constant Matrix: (Units=GPa)
#
#
# Indices 1 2 3 4 5 6 
#
# 1 49.3247 35.2477 41.1085 0.0000 0.0000 0.0000
# 2 35.2477 101.3668 89.1515 0.0000 0.0000 0.0000
# 3 41.1085 89.1515 135.2239 0.0000 0.0000 0.0000
# 4 0.0000 0.0000 0.0000 31.0608 0.0000 0.0000
# 5 0.0000 0.0000 0.0000 0.0000 31.1655 0.0000
# 6 0.0000 0.0000 0.0000 0.0000 0.0000 17.4471
#
#
#
# Elastic Compliance Matrix: (Units=1/GPa)
#
#
# Indices 1 2 3 4 5 6 
#
# 1 0.028353 -0.005422 -0.005044 0.000000 0.000000 0.000000
# 2 -0.005422 0.024517 -0.014515 0.000000 0.000000 0.000000
# 3 -0.005044 -0.014515 0.018498 0.000000 0.000000 0.000000
# 4 0.000000 0.000000 0.000000 0.032195 0.000000 0.000000
# 5 0.000000 0.000000 0.000000 0.000000 0.032087 0.000000
# 6 0.000000 0.000000 0.000000 0.000000 0.000000 0.057316
#
#
# Mechanical properties :
#
#
# Convention : Reuss Voigt Hill
#
# Bulk Modulus (GPa) = 46.72051 68.54788 57.63419
# Shear Modulus (GPa) = 19.99489 23.96186 21.97837
#
# Velocity S-wave (km/s) = 3.33156 3.64710 3.49289
# Velocity P-wave (km/s) = 6.38231 7.46903 6.94695
#
# Compressibility (1/GPa) = 0.02140388
#
# Stress axis : x y z
#
# Youngs Moduli (GPa) = 35.26984 40.78873 54.05924
#
# Poissons Ratio (x) = 0.22118 0.27269
# Poissons Ratio (y) = 0.19125 0.78467
# Poissons Ratio (z) = 0.17791 0.59205
#
# Static dielectric constant tensor:
#      x y z
#    x 3.139010 0.000000 0.000000 
#    y 0.000000 3.477150 0.000000 
#    z 0.000000 0.000000 3.638770 
# 
# 
# High freq. dielectric constant tensor:
#      x y z
#    x 1.680330 0.000000 0.000000 
#    y 0.000000 1.699900 0.000000 
#    z 0.000000 0.000000 1.706900 
# 
# From -- ./inp_files/31175.got.cif
#   From: 2010.03.12/outbox.cif.g09.slc.cpg/sg53_16_cif.got.tgz:31175.got - 2010.04.16 14:36:59.
