data_PCOD8220056
_publ_section_title
;
Structure prediction by ZEFSAII (Michael W. Deem and Ramdas Pophale) SiO2 
 PCOD8220056
Probable space group: P M N A
;
_chemical_formula_sum "Si O2"
_cell_formula_units_Z 64
_cell_length_a 16.828394
_cell_length_b 18.527147
_cell_length_c 9.585048
_cell_angle_alpha 90.000000
_cell_angle_beta 90.000000
_cell_angle_gamma 90.000000
_cell_volume 2988.446676
_symmetry_space_group_name_H-M "P M N A"
_symmetry_group_IT_number 53
_symmetry_cell_setting 'orthorhombic'
loop_
_space_group_symop_operation_xyz
x,y,z
1/2-x,-y,1/2+z
x,-y,-z
1/2-x,y,1/2-z
-x,-y,-z
1/2+x,y,1/2-z
-x,y,z
1/2+x,-y,1/2+z
loop_
_atom_site_type_symbol
_atom_site_label
_atom_site_fract_x
_atom_site_fract_y
_atom_site_fract_z
Si Si1 0.164528 0.434887 0.584527
Si Si2 0.170299 0.316717 0.345836
Si Si3 0.905481 0.106948 0.736415
Si Si4 0.594861 0.842976 0.532505
Si Si5 0.591670 0.179524 0.035195
Si Si6 0.153827 0.561227 0.102777
Si Si7 0.909116 0.317868 0.079611
Si Si8 0.908923 0.947813 0.736855
O O1 0.122616 0.500000 0.500000
O O2 0.165379 0.363179 0.488120
O O3 0.254305 0.457863 0.615681
O O4 0.120605 0.430480 0.736887
O O5 0.250000 0.321825 0.250000
O O6 0.151182 0.234880 0.390921
O O7 0.102646 0.345326 0.238764
O O8 0.872925 0.138044 0.880659
O O9 0.878770 0.165855 0.622160
O O10 0.000000 0.102322 0.731507
O O11 0.868866 0.026403 0.715029
O O12 0.500000 0.843029 0.542182
O O13 0.624806 0.763583 0.574216
O O14 0.631295 0.902697 0.636913
O O15 0.500000 0.207627 0.046798
O O16 0.598262 0.099561 0.098735
O O17 0.113339 0.500000 0.000000
O O18 0.142469 0.638108 0.030691
O O19 0.000000 0.324497 0.034217
O O20 0.000000 0.961458 0.778343
#
# Coordination Sequence:
#
# PCOD8220056 Si02
#       8
#     8   8   8   8   8   8   8   8
#     4  10  22  39  66  92 117 150 199 247 283 343
#     4  12  23  39  60  88 115 160 204 241 291 353
#     4   9  17  28  49  80 115 148 190 242 290 345
#     4   9  17  29  47  77 114 152 190 235 290 347
#     4  10  20  34  53  83 119 151 189 246 304 348
#     4  10  21  40  65  92 120 152 194 244 295 351
#     4  11  22  38  59  86 125 162 195 244 305 360
#     4   9  15  28  49  78 110 147 191 235 290 351
#
# _framework density 21.415807000000001
#
# number of rings (size 3 to 8) (size 9 to 14) (size 15 to 20)
#    0.000    2.000    2.500    1.875    3.500    3.250 
#    0.000    0.625    0.000    2.625    6.500    0.000 
#    0.000    0.000    0.000    0.000    0.000    0.000 
#
# Total GULP energy -792901.720404 kJ/mol
# GULP energy per Si atom -12389.089381 kJ/mol
# Density = 2.136706 g / cm^3
# Si number density = 21.415807 Si / 1000 Ang^3
#
#
#
# Elastic Constant Matrix: (Units=GPa)
#
#
# Indices 1 2 3 4 5 6 
#
# 1 17.9793 19.3327 12.3265 0.0000 0.0000 0.0000
# 2 19.3327 105.8330 59.9587 0.0000 0.0000 0.0000
# 3 12.3265 59.9587 173.1047 0.0000 0.0000 0.0000
# 4 0.0000 0.0000 0.0000 38.1138 0.0000 0.0000
# 5 0.0000 0.0000 0.0000 0.0000 14.7702 0.0000
# 6 0.0000 0.0000 0.0000 0.0000 0.0000 14.8783
#
#
#
# Elastic Compliance Matrix: (Units=1/GPa)
#
#
# Indices 1 2 3 4 5 6 
#
# 1 0.069280 -0.012268 -0.000684 0.000000 0.000000 0.000000
# 2 -0.012268 0.013928 -0.003951 0.000000 0.000000 0.000000
# 3 -0.000684 -0.003951 0.007194 0.000000 0.000000 0.000000
# 4 0.000000 0.000000 0.000000 0.026237 0.000000 0.000000
# 5 0.000000 0.000000 0.000000 0.000000 0.067704 0.000000
# 6 0.000000 0.000000 0.000000 0.000000 0.000000 0.067212
#
#
# Mechanical properties :
#
#
# Convention : Reuss Voigt Hill
#
# Bulk Modulus (GPa) = 17.66890 53.35031 35.50960
# Shear Modulus (GPa) = 16.43513 27.23905 21.83709
#
# Velocity S-wave (km/s) = 2.77326 3.57026 3.19669
# Velocity P-wave (km/s) = 4.30383 6.47776 5.49929
#
# Compressibility (1/GPa) = 0.05659663
#
# Stress axis : x y z
#
# Youngs Moduli (GPa) = 14.43419 71.79738 139.00507
#
# Poissons Ratio (x) = 0.88080 0.09509
# Poissons Ratio (y) = 0.17708 0.54917
# Poissons Ratio (z) = 0.00987 0.28365
#
# Static dielectric constant tensor:
#      x y z
#    x 3.272560 0.000000 0.000000 
#    y 0.000000 3.883830 0.000000 
#    z 0.000000 0.000000 4.337670 
# 
# 
# High freq. dielectric constant tensor:
#      x y z
#    x 1.770900 0.000000 0.000000 
#    y 0.000000 1.845060 0.000000 
#    z 0.000000 0.000000 1.863620 
# 
# From -- ./inp_files/11178.got.cif
#   From: 2010.03.12/outbox.cif.g09.slc.cpg/sg53_6_cif.got.tgz:11178.got - 2010.04.16 14:36:59.
