data_PCOD8220638
_publ_section_title
;
Structure prediction by ZEFSAII (Michael W. Deem and Ramdas Pophale) SiO2 
 PCOD8220638
Probable space group: P M N A
;
_chemical_formula_sum "Si O2"
_cell_formula_units_Z 48
_cell_length_a 8.825023
_cell_length_b 10.239784
_cell_length_c 26.588301
_cell_angle_alpha 90.000000
_cell_angle_beta 90.000000
_cell_angle_gamma 90.000000
_cell_volume 2402.687164
_symmetry_space_group_name_H-M "P M N A"
_symmetry_group_IT_number 53
_symmetry_cell_setting 'orthorhombic'
loop_
_space_group_symop_operation_xyz
x,y,z
1/2-x,-y,1/2+z
x,-y,-z
1/2-x,y,1/2-z
-x,-y,-z
1/2+x,y,1/2-z
-x,y,z
1/2+x,-y,1/2+z
loop_
_atom_site_type_symbol
_atom_site_label
_atom_site_fract_x
_atom_site_fract_y
_atom_site_fract_z
Si Si1 0.820858 0.594014 0.857785
Si Si2 0.679914 0.374837 0.470872
Si Si3 0.678372 0.648407 0.195783
Si Si4 0.324852 0.127695 0.532806
Si Si5 0.321573 0.142429 0.303628
Si Si6 0.177567 0.090439 0.638529
O O1 0.761498 0.626596 0.913686
O O2 0.739189 0.463261 0.840683
O O3 0.773718 0.713548 0.821775
O O4 0.000000 0.570497 0.856856
O O5 0.746242 0.500000 0.500000
O O6 0.500000 0.377335 0.470801
O O7 0.737793 0.246549 0.499350
O O8 0.750000 0.630871 0.250000
O O9 0.500000 0.633380 0.200627
O O10 0.725413 0.788216 0.173463
O O11 0.500000 0.147308 0.548615
O O12 0.222337 0.121705 0.581814
O O13 0.303205 0.000000 0.500000
O O14 0.250000 0.111872 0.250000
O O15 0.500000 0.129532 0.298999
O O16 0.265661 0.037684 0.343942
O O17 0.000000 0.063381 0.641954
#
# Coordination Sequence:
#
# PCOD8220638 Si02
#       6
#     8   8   8   8   8   8
#     4  10  21  38  61  88 117 151 192 238 289 344
#     4   9  17  31  54  83 112 145 186 229 276 332
#     4  11  24  40  59  85 116 152 195 240 289 346
#     4  10  20  36  59  85 114 150 193 239 286 339
#     4  11  23  39  60  86 116 151 194 242 293 350
#     4  11  24  40  59  86 119 156 197 239 289 346
#
# _framework density 19.977630999999999
#
# number of rings (size 3 to 8) (size 9 to 14) (size 15 to 20)
#    0.000    1.667    0.000    4.500    0.000   11.000 
#    0.000    0.833    0.000    3.000    0.000    0.000 
#    0.000    0.000    0.000    0.000    0.000    0.000 
#
# Total GULP energy -595456.450062 kJ/mol
# GULP energy per Si atom -12405.342710 kJ/mol
# Density = 1.993216 g / cm^3
# Si number density = 19.977631 Si / 1000 Ang^3
#
#
#
# Elastic Constant Matrix: (Units=GPa)
#
#
# Indices 1 2 3 4 5 6 
#
# 1 49.6521 38.5236 24.1283 0.0000 0.0000 0.0000
# 2 38.5236 108.6839 17.9781 0.0000 0.0000 0.0000
# 3 24.1283 17.9781 105.1627 0.0000 0.0000 0.0000
# 4 0.0000 0.0000 0.0000 41.4872 0.0000 0.0000
# 5 0.0000 0.0000 0.0000 0.0000 33.8646 0.0000
# 6 0.0000 0.0000 0.0000 0.0000 0.0000 41.8724
#
#
#
# Elastic Compliance Matrix: (Units=1/GPa)
#
#
# Indices 1 2 3 4 5 6 
#
# 1 0.030384 -0.009897 -0.005279 0.000000 0.000000 0.000000
# 2 -0.009897 0.012692 0.000101 0.000000 0.000000 0.000000
# 3 -0.005279 0.000101 0.010703 0.000000 0.000000 0.000000
# 4 0.000000 0.000000 0.000000 0.024104 0.000000 0.000000
# 5 0.000000 0.000000 0.000000 0.000000 0.029529 0.000000
# 6 0.000000 0.000000 0.000000 0.000000 0.000000 0.023882
#
#
# Mechanical properties :
#
#
# Convention : Reuss Voigt Hill
#
# Bulk Modulus (GPa) = 42.32044 47.19544 44.75794
# Shear Modulus (GPa) = 29.52967 35.63608 32.58288
#
# Velocity S-wave (km/s) = 3.84883 4.22809 4.04291
# Velocity P-wave (km/s) = 6.40165 6.89283 6.65178
#
# Compressibility (1/GPa) = 0.02362925
#
# Stress axis : x y z
#
# Youngs Moduli (GPa) = 32.91198 78.78862 93.43064
#
# Poissons Ratio (x) = 0.77973 0.49326
# Poissons Ratio (y) = 0.32571 -0.00942
# Poissons Ratio (z) = 0.17376 -0.00795
#
# Static dielectric constant tensor:
#      x y z
#    x 3.444950 0.000000 0.000000 
#    y 0.000000 3.844300 0.000000 
#    z 0.000000 0.000000 3.434720 
# 
# 
# High freq. dielectric constant tensor:
#      x y z
#    x 1.760080 0.000000 0.000000 
#    y 0.000000 1.798640 0.000000 
#    z 0.000000 0.000000 1.796760 
# 
# From -- ./inp_files/37768.got.cif
#   From: 2010.03.12/outbox.cif.g09.slc.cpg/sg53_19_cif.got.tgz:37768.got - 2010.04.16 14:36:59.
