data_PCOD8220118
_publ_section_title
;
Structure prediction by ZEFSAII (Michael W. Deem and Ramdas Pophale) SiO2 
 PCOD8220118
Probable space group: P M N A
;
_chemical_formula_sum "Si O2"
_cell_formula_units_Z 48
_cell_length_a 8.791854
_cell_length_b 17.958227
_cell_length_c 15.239843
_cell_angle_alpha 90.000000
_cell_angle_beta 90.000000
_cell_angle_gamma 90.000000
_cell_volume 2406.159526
_symmetry_space_group_name_H-M "P M N A"
_symmetry_group_IT_number 53
_symmetry_cell_setting 'orthorhombic'
loop_
_space_group_symop_operation_xyz
x,y,z
1/2-x,-y,1/2+z
x,-y,-z
1/2-x,y,1/2-z
-x,-y,-z
1/2+x,y,1/2-z
-x,y,z
1/2+x,-y,1/2+z
loop_
_atom_site_type_symbol
_atom_site_label
_atom_site_fract_x
_atom_site_fract_y
_atom_site_fract_z
Si Si1 0.320799 0.824729 0.520318
Si Si2 0.676711 0.608037 0.341271
Si Si3 0.829608 0.036917 0.405629
Si Si4 0.676752 0.433820 0.341491
Si Si5 0.820005 0.331164 0.486376
Si Si6 0.321162 0.896572 0.336907
O O1 0.500000 0.814134 0.530206
O O2 0.264906 0.886532 0.589544
O O3 0.236228 0.749082 0.545735
O O4 0.274951 0.847896 0.421304
O O5 0.750000 0.633394 0.250000
O O6 0.500000 0.628934 0.340549
O O7 0.703043 0.520907 0.357391
O O8 0.757674 0.654387 0.416767
O O9 0.000000 0.052948 0.371001
O O10 0.835392 0.000000 0.500000
O O11 0.745013 0.980152 0.341225
O O12 0.750000 0.407912 0.250000
O O13 0.500000 0.412851 0.340233
O O14 0.758167 0.393296 0.421039
O O15 0.000000 0.334342 0.487136
O O16 0.250000 0.858128 0.250000
O O17 0.500000 0.901986 0.327618
#
# Coordination Sequence:
#
# PCOD8220118 Si02
#       6
#     8   8   8   8   8   8
#     4  10  21  37  55  77 109 146 184 226 275 330
#     4  10  21  38  60  86 116 151 192 239 288 341
#     4   9  17  32  54  77 102 133 171 213 258 312
#     4  10  21  39  62  86 113 147 191 241 291 343
#     4  12  24  37  57  85 118 156 195 235 287 347
#     4  10  20  34  55  81 108 141 180 223 271 324
#
# _framework density 19.948799999999999
#
# number of rings (size 3 to 8) (size 9 to 14) (size 15 to 20)
#    0.000    1.833    0.000    4.500    0.000    8.667 
#    0.000    2.500    0.000    0.000    0.000    0.000 
#    0.000    0.000    0.000    0.000    0.000    0.000 
#
# Total GULP energy -595388.971796 kJ/mol
# GULP energy per Si atom -12403.936912 kJ/mol
# Density = 1.990340 g / cm^3
# Si number density = 19.948800 Si / 1000 Ang^3
#
#
#
# Elastic Constant Matrix: (Units=GPa)
#
#
# Indices 1 2 3 4 5 6 
#
# 1 121.2644 30.1209 15.9830 0.0000 0.0000 0.0000
# 2 30.1209 55.8711 2.4568 0.0000 0.0000 0.0000
# 3 15.9830 2.4568 39.6857 0.0000 0.0000 0.0000
# 4 0.0000 0.0000 0.0000 14.2779 0.0000 0.0000
# 5 0.0000 0.0000 0.0000 0.0000 37.1065 0.0000
# 6 0.0000 0.0000 0.0000 0.0000 0.0000 25.8650
#
#
#
# Elastic Compliance Matrix: (Units=1/GPa)
#
#
# Indices 1 2 3 4 5 6 
#
# 1 0.010040 -0.005249 -0.003719 0.000000 0.000000 0.000000
# 2 -0.005249 0.020692 0.000833 0.000000 0.000000 0.000000
# 3 -0.003719 0.000833 0.026644 0.000000 0.000000 0.000000
# 4 0.000000 0.000000 0.000000 0.070038 0.000000 0.000000
# 5 0.000000 0.000000 0.000000 0.000000 0.026949 0.000000
# 6 0.000000 0.000000 0.000000 0.000000 0.000000 0.038662
#
#
# Mechanical properties :
#
#
# Convention : Reuss Voigt Hill
#
# Bulk Modulus (GPa) = 24.32712 34.88252 29.60482
# Shear Modulus (GPa) = 22.42170 26.66724 24.54447
#
# Velocity S-wave (km/s) = 3.35619 3.66017 3.51147
# Velocity P-wave (km/s) = 5.21919 5.94865 5.59582
#
# Compressibility (1/GPa) = 0.04110638
#
# Stress axis : x y z
#
# Youngs Moduli (GPa) = 99.59675 48.32848 37.53174
#
# Poissons Ratio (x) = 0.25370 0.13957
# Poissons Ratio (y) = 0.52283 -0.03127
# Poissons Ratio (z) = 0.37037 -0.04027
#
# Static dielectric constant tensor:
#      x y z
#    x 3.791040 0.000000 0.000000 
#    y 0.000000 3.586780 0.000000 
#    z 0.000000 0.000000 3.654890 
# 
# 
# High freq. dielectric constant tensor:
#      x y z
#    x 1.795380 0.000000 0.000000 
#    y 0.000000 1.771800 0.000000 
#    z 0.000000 0.000000 1.771120 
# 
# From -- ./inp_files/20143.got.cif
#   From: 2010.03.12/outbox.cif.g09.slc.cpg/sg53_11_cif.got.tgz:20143.got - 2010.04.16 14:36:59.
