data_PCOD8220027
_publ_section_title
;
Structure prediction by ZEFSAII (Michael W. Deem and Ramdas Pophale) SiO2 
 PCOD8220027
Probable space group: P M N A
;
_chemical_formula_sum "Si O2"
_cell_formula_units_Z 40
_cell_length_a 14.558347
_cell_length_b 14.260136
_cell_length_c 9.576656
_cell_angle_alpha 90.000000
_cell_angle_beta 90.000000
_cell_angle_gamma 90.000000
_cell_volume 1988.152170
_symmetry_space_group_name_H-M "P M N A"
_symmetry_group_IT_number 53
_symmetry_cell_setting 'orthorhombic'
loop_
_space_group_symop_operation_xyz
x,y,z
1/2-x,-y,1/2+z
x,-y,-z
1/2-x,y,1/2-z
-x,-y,-z
1/2+x,y,1/2-z
-x,y,z
1/2+x,-y,1/2+z
loop_
_atom_site_type_symbol
_atom_site_label
_atom_site_fract_x
_atom_site_fract_y
_atom_site_fract_z
Si Si1 0.897053 0.101112 0.014836
Si Si2 0.606135 0.261934 0.295216
Si Si3 0.850317 0.240743 0.786103
Si Si4 0.701884 0.393274 0.496170
Si Si5 0.899473 0.676879 0.494691
O O1 0.852128 0.166927 0.135155
O O2 0.000000 0.079148 0.064193
O O3 0.899506 0.157782 0.869564
O O4 0.845522 0.000000 0.000000
O O5 0.500000 0.275919 0.342414
O O6 0.666854 0.349129 0.350744
O O7 0.615541 0.255506 0.128483
O O8 0.750000 0.202941 0.750000
O O9 0.904965 0.259838 0.643839
O O10 0.844313 0.336584 0.876422
O O11 0.667927 0.500000 0.500000
O O12 0.813182 0.393499 0.511692
O O13 0.000000 0.625877 0.509559
#
# Coordination Sequence:
#
# PCOD8220027 Si02
#       5
#     8   8   8   8   8
#     4   9  17  33  56  77 100 134 173 209 251 308
#     4   9  19  35  55  79 106 137 173 213 259 309
#     4   9  19  35  52  74 104 136 173 213 257 307
#     4  10  21  37  55  75 103 141 180 214 254 310
#     4  10  20  34  53  77 107 139 171 215 265 305
#
# _framework density 20.119184000000001
#
# number of rings (size 3 to 8) (size 9 to 14) (size 15 to 20)
#    0.000    2.600    0.000    1.200    0.000    6.400 
#    0.000    9.000    0.000    4.800    0.000    0.000 
#    0.000    0.000    0.000    0.000    0.000    0.000 
#
# Total GULP energy -495676.858102 kJ/mol
# GULP energy per Si atom -12391.921453 kJ/mol
# Density = 2.007339 g / cm^3
# Si number density = 20.119184 Si / 1000 Ang^3
#
#
#
# Elastic Constant Matrix: (Units=GPa)
#
#
# Indices 1 2 3 4 5 6 
#
# 1 69.8523 22.7673 17.4012 0.0000 0.0000 0.0000
# 2 22.7673 159.0562 58.9098 0.0000 0.0000 0.0000
# 3 17.4012 58.9098 150.8559 0.0000 0.0000 0.0000
# 4 0.0000 0.0000 0.0000 6.7377 0.0000 0.0000
# 5 0.0000 0.0000 0.0000 0.0000 23.1925 0.0000
# 6 0.0000 0.0000 0.0000 0.0000 0.0000 9.3163
#
#
#
# Elastic Compliance Matrix: (Units=1/GPa)
#
#
# Indices 1 2 3 4 5 6 
#
# 1 0.015158 -0.001780 -0.001054 0.000000 0.000000 0.000000
# 2 -0.001780 0.007559 -0.002747 0.000000 0.000000 0.000000
# 3 -0.001054 -0.002747 0.007823 0.000000 0.000000 0.000000
# 4 0.000000 0.000000 0.000000 0.148418 0.000000 0.000000
# 5 0.000000 0.000000 0.000000 0.000000 0.043117 0.000000
# 6 0.000000 0.000000 0.000000 0.000000 0.000000 0.107339
#
#
# Mechanical properties :
#
#
# Convention : Reuss Voigt Hill
#
# Bulk Modulus (GPa) = 51.59709 64.21347 57.90528
# Shear Modulus (GPa) = 14.40778 26.56171 20.48474
#
# Velocity S-wave (km/s) = 2.67895 3.63742 3.19434
# Velocity P-wave (km/s) = 5.93889 7.04464 6.51526
#
# Compressibility (1/GPa) = 0.01938094
#
# Stress axis : x y z
#
# Youngs Moduli (GPa) = 65.97003 132.29156 127.82950
#
# Poissons Ratio (x) = 0.23542 0.13468
# Poissons Ratio (y) = 0.11740 0.35109
# Poissons Ratio (z) = 0.06951 0.36335
#
# Static dielectric constant tensor:
#      x y z
#    x 3.707530 0.000000 0.000000 
#    y 0.000000 3.456990 0.000000 
#    z 0.000000 0.000000 3.793940 
# 
# 
# High freq. dielectric constant tensor:
#      x y z
#    x 1.782920 0.000000 0.000000 
#    y 0.000000 1.749260 0.000000 
#    z 0.000000 0.000000 1.795260 
# 
# From -- ./inp_files/8396.got.cif
#   From: 2010.03.12/outbox.cif.g09.slc.cpg/sg53_5_cif.got.tgz:8396.got - 2010.04.16 14:36:59.
