data_PCOD8220975
_publ_section_title
;
Structure prediction by ZEFSAII (Michael W. Deem and Ramdas Pophale) SiO2 
 PCOD8220975
Probable space group: P M N A
;
_chemical_formula_sum "Si O2"
_cell_formula_units_Z 48
_cell_length_a 9.487025
_cell_length_b 26.721687
_cell_length_c 8.876391
_cell_angle_alpha 90.000000
_cell_angle_beta 90.000000
_cell_angle_gamma 90.000000
_cell_volume 2250.247781
_symmetry_space_group_name_H-M "P M N A"
_symmetry_group_IT_number 53
_symmetry_cell_setting 'orthorhombic'
loop_
_space_group_symop_operation_xyz
x,y,z
1/2-x,-y,1/2+z
x,-y,-z
1/2-x,y,1/2-z
-x,-y,-z
1/2+x,y,1/2-z
-x,y,z
1/2+x,-y,1/2+z
loop_
_atom_site_type_symbol
_atom_site_label
_atom_site_fract_x
_atom_site_fract_y
_atom_site_fract_z
Si Si1 0.000000 0.272972 0.487148
Si Si2 0.000000 0.374394 0.644159
Si Si3 0.500000 0.403478 0.512703
Si Si4 0.836253 0.950619 0.598898
Si Si5 0.500000 0.698399 0.647855
Si Si6 0.275018 0.222965 0.420588
Si Si7 0.161981 0.872755 0.096906
Si Si8 0.724575 0.451911 0.920977
O O1 0.000000 0.300213 0.327225
O O2 0.131563 0.236172 0.506504
O O3 0.000000 0.315471 0.613845
O O4 0.866366 0.401532 0.570626
O O5 0.000000 0.378919 0.822888
O O6 0.500000 0.359637 0.391315
O O7 0.633250 0.439269 0.488986
O O8 0.750000 0.962504 0.750000
O O9 0.750943 0.907901 0.512914
O O10 0.000000 0.934515 0.631491
O O11 0.835862 0.000000 0.500000
O O12 0.363662 0.725998 0.582153
O O13 0.250000 0.203169 0.250000
O O14 0.352781 0.180752 0.516342
O O15 0.250000 0.868780 0.250000
O O16 0.000000 0.891951 0.125354
O O17 0.750000 0.467792 0.750000
O O18 0.652329 0.500000 0.000000
#
# Coordination Sequence:
#
# PCOD8220975 Si02
#       8
#     4   4   4   8   4   8   8   8
#     4  10  22  35  61  88 116 151 206 248 303 374
#     4  10  21  37  53  82 110 149 185 242 299 360
#     4  10  21  35  57  76 114 147 189 234 301 366
#     4  11  25  45  72 104 140 183 228 279 337 394
#     4  10  20  39  57  86 116 155 200 250 303 370
#     4  10  22  40  62  88 122 163 206 259 317 379
#     4  12  26  43  66  97 134 175 224 276 331 395
#     4  10  21  36  54  79 108 144 187 236 294 360
#
# _framework density 21.330983
#
# number of rings (size 3 to 8) (size 9 to 14) (size 15 to 20)
#    0.000    1.500    0.833    3.500    2.333    5.333 
#    0.000    0.000    0.000    0.000    0.000    0.000 
#    0.000    0.000    0.000    0.000    0.000    0.000 
#
# Total GULP energy -595231.578935 kJ/mol
# GULP energy per Si atom -12400.657894 kJ/mol
# Density = 2.128243 g / cm^3
# Si number density = 21.330983 Si / 1000 Ang^3
#
#
#
# Elastic Constant Matrix: (Units=GPa)
#
#
# Indices 1 2 3 4 5 6 
#
# 1 139.4472 16.7836 30.4996 0.0000 0.0000 0.0000
# 2 16.7836 74.6292 26.9253 0.0000 0.0000 0.0000
# 3 30.4996 26.9253 74.6129 0.0000 0.0000 0.0000
# 4 0.0000 0.0000 0.0000 37.9410 0.0000 0.0000
# 5 0.0000 0.0000 0.0000 0.0000 23.1224 0.0000
# 6 0.0000 0.0000 0.0000 0.0000 0.0000 -11.9735
#
#
#
# Elastic Compliance Matrix: (Units=1/GPa)
#
#
# Indices 1 2 3 4 5 6 
#
# 1 0.007907 -0.000704 -0.002978 0.000000 0.000000 0.000000
# 2 -0.000704 0.015468 -0.005294 0.000000 0.000000 0.000000
# 3 -0.002978 -0.005294 0.016530 0.000000 0.000000 0.000000
# 4 0.000000 0.000000 0.000000 0.026357 0.000000 0.000000
# 5 0.000000 0.000000 0.000000 0.000000 0.043248 0.000000
# 6 0.000000 0.000000 0.000000 0.000000 0.000000 -0.083517
#
#
# Mechanical properties :
#
#
# Convention : Reuss Voigt Hill
#
# Bulk Modulus (GPa) = 45.55152 48.56737 47.05945
# Shear Modulus (GPa) = 97.53546 24.11667 60.82607
#
# Velocity S-wave (km/s) = 6.76935 3.36608 5.34577
# Velocity P-wave (km/s) = 9.08294 6.15834 7.75967
#
# Compressibility (1/GPa) = 0.02195316
#
# Stress axis : x y z
#
# Youngs Moduli (GPa) = 126.46565 64.64983 60.49436
#
# Poissons Ratio (x) = 0.04550 0.18017
# Poissons Ratio (y) = 0.08900 0.32027
# Poissons Ratio (z) = 0.37665 0.34227
#
# Static dielectric constant tensor:
#      x y z
#    x 3.280640 0.000000 0.000000 
#    y 0.000000 3.692690 0.000000 
#    z 0.000000 0.000000 3.803850 
# 
# 
# High freq. dielectric constant tensor:
#      x y z
#    x 1.855950 0.000000 0.000000 
#    y 0.000000 1.835770 0.000000 
#    z 0.000000 0.000000 1.830080 
# 
# From -- ./inp_files/6871.got.cif
#   From: 2010.03.12/outbox.cif.g09.slc.cpg/sg53_4_cif.got.tgz:6871.got - 2010.04.16 14:36:59.
