data_PCOD8220538
_publ_section_title
;
Structure prediction by ZEFSAII (Michael W. Deem and Ramdas Pophale) SiO2 
 PCOD8220538
Probable space group: P M N A
;
_chemical_formula_sum "Si O2"
_cell_formula_units_Z 64
_cell_length_a 8.868471
_cell_length_b 15.027826
_cell_length_c 24.430198
_cell_angle_alpha 90.000000
_cell_angle_beta 90.000000
_cell_angle_gamma 90.000000
_cell_volume 3255.906277
_symmetry_space_group_name_H-M "P M N A"
_symmetry_group_IT_number 53
_symmetry_cell_setting 'orthorhombic'
loop_
_space_group_symop_operation_xyz
x,y,z
1/2-x,-y,1/2+z
x,-y,-z
1/2-x,y,1/2-z
-x,-y,-z
1/2+x,y,1/2-z
-x,y,z
1/2+x,-y,1/2+z
loop_
_atom_site_type_symbol
_atom_site_label
_atom_site_fract_x
_atom_site_fract_y
_atom_site_fract_z
Si Si1 0.677957 0.340090 0.622784
Si Si2 0.827634 0.179455 0.121158
Si Si3 0.326410 0.137467 0.614772
Si Si4 0.326004 0.354274 0.986652
Si Si5 0.177158 0.632234 0.606866
Si Si6 0.680571 0.983476 0.690878
Si Si7 0.321083 0.515655 0.192242
Si Si8 0.170843 0.824442 0.998944
O O1 0.500000 0.348527 0.629324
O O2 0.735740 0.237645 0.624293
O O3 0.727772 0.386308 0.565237
O O4 0.758459 0.388974 0.673127
O O5 0.744978 0.273244 0.124181
O O6 0.000000 0.199841 0.134928
O O7 0.761570 0.109396 0.164790
O O8 0.813441 0.131946 0.061028
O O9 0.500000 0.138377 0.630534
O O10 0.250996 0.064219 0.654142
O O11 0.302689 0.109308 0.550535
O O12 0.500000 0.372836 0.972472
O O13 0.297764 0.250439 0.996889
O O14 0.279659 0.399938 0.044802
O O15 0.234830 0.558072 0.648888
O O16 0.000000 0.644709 0.610493
O O17 0.750000 0.994361 0.750000
O O18 0.500000 0.984956 0.692985
O O19 0.250000 0.489465 0.250000
O O20 0.500000 0.519835 0.197185
O O21 0.000000 0.783548 0.005460
#
# Coordination Sequence:
#
# PCOD8220538 Si02
#       8
#     8   8   8   8   8   8   8   8
#     4  10  20  36  57  82 110 141 174 217 267 316
#     4   9  18  32  54  80 105 133 170 214 262 310
#     4   8  16  32  54  77 104 134 169 212 260 309
#     4   9  16  30  53  81 109 138 171 210 258 319
#     4   9  20  37  57  79 108 142 174 212 265 319
#     4  10  21  36  51  73 103 138 178 217 254 304
#     4  11  24  41  57  77 104 139 182 225 265 313
#     4   8  14  28  50  77 104 131 166 213 264 314
#
# _framework density 19.656586000000001
#
# number of rings (size 3 to 8) (size 9 to 14) (size 15 to 20)
#    0.000    2.750    0.000    1.875    0.000    4.000 
#    0.000   11.875    0.000    0.000    0.000   12.250 
#    0.000    0.000    0.000    0.000    0.000    0.000 
#
# Total GULP energy -793018.074102 kJ/mol
# GULP energy per Si atom -12390.907408 kJ/mol
# Density = 1.961185 g / cm^3
# Si number density = 19.656586 Si / 1000 Ang^3
#
#
#
# Elastic Constant Matrix: (Units=GPa)
#
#
# Indices 1 2 3 4 5 6 
#
# 1 40.3243 16.7416 23.9732 0.0000 0.0000 0.0000
# 2 16.7416 57.8633 25.2955 0.0000 0.0000 0.0000
# 3 23.9732 25.2955 105.2165 0.0000 0.0000 0.0000
# 4 0.0000 0.0000 0.0000 36.0146 0.0000 0.0000
# 5 0.0000 0.0000 0.0000 0.0000 33.5803 0.0000
# 6 0.0000 0.0000 0.0000 0.0000 0.0000 19.1313
#
#
#
# Elastic Compliance Matrix: (Units=1/GPa)
#
#
# Indices 1 2 3 4 5 6 
#
# 1 0.030736 -0.006516 -0.005437 0.000000 0.000000 0.000000
# 2 -0.006516 0.020693 -0.003490 0.000000 0.000000 0.000000
# 3 -0.005437 -0.003490 0.011582 0.000000 0.000000 0.000000
# 4 0.000000 0.000000 0.000000 0.027767 0.000000 0.000000
# 5 0.000000 0.000000 0.000000 0.000000 0.029779 0.000000
# 6 0.000000 0.000000 0.000000 0.000000 0.000000 0.052270
#
#
# Mechanical properties :
#
#
# Convention : Reuss Voigt Hill
#
# Bulk Modulus (GPa) = 31.12791 37.26938 34.19864
# Shear Modulus (GPa) = 23.31841 26.90481 25.11161
#
# Velocity S-wave (km/s) = 3.44799 3.70367 3.57811
# Velocity P-wave (km/s) = 5.63221 6.10663 5.87421
#
# Compressibility (1/GPa) = 0.03212551
#
# Stress axis : x y z
#
# Youngs Moduli (GPa) = 32.53463 48.32488 86.34071
#
# Poissons Ratio (x) = 0.31490 0.46940
# Poissons Ratio (y) = 0.21201 0.30135
# Poissons Ratio (z) = 0.17688 0.16866
#
# Static dielectric constant tensor:
#      x y z
#    x 3.357470 0.000000 0.000000 
#    y 0.000000 3.499700 0.000000 
#    z 0.000000 0.000000 3.901870 
# 
# 
# High freq. dielectric constant tensor:
#      x y z
#    x 1.745290 0.000000 0.000000 
#    y 0.000000 1.746750 0.000000 
#    z 0.000000 0.000000 1.777670 
# 
# From -- ./inp_files/34198.got.cif
#   From: 2010.03.12/outbox.cif.g09.slc.cpg/sg53_18_cif.got.tgz:34198.got - 2010.04.16 14:36:59.
