data_PCOD8220629
_publ_section_title
;
Structure prediction by ZEFSAII (Michael W. Deem and Ramdas Pophale) SiO2 
 PCOD8220629
Probable space group: P M N A
;
_chemical_formula_sum "Si O2"
_cell_formula_units_Z 40
_cell_length_a 8.822062
_cell_length_b 12.738574
_cell_length_c 18.242505
_cell_angle_alpha 90.000000
_cell_angle_beta 90.000000
_cell_angle_gamma 90.000000
_cell_volume 2050.101644
_symmetry_space_group_name_H-M "P M N A"
_symmetry_group_IT_number 53
_symmetry_cell_setting 'orthorhombic'
loop_
_space_group_symop_operation_xyz
x,y,z
1/2-x,-y,1/2+z
x,-y,-z
1/2-x,y,1/2-z
-x,-y,-z
1/2+x,y,1/2-z
-x,y,z
1/2+x,-y,1/2+z
loop_
_atom_site_type_symbol
_atom_site_label
_atom_site_fract_x
_atom_site_fract_y
_atom_site_fract_z
Si Si1 0.178871 0.812398 0.829235
Si Si2 0.820899 0.016163 0.916721
Si Si3 0.180085 0.616597 0.926282
Si Si4 0.822461 0.599672 0.418579
Si Si5 0.323803 0.801091 0.171891
O O1 0.250000 0.805904 0.750000
O O2 0.236130 0.917175 0.869551
O O3 0.233004 0.712323 0.875678
O O4 0.000000 0.813418 0.821412
O O5 0.000000 0.030423 0.911397
O O6 0.743576 0.120853 0.887852
O O7 0.768542 0.000000 0.000000
O O8 0.252461 0.510896 0.892720
O O9 0.000000 0.604856 0.929390
O O10 0.241157 0.638296 0.007587
O O11 0.790787 0.682802 0.354419
O O12 0.000000 0.586707 0.434547
O O13 0.250000 0.821142 0.250000
O O14 0.500000 0.824101 0.179596
#
# Coordination Sequence:
#
# PCOD8220629 Si02
#       5
#     8   8   8   8   8
#     4  10  22  37  55  82 113 146 182 224 275 327
#     4  10  21  39  62  85 112 146 185 230 279 334
#     4  10  20  36  59  84 110 145 188 228 272 328
#     4  10  21  37  57  83 113 145 184 230 278 325
#     4  11  24  39  57  83 115 150 188 232 281 333
#
# _framework density 19.511227000000002
#
# number of rings (size 3 to 8) (size 9 to 14) (size 15 to 20)
#    0.000    1.800    0.000    4.800    0.000   10.000 
#    0.000    4.000    0.000    0.000    0.000    0.000 
#    0.000    0.000    0.000    0.000    0.000    0.000 
#
# Total GULP energy -496172.351809 kJ/mol
# GULP energy per Si atom -12404.308795 kJ/mol
# Density = 1.946682 g / cm^3
# Si number density = 19.511227 Si / 1000 Ang^3
#
#
#
# Elastic Constant Matrix: (Units=GPa)
#
#
# Indices 1 2 3 4 5 6 
#
# 1 59.6141 36.8400 25.9214 0.0000 0.0000 0.0000
# 2 36.8400 92.2768 28.2468 0.0000 0.0000 0.0000
# 3 25.9214 28.2468 77.5175 0.0000 0.0000 0.0000
# 4 0.0000 0.0000 0.0000 34.1178 0.0000 0.0000
# 5 0.0000 0.0000 0.0000 0.0000 14.3607 0.0000
# 6 0.0000 0.0000 0.0000 0.0000 0.0000 58.2205
#
#
#
# Elastic Compliance Matrix: (Units=1/GPa)
#
#
# Indices 1 2 3 4 5 6 
#
# 1 0.023928 -0.007995 -0.005088 0.000000 0.000000 0.000000
# 2 -0.007995 0.014869 -0.002745 0.000000 0.000000 0.000000
# 3 -0.005088 -0.002745 0.015602 0.000000 0.000000 0.000000
# 4 0.000000 0.000000 0.000000 0.029310 0.000000 0.000000
# 5 0.000000 0.000000 0.000000 0.000000 0.069635 0.000000
# 6 0.000000 0.000000 0.000000 0.000000 0.000000 0.017176
#
#
# Mechanical properties :
#
#
# Convention : Reuss Voigt Hill
#
# Bulk Modulus (GPa) = 43.96943 45.71385 44.84164
# Shear Modulus (GPa) = 23.83721 30.56648 27.20185
#
# Velocity S-wave (km/s) = 3.49910 3.96234 3.73790
# Velocity P-wave (km/s) = 6.23773 6.66437 6.45458
#
# Compressibility (1/GPa) = 0.02274308
#
# Stress axis : x y z
#
# Youngs Moduli (GPa) = 41.79248 67.25357 64.09525
#
# Poissons Ratio (x) = 0.53771 0.32611
# Poissons Ratio (y) = 0.33414 0.17592
# Poissons Ratio (z) = 0.21263 0.18458
#
# Static dielectric constant tensor:
#      x y z
#    x 3.557980 0.000000 0.000000 
#    y 0.000000 4.334240 0.000000 
#    z 0.000000 0.000000 3.520670 
# 
# 
# High freq. dielectric constant tensor:
#      x y z
#    x 1.763230 0.000000 0.000000 
#    y 0.000000 1.776910 0.000000 
#    z 0.000000 0.000000 1.762540 
# 
# From -- ./inp_files/25859.got.cif
#   From: 2010.03.12/outbox.cif.g09.slc.cpg/sg53_13_cif.got.tgz:25859.got - 2010.04.16 14:36:59.
