data_PCOD8220180
_publ_section_title
;
Structure prediction by ZEFSAII (Michael W. Deem and Ramdas Pophale) SiO2 
 PCOD8220180
Probable space group: P M N A
;
_chemical_formula_sum "Si O2"
_cell_formula_units_Z 64
_cell_length_a 19.520937
_cell_length_b 11.467988
_cell_length_c 14.358527
_cell_angle_alpha 90.000000
_cell_angle_beta 90.000000
_cell_angle_gamma 90.000000
_cell_volume 3214.384157
_symmetry_space_group_name_H-M "P M N A"
_symmetry_group_IT_number 53
_symmetry_cell_setting 'orthorhombic'
loop_
_space_group_symop_operation_xyz
x,y,z
1/2-x,-y,1/2+z
x,-y,-z
1/2-x,y,1/2-z
-x,-y,-z
1/2+x,y,1/2-z
-x,y,z
1/2+x,-y,1/2+z
loop_
_atom_site_type_symbol
_atom_site_label
_atom_site_fract_x
_atom_site_fract_y
_atom_site_fract_z
Si Si1 0.784693 0.224087 0.151234
Si Si2 0.578719 0.575961 0.240133
Si Si3 0.841707 0.453633 0.105667
Si Si4 0.793517 0.044772 0.842388
Si Si5 0.698779 0.456539 0.897992
Si Si6 0.424681 0.110063 0.935922
Si Si7 0.575933 0.848507 0.269015
Si Si8 0.788301 0.213864 0.534196
O O1 0.750000 0.251717 0.250000
O O2 0.847281 0.312889 0.123367
O O3 0.811032 0.091151 0.145919
O O4 0.727372 0.239678 0.072631
O O5 0.500000 0.542405 0.216054
O O6 0.598677 0.519246 0.338923
O O7 0.631399 0.525414 0.164313
O O8 0.587419 0.713969 0.244963
O O9 0.764374 0.476038 0.143985
O O10 0.847740 0.500000 0.000000
O O11 0.750000 0.069410 0.750000
O O12 0.866701 0.109615 0.840942
O O13 0.750295 0.098112 0.928254
O O14 0.728299 0.324340 0.901272
O O15 0.677785 0.500000 0.000000
O O16 0.500000 0.163290 0.953538
O O17 0.416475 0.077133 0.826696
O O18 0.370208 0.205861 0.964404
O O19 0.410990 0.000000 0.000000
O O20 0.500000 0.867546 0.312326
#
# Coordination Sequence:
#
# PCOD8220180 Si02
#       8
#     8   8   8   8   8   8   8   8
#     4  11  24  39  61  90 126 156 201 260 314 362
#     4  11  23  40  64  91 125 165 210 261 303 370
#     4  11  23  43  65  89 119 164 210 257 313 367
#     4  11  21  36  62  96 122 161 204 260 303 365
#     4  11  21  37  64  92 122 161 205 256 314 361
#     4  10  20  34  56  89 130 165 198 245 305 376
#     4  10  21  38  58  89 126 162 203 251 311 367
#     4  12  21  38  63  92 124 161 206 252 306 368
#
# _framework density 19.910501
#
# number of rings (size 3 to 8) (size 9 to 14) (size 15 to 20)
#    0.000    1.125    5.000    3.000    1.750    0.500 
#    0.000    0.625    0.000    1.500    0.000    0.000 
#    0.000    0.000    0.000    0.000    0.000    0.000 
#
# Total GULP energy -793345.837884 kJ/mol
# GULP energy per Si atom -12396.028717 kJ/mol
# Density = 1.986518 g / cm^3
# Si number density = 19.910501 Si / 1000 Ang^3
#
#
#
# Elastic Constant Matrix: (Units=GPa)
#
#
# Indices 1 2 3 4 5 6 
#
# 1 108.3223 24.5433 23.7953 0.0000 0.0000 0.0000
# 2 24.5433 85.8524 25.9984 0.0000 0.0000 0.0000
# 3 23.7953 25.9984 78.0907 0.0000 0.0000 0.0000
# 4 0.0000 0.0000 0.0000 30.4805 0.0000 0.0000
# 5 0.0000 0.0000 0.0000 0.0000 27.4512 0.0000
# 6 0.0000 0.0000 0.0000 0.0000 0.0000 14.2492
#
#
#
# Elastic Compliance Matrix: (Units=1/GPa)
#
#
# Indices 1 2 3 4 5 6 
#
# 1 0.010257 -0.002208 -0.002390 0.000000 0.000000 0.000000
# 2 -0.002208 0.013429 -0.003798 0.000000 0.000000 0.000000
# 3 -0.002390 -0.003798 0.014798 0.000000 0.000000 0.000000
# 4 0.000000 0.000000 0.000000 0.032808 0.000000 0.000000
# 5 0.000000 0.000000 0.000000 0.000000 0.036428 0.000000
# 6 0.000000 0.000000 0.000000 0.000000 0.000000 0.070179
#
#
# Mechanical properties :
#
#
# Convention : Reuss Voigt Hill
#
# Bulk Modulus (GPa) = 46.10105 46.77106 46.43605
# Shear Modulus (GPa) = 24.76173 27.63139 26.19656
#
# Velocity S-wave (km/s) = 3.53037 3.72933 3.63121
# Velocity P-wave (km/s) = 6.31050 6.48734 6.39953
#
# Compressibility (1/GPa) = 0.02169148
#
# Stress axis : x y z
#
# Youngs Moduli (GPa) = 97.49285 74.46343 67.57478
#
# Poissons Ratio (x) = 0.16445 0.16152
# Poissons Ratio (y) = 0.21531 0.25665
# Poissons Ratio (z) = 0.23303 0.28282
#
# Static dielectric constant tensor:
#      x y z
#    x 3.639090 0.000000 0.000000 
#    y 0.000000 4.017840 0.000000 
#    z 0.000000 0.000000 3.575880 
# 
# 
# High freq. dielectric constant tensor:
#      x y z
#    x 1.763220 0.000000 0.000000 
#    y 0.000000 1.780320 0.000000 
#    z 0.000000 0.000000 1.772920 
# 
# From -- ./inp_files/23898.got.cif
#   From: 2010.03.12/outbox.cif.g09.slc.cpg/sg53_12_cif.got.tgz:23898.got - 2010.04.16 14:36:59.
