data_PCOD8220736
_publ_section_title
;
Structure prediction by ZEFSAII (Michael W. Deem and Ramdas Pophale) SiO2 
 PCOD8220736
Probable space group: P M N A
;
_chemical_formula_sum "Si O2"
_cell_formula_units_Z 48
_cell_length_a 8.678900
_cell_length_b 30.560297
_cell_length_c 9.444485
_cell_angle_alpha 90.000000
_cell_angle_beta 90.000000
_cell_angle_gamma 90.000000
_cell_volume 2504.958505
_symmetry_space_group_name_H-M "P M N A"
_symmetry_group_IT_number 53
_symmetry_cell_setting 'orthorhombic'
loop_
_space_group_symop_operation_xyz
x,y,z
1/2-x,-y,1/2+z
x,-y,-z
1/2-x,y,1/2-z
-x,-y,-z
1/2+x,y,1/2-z
-x,y,z
1/2+x,-y,1/2+z
loop_
_atom_site_type_symbol
_atom_site_label
_atom_site_fract_x
_atom_site_fract_y
_atom_site_fract_z
Si Si1 0.182631 0.808663 0.597431
Si Si2 0.818658 0.709331 0.602557
Si Si3 0.682828 0.118742 0.593626
Si Si4 0.320090 0.042554 0.094412
Si Si5 0.818575 0.634708 0.401903
Si Si6 0.181581 0.538127 0.402475
O O1 0.250000 0.823246 0.750000
O O2 0.229793 0.758728 0.562786
O O3 0.257115 0.835643 0.469444
O O4 0.000000 0.815971 0.600856
O O5 0.750000 0.695107 0.750000
O O6 0.748506 0.673909 0.494926
O O7 0.000000 0.705707 0.611517
O O8 0.750000 0.110498 0.750000
O O9 0.500000 0.119120 0.605344
O O10 0.735190 0.081704 0.484604
O O11 0.250000 0.035143 0.250000
O O12 0.500000 0.053760 0.109500
O O13 0.292221 0.000000 0.000000
O O14 0.750000 0.641778 0.250000
O O15 0.773235 0.586470 0.461674
O O16 0.000000 0.639234 0.391617
O O17 0.252341 0.500000 0.500000
O O18 0.250000 0.530633 0.250000
O O19 0.000000 0.533354 0.391179
#
# Coordination Sequence:
#
# PCOD8220736 Si02
#       6
#     8   8   8   8   8   8
#     4  10  20  37  58  81 110 144 183 225 273 325
#     4   9  19  34  53  77 105 137 174 218 264 315
#     4  12  25  41  61  86 117 151 189 232 278 328
#     4  11  24  42  65  92 122 156 193 233 278 327
#     4   9  18  33  50  71 100 133 170 211 259 313
#     4   9  18  32  49  70  98 131 167 210 258 310
#
# _framework density 19.161995000000001
#
# number of rings (size 3 to 8) (size 9 to 14) (size 15 to 20)
#    0.000    2.000    0.000    3.500    0.000    5.667 
#    0.000    1.667    0.000    0.000    0.000    0.000 
#    0.000    0.000    0.000    0.000    0.000    0.000 
#
# Total GULP energy -595124.596684 kJ/mol
# GULP energy per Si atom -12398.429098 kJ/mol
# Density = 1.911838 g / cm^3
# Si number density = 19.161995 Si / 1000 Ang^3
#
#
#
# Elastic Constant Matrix: (Units=GPa)
#
#
# Indices 1 2 3 4 5 6 
#
# 1 71.9180 41.4344 49.1706 0.0000 0.0000 0.0000
# 2 41.4344 129.7542 76.7805 0.0000 0.0000 0.0000
# 3 49.1706 76.7805 120.7201 0.0000 0.0000 0.0000
# 4 0.0000 0.0000 0.0000 36.8634 0.0000 0.0000
# 5 0.0000 0.0000 0.0000 0.0000 35.4198 0.0000
# 6 0.0000 0.0000 0.0000 0.0000 0.0000 49.3089
#
#
#
# Elastic Compliance Matrix: (Units=1/GPa)
#
#
# Indices 1 2 3 4 5 6 
#
# 1 0.019757 -0.002481 -0.006469 0.000000 0.000000 0.000000
# 2 -0.002481 0.012669 -0.007048 0.000000 0.000000 0.000000
# 3 -0.006469 -0.007048 0.015401 0.000000 0.000000 0.000000
# 4 0.000000 0.000000 0.000000 0.027127 0.000000 0.000000
# 5 0.000000 0.000000 0.000000 0.000000 0.028233 0.000000
# 6 0.000000 0.000000 0.000000 0.000000 0.000000 0.020280
#
#
# Mechanical properties :
#
#
# Convention : Reuss Voigt Hill
#
# Bulk Modulus (GPa) = 63.16311 73.01815 68.09063
# Shear Modulus (GPa) = 31.10595 34.65219 32.87907
#
# Velocity S-wave (km/s) = 4.03341 4.25712 4.14677
# Velocity P-wave (km/s) = 7.39766 7.89636 7.65108
#
# Compressibility (1/GPa) = 0.01583203
#
# Stress axis : x y z
#
# Youngs Moduli (GPa) = 50.61445 78.93048 64.93055
#
# Poissons Ratio (x) = 0.19581 0.42006
# Poissons Ratio (y) = 0.12557 0.45760
# Poissons Ratio (z) = 0.32745 0.55626
#
# Static dielectric constant tensor:
#      x y z
#    x 3.494450 0.000000 0.000000 
#    y 0.000000 3.996650 0.000000 
#    z 0.000000 0.000000 3.598240 
# 
# 
# High freq. dielectric constant tensor:
#      x y z
#    x 1.747060 0.000000 0.000000 
#    y 0.000000 1.763720 0.000000 
#    z 0.000000 0.000000 1.744830 
# 
# From -- ./inp_files/6670.got.cif
#   From: 2010.03.12/outbox.cif.g09.slc.cpg/sg53_4_cif.got.tgz:6670.got - 2010.04.16 14:36:59.
