data_PCOD8220862
_publ_section_title
;
Structure prediction by ZEFSAII (Michael W. Deem and Ramdas Pophale) SiO2 
 PCOD8220862
Probable space group: P M N A
;
_chemical_formula_sum "Si O2"
_cell_formula_units_Z 64
_cell_length_a 8.674826
_cell_length_b 11.992170
_cell_length_c 31.543103
_cell_angle_alpha 90.000000
_cell_angle_beta 90.000000
_cell_angle_gamma 90.000000
_cell_volume 3281.428630
_symmetry_space_group_name_H-M "P M N A"
_symmetry_group_IT_number 53
_symmetry_cell_setting 'orthorhombic'
loop_
_space_group_symop_operation_xyz
x,y,z
1/2-x,-y,1/2+z
x,-y,-z
1/2-x,y,1/2-z
-x,-y,-z
1/2+x,y,1/2-z
-x,y,z
1/2+x,-y,1/2+z
loop_
_atom_site_type_symbol
_atom_site_label
_atom_site_fract_x
_atom_site_fract_y
_atom_site_fract_z
Si Si1 0.321090 0.875127 0.872883
Si Si2 0.817375 0.255394 0.793497
Si Si3 0.823438 0.618163 0.521712
Si Si4 0.818341 0.256945 0.948007
Si Si5 0.182606 0.401045 0.869697
Si Si6 0.820634 0.644146 0.890005
Si Si7 0.180556 0.026132 0.548285
Si Si8 0.681400 0.002440 0.705839
O O1 0.500000 0.890226 0.863629
O O2 0.278876 0.745170 0.871907
O O3 0.231131 0.932786 0.834816
O O4 0.278084 0.925668 0.919237
O O5 0.750000 0.302903 0.750000
O O6 0.747814 0.334150 0.830020
O O7 0.000000 0.261233 0.792277
O O8 0.760408 0.129044 0.801216
O O9 0.797258 0.500000 0.500000
O O10 0.777369 0.717119 0.490226
O O11 0.707779 0.626309 0.560538
O O12 0.000000 0.635783 0.536392
O O13 0.756691 0.342152 0.912332
O O14 0.777486 0.131189 0.934619
O O15 0.000000 0.269670 0.955828
O O16 0.233575 0.530124 0.866841
O O17 0.000000 0.391465 0.869708
O O18 0.000000 0.668918 0.882267
O O19 0.000000 0.053870 0.549715
O O20 0.232589 0.000000 0.500000
O O21 0.750000 0.954607 0.750000
O O22 0.500000 0.996238 0.710033
#
# Coordination Sequence:
#
# PCOD8220862 Si02
#       8
#     8   8   8   8   8   8   8   8
#     4  11  23  39  59  85 120 158 199 245 298 354
#     4   9  18  35  58  85 115 144 177 223 280 339
#     4  11  22  36  54  79 114 152 190 235 286 341
#     4  11  21  35  58  84 109 141 189 239 283 337
#     4   9  19  35  55  81 112 143 178 227 279 328
#     4  11  22  38  59  81 112 153 198 241 284 340
#     4  10  22  39  56  78 115 156 192 238 294 350
#     4  10  20  37  63  91 119 150 192 241 295 356
#
# _framework density 19.503699999999998
#
# number of rings (size 3 to 8) (size 9 to 14) (size 15 to 20)
#    0.000    1.750    1.250    3.375    0.000    4.250 
#    0.000    3.125    0.000    1.500    0.000    0.000 
#    0.000    0.000    0.000    0.000    0.000    0.000 
#
# Total GULP energy -793746.102765 kJ/mol
# GULP energy per Si atom -12402.282856 kJ/mol
# Density = 1.945931 g / cm^3
# Si number density = 19.503700 Si / 1000 Ang^3
#
#
#
# Elastic Constant Matrix: (Units=GPa)
#
#
# Indices 1 2 3 4 5 6 
#
# 1 38.5744 24.8356 20.1354 0.0000 0.0000 0.0000
# 2 24.8356 111.6886 48.2248 0.0000 0.0000 0.0000
# 3 20.1354 48.2248 123.1985 0.0000 0.0000 0.0000
# 4 0.0000 0.0000 0.0000 31.8253 0.0000 0.0000
# 5 0.0000 0.0000 0.0000 0.0000 30.5159 0.0000
# 6 0.0000 0.0000 0.0000 0.0000 0.0000 30.2977
#
#
#
# Elastic Compliance Matrix: (Units=1/GPa)
#
#
# Indices 1 2 3 4 5 6 
#
# 1 0.031069 -0.005675 -0.002856 0.000000 0.000000 0.000000
# 2 -0.005675 0.011811 -0.003696 0.000000 0.000000 0.000000
# 3 -0.002856 -0.003696 0.010031 0.000000 0.000000 0.000000
# 4 0.000000 0.000000 0.000000 0.031422 0.000000 0.000000
# 5 0.000000 0.000000 0.000000 0.000000 0.032770 0.000000
# 6 0.000000 0.000000 0.000000 0.000000 0.000000 0.033006
#
#
# Mechanical properties :
#
#
# Convention : Reuss Voigt Hill
#
# Bulk Modulus (GPa) = 35.14237 51.09479 43.11858
# Shear Modulus (GPa) = 27.16686 30.54551 28.85618
#
# Velocity S-wave (km/s) = 3.73622 3.96174 3.85063
# Velocity P-wave (km/s) = 6.05556 6.86888 6.47501
#
# Compressibility (1/GPa) = 0.02845568
#
# Stress axis : x y z
#
# Youngs Moduli (GPa) = 32.18662 84.66519 99.69592
#
# Poissons Ratio (x) = 0.48050 0.28476
# Poissons Ratio (y) = 0.18267 0.36846
# Poissons Ratio (z) = 0.09193 0.31291
#
# Static dielectric constant tensor:
#      x y z
#    x 3.377850 0.000000 0.000000 
#    y 0.000000 3.841570 0.000000 
#    z 0.000000 0.000000 3.613880 
# 
# 
# High freq. dielectric constant tensor:
#      x y z
#    x 1.751170 0.000000 0.000000 
#    y 0.000000 1.763880 0.000000 
#    z 0.000000 0.000000 1.756110 
# 
# From -- ./inp_files/38228.got.cif
#   From: 2010.03.12/outbox.cif.g09.slc.cpg/sg53_20_cif.got.tgz:38228.got - 2010.04.16 14:36:59.
