data_PCOD8220517
_publ_section_title
;
Structure prediction by ZEFSAII (Michael W. Deem and Ramdas Pophale) SiO2 
 PCOD8220517
Probable space group: P M N A
;
_chemical_formula_sum "Si O2"
_cell_formula_units_Z 40
_cell_length_a 8.925601
_cell_length_b 25.004535
_cell_length_c 9.714260
_cell_angle_alpha 90.000000
_cell_angle_beta 90.000000
_cell_angle_gamma 90.000000
_cell_volume 2168.033429
_symmetry_space_group_name_H-M "P M N A"
_symmetry_group_IT_number 53
_symmetry_cell_setting 'orthorhombic'
loop_
_space_group_symop_operation_xyz
x,y,z
1/2-x,-y,1/2+z
x,-y,-z
1/2-x,y,1/2-z
-x,-y,-z
1/2+x,y,1/2-z
-x,y,z
1/2+x,-y,1/2+z
loop_
_atom_site_type_symbol
_atom_site_label
_atom_site_fract_x
_atom_site_fract_y
_atom_site_fract_z
Si Si1 0.175973 0.043298 0.106273
Si Si2 0.825195 0.752729 0.110733
Si Si3 0.824145 0.163108 0.106814
Si Si4 0.823102 0.629760 0.104771
Si Si5 0.323566 0.549589 0.899898
O O1 0.250000 0.029887 0.250000
O O2 0.217883 0.103251 0.055982
O O3 0.000000 0.036839 0.124582
O O4 0.240557 0.000000 0.000000
O O5 0.750000 0.771339 0.250000
O O6 0.786135 0.691572 0.075290
O O7 0.000000 0.760831 0.128488
O O8 0.759582 0.792537 0.996453
O O9 0.750000 0.176471 0.250000
O O10 0.000000 0.169244 0.125176
O O11 0.750000 0.611282 0.250000
O O12 0.000000 0.618034 0.113018
O O13 0.750853 0.600140 0.974699
O O14 0.250000 0.540052 0.750000
O O15 0.500000 0.559295 0.879678
O O16 0.290846 0.500000 0.000000
#
# Coordination Sequence:
#
# PCOD8220517 Si02
#       5
#     8   8   8   8   8
#     4   9  18  32  49  70  97 129 165 207 253 301
#     4   9  19  34  52  76 104 135 170 209 253 301
#     4   9  18  33  50  70  99 132 167 207 252 301
#     4  10  20  36  57  80 108 140 175 215 259 307
#     4  11  24  40  59  83 110 141 176 214 258 307
#
# _framework density 18.4499
#
# number of rings (size 3 to 8) (size 9 to 14) (size 15 to 20)
#    0.000    2.400    0.000    1.800    0.000    6.800 
#    0.000    2.000    0.000    0.000    0.000    0.000 
#    0.000    0.000    0.000    0.000    0.000    0.000 
#
# Total GULP energy -495976.745250 kJ/mol
# GULP energy per Si atom -12399.418631 kJ/mol
# Density = 1.840791 g / cm^3
# Si number density = 18.449900 Si / 1000 Ang^3
#
#
#
# Elastic Constant Matrix: (Units=GPa)
#
#
# Indices 1 2 3 4 5 6 
#
# 1 58.0180 46.7190 62.0577 0.0000 0.0000 0.0000
# 2 46.7190 117.3207 98.3895 0.0000 0.0000 0.0000
# 3 62.0577 98.3895 154.6808 0.0000 0.0000 0.0000
# 4 0.0000 0.0000 0.0000 42.5462 0.0000 0.0000
# 5 0.0000 0.0000 0.0000 0.0000 37.3952 0.0000
# 6 0.0000 0.0000 0.0000 0.0000 0.0000 35.9123
#
#
#
# Elastic Compliance Matrix: (Units=1/GPa)
#
#
# Indices 1 2 3 4 5 6 
#
# 1 0.031093 -0.004116 -0.009857 0.000000 0.000000 0.000000
# 2 -0.004116 0.018814 -0.010316 0.000000 0.000000 0.000000
# 3 -0.009857 -0.010316 0.016981 0.000000 0.000000 0.000000
# 4 0.000000 0.000000 0.000000 0.023504 0.000000 0.000000
# 5 0.000000 0.000000 0.000000 0.000000 0.026741 0.000000
# 6 0.000000 0.000000 0.000000 0.000000 0.000000 0.027846
#
#
# Mechanical properties :
#
#
# Convention : Reuss Voigt Hill
#
# Bulk Modulus (GPa) = 54.60993 82.70577 68.65785
# Shear Modulus (GPa) = 25.04265 31.36096 28.20180
#
# Velocity S-wave (km/s) = 3.68820 4.12732 3.91392
# Velocity P-wave (km/s) = 6.91378 8.22421 7.59730
#
# Compressibility (1/GPa) = 0.01831169
#
# Stress axis : x y z
#
# Youngs Moduli (GPa) = 32.16155 53.15202 58.88873
#
# Poissons Ratio (x) = 0.21876 0.58044
# Poissons Ratio (y) = 0.13237 0.60750
# Poissons Ratio (z) = 0.31700 0.54832
#
# Static dielectric constant tensor:
#      x y z
#    x 3.399710 0.000000 0.000000 
#    y 0.000000 3.665710 0.000000 
#    z 0.000000 0.000000 3.476630 
# 
# 
# High freq. dielectric constant tensor:
#      x y z
#    x 1.716220 0.000000 0.000000 
#    y 0.000000 1.725340 0.000000 
#    z 0.000000 0.000000 1.716220 
# 
# From -- ./inp_files/6262.got.cif
#   From: 2010.03.12/outbox.cif.g09.slc.cpg/sg53_4_cif.got.tgz:6262.got - 2010.04.16 14:36:59.
