data_PCOD8220298
_publ_section_title
;
Structure prediction by ZEFSAII (Michael W. Deem and Ramdas Pophale) SiO2 
 PCOD8220298
Probable space group: P M N A
;
_chemical_formula_sum "Si O2"
_cell_formula_units_Z 56
_cell_length_a 14.250811
_cell_length_b 9.489646
_cell_length_c 19.989613
_cell_angle_alpha 90.000000
_cell_angle_beta 90.000000
_cell_angle_gamma 90.000000
_cell_volume 2703.298345
_symmetry_space_group_name_H-M "P M N A"
_symmetry_group_IT_number 53
_symmetry_cell_setting 'orthorhombic'
loop_
_space_group_symop_operation_xyz
x,y,z
1/2-x,-y,1/2+z
x,-y,-z
1/2-x,y,1/2-z
-x,-y,-z
1/2+x,y,1/2-z
-x,y,z
1/2+x,-y,1/2+z
loop_
_atom_site_type_symbol
_atom_site_label
_atom_site_fract_x
_atom_site_fract_y
_atom_site_fract_z
Si Si1 0.147255 0.270744 0.739786
Si Si2 0.109940 0.782423 0.463295
Si Si3 0.608166 0.337264 0.487682
Si Si4 0.706147 0.966062 0.141387
Si Si5 0.103635 0.472254 0.627598
Si Si6 0.214811 0.263840 0.403117
Si Si7 0.897558 0.830126 0.122103
O O1 0.250000 0.334716 0.750000
O O2 0.091926 0.382281 0.695212
O O3 0.094331 0.263271 0.810432
O O4 0.158075 0.116151 0.703559
O O5 0.139251 0.634549 0.429418
O O6 0.142817 0.771139 0.538402
O O7 0.000000 0.809047 0.459079
O O8 0.158893 0.914313 0.427256
O O9 0.628575 0.500000 0.500000
O O10 0.500000 0.311810 0.464947
O O11 0.678519 0.278644 0.430607
O O12 0.630256 0.262376 0.558005
O O13 0.701173 0.134969 0.149109
O O14 0.817775 0.943182 0.135755
O O15 0.180333 0.595344 0.634330
O O16 0.000000 0.533381 0.610307
O O17 0.000000 0.900854 0.109962
#
# Coordination Sequence:
#
# PCOD8220298 Si02
#       7
#     8   8   8   8   8   8   8
#     4   9  20  39  63  84 111 154 207 244 287 349
#     4  10  20  35  55  81 117 159 198 233 285 358
#     4  10  22  37  60  93 124 155 197 249 305 357
#     4  10  22  37  54  88 118 154 194 242 293 357
#     4  10  21  37  59  89 117 153 201 245 293 352
#     4  12  22  34  58  86 128 153 187 244 307 352
#     4  10  20  39  66  86 112 157 205 249 289 346
#
# _framework density 20.715434999999999
#
# number of rings (size 3 to 8) (size 9 to 14) (size 15 to 20)
#    0.000    1.857    1.429    2.571    4.000    4.000 
#    0.000    3.571    0.000    0.000    0.000    0.000 
#    0.000    0.000    0.000    0.000    0.000    0.000 
#
# Total GULP energy -694125.265484 kJ/mol
# GULP energy per Si atom -12395.094026 kJ/mol
# Density = 2.066829 g / cm^3
# Si number density = 20.715435 Si / 1000 Ang^3
#
#
#
# Elastic Constant Matrix: (Units=GPa)
#
#
# Indices 1 2 3 4 5 6 
#
# 1 97.7212 41.8737 17.5863 0.0000 0.0000 0.0000
# 2 41.8737 115.8301 24.1931 0.0000 0.0000 0.0000
# 3 17.5863 24.1931 51.0529 0.0000 0.0000 0.0000
# 4 0.0000 0.0000 0.0000 8.4830 0.0000 0.0000
# 5 0.0000 0.0000 0.0000 0.0000 9.4755 0.0000
# 6 0.0000 0.0000 0.0000 0.0000 0.0000 16.1234
#
#
#
# Elastic Compliance Matrix: (Units=1/GPa)
#
#
# Indices 1 2 3 4 5 6 
#
# 1 0.012363 -0.003973 -0.002376 0.000000 0.000000 0.000000
# 2 -0.003973 0.010859 -0.003777 0.000000 0.000000 0.000000
# 3 -0.002376 -0.003777 0.022196 0.000000 0.000000 0.000000
# 4 0.000000 0.000000 0.000000 0.117883 0.000000 0.000000
# 5 0.000000 0.000000 0.000000 0.000000 0.105535 0.000000
# 6 0.000000 0.000000 0.000000 0.000000 0.000000 0.062022
#
#
# Mechanical properties :
#
#
# Convention : Reuss Voigt Hill
#
# Bulk Modulus (GPa) = 39.73725 47.99005 43.86365
# Shear Modulus (GPa) = 13.90828 18.87980 16.39404
#
# Velocity S-wave (km/s) = 2.59394 3.02220 2.81622
# Velocity P-wave (km/s) = 5.30994 5.94936 5.63872
#
# Compressibility (1/GPa) = 0.02516530
#
# Stress axis : x y z
#
# Youngs Moduli (GPa) = 80.88454 92.09309 45.05342
#
# Poissons Ratio (x) = 0.36590 0.10705
# Poissons Ratio (y) = 0.32137 0.17017
# Poissons Ratio (z) = 0.19218 0.34784
#
# Static dielectric constant tensor:
#      x y z
#    x 3.901520 0.000000 0.000000 
#    y 0.000000 3.622400 0.000000 
#    z 0.000000 0.000000 3.703900 
# 
# 
# High freq. dielectric constant tensor:
#      x y z
#    x 1.827770 0.000000 0.000000 
#    y 0.000000 1.789560 0.000000 
#    z 0.000000 0.000000 1.794840 
# 
# From -- ./inp_files/32427.got.cif
#   From: 2010.03.12/outbox.cif.g09.slc.cpg/sg53_17_cif.got.tgz:32427.got - 2010.04.16 14:36:59.
