data_PCOD8220998
_publ_section_title
;
Structure prediction by ZEFSAII (Michael W. Deem and Ramdas Pophale) SiO2 
 PCOD8220998
Probable space group: P M N A
;
_chemical_formula_sum "Si O2"
_cell_formula_units_Z 64
_cell_length_a 8.968691
_cell_length_b 14.194320
_cell_length_c 25.679339
_cell_angle_alpha 90.000000
_cell_angle_beta 90.000000
_cell_angle_gamma 90.000000
_cell_volume 3269.094642
_symmetry_space_group_name_H-M "P M N A"
_symmetry_group_IT_number 53
_symmetry_cell_setting 'orthorhombic'
loop_
_space_group_symop_operation_xyz
x,y,z
1/2-x,-y,1/2+z
x,-y,-z
1/2-x,y,1/2-z
-x,-y,-z
1/2+x,y,1/2-z
-x,y,z
1/2+x,-y,1/2+z
loop_
_atom_site_type_symbol
_atom_site_label
_atom_site_fract_x
_atom_site_fract_y
_atom_site_fract_z
Si Si1 0.675461 0.099102 0.025793
Si Si2 0.823131 0.383263 0.099714
Si Si3 0.674367 0.924273 0.634008
Si Si4 0.326226 0.738892 0.695382
Si Si5 0.174573 0.402442 0.896253
Si Si6 0.174149 0.703901 0.303158
Si Si7 0.175295 0.279690 0.996476
Si Si8 0.325302 0.920697 0.196634
O O1 0.500000 0.108099 0.034985
O O2 0.761458 0.112081 0.079807
O O3 0.734584 0.182327 0.988276
O O4 0.717526 0.000000 0.000000
O O5 0.761585 0.332636 0.151773
O O6 0.768989 0.490759 0.097690
O O7 0.000000 0.377790 0.098773
O O8 0.763552 0.329786 0.048643
O O9 0.500000 0.944324 0.627688
O O10 0.706020 0.845604 0.677638
O O11 0.757766 0.020115 0.649275
O O12 0.250000 0.717253 0.750000
O O13 0.500000 0.721217 0.702850
O O14 0.265178 0.358049 0.849518
O O15 0.213290 0.347901 0.948878
O O16 0.000000 0.397522 0.883288
O O17 0.250000 0.670041 0.250000
O O18 0.213043 0.812475 0.314891
O O19 0.000000 0.687931 0.296973
O O20 0.000000 0.257523 0.999554
O O21 0.250000 0.954641 0.250000
O O22 0.500000 0.939646 0.200967
#
# Coordination Sequence:
#
# PCOD8220998 Si02
#       8
#     8   8   8   8   8   8   8   8
#     4  11  25  41  58  85 122 160 193 238 298 355
#     4   9  18  38  61  86 120 154 195 247 297 348
#     4  11  22  38  61  86 115 153 198 248 294 353
#     4  10  21  37  58  85 119 156 196 243 296 353
#     4  10  21  36  63  93 116 152 198 245 298 358
#     4  10  22  40  60  83 120 158 195 245 295 350
#     4  10  20  39  64  90 118 154 199 245 294 354
#     4  10  21  37  57  83 115 154 194 238 290 345
#
# _framework density 19.577285
#
# number of rings (size 3 to 8) (size 9 to 14) (size 15 to 20)
#    0.000    1.875    1.250    2.250    1.750    7.000 
#    0.000    2.500    0.000    1.500    0.000    0.000 
#    0.000    0.000    0.000    0.000    0.000    0.000 
#
# Total GULP energy -793885.085959 kJ/mol
# GULP energy per Si atom -12404.454468 kJ/mol
# Density = 1.953273 g / cm^3
# Si number density = 19.577285 Si / 1000 Ang^3
#
#
#
# Elastic Constant Matrix: (Units=GPa)
#
#
# Indices 1 2 3 4 5 6 
#
# 1 64.0600 50.7752 42.1951 0.0000 0.0000 0.0000
# 2 50.7752 130.6717 61.8911 0.0000 0.0000 0.0000
# 3 42.1951 61.8911 125.5982 0.0000 0.0000 0.0000
# 4 0.0000 0.0000 0.0000 29.3811 0.0000 0.0000
# 5 0.0000 0.0000 0.0000 0.0000 33.7805 0.0000
# 6 0.0000 0.0000 0.0000 0.0000 0.0000 22.2121
#
#
#
# Elastic Compliance Matrix: (Units=1/GPa)
#
#
# Indices 1 2 3 4 5 6 
#
# 1 0.024444 -0.007316 -0.004607 0.000000 0.000000 0.000000
# 2 -0.007316 0.012172 -0.003540 0.000000 0.000000 0.000000
# 3 -0.004607 -0.003540 0.011254 0.000000 0.000000 0.000000
# 4 0.000000 0.000000 0.000000 0.034035 0.000000 0.000000
# 5 0.000000 0.000000 0.000000 0.000000 0.029603 0.000000
# 6 0.000000 0.000000 0.000000 0.000000 0.000000 0.045020
#
#
# Mechanical properties :
#
#
# Convention : Reuss Voigt Hill
#
# Bulk Modulus (GPa) = 59.01879 70.00586 64.51232
# Shear Modulus (GPa) = 25.89285 28.10598 26.99942
#
# Velocity S-wave (km/s) = 3.64070 3.79310 3.71768
# Velocity P-wave (km/s) = 6.91989 7.41753 7.17303
#
# Compressibility (1/GPa) = 0.01694376
#
# Stress axis : x y z
#
# Youngs Moduli (GPa) = 40.91042 82.15269 88.85641
#
# Poissons Ratio (x) = 0.60104 0.40934
# Poissons Ratio (y) = 0.29931 0.31458
# Poissons Ratio (z) = 0.18846 0.29085
#
# Static dielectric constant tensor:
#      x y z
#    x 3.390720 0.000000 0.000000 
#    y 0.000000 3.712080 0.000000 
#    z 0.000000 0.000000 3.697850 
# 
# 
# High freq. dielectric constant tensor:
#      x y z
#    x 1.749280 0.000000 0.000000 
#    y 0.000000 1.772080 0.000000 
#    z 0.000000 0.000000 1.769530 
# 
# From -- ./inp_files/34238.got.cif
#   From: 2010.03.12/outbox.cif.g09.slc.cpg/sg53_18_cif.got.tgz:34238.got - 2010.04.16 14:36:59.
