data_PCOD8220203
_publ_section_title
;
Structure prediction by ZEFSAII (Michael W. Deem and Ramdas Pophale) SiO2 
 PCOD8220203
Probable space group: P M N A
;
_chemical_formula_sum "Si O2"
_cell_formula_units_Z 44
_cell_length_a 14.417802
_cell_length_b 13.984748
_cell_length_c 11.471650
_cell_angle_alpha 90.000000
_cell_angle_beta 90.000000
_cell_angle_gamma 90.000000
_cell_volume 2313.021077
_symmetry_space_group_name_H-M "P M N A"
_symmetry_group_IT_number 53
_symmetry_cell_setting 'orthorhombic'
loop_
_space_group_symop_operation_xyz
x,y,z
1/2-x,-y,1/2+z
x,-y,-z
1/2-x,y,1/2-z
-x,-y,-z
1/2+x,y,1/2-z
-x,y,z
1/2+x,-y,1/2+z
loop_
_atom_site_type_symbol
_atom_site_label
_atom_site_fract_x
_atom_site_fract_y
_atom_site_fract_z
Si Si1 0.891313 0.281345 0.558989
Si Si2 0.394981 0.873658 0.250006
Si Si3 0.608694 0.718653 0.441006
Si Si4 0.250001 0.436844 0.880947
Si Si5 0.250000 0.963330 0.750000
Si Si6 0.249999 0.778991 0.876696
O O1 0.871614 0.189070 0.637524
O O2 0.843133 0.373343 0.616161
O O3 0.843802 0.257681 0.436582
O O4 0.000000 0.302806 0.543513
O O5 0.500000 0.906944 0.250059
O O6 0.371558 0.810912 0.362456
O O7 0.340014 0.971579 0.249992
O O8 0.500000 0.697227 0.456458
O O9 0.656856 0.626635 0.383859
O O10 0.656196 0.742318 0.563419
O O11 0.250000 0.487363 0.750000
O O12 0.250014 0.500000 0.000000
O O13 0.249997 0.894997 0.864726
O O14 0.250000 0.730027 0.750000
#
# Coordination Sequence:
#
# PCOD8220203 Si02
#       6
#     8   8   8   8   4   8
#     4  10  21  40  63  84 115 159 201 241 291 357
#     4  10  20  34  60  87 108 154 208 243 288 348
#     4  10  21  40  63  84 115 159 201 241 291 357
#     4  11  23  40  64  94 125 153 198 251 304 370
#     4  10  20  36  52  84 128 154 190 254 300 332
#     4   9  22  36  53  83 122 161 195 241 301 345
#
# _framework density 19.022739999999999
#
# number of rings (size 3 to 8) (size 9 to 14) (size 15 to 20)
#    0.545    1.455    1.818    2.182    0.000    8.727 
#    0.000    3.636    0.000    0.000    0.000    0.000 
#    0.000    0.000    0.000    0.000    0.000    0.000 
#
# Total GULP energy -545193.027902 kJ/mol
# GULP energy per Si atom -12390.750634 kJ/mol
# Density = 1.897944 g / cm^3
# Si number density = 19.022740 Si / 1000 Ang^3
#
#
#
# Elastic Constant Matrix: (Units=GPa)
#
#
# Indices 1 2 3 4 5 6 
#
# 1 146.7123 37.2674 52.0561 0.0000 0.0000 0.0000
# 2 37.2674 67.1801 31.6109 0.0000 0.0000 0.0000
# 3 52.0561 31.6109 154.6646 0.0000 0.0000 0.0000
# 4 0.0000 0.0000 0.0000 41.0232 0.0000 0.0000
# 5 0.0000 0.0000 0.0000 0.0000 35.1194 0.0000
# 6 0.0000 0.0000 0.0000 0.0000 0.0000 4.0860
#
#
#
# Elastic Compliance Matrix: (Units=1/GPa)
#
#
# Indices 1 2 3 4 5 6 
#
# 1 0.008510 -0.003732 -0.002101 0.000000 0.000000 0.000000
# 2 -0.003732 0.018106 -0.002444 0.000000 0.000000 0.000000
# 3 -0.002101 -0.002444 0.007672 0.000000 0.000000 0.000000
# 4 0.000000 0.000000 0.000000 0.024376 0.000000 0.000000
# 5 0.000000 0.000000 0.000000 0.000000 0.028474 0.000000
# 6 0.000000 0.000000 0.000000 0.000000 0.000000 0.244736
#
#
# Mechanical properties :
#
#
# Convention : Reuss Voigt Hill
#
# Bulk Modulus (GPa) = 56.39372 67.82510 62.10941
# Shear Modulus (GPa) = 14.11070 32.55388 23.33229
#
# Velocity S-wave (km/s) = 2.72652 4.14129 3.50601
# Velocity P-wave (km/s) = 6.29457 7.65501 7.00788
#
# Compressibility (1/GPa) = 0.01773247
#
# Stress axis : x y z
#
# Youngs Moduli (GPa) = 117.51403 55.23096 130.33574
#
# Poissons Ratio (x) = 0.20611 0.27389
# Poissons Ratio (y) = 0.43854 0.31860
# Poissons Ratio (z) = 0.24694 0.13501
#
# Static dielectric constant tensor:
#      x y z
#    x 3.588100 0.000000 0.000000 
#    y 0.000000 3.341430 0.000000 
#    z 0.000000 0.000000 3.582200 
# 
# 
# High freq. dielectric constant tensor:
#      x y z
#    x 1.746610 0.000000 0.000000 
#    y 0.000000 1.725170 0.000000 
#    z 0.000000 0.000000 1.747470 
# 
# From -- ./inp_files/15887.got.cif
#   From: 2010.03.12/outbox.cif.g09.slc.cpg/sg53_8_cif.got.tgz:15887.got - 2010.04.16 14:36:59.
