data_PCOD8220754
_publ_section_title
;
Structure prediction by ZEFSAII (Michael W. Deem and Ramdas Pophale) SiO2 
 PCOD8220754
Probable space group: P M N A
;
_chemical_formula_sum "Si O2"
_cell_formula_units_Z 56
_cell_length_a 8.807697
_cell_length_b 21.539732
_cell_length_c 14.981943
_cell_angle_alpha 90.000000
_cell_angle_beta 90.000000
_cell_angle_gamma 90.000000
_cell_volume 2842.305802
_symmetry_space_group_name_H-M "P M N A"
_symmetry_group_IT_number 53
_symmetry_cell_setting 'orthorhombic'
loop_
_space_group_symop_operation_xyz
x,y,z
1/2-x,-y,1/2+z
x,-y,-z
1/2-x,y,1/2-z
-x,-y,-z
1/2+x,y,1/2-z
-x,y,z
1/2+x,-y,1/2+z
loop_
_atom_site_type_symbol
_atom_site_label
_atom_site_fract_x
_atom_site_fract_y
_atom_site_fract_z
Si Si1 0.175316 0.788876 0.008110
Si Si2 0.175407 0.989523 0.655911
Si Si3 0.674276 0.354383 0.500041
Si Si4 0.820704 0.422602 0.343988
Si Si5 0.320455 0.854803 0.847702
Si Si6 0.820689 0.553051 0.156330
Si Si7 0.321213 0.123766 0.847847
O O1 0.199842 0.716565 0.026975
O O2 0.250632 0.804368 0.913421
O O3 0.000000 0.807402 0.004265
O O4 0.253232 0.824634 0.088677
O O5 0.250000 0.994172 0.750000
O O6 0.213464 0.055121 0.607062
O O7 0.000000 0.986096 0.675648
O O8 0.221961 0.923679 0.611021
O O9 0.500000 0.367421 0.473445
O O10 0.780202 0.370684 0.416491
O O11 0.723090 0.395126 0.584680
O O12 0.750000 0.401685 0.250000
O O13 0.750727 0.488072 0.375453
O O14 0.000000 0.429064 0.333671
O O15 0.250000 0.845850 0.750000
O O16 0.500000 0.844611 0.841647
O O17 0.750000 0.574440 0.250000
O O18 0.000000 0.544591 0.167073
O O19 0.250000 0.130187 0.750000
O O20 0.500000 0.134659 0.839596
#
# Coordination Sequence:
#
# PCOD8220754 Si02
#       7
#     8   8   8   8   8   8   8
#     4  11  24  40  56  80 113 152 195 232 274 332
#     4   8  16  31  54  81 108 139 179 228 283 338
#     4  10  23  41  58  79 113 153 190 230 274 322
#     4  11  22  37  61  90 117 145 181 226 275 328
#     4  10  20  37  59  83 111 145 185 233 287 339
#     4  10  20  37  61  87 115 146 181 225 275 325
#     4  10  20  37  59  83 112 146 185 233 285 337
#
# _framework density 19.702313
#
# number of rings (size 3 to 8) (size 9 to 14) (size 15 to 20)
#    0.000    2.000    0.000    4.286    0.000    6.857 
#    0.000    4.286    0.000    0.000    0.000    0.000 
#    0.000    0.000    0.000    0.000    0.000    0.000 
#
# Total GULP energy -694142.461700 kJ/mol
# GULP energy per Si atom -12395.401102 kJ/mol
# Density = 1.965747 g / cm^3
# Si number density = 19.702313 Si / 1000 Ang^3
#
#
#
# Elastic Constant Matrix: (Units=GPa)
#
#
# Indices 1 2 3 4 5 6 
#
# 1 95.8819 27.3294 31.6451 0.0000 0.0000 0.0000
# 2 27.3294 62.5364 25.1238 0.0000 0.0000 0.0000
# 3 31.6451 25.1238 72.5082 0.0000 0.0000 0.0000
# 4 0.0000 0.0000 0.0000 26.1067 0.0000 0.0000
# 5 0.0000 0.0000 0.0000 0.0000 34.3656 0.0000
# 6 0.0000 0.0000 0.0000 0.0000 0.0000 27.8837
#
#
#
# Elastic Compliance Matrix: (Units=1/GPa)
#
#
# Indices 1 2 3 4 5 6 
#
# 1 0.012971 -0.003943 -0.004295 0.000000 0.000000 0.000000
# 2 -0.003943 0.019775 -0.005131 0.000000 0.000000 0.000000
# 3 -0.004295 -0.005131 0.017444 0.000000 0.000000 0.000000
# 4 0.000000 0.000000 0.000000 0.038304 0.000000 0.000000
# 5 0.000000 0.000000 0.000000 0.000000 0.029099 0.000000
# 6 0.000000 0.000000 0.000000 0.000000 0.000000 0.035863
#
#
# Mechanical properties :
#
#
# Convention : Reuss Voigt Hill
#
# Bulk Modulus (GPa) = 42.64007 44.34702 43.49355
# Shear Modulus (GPa) = 26.59409 27.45973 27.02691
#
# Velocity S-wave (km/s) = 3.67794 3.73732 3.70775
# Velocity P-wave (km/s) = 6.30282 6.41723 6.36028
#
# Compressibility (1/GPa) = 0.02345212
#
# Stress axis : x y z
#
# Youngs Moduli (GPa) = 77.09610 50.56803 57.32687
#
# Poissons Ratio (x) = 0.19939 0.24620
# Poissons Ratio (y) = 0.30400 0.29415
# Poissons Ratio (z) = 0.33110 0.25947
#
# Static dielectric constant tensor:
#      x y z
#    x 3.396380 0.000000 0.000000 
#    y 0.000000 3.860250 0.000000 
#    z 0.000000 0.000000 3.434420 
# 
# 
# High freq. dielectric constant tensor:
#      x y z
#    x 1.778260 0.000000 0.000000 
#    y 0.000000 1.774730 0.000000 
#    z 0.000000 0.000000 1.760850 
# 
# From -- ./inp_files/20475.got.cif
#   From: 2010.03.12/outbox.cif.g09.slc.cpg/sg53_11_cif.got.tgz:20475.got - 2010.04.16 14:36:59.
