data_PCOD8220883
_publ_section_title
;
Structure prediction by ZEFSAII (Michael W. Deem and Ramdas Pophale) SiO2 
 PCOD8220883
Probable space group: P M N A
;
_chemical_formula_sum "Si O2"
_cell_formula_units_Z 56
_cell_length_a 20.841550
_cell_length_b 9.266434
_cell_length_c 15.050722
_cell_angle_alpha 90.000000
_cell_angle_beta 90.000000
_cell_angle_gamma 90.000000
_cell_volume 2906.698493
_symmetry_space_group_name_H-M "P M N A"
_symmetry_group_IT_number 53
_symmetry_cell_setting 'orthorhombic'
loop_
_space_group_symop_operation_xyz
x,y,z
1/2-x,-y,1/2+z
x,-y,-z
1/2-x,y,1/2-z
-x,-y,-z
1/2+x,y,1/2-z
-x,y,z
1/2+x,-y,1/2+z
loop_
_atom_site_type_symbol
_atom_site_label
_atom_site_fract_x
_atom_site_fract_y
_atom_site_fract_z
Si Si1 0.844609 0.071724 0.797410
Si Si2 0.713477 0.201757 0.861705
Si Si3 0.073107 0.527612 0.837828
Si Si4 0.728814 0.653977 0.961173
Si Si5 0.641197 0.208314 0.407824
Si Si6 0.427023 0.229184 0.579725
Si Si7 0.687131 0.518036 0.797517
O O1 0.785348 0.144625 0.849861
O O2 0.833657 0.087362 0.689905
O O3 0.908525 0.157128 0.825846
O O4 0.853826 0.907658 0.828807
O O5 0.704569 0.353493 0.814973
O O6 0.700450 0.230359 0.966950
O O7 0.084937 0.678265 0.886331
O O8 0.085011 0.400361 0.909306
O O9 0.121583 0.520658 0.755899
O O10 0.000000 0.520084 0.802245
O O11 0.789725 0.720304 0.912652
O O12 0.675581 0.614646 0.886529
O O13 0.751876 0.500000 0.000000
O O14 0.618538 0.154030 0.505105
O O15 0.500000 0.192414 0.557204
O O16 0.750000 0.585743 0.750000
#
# Coordination Sequence:
#
# PCOD8220883 Si02
#       7
#     8   8   8   8   8   8   8
#     4  11  22  35  56  81 121 164 200 247 302 374
#     4  10  20  38  57  82 121 160 201 254 313 367
#     4  11  23  39  61  88 124 165 208 259 316 374
#     4  10  21  34  62  91 119 156 205 264 316 365
#     4  12  23  34  53  91 125 157 203 247 309 381
#     4  11  22  38  58  80 117 167 204 242 304 378
#     4  11  18  35  63  90 117 155 210 264 313 370
#
# _framework density 19.265843
#
# number of rings (size 3 to 8) (size 9 to 14) (size 15 to 20)
#    0.000    1.143    5.714    2.143    0.000    5.143 
#    0.000    0.000    0.000    4.714    0.000    1.000 
#    0.000    0.000    0.000    0.000    0.000    0.000 
#
# Total GULP energy -693840.879957 kJ/mol
# GULP energy per Si atom -12390.015714 kJ/mol
# Density = 1.922199 g / cm^3
# Si number density = 19.265843 Si / 1000 Ang^3
#
#
#
# Elastic Constant Matrix: (Units=GPa)
#
#
# Indices 1 2 3 4 5 6 
#
# 1 79.7748 30.1718 44.6240 0.0000 0.0000 0.0000
# 2 30.1718 86.5936 42.6331 0.0000 0.0000 0.0000
# 3 44.6240 42.6331 96.9294 0.0000 0.0000 0.0000
# 4 0.0000 0.0000 0.0000 37.4238 0.0000 0.0000
# 5 0.0000 0.0000 0.0000 0.0000 29.8910 0.0000
# 6 0.0000 0.0000 0.0000 0.0000 0.0000 9.5453
#
#
#
# Elastic Compliance Matrix: (Units=1/GPa)
#
#
# Indices 1 2 3 4 5 6 
#
# 1 0.017364 -0.002699 -0.006807 0.000000 0.000000 0.000000
# 2 -0.002699 0.015160 -0.005425 0.000000 0.000000 0.000000
# 3 -0.006807 -0.005425 0.015837 0.000000 0.000000 0.000000
# 4 0.000000 0.000000 0.000000 0.026721 0.000000 0.000000
# 5 0.000000 0.000000 0.000000 0.000000 0.033455 0.000000
# 6 0.000000 0.000000 0.000000 0.000000 0.000000 0.104764
#
#
# Mechanical properties :
#
#
# Convention : Reuss Voigt Hill
#
# Bulk Modulus (GPa) = 54.05930 55.35061 54.70495
# Shear Modulus (GPa) = 20.05397 25.09661 22.57529
#
# Velocity S-wave (km/s) = 3.22981 3.61314 3.42684
# Velocity P-wave (km/s) = 6.48301 6.79696 6.64184
#
# Compressibility (1/GPa) = 0.01849821
#
# Stress axis : x y z
#
# Youngs Moduli (GPa) = 57.59197 65.96480 63.14447
#
# Poissons Ratio (x) = 0.17802 0.42981
# Poissons Ratio (y) = 0.15543 0.34258
# Poissons Ratio (z) = 0.39201 0.35788
#
# Static dielectric constant tensor:
#      x y z
#    x 3.268620 0.000000 0.000000 
#    y 0.000000 3.599240 0.000000 
#    z 0.000000 0.000000 4.058070 
# 
# 
# High freq. dielectric constant tensor:
#      x y z
#    x 1.716940 0.000000 0.000000 
#    y 0.000000 1.750770 0.000000 
#    z 0.000000 0.000000 1.745440 
# 
# From -- ./inp_files/24367.got.cif
#   From: 2010.03.12/outbox.cif.g09.slc.cpg/sg53_13_cif.got.tgz:24367.got - 2010.04.16 14:36:59.
