data_PCOD8220765
_publ_section_title
;
Structure prediction by ZEFSAII (Michael W. Deem and Ramdas Pophale) SiO2 
 PCOD8220765
Probable space group: P M N A
;
_chemical_formula_sum "Si O2"
_cell_formula_units_Z 48
_cell_length_a 8.707136
_cell_length_b 9.153257
_cell_length_c 30.443253
_cell_angle_alpha 90.000000
_cell_angle_beta 90.000000
_cell_angle_gamma 90.000000
_cell_volume 2426.286274
_symmetry_space_group_name_H-M "P M N A"
_symmetry_group_IT_number 53
_symmetry_cell_setting 'orthorhombic'
loop_
_space_group_symop_operation_xyz
x,y,z
1/2-x,-y,1/2+z
x,-y,-z
1/2-x,y,1/2-z
-x,-y,-z
1/2+x,y,1/2-z
-x,y,z
1/2+x,-y,1/2+z
loop_
_atom_site_type_symbol
_atom_site_label
_atom_site_fract_x
_atom_site_fract_y
_atom_site_fract_z
Si Si1 0.822546 0.419621 0.620045
Si Si2 0.181189 0.911107 0.796700
Si Si3 0.320899 0.397217 0.204283
Si Si4 0.179144 0.918335 0.954700
Si Si5 0.180878 0.411888 0.041098
Si Si6 0.679695 0.914962 0.125567
O O1 0.788291 0.478052 0.668760
O O2 0.722264 0.510892 0.586283
O O3 0.771847 0.251968 0.617611
O O4 0.000000 0.440235 0.607558
O O5 0.250000 0.958802 0.750000
O O6 0.243886 0.753314 0.811514
O O7 0.000000 0.902634 0.792606
O O8 0.227341 0.029936 0.832506
O O9 0.250000 0.452664 0.250000
O O10 0.500000 0.366961 0.210954
O O11 0.242269 0.753691 0.959360
O O12 0.000000 0.923291 0.941541
O O13 0.278025 0.994155 0.917277
O O14 0.210076 0.000000 0.000000
O O15 0.000000 0.408352 0.035811
O O16 0.254140 0.500000 0.000000
O O17 0.500000 0.930068 0.135439
#
# Coordination Sequence:
#
# PCOD8220765 Si02
#       6
#     8   8   8   8   8   8
#     4  10  23  39  56  81 114 150 188 231 278 332
#     4  11  22  38  60  86 114 148 189 232 282 336
#     4  10  20  37  59  84 113 146 186 231 279 331
#     4  10  21  38  60  86 115 148 189 234 282 337
#     4  10  21  37  59  85 112 145 186 232 281 334
#     4  11  23  39  57  82 116 152 191 233 281 335
#
# _framework density 19.783321999999998
#
# number of rings (size 3 to 8) (size 9 to 14) (size 15 to 20)
#    0.000    1.667    0.000    5.500    0.000    8.667 
#    0.000    1.667    0.000    0.000    0.000    0.000 
#    0.000    0.000    0.000    0.000    0.000    0.000 
#
# Total GULP energy -595456.563102 kJ/mol
# GULP energy per Si atom -12405.345065 kJ/mol
# Density = 1.973829 g / cm^3
# Si number density = 19.783322 Si / 1000 Ang^3
#
#
#
# Elastic Constant Matrix: (Units=GPa)
#
#
# Indices 1 2 3 4 5 6 
#
# 1 79.9479 39.3908 37.0185 0.0000 0.0000 0.0000
# 2 39.3908 159.7238 72.9443 0.0000 0.0000 0.0000
# 3 37.0185 72.9443 110.1544 0.0000 0.0000 0.0000
# 4 0.0000 0.0000 0.0000 38.8122 0.0000 0.0000
# 5 0.0000 0.0000 0.0000 0.0000 34.6705 0.0000
# 6 0.0000 0.0000 0.0000 0.0000 0.0000 17.2679
#
#
#
# Elastic Compliance Matrix: (Units=1/GPa)
#
#
# Indices 1 2 3 4 5 6 
#
# 1 0.015262 -0.002038 -0.003780 0.000000 0.000000 0.000000
# 2 -0.002038 0.009247 -0.005439 0.000000 0.000000 0.000000
# 3 -0.003780 -0.005439 0.013950 0.000000 0.000000 0.000000
# 4 0.000000 0.000000 0.000000 0.025765 0.000000 0.000000
# 5 0.000000 0.000000 0.000000 0.000000 0.028843 0.000000
# 6 0.000000 0.000000 0.000000 0.000000 0.000000 0.057911
#
#
# Mechanical properties :
#
#
# Convention : Reuss Voigt Hill
#
# Bulk Modulus (GPa) = 62.70730 72.05927 67.38328
# Shear Modulus (GPa) = 27.96328 31.51496 29.73912
#
# Velocity S-wave (km/s) = 3.76370 3.99558 3.88137
# Velocity P-wave (km/s) = 7.11710 7.60194 7.36351
#
# Compressibility (1/GPa) = 0.01594711
#
# Stress axis : x y z
#
# Youngs Moduli (GPa) = 65.52098 108.14141 71.68571
#
# Poissons Ratio (x) = 0.22038 0.27094
# Poissons Ratio (y) = 0.13352 0.38987
# Poissons Ratio (z) = 0.24764 0.58814
#
# Static dielectric constant tensor:
#      x y z
#    x 3.563900 0.000000 0.000000 
#    y 0.000000 3.778460 0.000000 
#    z 0.000000 0.000000 6.294740 
# 
# 
# High freq. dielectric constant tensor:
#      x y z
#    x 1.770340 0.000000 0.000000 
#    y 0.000000 1.779920 0.000000 
#    z 0.000000 0.000000 1.783910 
# 
# From -- ./inp_files/37783.got.cif
#   From: 2010.03.12/outbox.cif.g09.slc.cpg/sg53_19_cif.got.tgz:37783.got - 2010.04.16 14:36:59.
