data_PCOD8220113
_publ_section_title
;
Structure prediction by ZEFSAII (Michael W. Deem and Ramdas Pophale) SiO2 
 PCOD8220113
Probable space group: P M N A
;
_chemical_formula_sum "Si O2"
_cell_formula_units_Z 64
_cell_length_a 18.451166
_cell_length_b 8.917430
_cell_length_c 19.281157
_cell_angle_alpha 90.000000
_cell_angle_beta 90.000000
_cell_angle_gamma 90.000000
_cell_volume 3172.463367
_symmetry_space_group_name_H-M "P M N A"
_symmetry_group_IT_number 53
_symmetry_cell_setting 'orthorhombic'
loop_
_space_group_symop_operation_xyz
x,y,z
1/2-x,-y,1/2+z
x,-y,-z
1/2-x,y,1/2-z
-x,-y,-z
1/2+x,y,1/2-z
-x,y,z
1/2+x,-y,1/2+z
loop_
_atom_site_type_symbol
_atom_site_label
_atom_site_fract_x
_atom_site_fract_y
_atom_site_fract_z
Si Si1 0.306892 0.422714 0.074086
Si Si2 0.418793 0.684460 0.360229
Si Si3 0.165332 0.164239 0.512820
Si Si4 0.693632 0.443463 0.310940
Si Si5 0.421770 0.880134 0.229903
Si Si6 0.915342 0.347935 0.618763
Si Si7 0.678204 0.101964 0.291773
Si Si8 0.819663 0.908118 0.068491
O O1 0.233914 0.444866 0.116009
O O2 0.373578 0.493270 0.117720
O O3 0.296308 0.500000 0.000000
O O4 0.318933 0.245023 0.061176
O O5 0.500000 0.630516 0.385258
O O6 0.374988 0.552387 0.320996
O O7 0.430881 0.814685 0.305806
O O8 0.372743 0.763827 0.422069
O O9 0.101967 0.259736 0.548288
O O10 0.238464 0.156245 0.558887
O O11 0.133829 0.000000 0.500000
O O12 0.750000 0.493038 0.250000
O O13 0.662198 0.278070 0.297697
O O14 0.500000 0.916711 0.196606
O O15 0.383948 0.755771 0.180743
O O16 0.380439 0.035693 0.238271
O O17 0.000000 0.383274 0.626340
O O18 0.750000 0.069138 0.250000
O O19 0.679052 0.020261 0.366137
O O20 0.843899 0.000000 0.000000
#
# Coordination Sequence:
#
# PCOD8220113 Si02
#       8
#     8   8   8   8   8   8   8   8
#     4  10  21  36  56  80 111 148 188 233 282 337
#     4  10  21  36  56  82 112 145 185 234 285 340
#     4  10  20  34  55  79 109 144 184 234 285 334
#     4  11  22  36  56  84 115 147 187 234 285 340
#     4   9  19  36  55  77 106 142 183 226 277 334
#     4  10  20  35  55  78 109 149 189 228 276 338
#     4  10  21  35  57  84 111 142 187 235 280 336
#     4  10  20  37  60  82 109 148 191 236 286 342
#
# _framework density 20.173598999999999
#
# number of rings (size 3 to 8) (size 9 to 14) (size 15 to 20)
#    0.000    2.000    0.000    4.500    0.000    7.250 
#    0.000    0.000    0.000   12.375    0.000    0.000 
#    0.000    0.000    0.000    0.000    0.000    0.000 
#
# Total GULP energy -793115.094617 kJ/mol
# GULP energy per Si atom -12392.423353 kJ/mol
# Density = 2.012768 g / cm^3
# Si number density = 20.173599 Si / 1000 Ang^3
#
#
#
# Elastic Constant Matrix: (Units=GPa)
#
#
# Indices 1 2 3 4 5 6 
#
# 1 83.8933 55.2841 20.3234 0.0000 0.0000 0.0000
# 2 55.2841 121.3977 27.6939 0.0000 0.0000 0.0000
# 3 20.3234 27.6939 75.0766 0.0000 0.0000 0.0000
# 4 0.0000 0.0000 0.0000 33.1313 0.0000 0.0000
# 5 0.0000 0.0000 0.0000 0.0000 25.2549 0.0000
# 6 0.0000 0.0000 0.0000 0.0000 0.0000 44.9203
#
#
#
# Elastic Compliance Matrix: (Units=1/GPa)
#
#
# Indices 1 2 3 4 5 6 
#
# 1 0.017285 -0.007429 -0.001939 0.000000 0.000000 0.000000
# 2 -0.007429 0.012188 -0.002485 0.000000 0.000000 0.000000
# 3 -0.001939 -0.002485 0.014761 0.000000 0.000000 0.000000
# 4 0.000000 0.000000 0.000000 0.030183 0.000000 0.000000
# 5 0.000000 0.000000 0.000000 0.000000 0.039596 0.000000
# 6 0.000000 0.000000 0.000000 0.000000 0.000000 0.022262
#
#
# Mechanical properties :
#
#
# Convention : Reuss Voigt Hill
#
# Bulk Modulus (GPa) = 48.71229 54.10783 51.41006
# Shear Modulus (GPa) = 29.97189 32.46572 31.21880
#
# Velocity S-wave (km/s) = 3.85866 4.01598 3.93811
# Velocity P-wave (km/s) = 6.63712 6.95582 6.79834
#
# Compressibility (1/GPa) = 0.02052870
#
# Stress axis : x y z
#
# Youngs Moduli (GPa) = 57.85217 82.05102 67.74607
#
# Poissons Ratio (x) = 0.60960 0.13134
# Poissons Ratio (y) = 0.42981 0.16832
# Poissons Ratio (z) = 0.11215 0.20386
#
# Static dielectric constant tensor:
#      x y z
#    x 3.872250 0.000000 0.000000 
#    y 0.000000 3.910580 0.000000 
#    z 0.000000 0.000000 3.768360 
# 
# 
# High freq. dielectric constant tensor:
#      x y z
#    x 1.776640 0.000000 0.000000 
#    y 0.000000 1.791260 0.000000 
#    z 0.000000 0.000000 1.786570 
# 
# From -- ./inp_files/32816.got.cif
#   From: 2010.03.12/outbox.cif.g09.slc.cpg/sg53_17_cif.got.tgz:32816.got - 2010.04.16 14:36:59.
