data_PCOD8220304
_publ_section_title
;
Structure prediction by ZEFSAII (Michael W. Deem and Ramdas Pophale) SiO2 
 PCOD8220304
Probable space group: P M N A
;
_chemical_formula_sum "Si O2"
_cell_formula_units_Z 48
_cell_length_a 13.917332
_cell_length_b 13.518335
_cell_length_c 12.252248
_cell_angle_alpha 90.000000
_cell_angle_beta 90.000000
_cell_angle_gamma 90.000000
_cell_volume 2305.127601
_symmetry_space_group_name_H-M "P M N A"
_symmetry_group_IT_number 53
_symmetry_cell_setting 'orthorhombic'
loop_
_space_group_symop_operation_xyz
x,y,z
1/2-x,-y,1/2+z
x,-y,-z
1/2-x,y,1/2-z
-x,-y,-z
1/2+x,y,1/2-z
-x,y,z
1/2+x,-y,1/2+z
loop_
_atom_site_type_symbol
_atom_site_label
_atom_site_fract_x
_atom_site_fract_y
_atom_site_fract_z
Si Si1 0.389299 0.132670 0.315297
Si Si2 0.891542 0.915300 0.214451
Si Si3 0.104705 0.111452 0.535551
Si Si4 0.885747 0.659903 0.725348
Si Si5 0.775981 0.401206 0.069538
Si Si6 0.701030 0.200145 0.525701
O O1 0.500000 0.126293 0.288778
O O2 0.350278 0.226057 0.245137
O O3 0.372457 0.148721 0.443076
O O4 0.345198 0.025971 0.282819
O O5 0.893255 0.873581 0.335336
O O6 0.823581 0.842355 0.144841
O O7 0.000000 0.916431 0.165748
O O8 0.190184 0.175961 0.486342
O O9 0.000000 0.147235 0.490524
O O10 0.122106 0.000000 0.500000
O O11 0.830363 0.618738 0.619335
O O12 0.853580 0.596626 0.832010
O O13 0.000000 0.648963 0.709049
O O14 0.775985 0.500000 0.000000
O O15 0.807468 0.318145 0.981321
#
# Coordination Sequence:
#
# PCOD8220304 Si02
#       6
#     8   8   8   8   8   8
#     4   9  18  34  60  88 115 146 190 242 287 352
#     4  10  20  35  55  84 121 154 189 238 290 351
#     4  10  22  36  50  78 119 160 196 230 281 354
#     4   9  20  41  66  92 117 155 203 247 310 376
#     4  10  23  42  62  89 123 153 204 267 311 353
#     4  11  21  35  57  83 113 154 193 240 299 354
#
# _framework density 20.823142000000001
#
# number of rings (size 3 to 8) (size 9 to 14) (size 15 to 20)
#    0.000    2.167    0.000    2.500    2.333    3.333 
#    9.000    0.000    0.000    0.000    0.000    0.000 
#    0.000    0.000    0.000    0.000    0.000    0.000 
#
# Total GULP energy -594936.214393 kJ/mol
# GULP energy per Si atom -12394.504467 kJ/mol
# Density = 2.077575 g / cm^3
# Si number density = 20.823142 Si / 1000 Ang^3
#
#
#
# Elastic Constant Matrix: (Units=GPa)
#
#
# Indices 1 2 3 4 5 6 
#
# 1 89.6216 29.4330 14.3645 0.0000 0.0000 0.0000
# 2 29.4330 109.2302 41.9363 0.0000 0.0000 0.0000
# 3 14.3645 41.9363 71.0230 0.0000 0.0000 0.0000
# 4 0.0000 0.0000 0.0000 23.1453 0.0000 0.0000
# 5 0.0000 0.0000 0.0000 0.0000 23.9863 0.0000
# 6 0.0000 0.0000 0.0000 0.0000 0.0000 18.5565
#
#
#
# Elastic Compliance Matrix: (Units=1/GPa)
#
#
# Indices 1 2 3 4 5 6 
#
# 1 0.012267 -0.003043 -0.000684 0.000000 0.000000 0.000000
# 2 -0.003043 0.012593 -0.006821 0.000000 0.000000 0.000000
# 3 -0.000684 -0.006821 0.018246 0.000000 0.000000 0.000000
# 4 0.000000 0.000000 0.000000 0.043205 0.000000 0.000000
# 5 0.000000 0.000000 0.000000 0.000000 0.041690 0.000000
# 6 0.000000 0.000000 0.000000 0.000000 0.000000 0.053890
#
#
# Mechanical properties :
#
#
# Convention : Reuss Voigt Hill
#
# Bulk Modulus (GPa) = 45.43235 49.03806 47.23521
# Shear Modulus (GPa) = 23.77290 25.41369 24.59329
#
# Velocity S-wave (km/s) = 3.38251 3.49729 3.44038
# Velocity P-wave (km/s) = 6.09268 6.31735 6.20603
#
# Compressibility (1/GPa) = 0.02201075
#
# Stress axis : x y z
#
# Youngs Moduli (GPa) = 81.51963 79.40645 54.80756
#
# Poissons Ratio (x) = 0.24161 0.03751
# Poissons Ratio (y) = 0.24804 0.37382
# Poissons Ratio (z) = 0.05580 0.54160
#
# Static dielectric constant tensor:
#      x y z
#    x 4.055220 0.000000 0.000000 
#    y 0.000000 3.592460 0.000000 
#    z 0.000000 0.000000 3.506720 
# 
# 
# High freq. dielectric constant tensor:
#      x y z
#    x 1.829910 0.000000 0.000000 
#    y 0.000000 1.782590 0.000000 
#    z 0.000000 0.000000 1.813130 
# 
# From -- ./inp_files/15929.got.cif
#   From: 2010.03.12/outbox.cif.g09.slc.cpg/sg53_8_cif.got.tgz:15929.got - 2010.04.16 14:36:59.
