data_PCOD8220545
_publ_section_title
;
Structure prediction by ZEFSAII (Michael W. Deem and Ramdas Pophale) SiO2 
 PCOD8220545
Probable space group: P M N A
;
_chemical_formula_sum "Si O2"
_cell_formula_units_Z 64
_cell_length_a 8.847001
_cell_length_b 11.894573
_cell_length_c 31.200713
_cell_angle_alpha 90.000000
_cell_angle_beta 90.000000
_cell_angle_gamma 90.000000
_cell_volume 3283.291566
_symmetry_space_group_name_H-M "P M N A"
_symmetry_group_IT_number 53
_symmetry_cell_setting 'orthorhombic'
loop_
_space_group_symop_operation_xyz
x,y,z
1/2-x,-y,1/2+z
x,-y,-z
1/2-x,y,1/2-z
-x,-y,-z
1/2+x,y,1/2-z
-x,y,z
1/2+x,-y,1/2+z
loop_
_atom_site_type_symbol
_atom_site_label
_atom_site_fract_x
_atom_site_fract_y
_atom_site_fract_z
Si Si1 0.177173 0.485783 0.794184
Si Si2 0.823441 0.098734 0.628793
Si Si3 0.177845 0.227766 0.793924
Si Si4 0.829467 0.885236 0.977992
Si Si5 0.171601 0.250445 0.939323
Si Si6 0.821585 0.377427 0.123324
Si Si7 0.674015 0.152832 0.108540
Si Si8 0.679183 0.516975 0.049126
O O1 0.250000 0.530625 0.750000
O O2 0.222766 0.356854 0.802593
O O3 0.237614 0.555007 0.835068
O O4 0.000000 0.501166 0.788907
O O5 0.747112 0.151820 0.669709
O O6 0.748535 0.149537 0.586437
O O7 0.000000 0.126055 0.627902
O O8 0.791761 0.965848 0.630979
O O9 0.250000 0.185068 0.750000
O O10 0.000000 0.210904 0.792114
O O11 0.711667 0.855324 0.941485
O O12 0.000000 0.899775 0.959536
O O13 0.825180 0.782259 0.011013
O O14 0.775780 0.000000 0.000000
O O15 0.260665 0.365613 0.932256
O O16 0.000000 0.267085 0.922784
O O17 0.776632 0.247758 0.130763
O O18 0.744314 0.419495 0.079475
O O19 0.000000 0.390015 0.117909
O O20 0.500000 0.187311 0.113303
O O21 0.500000 0.515098 0.051883
O O22 0.734067 0.500000 0.000000
#
# Coordination Sequence:
#
# PCOD8220545 Si02
#       8
#     8   8   8   8   8   8   8   8
#     4   9  20  38  62  92 118 146 186 235 292 353
#     4  11  23  38  57  84 116 151 193 238 287 344
#     4  10  20  37  62  90 120 149 183 232 291 354
#     4  10  20  36  57  82 112 151 197 242 291 345
#     4  11  22  36  58  85 114 149 193 242 291 345
#     4  11  23  40  62  87 118 157 202 246 297 358
#     4  11  24  39  57  83 117 157 199 244 294 346
#     4  11  24  40  58  84 119 157 198 244 298 356
#
# _framework density 19.492632
#
# number of rings (size 3 to 8) (size 9 to 14) (size 15 to 20)
#    0.000    1.500    1.250    3.750    0.000    8.250 
#    0.000    0.625    0.000    1.500    0.000    0.000 
#    0.000    0.000    0.000    0.000    0.000    0.000 
#
# Total GULP energy -793919.612013 kJ/mol
# GULP energy per Si atom -12404.993938 kJ/mol
# Density = 1.944827 g / cm^3
# Si number density = 19.492632 Si / 1000 Ang^3
#
#
#
# Elastic Constant Matrix: (Units=GPa)
#
#
# Indices 1 2 3 4 5 6 
#
# 1 84.9170 42.4112 46.1470 0.0000 0.0000 0.0000
# 2 42.4112 98.2731 43.4817 0.0000 0.0000 0.0000
# 3 46.1470 43.4817 110.1458 0.0000 0.0000 0.0000
# 4 0.0000 0.0000 0.0000 32.7110 0.0000 0.0000
# 5 0.0000 0.0000 0.0000 0.0000 33.6360 0.0000
# 6 0.0000 0.0000 0.0000 0.0000 0.0000 31.1223
#
#
#
# Elastic Compliance Matrix: (Units=1/GPa)
#
#
# Indices 1 2 3 4 5 6 
#
# 1 0.017133 -0.005111 -0.005161 0.000000 0.000000 0.000000
# 2 -0.005111 0.013854 -0.003328 0.000000 0.000000 0.000000
# 3 -0.005161 -0.003328 0.012555 0.000000 0.000000 0.000000
# 4 0.000000 0.000000 0.000000 0.030571 0.000000 0.000000
# 5 0.000000 0.000000 0.000000 0.000000 0.029730 0.000000
# 6 0.000000 0.000000 0.000000 0.000000 0.000000 0.032131
#
#
# Mechanical properties :
#
#
# Convention : Reuss Voigt Hill
#
# Bulk Modulus (GPa) = 61.18696 61.93508 61.56102
# Shear Modulus (GPa) = 29.65252 30.24693 29.94973
#
# Velocity S-wave (km/s) = 3.90451 3.94345 3.92403
# Velocity P-wave (km/s) = 7.19617 7.25100 7.22364
#
# Compressibility (1/GPa) = 0.01634335
#
# Stress axis : x y z
#
# Youngs Moduli (GPa) = 58.36625 72.18280 79.65159
#
# Poissons Ratio (x) = 0.36891 0.41105
# Poissons Ratio (y) = 0.29829 0.26506
# Poissons Ratio (z) = 0.30121 0.24021
#
# Static dielectric constant tensor:
#      x y z
#    x 3.618520 0.000000 0.000000 
#    y 0.000000 3.798670 0.000000 
#    z 0.000000 0.000000 3.576520 
# 
# 
# High freq. dielectric constant tensor:
#      x y z
#    x 1.766950 0.000000 0.000000 
#    y 0.000000 1.763200 0.000000 
#    z 0.000000 0.000000 1.753750 
# 
# From -- ./inp_files/38244.got.cif
#   From: 2010.03.12/outbox.cif.g09.slc.cpg/sg53_20_cif.got.tgz:38244.got - 2010.04.16 14:36:59.
