data_PCOD8220677
_publ_section_title
;
Structure prediction by ZEFSAII (Michael W. Deem and Ramdas Pophale) SiO2 
 PCOD8220677
Probable space group: P M N A
;
_chemical_formula_sum "Si O2"
_cell_formula_units_Z 48
_cell_length_a 8.664511
_cell_length_b 12.606190
_cell_length_c 23.378454
_cell_angle_alpha 90.000000
_cell_angle_beta 90.000000
_cell_angle_gamma 90.000000
_cell_volume 2553.546049
_symmetry_space_group_name_H-M "P M N A"
_symmetry_group_IT_number 53
_symmetry_cell_setting 'orthorhombic'
loop_
_space_group_symop_operation_xyz
x,y,z
1/2-x,-y,1/2+z
x,-y,-z
1/2-x,y,1/2-z
-x,-y,-z
1/2+x,y,1/2-z
-x,y,z
1/2+x,-y,1/2+z
loop_
_atom_site_type_symbol
_atom_site_label
_atom_site_fract_x
_atom_site_fract_y
_atom_site_fract_z
Si Si1 0.819041 0.189536 0.391534
Si Si2 0.181643 0.205464 0.621122
Si Si3 0.181789 0.999827 0.311704
Si Si4 0.318949 0.617995 0.809877
Si Si5 0.182047 0.391722 0.810795
Si Si6 0.180582 0.122273 0.993660
O O1 0.781433 0.298840 0.359547
O O2 0.722289 0.187696 0.449660
O O3 0.000000 0.178026 0.405242
O O4 0.758713 0.092865 0.352809
O O5 0.238466 0.111804 0.662970
O O6 0.268378 0.311924 0.639405
O O7 0.224286 0.176390 0.556764
O O8 0.000000 0.223793 0.625669
O O9 0.250000 0.018892 0.250000
O O10 0.000000 0.004322 0.306760
O O11 0.250000 0.659884 0.750000
O O12 0.500000 0.601596 0.801362
O O13 0.243453 0.507218 0.828001
O O14 0.250000 0.353934 0.750000
O O15 0.000000 0.395025 0.805385
O O16 0.000000 0.130828 0.980488
O O17 0.232960 0.000000 0.000000
#
# Coordination Sequence:
#
# PCOD8220677 Si02
#       6
#     8   8   8   8   8   8
#     4  10  21  38  58  83 114 152 193 234 283 343
#     4  11  22  38  60  83 114 153 194 238 287 343
#     4  10  21  34  53  82 114 147 182 228 284 338
#     4  10  20  36  60  87 117 152 193 235 286 343
#     4  11  22  38  60  86 119 153 193 238 288 344
#     4  11  23  38  58  85 115 153 195 238 286 341
#
# _framework density 18.797391000000001
#
# number of rings (size 3 to 8) (size 9 to 14) (size 15 to 20)
#    0.000    1.500    1.667    5.000    0.000    5.333 
#    0.000    0.833    0.000    5.000    0.000    0.000 
#    0.000    0.000    0.000    0.000    0.000    0.000 
#
# Total GULP energy -595469.651601 kJ/mol
# GULP energy per Si atom -12405.617742 kJ/mol
# Density = 1.875461 g / cm^3
# Si number density = 18.797391 Si / 1000 Ang^3
#
#
#
# Elastic Constant Matrix: (Units=GPa)
#
#
# Indices 1 2 3 4 5 6 
#
# 1 83.4782 46.3312 29.9932 0.0000 0.0000 0.0000
# 2 46.3312 103.4752 44.0264 0.0000 0.0000 0.0000
# 3 29.9932 44.0264 91.6944 0.0000 0.0000 0.0000
# 4 0.0000 0.0000 0.0000 32.5831 0.0000 0.0000
# 5 0.0000 0.0000 0.0000 0.0000 36.8707 0.0000
# 6 0.0000 0.0000 0.0000 0.0000 0.0000 20.5409
#
#
#
# Elastic Compliance Matrix: (Units=1/GPa)
#
#
# Indices 1 2 3 4 5 6 
#
# 1 0.016317 -0.006328 -0.002299 0.000000 0.000000 0.000000
# 2 -0.006328 0.014599 -0.004940 0.000000 0.000000 0.000000
# 3 -0.002299 -0.004940 0.014030 0.000000 0.000000 0.000000
# 4 0.000000 0.000000 0.000000 0.030691 0.000000 0.000000
# 5 0.000000 0.000000 0.000000 0.000000 0.027122 0.000000
# 6 0.000000 0.000000 0.000000 0.000000 0.000000 0.048683
#
#
# Mechanical properties :
#
#
# Convention : Reuss Voigt Hill
#
# Bulk Modulus (GPa) = 56.14032 57.70550 56.92291
# Shear Modulus (GPa) = 27.09830 28.55206 27.82518
#
# Velocity S-wave (km/s) = 3.80096 3.90158 3.85160
# Velocity P-wave (km/s) = 7.01384 7.14575 7.08010
#
# Compressibility (1/GPa) = 0.01781251
#
# Stress axis : x y z
#
# Youngs Moduli (GPa) = 61.28490 68.49656 71.27747
#
# Poissons Ratio (x) = 0.43344 0.16387
# Poissons Ratio (y) = 0.38780 0.35210
# Poissons Ratio (z) = 0.14090 0.33837
#
# Static dielectric constant tensor:
#      x y z
#    x 3.450930 0.000000 0.000000 
#    y 0.000000 3.547560 0.000000 
#    z 0.000000 0.000000 3.282410 
# 
# 
# High freq. dielectric constant tensor:
#      x y z
#    x 1.737270 0.000000 0.000000 
#    y 0.000000 1.733240 0.000000 
#    z 0.000000 0.000000 1.730520 
# 
# From -- ./inp_files/33878.got.cif
#   From: 2010.03.12/outbox.cif.g09.slc.cpg/sg53_17_cif.got.tgz:33878.got - 2010.04.16 14:36:59.
