data_PCOD8220735
_publ_section_title
;
Structure prediction by ZEFSAII (Michael W. Deem and Ramdas Pophale) SiO2 
 PCOD8220735
Probable space group: P M N A
;
_chemical_formula_sum "Si O2"
_cell_formula_units_Z 64
_cell_length_a 8.701013
_cell_length_b 11.938760
_cell_length_c 31.494260
_cell_angle_alpha 90.000000
_cell_angle_beta 90.000000
_cell_angle_gamma 90.000000
_cell_volume 3271.601871
_symmetry_space_group_name_H-M "P M N A"
_symmetry_group_IT_number 53
_symmetry_cell_setting 'orthorhombic'
loop_
_space_group_symop_operation_xyz
x,y,z
1/2-x,-y,1/2+z
x,-y,-z
1/2-x,y,1/2-z
-x,-y,-z
1/2+x,y,1/2-z
-x,y,z
1/2+x,-y,1/2+z
loop_
_atom_site_type_symbol
_atom_site_label
_atom_site_fract_x
_atom_site_fract_y
_atom_site_fract_z
Si Si1 0.318708 0.510787 0.548524
Si Si2 0.818565 0.885485 0.482459
Si Si3 0.319911 0.377875 0.875939
Si Si4 0.319771 0.743420 0.940200
Si Si5 0.321848 0.491713 0.205701
Si Si6 0.180039 0.230958 0.294332
Si Si7 0.179724 0.127628 0.612154
Si Si8 0.320306 0.100569 0.370630
O O1 0.253978 0.500000 0.500000
O O2 0.500000 0.502714 0.547892
O O3 0.256162 0.414101 0.579515
O O4 0.267938 0.628541 0.569265
O O5 0.774364 0.781261 0.512319
O O6 0.756179 0.862055 0.435722
O O7 0.000000 0.899735 0.481618
O O8 0.743072 0.000000 0.500000
O O9 0.500000 0.401309 0.881342
O O10 0.251749 0.443915 0.835160
O O11 0.286996 0.247201 0.866259
O O12 0.500000 0.721989 0.934299
O O13 0.271404 0.843355 0.909174
O O14 0.250000 0.533962 0.250000
O O15 0.500000 0.518825 0.209195
O O16 0.288711 0.361597 0.198131
O O17 0.250000 0.191924 0.250000
O O18 0.277137 0.163990 0.328189
O O19 0.000000 0.202142 0.297094
O O20 0.000000 0.097534 0.613446
O O21 0.272147 0.028997 0.635331
O O22 0.500000 0.110295 0.379447
#
# Coordination Sequence:
#
# PCOD8220735 Si02
#       8
#     8   8   8   8   8   8   8   8
#     4  11  24  39  55  82 122 158 191 237 296 357
#     4   9  16  30  53  79 105 140 192 242 285 330
#     4  10  21  38  61  86 113 153 204 245 288 348
#     4  11  21  36  60  84 110 147 195 244 287 338
#     4   9  19  36  60  90 116 142 182 233 288 348
#     4  10  20  37  61  87 116 147 182 231 288 346
#     4  10  20  37  58  80 111 153 199 246 286 334
#     4  12  24  37  55  84 118 150 188 232 288 350
#
# _framework density 19.562282
#
# number of rings (size 3 to 8) (size 9 to 14) (size 15 to 20)
#    0.000    1.750    1.250    3.750    0.000    4.500 
#    0.000    2.500    0.000    1.500    0.000    0.000 
#    0.000    0.000    0.000    0.000    0.000    0.000 
#
# Total GULP energy -793670.607128 kJ/mol
# GULP energy per Si atom -12401.103236 kJ/mol
# Density = 1.951776 g / cm^3
# Si number density = 19.562282 Si / 1000 Ang^3
#
#
#
# Elastic Constant Matrix: (Units=GPa)
#
#
# Indices 1 2 3 4 5 6 
#
# 1 43.6700 27.7209 30.4547 0.0000 0.0000 0.0000
# 2 27.7209 88.0587 37.4376 0.0000 0.0000 0.0000
# 3 30.4547 37.4376 120.8878 0.0000 0.0000 0.0000
# 4 0.0000 0.0000 0.0000 24.6807 0.0000 0.0000
# 5 0.0000 0.0000 0.0000 0.0000 29.6041 0.0000
# 6 0.0000 0.0000 0.0000 0.0000 0.0000 20.2237
#
#
#
# Elastic Compliance Matrix: (Units=1/GPa)
#
#
# Indices 1 2 3 4 5 6 
#
# 1 0.031622 -0.007564 -0.005624 0.000000 0.000000 0.000000
# 2 -0.007564 0.014887 -0.002705 0.000000 0.000000 0.000000
# 3 -0.005624 -0.002705 0.010527 0.000000 0.000000 0.000000
# 4 0.000000 0.000000 0.000000 0.040517 0.000000 0.000000
# 5 0.000000 0.000000 0.000000 0.000000 0.033779 0.000000
# 6 0.000000 0.000000 0.000000 0.000000 0.000000 0.049447
#
#
# Mechanical properties :
#
#
# Convention : Reuss Voigt Hill
#
# Bulk Modulus (GPa) = 39.60267 49.31588 44.45927
# Shear Modulus (GPa) = 22.62629 25.36860 23.99745
#
# Velocity S-wave (km/s) = 3.40461 3.60503 3.50626
# Velocity P-wave (km/s) = 5.97859 6.52631 6.25845
#
# Compressibility (1/GPa) = 0.02525082
#
# Stress axis : x y z
#
# Youngs Moduli (GPa) = 31.62314 67.17239 94.99693
#
# Poissons Ratio (x) = 0.50807 0.53427
# Poissons Ratio (y) = 0.23919 0.25696
# Poissons Ratio (z) = 0.17785 0.18169
#
# Static dielectric constant tensor:
#      x y z
#    x 3.361150 0.000000 0.000000 
#    y 0.000000 3.603750 0.000000 
#    z 0.000000 0.000000 2.920580 
# 
# 
# High freq. dielectric constant tensor:
#      x y z
#    x 1.745520 0.000000 0.000000 
#    y 0.000000 1.765210 0.000000 
#    z 0.000000 0.000000 1.761910 
# 
# From -- ./inp_files/38227.got.cif
#   From: 2010.03.12/outbox.cif.g09.slc.cpg/sg53_20_cif.got.tgz:38227.got - 2010.04.16 14:36:59.
