data_PCOD8220264
_publ_section_title
;
Structure prediction by ZEFSAII (Michael W. Deem and Ramdas Pophale) SiO2 
 PCOD8220264
Probable space group: P M N A
;
_chemical_formula_sum "Si O2"
_cell_formula_units_Z 48
_cell_length_a 8.898971
_cell_length_b 30.542014
_cell_length_c 9.490277
_cell_angle_alpha 90.000000
_cell_angle_beta 90.000000
_cell_angle_gamma 90.000000
_cell_volume 2579.386082
_symmetry_space_group_name_H-M "P M N A"
_symmetry_group_IT_number 53
_symmetry_cell_setting 'orthorhombic'
loop_
_space_group_symop_operation_xyz
x,y,z
1/2-x,-y,1/2+z
x,-y,-z
1/2-x,y,1/2-z
-x,-y,-z
1/2+x,y,1/2-z
-x,y,z
1/2+x,-y,1/2+z
loop_
_atom_site_type_symbol
_atom_site_label
_atom_site_fract_x
_atom_site_fract_y
_atom_site_fract_z
Si Si1 0.677753 0.381320 0.602676
Si Si2 0.176657 0.134920 0.601445
Si Si3 0.823499 0.963231 0.396612
Si Si4 0.176204 0.539318 0.902507
Si Si5 0.178019 0.710186 0.396981
Si Si6 0.176292 0.210984 0.400819
O O1 0.750000 0.397235 0.750000
O O2 0.500000 0.376050 0.624549
O O3 0.716739 0.415541 0.480330
O O4 0.750099 0.335589 0.554430
O O5 0.250000 0.146678 0.750000
O O6 0.219600 0.085727 0.551884
O O7 0.237565 0.168424 0.484028
O O8 0.000000 0.140485 0.622394
O O9 0.750000 0.974003 0.250000
O O10 0.000000 0.967982 0.379588
O O11 0.757880 0.000000 0.500000
O O12 0.250000 0.538164 0.750000
O O13 0.000000 0.533822 0.879764
O O14 0.238280 0.500000 0.000000
O O15 0.250000 0.725666 0.250000
O O16 0.220597 0.745615 0.514056
O O17 0.000000 0.704972 0.377907
O O18 0.250000 0.213241 0.250000
O O19 0.000000 0.207344 0.379734
#
# Coordination Sequence:
#
# PCOD8220264 Si02
#       6
#     8   8   8   8   8   8
#     4  10  20  35  56  81 107 136 172 211 253 302
#     4   9  18  34  53  73  98 130 169 208 249 299
#     4   9  18  32  50  73 101 131 164 205 250 298
#     4  10  22  38  56  80 108 139 175 213 255 303
#     4  10  20  35  55  78 103 134 172 210 252 302
#     4  10  22  36  51  74 103 134 168 209 255 301
#
# _framework density 18.609079999999999
#
# number of rings (size 3 to 8) (size 9 to 14) (size 15 to 20)
#    0.000    2.333    0.000    3.000    0.000    5.333 
#    0.000    3.333    0.000    0.000    0.000    0.000 
#    0.000    0.000    0.000    0.000    0.000    0.000 
#
# Total GULP energy -595213.078974 kJ/mol
# GULP energy per Si atom -12400.272479 kJ/mol
# Density = 1.856673 g / cm^3
# Si number density = 18.609080 Si / 1000 Ang^3
#
#
#
# Elastic Constant Matrix: (Units=GPa)
#
#
# Indices 1 2 3 4 5 6 
#
# 1 55.1954 54.8399 57.1636 0.0000 0.0000 0.0000
# 2 54.8399 154.8414 118.9287 0.0000 0.0000 0.0000
# 3 57.1636 118.9287 171.3370 0.0000 0.0000 0.0000
# 4 0.0000 0.0000 0.0000 38.8062 0.0000 0.0000
# 5 0.0000 0.0000 0.0000 0.0000 36.1684 0.0000
# 6 0.0000 0.0000 0.0000 0.0000 0.0000 16.0339
#
#
#
# Elastic Compliance Matrix: (Units=1/GPa)
#
#
# Indices 1 2 3 4 5 6 
#
# 1 0.030355 -0.006366 -0.005708 0.000000 0.000000 0.000000
# 2 -0.006366 0.015168 -0.008405 0.000000 0.000000 0.000000
# 3 -0.005708 -0.008405 0.013575 0.000000 0.000000 0.000000
# 4 0.000000 0.000000 0.000000 0.025769 0.000000 0.000000
# 5 0.000000 0.000000 0.000000 0.000000 0.027648 0.000000
# 6 0.000000 0.000000 0.000000 0.000000 0.000000 0.062368
#
#
# Mechanical properties :
#
#
# Convention : Reuss Voigt Hill
#
# Bulk Modulus (GPa) = 55.12921 93.69312 74.41117
# Shear Modulus (GPa) = 22.53390 28.23114 25.38252
#
# Velocity S-wave (km/s) = 3.48359 3.89917 3.69722
# Velocity P-wave (km/s) = 6.77272 8.41004 7.63539
#
# Compressibility (1/GPa) = 0.01813920
#
# Stress axis : x y z
#
# Youngs Moduli (GPa) = 32.94397 65.92707 73.66597
#
# Poissons Ratio (x) = 0.41971 0.42051
# Poissons Ratio (y) = 0.20973 0.61914
# Poissons Ratio (z) = 0.18806 0.55409
#
# Static dielectric constant tensor:
#      x y z
#    x 3.373950 0.000000 0.000000 
#    y 0.000000 3.743700 0.000000 
#    z 0.000000 0.000000 3.526710 
# 
# 
# High freq. dielectric constant tensor:
#      x y z
#    x 1.719700 0.000000 0.000000 
#    y 0.000000 1.739140 0.000000 
#    z 0.000000 0.000000 1.719190 
# 
# From -- ./inp_files/6758.got.cif
#   From: 2010.03.12/outbox.cif.g09.slc.cpg/sg53_4_cif.got.tgz:6758.got - 2010.04.16 14:36:59.
