data_PCOD8220053
_publ_section_title
;
Structure prediction by ZEFSAII (Michael W. Deem and Ramdas Pophale) SiO2 
 PCOD8220053
Probable space group: P M N A
;
_chemical_formula_sum "Si O2"
_cell_formula_units_Z 32
_cell_length_a 17.654723
_cell_length_b 7.078530
_cell_length_c 12.096612
_cell_angle_alpha 90.000000
_cell_angle_beta 90.000000
_cell_angle_gamma 90.000000
_cell_volume 1511.707389
_symmetry_space_group_name_H-M "P M N A"
_symmetry_group_IT_number 53
_symmetry_cell_setting 'orthorhombic'
loop_
_space_group_symop_operation_xyz
x,y,z
1/2-x,-y,1/2+z
x,-y,-z
1/2-x,y,1/2-z
-x,-y,-z
1/2+x,y,1/2-z
-x,y,z
1/2+x,-y,1/2+z
loop_
_atom_site_type_symbol
_atom_site_label
_atom_site_fract_x
_atom_site_fract_y
_atom_site_fract_z
Si Si1 0.169761 0.711784 0.727317
Si Si2 0.587477 0.657030 0.203667
Si Si3 0.704811 0.716897 0.013037
Si Si4 0.185578 0.904333 0.164020
O O1 0.250000 0.604330 0.750000
O O2 0.101973 0.562856 0.733892
O O3 0.174888 0.802516 0.603700
O O4 0.161979 0.875772 0.819921
O O5 0.500000 0.685968 0.176682
O O6 0.634205 0.724089 0.096805
O O7 0.610757 0.781133 0.310257
O O8 0.777928 0.844711 0.046308
O O9 0.731603 0.500000 0.000000
O O10 0.250000 0.844639 0.250000
#
# Coordination Sequence:
#
# PCOD8220053 Si02
#       4
#     8   8   8   8
#     4  10  20  34  56  81 107 143 187 231 273 321
#     4  10  20  34  53  82 118 147 175 220 278 335
#     4   9  18  35  58  82 110 146 186 228 277 329
#     4   9  19  34  53  80 108 140 184 227 268 320
#
# _framework density 21.168119000000001
#
# number of rings (size 3 to 8) (size 9 to 14) (size 15 to 20)
#    0.000    2.500    0.000    3.750    0.000   14.500 
#    0.000    1.250    0.000    6.750    0.000   22.750 
#    0.000    0.000    0.000    0.000    0.000    0.000 
#
# Total GULP energy -396539.603759 kJ/mol
# GULP energy per Si atom -12391.862617 kJ/mol
# Density = 2.111994 g / cm^3
# Si number density = 21.168119 Si / 1000 Ang^3
#
#
#
# Elastic Constant Matrix: (Units=GPa)
#
#
# Indices 1 2 3 4 5 6 
#
# 1 105.9992 30.8247 27.8356 0.0000 0.0000 0.0000
# 2 30.8247 100.5039 25.7719 0.0000 0.0000 0.0000
# 3 27.8356 25.7719 36.1478 0.0000 0.0000 0.0000
# 4 0.0000 0.0000 0.0000 27.1481 0.0000 0.0000
# 5 0.0000 0.0000 0.0000 0.0000 16.6918 0.0000
# 6 0.0000 0.0000 0.0000 0.0000 0.0000 19.1225
#
#
#
# Elastic Compliance Matrix: (Units=1/GPa)
#
#
# Indices 1 2 3 4 5 6 
#
# 1 0.012034 -0.001609 -0.008120 0.000000 0.000000 0.000000
# 2 -0.001609 0.012391 -0.007595 0.000000 0.000000 0.000000
# 3 -0.008120 -0.007595 0.039332 0.000000 0.000000 0.000000
# 4 0.000000 0.000000 0.000000 0.036835 0.000000 0.000000
# 5 0.000000 0.000000 0.000000 0.000000 0.059910 0.000000
# 6 0.000000 0.000000 0.000000 0.000000 0.000000 0.052294
#
#
# Mechanical properties :
#
#
# Convention : Reuss Voigt Hill
#
# Bulk Modulus (GPa) = 34.35357 45.72392 40.03874
# Shear Modulus (GPa) = 19.44409 23.14039 21.29224
#
# Velocity S-wave (km/s) = 3.03406 3.30990 3.17498
# Velocity P-wave (km/s) = 5.34211 6.02117 5.69178
#
# Compressibility (1/GPa) = 0.02910906
#
# Stress axis : x y z
#
# Youngs Moduli (GPa) = 83.09673 80.70419 25.42450
#
# Poissons Ratio (x) = 0.12983 0.20645
# Poissons Ratio (y) = 0.13368 0.19311
# Poissons Ratio (z) = 0.67474 0.61298
#
# Static dielectric constant tensor:
#      x y z
#    x 3.401100 0.000000 0.000000 
#    y 0.000000 3.800440 0.000000 
#    z 0.000000 0.000000 4.084140 
# 
# 
# High freq. dielectric constant tensor:
#      x y z
#    x 1.777830 0.000000 0.000000 
#    y 0.000000 1.841420 0.000000 
#    z 0.000000 0.000000 1.825320 
# 
# From -- ./inp_files/15430.got.cif
#   From: 2010.03.12/outbox.cif.g09.slc.cpg/sg53_8_cif.got.tgz:15430.got - 2010.04.16 14:36:59.
