data_PCOD8220389
_publ_section_title
;
Structure prediction by ZEFSAII (Michael W. Deem and Ramdas Pophale) SiO2 
 PCOD8220389
Probable space group: P M N A
;
_chemical_formula_sum "Si O2"
_cell_formula_units_Z 64
_cell_length_a 8.752433
_cell_length_b 19.716140
_cell_length_c 19.058631
_cell_angle_alpha 90.000000
_cell_angle_beta 90.000000
_cell_angle_gamma 90.000000
_cell_volume 3288.837304
_symmetry_space_group_name_H-M "P M N A"
_symmetry_group_IT_number 53
_symmetry_cell_setting 'orthorhombic'
loop_
_space_group_symop_operation_xyz
x,y,z
1/2-x,-y,1/2+z
x,-y,-z
1/2-x,y,1/2-z
-x,-y,-z
1/2+x,y,1/2-z
-x,y,z
1/2+x,-y,1/2+z
loop_
_atom_site_type_symbol
_atom_site_label
_atom_site_fract_x
_atom_site_fract_y
_atom_site_fract_z
Si Si1 0.821004 0.160734 0.413202
Si Si2 0.680606 0.883322 0.176773
Si Si3 0.321977 0.725670 0.676833
Si Si4 0.178057 0.036113 0.321881
Si Si5 0.676674 0.592690 0.587484
Si Si6 0.680532 0.793097 0.443802
Si Si7 0.318905 0.639627 0.440939
Si Si8 0.180930 0.533696 0.173371
O O1 0.772095 0.210627 0.351130
O O2 0.781506 0.084774 0.387063
O O3 0.722151 0.174933 0.481661
O O4 0.000000 0.169190 0.429910
O O5 0.750000 0.857709 0.250000
O O6 0.500000 0.878347 0.180896
O O7 0.739484 0.835506 0.116110
O O8 0.736393 0.960193 0.160711
O O9 0.250000 0.703024 0.750000
O O10 0.500000 0.744275 0.684637
O O11 0.297055 0.664011 0.624364
O O12 0.250000 0.064023 0.250000
O O13 0.000000 0.035611 0.307891
O O14 0.500000 0.573939 0.580588
O O15 0.747723 0.599687 0.509184
O O16 0.751193 0.531782 0.632721
O O17 0.500000 0.795839 0.433645
O O18 0.744210 0.716272 0.438596
O O19 0.500000 0.642768 0.449459
O O20 0.270567 0.600350 0.370507
O O21 0.250000 0.539606 0.250000
O O22 0.000000 0.527823 0.181143
#
# Coordination Sequence:
#
# PCOD8220389 Si02
#       8
#     8   8   8   8   8   8   8   8
#     4  11  22  37  56  82 114 151 191 233 283 337
#     4  10  21  40  62  85 112 146 189 236 285 337
#     4  11  21  34  53  81 115 150 187 230 277 332
#     4   9  20  37  58  82 112 148 189 235 282 335
#     4   9  17  33  57  82 107 143 187 230 274 328
#     4  11  22  38  59  85 116 149 189 236 284 339
#     4   9  18  35  58  82 107 144 191 233 274 329
#     4  10  20  35  58  83 110 143 184 231 280 333
#
# _framework density 19.459764
#
# number of rings (size 3 to 8) (size 9 to 14) (size 15 to 20)
#    0.000    2.000    1.250    2.625    0.000    5.000 
#    0.000    5.625    0.000    0.750    0.000    0.000 
#    0.000    0.000    0.000    0.000    0.000    0.000 
#
# Total GULP energy -793621.924773 kJ/mol
# GULP energy per Si atom -12400.342575 kJ/mol
# Density = 1.941547 g / cm^3
# Si number density = 19.459764 Si / 1000 Ang^3
#
#
#
# Elastic Constant Matrix: (Units=GPa)
#
#
# Indices 1 2 3 4 5 6 
#
# 1 37.2843 27.3966 24.2275 0.0000 0.0000 0.0000
# 2 27.3966 110.3589 70.6132 0.0000 0.0000 0.0000
# 3 24.2275 70.6132 128.6433 0.0000 0.0000 0.0000
# 4 0.0000 0.0000 0.0000 26.2535 0.0000 0.0000
# 5 0.0000 0.0000 0.0000 0.0000 36.8871 0.0000
# 6 0.0000 0.0000 0.0000 0.0000 0.0000 62.8529
#
#
#
# Elastic Compliance Matrix: (Units=1/GPa)
#
#
# Indices 1 2 3 4 5 6 
#
# 1 0.033394 -0.006575 -0.002680 0.000000 0.000000 0.000000
# 2 -0.006575 0.015261 -0.007139 0.000000 0.000000 0.000000
# 3 -0.002680 -0.007139 0.012197 0.000000 0.000000 0.000000
# 4 0.000000 0.000000 0.000000 0.038090 0.000000 0.000000
# 5 0.000000 0.000000 0.000000 0.000000 0.027110 0.000000
# 6 0.000000 0.000000 0.000000 0.000000 0.000000 0.015910
#
#
# Mechanical properties :
#
#
# Convention : Reuss Voigt Hill
#
# Bulk Modulus (GPa) = 35.63277 57.86236 46.74756
# Shear Modulus (GPa) = 27.15848 35.46865 31.31357
#
# Velocity S-wave (km/s) = 3.73986 4.27390 4.01577
# Velocity P-wave (km/s) = 6.08272 7.35893 6.75105
#
# Compressibility (1/GPa) = 0.02806406
#
# Stress axis : x y z
#
# Youngs Moduli (GPa) = 29.94560 65.52476 81.98970
#
# Poissons Ratio (x) = 0.43085 0.21972
# Poissons Ratio (y) = 0.19690 0.58530
# Poissons Ratio (z) = 0.08025 0.46777
#
# Static dielectric constant tensor:
#      x y z
#    x 3.343380 0.000000 0.000000 
#    y 0.000000 3.836370 0.000000 
#    z 0.000000 0.000000 3.531200 
# 
# 
# High freq. dielectric constant tensor:
#      x y z
#    x 1.733590 0.000000 0.000000 
#    y 0.000000 1.767880 0.000000 
#    z 0.000000 0.000000 1.767670 
# 
# From -- ./inp_files/27019.got.cif
#   From: 2010.03.12/outbox.cif.g09.slc.cpg/sg53_14_cif.got.tgz:27019.got - 2010.04.16 14:36:59.
