data_PCOD8220750
_publ_section_title
;
Structure prediction by ZEFSAII (Michael W. Deem and Ramdas Pophale) SiO2 
 PCOD8220750
Probable space group: P M N A
;
_chemical_formula_sum "Si O2"
_cell_formula_units_Z 48
_cell_length_a 8.723419
_cell_length_b 29.772444
_cell_length_c 9.543014
_cell_angle_alpha 90.000000
_cell_angle_beta 90.000000
_cell_angle_gamma 90.000000
_cell_volume 2478.487774
_symmetry_space_group_name_H-M "P M N A"
_symmetry_group_IT_number 53
_symmetry_cell_setting 'orthorhombic'
loop_
_space_group_symop_operation_xyz
x,y,z
1/2-x,-y,1/2+z
x,-y,-z
1/2-x,y,1/2-z
-x,-y,-z
1/2+x,y,1/2-z
-x,y,z
1/2+x,-y,1/2+z
loop_
_atom_site_type_symbol
_atom_site_label
_atom_site_fract_x
_atom_site_fract_y
_atom_site_fract_z
Si Si1 0.679760 0.462713 0.103053
Si Si2 0.678006 0.888936 0.896577
Si Si3 0.180663 0.041472 0.902813
Si Si4 0.818905 0.361164 0.400974
Si Si5 0.681807 0.713323 0.403663
Si Si6 0.678669 0.215957 0.103490
O O1 0.750000 0.474686 0.250000
O O2 0.500000 0.468049 0.115491
O O3 0.722591 0.412222 0.055813
O O4 0.749941 0.500000 0.000000
O O5 0.750000 0.905497 0.750000
O O6 0.500000 0.900955 0.892089
O O7 0.708259 0.836505 0.919662
O O8 0.755877 0.913271 0.027556
O O9 0.250000 0.034356 0.750000
O O10 0.000000 0.045479 0.888303
O O11 0.230666 0.000000 0.000000
O O12 0.750000 0.349128 0.250000
O O13 0.741577 0.330280 0.516298
O O14 0.000000 0.352616 0.396444
O O15 0.750000 0.712738 0.250000
O O16 0.500000 0.712564 0.396453
O O17 0.737059 0.758640 0.478622
O O18 0.750000 0.232231 0.250000
O O19 0.500000 0.228181 0.103631
#
# Coordination Sequence:
#
# PCOD8220750 Si02
#       6
#     8   8   8   8   8   8
#     4   9  19  35  55  81 111 144 183 226 273 327
#     4  10  21  38  62  89 118 151 189 234 281 334
#     4  11  24  40  60  86 117 154 194 237 285 337
#     4  10  20  37  59  82 111 147 188 231 276 331
#     4  12  25  40  58  82 113 148 187 233 284 335
#     4  10  21  39  62  88 116 150 190 230 278 335
#
# _framework density 19.366648000000001
#
# number of rings (size 3 to 8) (size 9 to 14) (size 15 to 20)
#    0.000    1.667    0.000    4.500    0.000    7.000 
#    0.000    1.667    0.000    0.000    0.000    0.000 
#    0.000    0.000    0.000    0.000    0.000    0.000 
#
# Total GULP energy -595410.698324 kJ/mol
# GULP energy per Si atom -12404.389548 kJ/mol
# Density = 1.932257 g / cm^3
# Si number density = 19.366648 Si / 1000 Ang^3
#
#
#
# Elastic Constant Matrix: (Units=GPa)
#
#
# Indices 1 2 3 4 5 6 
#
# 1 117.1192 58.5912 85.6393 0.0000 0.0000 0.0000
# 2 58.5912 104.2897 87.6200 0.0000 0.0000 0.0000
# 3 85.6393 87.6200 174.7191 0.0000 0.0000 0.0000
# 4 0.0000 0.0000 0.0000 51.7277 0.0000 0.0000
# 5 0.0000 0.0000 0.0000 0.0000 40.6955 0.0000
# 6 0.0000 0.0000 0.0000 0.0000 0.0000 26.9073
#
#
#
# Elastic Compliance Matrix: (Units=1/GPa)
#
#
# Indices 1 2 3 4 5 6 
#
# 1 0.014067 -0.003647 -0.005066 0.000000 0.000000 0.000000
# 2 -0.003647 0.017516 -0.006997 0.000000 0.000000 0.000000
# 3 -0.005066 -0.006997 0.011715 0.000000 0.000000 0.000000
# 4 0.000000 0.000000 0.000000 0.019332 0.000000 0.000000
# 5 0.000000 0.000000 0.000000 0.000000 0.024573 0.000000
# 6 0.000000 0.000000 0.000000 0.000000 0.000000 0.037165
#
#
# Mechanical properties :
#
#
# Convention : Reuss Voigt Hill
#
# Bulk Modulus (GPa) = 84.17993 95.53655 89.85824
# Shear Modulus (GPa) = 31.29968 34.81796 33.05882
#
# Velocity S-wave (km/s) = 4.02452 4.24468 4.13606
# Velocity P-wave (km/s) = 8.07195 8.57092 8.32518
#
# Compressibility (1/GPa) = 0.01187932
#
# Stress axis : x y z
#
# Youngs Moduli (GPa) = 71.08748 57.09223 85.35728
#
# Poissons Ratio (x) = 0.20819 0.43245
# Poissons Ratio (y) = 0.25922 0.59720
# Poissons Ratio (z) = 0.36016 0.39945
#
# Static dielectric constant tensor:
#      x y z
#    x 3.668950 0.000000 0.000000 
#    y 0.000000 3.720830 0.000000 
#    z 0.000000 0.000000 3.574180 
# 
# 
# High freq. dielectric constant tensor:
#      x y z
#    x 1.768230 0.000000 0.000000 
#    y 0.000000 1.766890 0.000000 
#    z 0.000000 0.000000 1.756050 
# 
# From -- ./inp_files/6622.got.cif
#   From: 2010.03.12/outbox.cif.g09.slc.cpg/sg53_4_cif.got.tgz:6622.got - 2010.04.16 14:36:59.
