data_PCOD8220124
_publ_section_title
;
Structure prediction by ZEFSAII (Michael W. Deem and Ramdas Pophale) SiO2 
 PCOD8220124
Probable space group: P M N A
;
_chemical_formula_sum "Si O2"
_cell_formula_units_Z 64
_cell_length_a 15.155536
_cell_length_b 9.525350
_cell_length_c 24.356704
_cell_angle_alpha 90.000000
_cell_angle_beta 90.000000
_cell_angle_gamma 90.000000
_cell_volume 3516.177262
_symmetry_space_group_name_H-M "P M N A"
_symmetry_group_IT_number 53
_symmetry_cell_setting 'orthorhombic'
loop_
_space_group_symop_operation_xyz
x,y,z
1/2-x,-y,1/2+z
x,-y,-z
1/2-x,y,1/2-z
-x,-y,-z
1/2+x,y,1/2-z
-x,y,z
1/2+x,-y,1/2+z
loop_
_atom_site_type_symbol
_atom_site_label
_atom_site_fract_x
_atom_site_fract_y
_atom_site_fract_z
Si Si1 0.101664 0.084217 0.555072
Si Si2 0.749510 0.681027 0.054037
Si Si3 0.818807 0.970956 0.201975
Si Si4 0.262924 0.632472 0.569760
Si Si5 0.682987 0.127830 0.133795
Si Si6 0.600638 0.273240 0.637936
Si Si7 0.900429 0.220981 0.256384
Si Si8 0.100363 0.409985 0.160540
O O1 0.164054 0.220368 0.560211
O O2 0.000000 0.134693 0.553708
O O3 0.126864 0.000000 0.500000
O O4 0.114195 0.983181 0.607942
O O5 0.722242 0.524861 0.075006
O O6 0.832800 0.742013 0.087040
O O7 0.786283 0.669589 0.992538
O O8 0.750000 0.932648 0.250000
O O9 0.870805 0.832962 0.185078
O O10 0.770996 0.041549 0.149389
O O11 0.893477 0.074283 0.224612
O O12 0.194588 0.750095 0.589194
O O13 0.350299 0.645129 0.606543
O O14 0.652332 0.211496 0.187418
O O15 0.500000 0.245228 0.617985
O O16 0.608204 0.423924 0.666502
O O17 0.860201 0.341727 0.216446
O O18 0.000000 0.256334 0.271702
O O19 0.000000 0.358853 0.153543
#
# Coordination Sequence:
#
# PCOD8220124 Si02
#       8
#     8   8   8   8   8   8   8   8
#     4  11  22  38  60  82 111 152 192 239 295 345
#     4  10  21  38  58  86 114 150 190 235 289 344
#     4  10  20  34  55  82 110 149 185 230 285 334
#     4  10  20  36  58  81 115 150 187 236 284 343
#     4  11  20  36  57  82 109 147 192 237 281 337
#     4  10  20  37  59  85 119 153 188 231 286 346
#     4  10  20  35  54  80 110 142 187 233 278 337
#     4   9  19  35  55  82 115 151 187 227 282 342
#
# _framework density 18.201585999999999
#
# number of rings (size 3 to 8) (size 9 to 14) (size 15 to 20)
#    0.000    1.875    3.750    0.750    0.000    0.500 
#    4.500    5.000    0.000    1.125    0.000    0.000 
#    0.000    0.000    0.000    0.000    0.000    0.000 
#
# Total GULP energy -793440.715207 kJ/mol
# GULP energy per Si atom -12397.511175 kJ/mol
# Density = 1.816016 g / cm^3
# Si number density = 18.201586 Si / 1000 Ang^3
#
#
#
# Elastic Constant Matrix: (Units=GPa)
#
#
# Indices 1 2 3 4 5 6 
#
# 1 86.3229 48.8387 31.7058 0.0000 0.0000 0.0000
# 2 48.8387 97.4132 49.7042 0.0000 0.0000 0.0000
# 3 31.7058 49.7042 94.5885 0.0000 0.0000 0.0000
# 4 0.0000 0.0000 0.0000 32.8656 0.0000 0.0000
# 5 0.0000 0.0000 0.0000 0.0000 22.6628 0.0000
# 6 0.0000 0.0000 0.0000 0.0000 0.0000 25.2960
#
#
#
# Elastic Compliance Matrix: (Units=1/GPa)
#
#
# Indices 1 2 3 4 5 6 
#
# 1 0.016347 -0.007378 -0.001603 0.000000 0.000000 0.000000
# 2 -0.007378 0.017356 -0.006647 0.000000 0.000000 0.000000
# 3 -0.001603 -0.006647 0.014602 0.000000 0.000000 0.000000
# 4 0.000000 0.000000 0.000000 0.030427 0.000000 0.000000
# 5 0.000000 0.000000 0.000000 0.000000 0.044125 0.000000
# 6 0.000000 0.000000 0.000000 0.000000 0.000000 0.039532
#
#
# Mechanical properties :
#
#
# Convention : Reuss Voigt Hill
#
# Bulk Modulus (GPa) = 58.65077 59.86912 59.25994
# Shear Modulus (GPa) = 25.08413 26.03660 25.56037
#
# Velocity S-wave (km/s) = 3.71634 3.78624 3.75146
# Velocity P-wave (km/s) = 7.12094 7.21650 7.16888
#
# Compressibility (1/GPa) = 0.01705007
#
# Stress axis : x y z
#
# Youngs Moduli (GPa) = 61.17208 57.61596 68.48267
#
# Poissons Ratio (x) = 0.42510 0.10975
# Poissons Ratio (y) = 0.45134 0.45522
# Poissons Ratio (z) = 0.09803 0.38299
#
# Static dielectric constant tensor:
#      x y z
#    x 3.269380 0.000000 0.000000 
#    y 0.000000 3.477730 0.000000 
#    z 0.000000 0.000000 3.437020 
# 
# 
# High freq. dielectric constant tensor:
#      x y z
#    x 1.695420 0.000000 0.000000 
#    y 0.000000 1.710730 0.000000 
#    z 0.000000 0.000000 1.709320 
# 
# From -- ./inp_files/35317.got.cif
#   From: 2010.03.12/outbox.cif.g09.slc.cpg/sg53_18_cif.got.tgz:35317.got - 2010.04.16 14:36:59.
