data_PCOD8220909
_publ_section_title
;
Structure prediction by ZEFSAII (Michael W. Deem and Ramdas Pophale) SiO2 
 PCOD8220909
Probable space group: P M N A
;
_chemical_formula_sum "Si O2"
_cell_formula_units_Z 56
_cell_length_a 18.718319
_cell_length_b 15.993527
_cell_length_c 9.794209
_cell_angle_alpha 90.000000
_cell_angle_beta 90.000000
_cell_angle_gamma 90.000000
_cell_volume 2932.111352
_symmetry_space_group_name_H-M "P M N A"
_symmetry_group_IT_number 53
_symmetry_cell_setting 'orthorhombic'
loop_
_space_group_symop_operation_xyz
x,y,z
1/2-x,-y,1/2+z
x,-y,-z
1/2-x,y,1/2-z
-x,-y,-z
1/2+x,y,1/2-z
-x,y,z
1/2+x,-y,1/2+z
loop_
_atom_site_type_symbol
_atom_site_label
_atom_site_fract_x
_atom_site_fract_y
_atom_site_fract_z
Si Si1 0.915670 0.003218 0.658015
Si Si2 0.671016 0.146745 0.265853
Si Si3 0.915473 0.424843 0.093823
Si Si4 0.337560 0.736908 0.491584
Si Si5 0.581800 0.420769 0.095511
Si Si6 0.676628 0.270508 0.026979
Si Si7 0.667249 0.163212 0.770312
O O1 0.879322 0.079505 0.738343
O O2 0.000000 0.011365 0.674209
O O3 0.892236 0.000000 0.500000
O O4 0.890214 0.918314 0.728968
O O5 0.750000 0.105246 0.250000
O O6 0.656469 0.179034 0.418092
O O7 0.667856 0.229809 0.174678
O O8 0.890676 0.335760 0.036461
O O9 0.889785 0.438260 0.250510
O O10 0.000000 0.425725 0.085922
O O11 0.884173 0.500000 0.000000
O O12 0.257459 0.700212 0.498293
O O13 0.357440 0.768043 0.340210
O O14 0.500000 0.390923 0.102534
O O15 0.626693 0.350391 0.019604
O O16 0.591052 0.500000 0.000000
O O17 0.651844 0.202578 0.917227
O O18 0.750000 0.138976 0.750000
#
# Coordination Sequence:
#
# PCOD8220909 Si02
#       7
#     8   8   8   8   8   8   8
#     4  11  23  38  59  88 118 150 193 239 284 337
#     4  10  20  38  61  83 113 152 191 233 284 343
#     4  10  22  39  57  82 118 154 188 231 287 344
#     4  10  22  38  60  86 112 149 191 236 287 335
#     4  10  22  38  58  85 115 151 192 233 282 341
#     4  10  20  38  61  84 113 148 193 236 276 338
#     4  10  22  40  59  85 118 151 191 235 287 345
#
# _framework density 19.098863999999999
#
# number of rings (size 3 to 8) (size 9 to 14) (size 15 to 20)
#    0.000    1.857    2.857    0.429    2.000    3.429 
#    0.000    0.714    0.000    0.000    0.000    0.000 
#    0.000    0.000    0.000    0.000    0.000    0.000 
#
# Total GULP energy -694574.066621 kJ/mol
# GULP energy per Si atom -12403.108333 kJ/mol
# Density = 1.905539 g / cm^3
# Si number density = 19.098864 Si / 1000 Ang^3
#
#
#
# Elastic Constant Matrix: (Units=GPa)
#
#
# Indices 1 2 3 4 5 6 
#
# 1 58.0500 45.3672 28.0356 0.0000 0.0000 0.0000
# 2 45.3672 83.9538 22.2590 0.0000 0.0000 0.0000
# 3 28.0356 22.2590 68.1766 0.0000 0.0000 0.0000
# 4 0.0000 0.0000 0.0000 22.9049 0.0000 0.0000
# 5 0.0000 0.0000 0.0000 0.0000 25.3356 0.0000
# 6 0.0000 0.0000 0.0000 0.0000 0.0000 38.0446
#
#
#
# Elastic Compliance Matrix: (Units=1/GPa)
#
#
# Indices 1 2 3 4 5 6 
#
# 1 0.033991 -0.016051 -0.008737 0.000000 0.000000 0.000000
# 2 -0.016051 0.020620 -0.000132 0.000000 0.000000 0.000000
# 3 -0.008737 -0.000132 0.018304 0.000000 0.000000 0.000000
# 4 0.000000 0.000000 0.000000 0.043659 0.000000 0.000000
# 5 0.000000 0.000000 0.000000 0.000000 0.039470 0.000000
# 6 0.000000 0.000000 0.000000 0.000000 0.000000 0.026285
#
#
# Mechanical properties :
#
#
# Convention : Reuss Voigt Hill
#
# Bulk Modulus (GPa) = 43.33835 44.61157 43.97496
# Shear Modulus (GPa) = 20.84551 24.89159 22.86855
#
# Velocity S-wave (km/s) = 3.30730 3.61404 3.46407
# Velocity P-wave (km/s) = 6.10943 6.38937 6.25097
#
# Compressibility (1/GPa) = 0.02307425
#
# Stress axis : x y z
#
# Youngs Moduli (GPa) = 29.41984 48.49629 54.63413
#
# Poissons Ratio (x) = 0.77844 0.47734
# Poissons Ratio (y) = 0.47223 0.00719
# Poissons Ratio (z) = 0.25704 0.00638
#
# Static dielectric constant tensor:
#      x y z
#    x 3.413580 0.000000 0.000000 
#    y 0.000000 3.308430 0.000000 
#    z 0.000000 0.000000 3.675720 
# 
# 
# High freq. dielectric constant tensor:
#      x y z
#    x 1.733760 0.000000 0.000000 
#    y 0.000000 1.739050 0.000000 
#    z 0.000000 0.000000 1.755020 
# 
# From -- ./inp_files/11057.got.cif
#   From: 2010.03.12/outbox.cif.g09.slc.cpg/sg53_6_cif.got.tgz:11057.got - 2010.04.16 14:36:59.
