data_PCOD8220498
_publ_section_title
;
Structure prediction by ZEFSAII (Michael W. Deem and Ramdas Pophale) SiO2 
 PCOD8220498
Probable space group: P M N A
;
_chemical_formula_sum "Si O2"
_cell_formula_units_Z 56
_cell_length_a 8.810849
_cell_length_b 15.677444
_cell_length_c 19.790700
_cell_angle_alpha 90.000000
_cell_angle_beta 90.000000
_cell_angle_gamma 90.000000
_cell_volume 2733.720894
_symmetry_space_group_name_H-M "P M N A"
_symmetry_group_IT_number 53
_symmetry_cell_setting 'orthorhombic'
loop_
_space_group_symop_operation_xyz
x,y,z
1/2-x,-y,1/2+z
x,-y,-z
1/2-x,y,1/2-z
-x,-y,-z
1/2+x,y,1/2-z
-x,y,z
1/2+x,-y,1/2+z
loop_
_atom_site_type_symbol
_atom_site_label
_atom_site_fract_x
_atom_site_fract_y
_atom_site_fract_z
Si Si1 0.821569 0.073997 0.550434
Si Si2 0.324100 0.751572 0.454844
Si Si3 0.679566 0.343287 0.680694
Si Si4 0.825025 0.339094 0.087101
Si Si5 0.679375 0.995783 0.319629
Si Si6 0.820535 0.526577 0.680074
Si Si7 0.176382 0.812606 0.817803
O O1 0.775034 0.166953 0.523032
O O2 0.000000 0.067876 0.560616
O O3 0.763791 0.000000 0.500000
O O4 0.738973 0.064686 0.621767
O O5 0.500000 0.778193 0.459026
O O6 0.279262 0.720277 0.380142
O O7 0.292562 0.674074 0.507456
O O8 0.750000 0.305546 0.750000
O O9 0.500000 0.354923 0.688758
O O10 0.753329 0.434124 0.664407
O O11 0.720397 0.413114 0.117114
O O12 0.781848 0.248967 0.120922
O O13 0.000000 0.363481 0.100881
O O14 0.750000 0.962070 0.250000
O O15 0.500000 0.988546 0.315526
O O16 0.736904 0.092385 0.334180
O O17 0.750000 0.563031 0.750000
O O18 0.000000 0.520813 0.688172
O O19 0.250000 0.775322 0.750000
O O20 0.000000 0.817067 0.803794
#
# Coordination Sequence:
#
# PCOD8220498 Si02
#       7
#     8   8   8   8   8   8   8
#     4  11  24  40  59  85 118 155 195 240 290 346
#     4  10  23  41  62  86 113 151 194 237 291 348
#     4  10  21  40  64  88 114 148 191 238 288 340
#     4  10  20  36  56  82 116 151 191 235 282 341
#     4  10  20  36  58  83 112 147 191 242 294 348
#     4  11  22  37  59  87 118 154 192 231 280 335
#     4   9  18  31  51  78 109 146 185 229 280 334
#
# _framework density 20.484901000000001
#
# number of rings (size 3 to 8) (size 9 to 14) (size 15 to 20)
#    0.000    1.857    0.000    4.714    0.000    7.429 
#    0.000    4.286    0.000    0.000    0.000    0.000 
#    0.000    0.000    0.000    0.000    0.000    0.000 
#
# Total GULP energy -694579.179210 kJ/mol
# GULP energy per Si atom -12403.199629 kJ/mol
# Density = 2.043828 g / cm^3
# Si number density = 20.484901 Si / 1000 Ang^3
#
#
#
# Elastic Constant Matrix: (Units=GPa)
#
#
# Indices 1 2 3 4 5 6 
#
# 1 90.0765 39.1182 45.9541 0.0000 0.0000 0.0000
# 2 39.1182 77.7440 43.1746 0.0000 0.0000 0.0000
# 3 45.9541 43.1746 120.4785 0.0000 0.0000 0.0000
# 4 0.0000 0.0000 0.0000 44.3211 0.0000 0.0000
# 5 0.0000 0.0000 0.0000 0.0000 32.2872 0.0000
# 6 0.0000 0.0000 0.0000 0.0000 0.0000 26.1891
#
#
#
# Elastic Compliance Matrix: (Units=1/GPa)
#
#
# Indices 1 2 3 4 5 6 
#
# 1 0.015550 -0.005656 -0.003904 0.000000 0.000000 0.000000
# 2 -0.005656 0.018116 -0.004335 0.000000 0.000000 0.000000
# 3 -0.003904 -0.004335 0.011343 0.000000 0.000000 0.000000
# 4 0.000000 0.000000 0.000000 0.022563 0.000000 0.000000
# 5 0.000000 0.000000 0.000000 0.000000 0.030972 0.000000
# 6 0.000000 0.000000 0.000000 0.000000 0.000000 0.038184
#
#
# Mechanical properties :
#
#
# Convention : Reuss Voigt Hill
#
# Bulk Modulus (GPa) = 58.07641 60.53254 59.30447
# Shear Modulus (GPa) = 29.36753 31.22963 30.29858
#
# Velocity S-wave (km/s) = 3.79042 3.90875 3.85004
# Velocity P-wave (km/s) = 6.89701 7.07001 6.98405
#
# Compressibility (1/GPa) = 0.01721870
#
# Stress axis : x y z
#
# Youngs Moduli (GPa) = 64.30974 55.20047 88.16157
#
# Poissons Ratio (x) = 0.31221 0.34421
# Poissons Ratio (y) = 0.36373 0.38215
# Poissons Ratio (z) = 0.25108 0.23927
#
# Static dielectric constant tensor:
#      x y z
#    x 3.641710 0.000000 0.000000 
#    y 0.000000 3.626410 0.000000 
#    z 0.000000 0.000000 1.479830 
# 
# 
# High freq. dielectric constant tensor:
#      x y z
#    x 1.798200 0.000000 0.000000 
#    y 0.000000 1.794670 0.000000 
#    z 0.000000 0.000000 1.807380 
# 
# From -- ./inp_files/30822.got.cif
#   From: 2010.03.12/outbox.cif.g09.slc.cpg/sg53_16_cif.got.tgz:30822.got - 2010.04.16 14:36:59.
