data_PCOD8220020
_publ_section_title
;
Structure prediction by ZEFSAII (Michael W. Deem and Ramdas Pophale) SiO2 
 PCOD8220020
Probable space group: P M N A
;
_chemical_formula_sum "Si O2"
_cell_formula_units_Z 48
_cell_length_a 8.971993
_cell_length_b 20.047344
_cell_length_c 14.041977
_cell_angle_alpha 90.000000
_cell_angle_beta 90.000000
_cell_angle_gamma 90.000000
_cell_volume 2525.654998
_symmetry_space_group_name_H-M "P M N A"
_symmetry_group_IT_number 53
_symmetry_cell_setting 'orthorhombic'
loop_
_space_group_symop_operation_xyz
x,y,z
1/2-x,-y,1/2+z
x,-y,-z
1/2-x,y,1/2-z
-x,-y,-z
1/2+x,y,1/2-z
-x,y,z
1/2+x,-y,1/2+z
loop_
_atom_site_type_symbol
_atom_site_label
_atom_site_fract_x
_atom_site_fract_y
_atom_site_fract_z
Si Si1 0.827239 0.379112 0.153377
Si Si2 0.176505 0.032144 0.350393
Si Si3 0.824409 0.772907 0.351428
Si Si4 0.824190 0.642841 0.466622
Si Si5 0.672812 0.535601 0.346565
Si Si6 0.176517 0.097977 0.541066
O O1 0.750000 0.355266 0.250000
O O2 0.803500 0.457638 0.137295
O O3 0.000000 0.359833 0.156356
O O4 0.744966 0.339741 0.069133
O O5 0.250000 0.051078 0.250000
O O6 0.230110 0.084468 0.432378
O O7 0.000000 0.034371 0.336631
O O8 0.231439 0.959290 0.385837
O O9 0.750000 0.781248 0.250000
O O10 0.779944 0.701914 0.395298
O O11 0.764001 0.830792 0.421890
O O12 0.000000 0.779240 0.337975
O O13 0.750638 0.574012 0.432622
O O14 0.000000 0.633510 0.476161
O O15 0.750000 0.560016 0.250000
O O16 0.500000 0.555091 0.342413
O O17 0.000000 0.095816 0.539915
#
# Coordination Sequence:
#
# PCOD8220020 Si02
#       6
#     8   8   8   8   8   8
#     4  10  21  37  56  76  99 129 167 212 259 305
#     4   9  16  29  52  77 101 132 168 207 250 293
#     4  10  21  36  53  74 102 135 169 205 247 298
#     4  11  22  34  51  75 103 136 170 206 251 303
#     4  10  20  34  53  77 103 131 165 209 259 306
#     4   8  16  32  51  72 102 138 169 200 248 302
#
# _framework density 19.004971000000001
#
# number of rings (size 3 to 8) (size 9 to 14) (size 15 to 20)
#    0.000    2.333    0.000    4.000    0.000    6.667 
#    0.000    3.333    0.000    2.000    0.000    0.000 
#    0.000    0.000    0.000    0.000    0.000    0.000 
#
# Total GULP energy -595204.296092 kJ/mol
# GULP energy per Si atom -12400.089502 kJ/mol
# Density = 1.896172 g / cm^3
# Si number density = 19.004971 Si / 1000 Ang^3
#
#
#
# Elastic Constant Matrix: (Units=GPa)
#
#
# Indices 1 2 3 4 5 6 
#
# 1 73.0953 27.4774 48.5399 0.0000 0.0000 0.0000
# 2 27.4774 46.5467 33.1824 0.0000 0.0000 0.0000
# 3 48.5399 33.1824 155.4193 0.0000 0.0000 0.0000
# 4 0.0000 0.0000 0.0000 30.3548 0.0000 0.0000
# 5 0.0000 0.0000 0.0000 0.0000 40.2463 0.0000
# 6 0.0000 0.0000 0.0000 0.0000 0.0000 15.7807
#
#
#
# Elastic Compliance Matrix: (Units=1/GPa)
#
#
# Indices 1 2 3 4 5 6 
#
# 1 0.019797 -0.008585 -0.004350 0.000000 0.000000 0.000000
# 2 -0.008585 0.029064 -0.003524 0.000000 0.000000 0.000000
# 3 -0.004350 -0.003524 0.008545 0.000000 0.000000 0.000000
# 4 0.000000 0.000000 0.000000 0.032944 0.000000 0.000000
# 5 0.000000 0.000000 0.000000 0.000000 0.024847 0.000000
# 6 0.000000 0.000000 0.000000 0.000000 0.000000 0.063368
#
#
# Mechanical properties :
#
#
# Convention : Reuss Voigt Hill
#
# Bulk Modulus (GPa) = 40.83706 54.82898 47.83302
# Shear Modulus (GPa) = 22.76390 28.33379 25.54884
#
# Velocity S-wave (km/s) = 3.46466 3.86536 3.67048
# Velocity P-wave (km/s) = 6.12694 6.98812 6.57165
#
# Compressibility (1/GPa) = 0.02448756
#
# Stress axis : x y z
#
# Youngs Moduli (GPa) = 50.51340 34.40672 117.02648
#
# Poissons Ratio (x) = 0.29540 0.50904
# Poissons Ratio (y) = 0.43368 0.41239
# Poissons Ratio (z) = 0.21972 0.12124
#
# Static dielectric constant tensor:
#      x y z
#    x 3.293260 0.000000 0.000000 
#    y 0.000000 3.472410 0.000000 
#    z 0.000000 0.000000 3.601250 
# 
# 
# High freq. dielectric constant tensor:
#      x y z
#    x 1.725020 0.000000 0.000000 
#    y 0.000000 1.718230 0.000000 
#    z 0.000000 0.000000 1.754330 
# 
# From -- ./inp_files/20204.got.cif
#   From: 2010.03.12/outbox.cif.g09.slc.cpg/sg53_11_cif.got.tgz:20204.got - 2010.04.16 14:36:59.
