data_PCOD8220596
_publ_section_title
;
Structure prediction by ZEFSAII (Michael W. Deem and Ramdas Pophale) SiO2 
 PCOD8220596
Probable space group: P M N A
;
_chemical_formula_sum "Si O2"
_cell_formula_units_Z 64
_cell_length_a 9.214747
_cell_length_b 11.764209
_cell_length_c 29.800253
_cell_angle_alpha 90.000000
_cell_angle_beta 90.000000
_cell_angle_gamma 90.000000
_cell_volume 3230.472872
_symmetry_space_group_name_H-M "P M N A"
_symmetry_group_IT_number 53
_symmetry_cell_setting 'orthorhombic'
loop_
_space_group_symop_operation_xyz
x,y,z
1/2-x,-y,1/2+z
x,-y,-z
1/2-x,y,1/2-z
-x,-y,-z
1/2+x,y,1/2-z
-x,y,z
1/2+x,-y,1/2+z
loop_
_atom_site_type_symbol
_atom_site_label
_atom_site_fract_x
_atom_site_fract_y
_atom_site_fract_z
Si Si1 0.837797 0.922740 0.209415
Si Si2 0.330393 0.934163 0.934044
Si Si3 0.670491 0.576962 0.040293
Si Si4 0.168776 0.830226 0.470281
Si Si5 0.834074 0.129125 0.150885
Si Si6 0.170697 0.332328 0.794053
Si Si7 0.330692 0.311247 0.204901
Si Si8 0.165465 0.518082 0.360142
O O1 0.750000 0.979734 0.250000
O O2 0.779548 0.797258 0.198484
O O3 0.000000 0.913580 0.227505
O O4 0.827056 0.997438 0.164950
O O5 0.500000 0.935112 0.921225
O O6 0.241863 0.864483 0.897050
O O7 0.270653 0.064145 0.940222
O O8 0.303019 0.860458 0.978233
O O9 0.500000 0.589442 0.031727
O O10 0.738164 0.705853 0.040650
O O11 0.703718 0.512377 0.087031
O O12 0.737611 0.500000 0.000000
O O13 0.000000 0.825179 0.459777
O O14 0.746743 0.196984 0.188754
O O15 0.000000 0.173209 0.148036
O O16 0.250000 0.383175 0.750000
O O17 0.224135 0.394051 0.838433
O O18 0.000000 0.350101 0.788141
O O19 0.250000 0.355428 0.250000
O O20 0.500000 0.289934 0.215793
O O21 0.311255 0.397353 0.163497
O O22 0.000000 0.560184 0.353484
#
# Coordination Sequence:
#
# PCOD8220596 Si02
#       8
#     8   8   8   8   8   8   8   8
#     4   9  20  36  53  77 109 143 179 221 273 329
#     4   9  18  33  56  85 113 148 190 238 285 338
#     4   9  18  32  55  85 118 151 187 237 286 336
#     4   8  16  32  54  82 116 149 189 235 287 340
#     4  11  23  37  56  83 115 150 192 236 286 347
#     4  10  20  36  58  83 114 150 184 229 281 337
#     4  11  24  41  60  84 115 152 194 243 292 345
#     4  10  22  37  58  89 116 147 192 237 286 341
#
# _framework density 19.811342
#
# number of rings (size 3 to 8) (size 9 to 14) (size 15 to 20)
#    0.000    2.375    0.000    2.625    3.500    4.500 
#    0.000    1.250    0.000    1.125    0.000    0.000 
#    0.000    0.000    0.000    0.000    0.000    0.000 
#
# Total GULP energy -793373.508204 kJ/mol
# GULP energy per Si atom -12396.461066 kJ/mol
# Density = 1.976625 g / cm^3
# Si number density = 19.811342 Si / 1000 Ang^3
#
#
#
# Elastic Constant Matrix: (Units=GPa)
#
#
# Indices 1 2 3 4 5 6 
#
# 1 81.2716 30.3175 45.9267 0.0000 0.0000 0.0000
# 2 30.3175 86.3207 42.3208 0.0000 0.0000 0.0000
# 3 45.9267 42.3208 115.0845 0.0000 0.0000 0.0000
# 4 0.0000 0.0000 0.0000 31.8903 0.0000 0.0000
# 5 0.0000 0.0000 0.0000 0.0000 28.3778 0.0000
# 6 0.0000 0.0000 0.0000 0.0000 0.0000 20.8643
#
#
#
# Elastic Compliance Matrix: (Units=1/GPa)
#
#
# Indices 1 2 3 4 5 6 
#
# 1 0.016558 -0.003142 -0.005452 0.000000 0.000000 0.000000
# 2 -0.003142 0.014729 -0.004162 0.000000 0.000000 0.000000
# 3 -0.005452 -0.004162 0.012396 0.000000 0.000000 0.000000
# 4 0.000000 0.000000 0.000000 0.031357 0.000000 0.000000
# 5 0.000000 0.000000 0.000000 0.000000 0.035239 0.000000
# 6 0.000000 0.000000 0.000000 0.000000 0.000000 0.047929
#
#
# Mechanical properties :
#
#
# Convention : Reuss Voigt Hill
#
# Bulk Modulus (GPa) = 55.03963 57.75630 56.39796
# Shear Modulus (GPa) = 26.34668 27.16728 26.75698
#
# Velocity S-wave (km/s) = 3.65071 3.70712 3.67902
# Velocity P-wave (km/s) = 6.75370 6.89493 6.82468
#
# Compressibility (1/GPa) = 0.01816873
#
# Stress axis : x y z
#
# Youngs Moduli (GPa) = 60.39517 67.89295 80.67312
#
# Poissons Ratio (x) = 0.21334 0.43984
# Poissons Ratio (y) = 0.18978 0.33579
# Poissons Ratio (z) = 0.32928 0.28260
#
# Static dielectric constant tensor:
#      x y z
#    x 3.353670 0.000000 0.000000 
#    y 0.000000 3.823300 0.000000 
#    z 0.000000 0.000000 3.547630 
# 
# 
# High freq. dielectric constant tensor:
#      x y z
#    x 1.741210 0.000000 0.000000 
#    y 0.000000 1.778190 0.000000 
#    z 0.000000 0.000000 1.773470 
# 
# From -- ./inp_files/38297.got.cif
#   From: 2010.03.12/outbox.cif.g09.slc.cpg/sg53_20_cif.got.tgz:38297.got - 2010.04.16 14:36:59.
