data_PCOD8220074
_publ_section_title
;
Structure prediction by ZEFSAII (Michael W. Deem and Ramdas Pophale) SiO2 
 PCOD8220074
Probable space group: P M N A
;
_chemical_formula_sum "Si O2"
_cell_formula_units_Z 64
_cell_length_a 9.045903
_cell_length_b 15.923869
_cell_length_c 24.126144
_cell_angle_alpha 90.000000
_cell_angle_beta 90.000000
_cell_angle_gamma 90.000000
_cell_volume 3475.269095
_symmetry_space_group_name_H-M "P M N A"
_symmetry_group_IT_number 53
_symmetry_cell_setting 'orthorhombic'
loop_
_space_group_symop_operation_xyz
x,y,z
1/2-x,-y,1/2+z
x,-y,-z
1/2-x,y,1/2-z
-x,-y,-z
1/2+x,y,1/2-z
-x,y,z
1/2+x,-y,1/2+z
loop_
_atom_site_type_symbol
_atom_site_label
_atom_site_fract_x
_atom_site_fract_y
_atom_site_fract_z
Si Si1 0.824313 0.623853 0.396898
Si Si2 0.328569 0.981895 0.693512
Si Si3 0.174547 0.706179 0.588509
Si Si4 0.171389 0.466656 0.061478
Si Si5 0.834244 0.899531 0.385806
Si Si6 0.662025 0.255410 0.804008
Si Si7 0.173481 0.773126 0.472881
Si Si8 0.327492 0.214051 0.306393
O O1 0.734401 0.537629 0.397895
O O2 0.779593 0.664493 0.338085
O O3 0.765837 0.687407 0.444935
O O4 0.000000 0.607545 0.402511
O O5 0.250000 0.013268 0.750000
O O6 0.500000 0.003136 0.700289
O O7 0.298503 0.884004 0.684304
O O8 0.267709 0.026670 0.638220
O O9 0.232897 0.615882 0.570741
O O10 0.210112 0.771552 0.538290
O O11 0.256827 0.736056 0.643074
O O12 0.000000 0.701284 0.599486
O O13 0.000000 0.448515 0.074501
O O14 0.196492 0.500000 0.000000
O O15 0.837228 0.825292 0.342215
O O16 0.767066 0.859034 0.443161
O O17 0.000000 0.935825 0.394995
O O18 0.750000 0.233927 0.750000
O O19 0.500000 0.276867 0.782991
O O20 0.000000 0.773462 0.460493
O O21 0.250000 0.244780 0.250000
O O22 0.500000 0.235349 0.302670
#
# Coordination Sequence:
#
# PCOD8220074 Si02
#       8
#     8   8   8   8   8   8   8   8
#     4   9  17  33  52  72 101 139 181 220 260 312
#     4  10  20  34  54  79 106 141 182 226 273 320
#     4  11  21  36  61  85 107 142 183 221 271 327
#     4  11  22  34  52  82 113 137 172 222 271 317
#     4   9  17  31  51  77 109 141 179 224 263 310
#     4   9  18  30  47  71 103 141 177 216 262 311
#     4   8  16  31  52  78 108 142 178 218 263 316
#     4  10  22  41  61  82 110 140 178 227 275 323
#
# _framework density 18.415839999999999
#
# number of rings (size 3 to 8) (size 9 to 14) (size 15 to 20)
#    0.000    2.375    1.250    3.375    0.000    4.000 
#    0.000    4.375    0.000    5.250    0.000    0.000 
#    0.000    0.000    0.000    0.000    0.000    0.000 
#
# Total GULP energy -793341.369520 kJ/mol
# GULP energy per Si atom -12395.958899 kJ/mol
# Density = 1.837392 g / cm^3
# Si number density = 18.415840 Si / 1000 Ang^3
#
#
#
# Elastic Constant Matrix: (Units=GPa)
#
#
# Indices 1 2 3 4 5 6 
#
# 1 81.6183 37.2856 46.0939 0.0000 0.0000 0.0000
# 2 37.2856 60.2177 36.7620 0.0000 0.0000 0.0000
# 3 46.0939 36.7620 105.5625 0.0000 0.0000 0.0000
# 4 0.0000 0.0000 0.0000 414.5757 0.0000 0.0000
# 5 0.0000 0.0000 0.0000 0.0000 22.6126 0.0000
# 6 0.0000 0.0000 0.0000 0.0000 0.0000 29.7167
#
#
#
# Elastic Compliance Matrix: (Units=1/GPa)
#
#
# Indices 1 2 3 4 5 6 
#
# 1 0.019237 -0.008615 -0.005400 0.000000 0.000000 0.000000
# 2 -0.008615 0.024948 -0.004926 0.000000 0.000000 0.000000
# 3 -0.005400 -0.004926 0.013547 0.000000 0.000000 0.000000
# 4 0.000000 0.000000 0.000000 0.002412 0.000000 0.000000
# 5 0.000000 0.000000 0.000000 0.000000 0.044223 0.000000
# 6 0.000000 0.000000 0.000000 0.000000 0.000000 0.033651
#
#
# Mechanical properties :
#
#
# Convention : Reuss Voigt Hill
#
# Bulk Modulus (GPa) = 50.37885 54.18684 52.28285
# Shear Modulus (GPa) = 27.39476 101.86481 64.62978
#
# Velocity S-wave (km/s) = 3.86108 7.44539 5.93050
# Velocity P-wave (km/s) = 6.87698 10.16856 8.68022
#
# Compressibility (1/GPa) = 0.01984960
#
# Stress axis : x y z
#
# Youngs Moduli (GPa) = 51.98267 40.08334 73.81956
#
# Poissons Ratio (x) = 0.34531 0.39861
# Poissons Ratio (y) = 0.44782 0.36367
# Poissons Ratio (z) = 0.28070 0.19747
#
# Static dielectric constant tensor:
#      x y z
#    x 3.357900 0.000000 0.000000 
#    y 0.000000 3.336810 0.000000 
#    z 0.000000 0.000000 3.215800 
# 
# 
# High freq. dielectric constant tensor:
#      x y z
#    x 1.705210 0.000000 0.000000 
#    y 0.000000 1.704630 0.000000 
#    z 0.000000 0.000000 1.710690 
# 
# From -- ./inp_files/34200.got.cif
#   From: 2010.03.12/outbox.cif.g09.slc.cpg/sg53_18_cif.got.tgz:34200.got - 2010.04.16 14:36:59.
