data_PCOD8220968
_publ_section_title
;
Structure prediction by ZEFSAII (Michael W. Deem and Ramdas Pophale) SiO2 
 PCOD8220968
Probable space group: P M N A
;
_chemical_formula_sum "Si O2"
_cell_formula_units_Z 40
_cell_length_a 16.932468
_cell_length_b 14.484519
_cell_length_c 7.781182
_cell_angle_alpha 90.000000
_cell_angle_beta 90.000000
_cell_angle_gamma 90.000000
_cell_volume 1908.402227
_symmetry_space_group_name_H-M "P M N A"
_symmetry_group_IT_number 53
_symmetry_cell_setting 'orthorhombic'
loop_
_space_group_symop_operation_xyz
x,y,z
1/2-x,-y,1/2+z
x,-y,-z
1/2-x,y,1/2-z
-x,-y,-z
1/2+x,y,1/2-z
-x,y,z
1/2+x,-y,1/2+z
loop_
_atom_site_type_symbol
_atom_site_label
_atom_site_fract_x
_atom_site_fract_y
_atom_site_fract_z
Si Si1 0.906809 0.899999 0.805048
Si Si2 0.907504 0.601937 0.980994
Si Si3 0.594264 0.288526 0.149935
Si Si4 0.593600 0.896802 0.305757
Si Si5 0.659781 0.288087 0.792678
O O1 0.877266 0.817402 0.683134
O O2 0.000000 0.897071 0.817687
O O3 0.881613 0.001344 0.735606
O O4 0.876389 0.885548 0.998815
O O5 0.874252 0.650729 0.809592
O O6 0.000000 0.592544 0.956818
O O7 0.869140 0.500000 0.000000
O O8 0.892437 0.662888 0.148634
O O9 0.500000 0.294291 0.126756
O O10 0.637218 0.327964 0.980211
O O11 0.500000 0.881078 0.285883
O O12 0.639594 0.820514 0.196485
O O13 0.750000 0.307567 0.750000
#
# Coordination Sequence:
#
# PCOD8220968 Si02
#       5
#     8   8   8   8   8
#     4   8  15  30  59  90 113 152 205 258 301 339
#     4  10  22  44  70  92 115 150 205 268 310 346
#     4  10  20  38  67  94 117 155 209 257 300 356
#     4   9  16  33  59  85 119 158 204 252 296 348
#     4  12  25  39  56  90 129 166 196 238 308 379
#
# _framework density 20.959942000000002
#
# number of rings (size 3 to 8) (size 9 to 14) (size 15 to 20)
#    0.000    2.200    2.000    3.000    0.000    2.400 
#    3.600   10.000    0.000    0.000    0.000    0.000 
#    0.000    0.000    0.000    0.000    0.000    0.000 
#
# Total GULP energy -495855.156945 kJ/mol
# GULP energy per Si atom -12396.378924 kJ/mol
# Density = 2.091224 g / cm^3
# Si number density = 20.959942 Si / 1000 Ang^3
#
#
#
# Elastic Constant Matrix: (Units=GPa)
#
#
# Indices 1 2 3 4 5 6 
#
# 1 24.8500 15.9041 21.5117 0.0000 0.0000 0.0000
# 2 15.9041 129.3203 61.5110 0.0000 0.0000 0.0000
# 3 21.5117 61.5110 157.7508 0.0000 0.0000 0.0000
# 4 0.0000 0.0000 0.0000 13.8743 0.0000 0.0000
# 5 0.0000 0.0000 0.0000 0.0000 8.9557 0.0000
# 6 0.0000 0.0000 0.0000 0.0000 0.0000 -2.7835
#
#
#
# Elastic Compliance Matrix: (Units=1/GPa)
#
#
# Indices 1 2 3 4 5 6 
#
# 1 0.046772 -0.003337 -0.005077 0.000000 0.000000 0.000000
# 2 -0.003337 0.009732 -0.003339 0.000000 0.000000 0.000000
# 3 -0.005077 -0.003339 0.008334 0.000000 0.000000 0.000000
# 4 0.000000 0.000000 0.000000 0.072076 0.000000 0.000000
# 5 0.000000 0.000000 0.000000 0.000000 0.111660 0.000000
# 6 0.000000 0.000000 0.000000 0.000000 0.000000 -0.359261
#
#
# Mechanical properties :
#
#
# Convention : Reuss Voigt Hill
#
# Bulk Modulus (GPa) = 24.19550 56.64164 40.41857
# Shear Modulus (GPa) = -68.11628 18.20893 -24.95368
#
# Velocity S-wave (km/s) = -5.70691 2.95065 -3.45417
# Velocity P-wave (km/s) = 5.64415 6.22020 1.84858
#
# Compressibility (1/GPa) = 0.04132999
#
# Stress axis : x y z
#
# Youngs Moduli (GPa) = 21.38027 102.75797 119.99676
#
# Poissons Ratio (x) = 0.34294 0.60919
# Poissons Ratio (y) = 0.07135 0.40073
# Poissons Ratio (z) = 0.10854 0.34316
#
# Static dielectric constant tensor:
#      x y z
#    x 3.222670 0.000000 0.000000 
#    y 0.000000 4.301150 0.000000 
#    z 0.000000 0.000000 3.852760 
# 
# 
# High freq. dielectric constant tensor:
#      x y z
#    x 1.768510 0.000000 0.000000 
#    y 0.000000 1.826070 0.000000 
#    z 0.000000 0.000000 1.823270 
# 
# From -- ./inp_files/8415.got.cif
#   From: 2010.03.12/outbox.cif.g09.slc.cpg/sg53_5_cif.got.tgz:8415.got - 2010.04.16 14:36:59.
