data_PCOD8220119
_publ_section_title
;
Structure prediction by ZEFSAII (Michael W. Deem and Ramdas Pophale) SiO2 
 PCOD8220119
Probable space group: P M N A
;
_chemical_formula_sum "Si O2"
_cell_formula_units_Z 48
_cell_length_a 8.846930
_cell_length_b 20.488756
_cell_length_c 13.695359
_cell_angle_alpha 90.000000
_cell_angle_beta 90.000000
_cell_angle_gamma 90.000000
_cell_volume 2482.456245
_symmetry_space_group_name_H-M "P M N A"
_symmetry_group_IT_number 53
_symmetry_cell_setting 'orthorhombic'
loop_
_space_group_symop_operation_xyz
x,y,z
1/2-x,-y,1/2+z
x,-y,-z
1/2-x,y,1/2-z
-x,-y,-z
1/2+x,y,1/2-z
-x,y,z
1/2+x,-y,1/2+z
loop_
_atom_site_type_symbol
_atom_site_label
_atom_site_fract_x
_atom_site_fract_y
_atom_site_fract_z
Si Si1 0.823647 0.470129 0.351100
Si Si2 0.677412 0.890692 0.843943
Si Si3 0.832171 0.979575 0.110494
Si Si4 0.320997 0.149553 0.940592
Si Si5 0.177935 0.601147 0.454461
Si Si6 0.321112 0.721035 0.354605
O O1 0.750000 0.448463 0.250000
O O2 0.783273 0.417167 0.433804
O O3 0.769523 0.541873 0.384660
O O4 0.000000 0.472544 0.334502
O O5 0.750000 0.853140 0.750000
O O6 0.500000 0.891599 0.832251
O O7 0.737526 0.964569 0.836500
O O8 0.724188 0.855852 0.944974
O O9 0.739374 0.912395 0.119897
O O10 0.000000 0.971695 0.156870
O O11 0.850103 0.000000 0.000000
O O12 0.500000 0.154522 0.926997
O O13 0.240949 0.211981 0.896810
O O14 0.275318 0.664123 0.428822
O O15 0.000000 0.615586 0.442040
O O16 0.250000 0.705493 0.250000
O O17 0.500000 0.725085 0.344404
#
# Coordination Sequence:
#
# PCOD8220119 Si02
#       6
#     8   8   8   8   8   8
#     4   9  18  33  57  86 117 150 185 226 271 318
#     4  10  20  34  55  81 109 142 180 223 273 327
#     4   9  17  31  52  77 105 136 173 220 270 320
#     4  10  21  38  57  79 109 143 181 227 274 322
#     4   9  19  37  57  82 116 151 185 225 271 318
#     4  12  25  40  59  82 108 142 182 224 272 328
#
# _framework density 19.335687
#
# number of rings (size 3 to 8) (size 9 to 14) (size 15 to 20)
#    0.000    2.167    0.000    4.500    0.000    7.333 
#    0.000    5.833    0.000    0.000    0.000    0.000 
#    0.000    0.000    0.000    0.000    0.000    0.000 
#
# Total GULP energy -595141.438078 kJ/mol
# GULP energy per Si atom -12398.779960 kJ/mol
# Density = 1.929168 g / cm^3
# Si number density = 19.335687 Si / 1000 Ang^3
#
#
#
# Elastic Constant Matrix: (Units=GPa)
#
#
# Indices 1 2 3 4 5 6 
#
# 1 90.7623 38.1703 31.3439 0.0000 0.0000 0.0000
# 2 38.1703 96.5486 26.6503 0.0000 0.0000 0.0000
# 3 31.3439 26.6503 97.1846 0.0000 0.0000 0.0000
# 4 0.0000 0.0000 0.0000 27.9493 0.0000 0.0000
# 5 0.0000 0.0000 0.0000 0.0000 34.5245 0.0000
# 6 0.0000 0.0000 0.0000 0.0000 0.0000 31.0613
#
#
#
# Elastic Compliance Matrix: (Units=1/GPa)
#
#
# Indices 1 2 3 4 5 6 
#
# 1 0.014114 -0.004677 -0.003269 0.000000 0.000000 0.000000
# 2 -0.004677 0.012756 -0.001989 0.000000 0.000000 0.000000
# 3 -0.003269 -0.001989 0.011890 0.000000 0.000000 0.000000
# 4 0.000000 0.000000 0.000000 0.035779 0.000000 0.000000
# 5 0.000000 0.000000 0.000000 0.000000 0.028965 0.000000
# 6 0.000000 0.000000 0.000000 0.000000 0.000000 0.032194
#
#
# Mechanical properties :
#
#
# Convention : Reuss Voigt Hill
#
# Bulk Modulus (GPa) = 52.94637 52.98052 52.96344
# Shear Modulus (GPa) = 30.88978 31.26244 31.07611
#
# Velocity S-wave (km/s) = 4.00128 4.02534 4.01333
# Velocity P-wave (km/s) = 6.98492 7.00459 6.99476
#
# Compressibility (1/GPa) = 0.01888704
#
# Stress axis : x y z
#
# Youngs Moduli (GPa) = 70.85191 78.39548 84.10677
#
# Poissons Ratio (x) = 0.36669 0.27497
# Poissons Ratio (y) = 0.33141 0.16732
# Poissons Ratio (z) = 0.23164 0.15596
#
# Static dielectric constant tensor:
#      x y z
#    x 3.576370 0.000000 0.000000 
#    y 0.000000 3.406340 0.000000 
#    z 0.000000 0.000000 3.484730 
# 
# 
# High freq. dielectric constant tensor:
#      x y z
#    x 1.758810 0.000000 0.000000 
#    y 0.000000 1.733280 0.000000 
#    z 0.000000 0.000000 1.763930 
# 
# From -- ./inp_files/20256.got.cif
#   From: 2010.03.12/outbox.cif.g09.slc.cpg/sg53_11_cif.got.tgz:20256.got - 2010.04.16 14:36:59.
