data_PCOD8220917
_publ_section_title
;
Structure prediction by ZEFSAII (Michael W. Deem and Ramdas Pophale) SiO2 
 PCOD8220917
Probable space group: P M N A
;
_chemical_formula_sum "Si O2"
_cell_formula_units_Z 48
_cell_length_a 8.722984
_cell_length_b 30.108682
_cell_length_c 9.115180
_cell_angle_alpha 90.000000
_cell_angle_beta 90.000000
_cell_angle_gamma 90.000000
_cell_volume 2393.988555
_symmetry_space_group_name_H-M "P M N A"
_symmetry_group_IT_number 53
_symmetry_cell_setting 'orthorhombic'
loop_
_space_group_symop_operation_xyz
x,y,z
1/2-x,-y,1/2+z
x,-y,-z
1/2-x,y,1/2-z
-x,-y,-z
1/2+x,y,1/2-z
-x,y,z
1/2+x,-y,1/2+z
loop_
_atom_site_type_symbol
_atom_site_label
_atom_site_fract_x
_atom_site_fract_y
_atom_site_fract_z
Si Si1 0.680513 0.121532 0.591883
Si Si2 0.323073 0.455972 0.405943
Si Si3 0.818138 0.696737 0.905503
Si Si4 0.320365 0.797425 0.598236
Si Si5 0.318498 0.378561 0.908008
Si Si6 0.677856 0.956214 0.906521
O O1 0.750000 0.113121 0.750000
O O2 0.500000 0.117736 0.605257
O O3 0.731926 0.170005 0.532536
O O4 0.738159 0.084951 0.479741
O O5 0.305543 0.500000 0.500000
O O6 0.250000 0.466530 0.250000
O O7 0.500000 0.441619 0.389854
O O8 0.229314 0.416455 0.479118
O O9 0.750000 0.680613 0.750000
O O10 0.766893 0.747362 0.937833
O O11 0.000000 0.690725 0.902013
O O12 0.746797 0.668296 0.036552
O O13 0.250000 0.814641 0.750000
O O14 0.500000 0.799116 0.620250
O O15 0.250000 0.390002 0.750000
O O16 0.500000 0.376033 0.896113
O O17 0.750000 0.965706 0.750000
O O18 0.500000 0.944559 0.890704
O O19 0.706025 0.000000 0.000000
#
# Coordination Sequence:
#
# PCOD8220917 Si02
#       6
#     8   8   8   8   8   8
#     4  11  23  39  59  86 119 155 196 241 292 347
#     4  11  24  42  65  92 122 157 197 241 291 347
#     4  10  20  38  61  87 119 155 197 242 292 347
#     4   9  20  37  59  86 116 152 194 241 291 347
#     4  12  25  41  61  87 120 157 198 244 295 349
#     4  11  24  41  62  88 118 153 193 238 289 345
#
# _framework density 20.050222000000002
#
# number of rings (size 3 to 8) (size 9 to 14) (size 15 to 20)
#    0.000    1.333    0.000    5.500    0.000    9.333 
#    0.000    1.667    0.000    0.000    0.000    0.000 
#    0.000    0.000    0.000    0.000    0.000    0.000 
#
# Total GULP energy -595485.080214 kJ/mol
# GULP energy per Si atom -12405.939171 kJ/mol
# Density = 2.000459 g / cm^3
# Si number density = 20.050222 Si / 1000 Ang^3
#
#
#
# Elastic Constant Matrix: (Units=GPa)
#
#
# Indices 1 2 3 4 5 6 
#
# 1 113.8893 47.5008 52.5279 0.0000 0.0000 0.0000
# 2 47.5008 90.9890 40.7060 0.0000 0.0000 0.0000
# 3 52.5279 40.7060 130.1568 0.0000 0.0000 0.0000
# 4 0.0000 0.0000 0.0000 -5.9728 0.0000 0.0000
# 5 0.0000 0.0000 0.0000 0.0000 37.0981 0.0000
# 6 0.0000 0.0000 0.0000 0.0000 0.0000 52.3827
#
#
#
# Elastic Compliance Matrix: (Units=1/GPa)
#
#
# Indices 1 2 3 4 5 6 
#
# 1 0.012445 -0.004941 -0.003477 0.000000 0.000000 0.000000
# 2 -0.004941 0.014740 -0.002616 0.000000 0.000000 0.000000
# 3 -0.003477 -0.002616 0.009904 0.000000 0.000000 0.000000
# 4 0.000000 0.000000 0.000000 -0.167425 0.000000 0.000000
# 5 0.000000 0.000000 0.000000 0.000000 0.026956 0.000000
# 6 0.000000 0.000000 0.000000 0.000000 0.000000 0.019090
#
#
# Mechanical properties :
#
#
# Convention : Reuss Voigt Hill
#
# Bulk Modulus (GPa) = 66.57255 68.50050 67.53653
# Shear Modulus (GPa) = -87.39149 29.65495 -28.86827
#
# Velocity S-wave (km/s) = -6.60915 3.84999 -3.79858
# Velocity P-wave (km/s) = 4.99662 7.34860 3.81023
#
# Compressibility (1/GPa) = 0.01502121
#
# Stress axis : x y z
#
# Youngs Moduli (GPa) = 80.35268 67.84164 100.96547
#
# Poissons Ratio (x) = 0.33523 0.35107
# Poissons Ratio (y) = 0.39706 0.26410
# Poissons Ratio (z) = 0.27940 0.17745
#
# Static dielectric constant tensor:
#      x y z
#    x 3.791490 0.000000 0.000000 
#    y 0.000000 3.943090 0.000000 
#    z 0.000000 0.000000 3.733590 
# 
# 
# High freq. dielectric constant tensor:
#      x y z
#    x 1.795820 0.000000 0.000000 
#    y 0.000000 1.797580 0.000000 
#    z 0.000000 0.000000 1.790280 
# 
# From -- ./inp_files/6657.got.cif
#   From: 2010.03.12/outbox.cif.g09.slc.cpg/sg53_4_cif.got.tgz:6657.got - 2010.04.16 14:36:59.
