data_PCOD8220196
_publ_section_title
;
Structure prediction by ZEFSAII (Michael W. Deem and Ramdas Pophale) SiO2 
 PCOD8220196
Probable space group: P M N A
;
_chemical_formula_sum "Si O2"
_cell_formula_units_Z 56
_cell_length_a 21.440613
_cell_length_b 8.046285
_cell_length_c 16.088100
_cell_angle_alpha 90.000000
_cell_angle_beta 90.000000
_cell_angle_gamma 90.000000
_cell_volume 2775.475297
_symmetry_space_group_name_H-M "P M N A"
_symmetry_group_IT_number 53
_symmetry_cell_setting 'orthorhombic'
loop_
_space_group_symop_operation_xyz
x,y,z
1/2-x,-y,1/2+z
x,-y,-z
1/2-x,y,1/2-z
-x,-y,-z
1/2+x,y,1/2-z
-x,y,z
1/2+x,-y,1/2+z
loop_
_atom_site_type_symbol
_atom_site_label
_atom_site_fract_x
_atom_site_fract_y
_atom_site_fract_z
Si Si1 0.817835 0.626008 0.424311
Si Si2 0.182825 0.379000 0.923192
Si Si3 0.930419 0.887762 0.251343
Si Si4 0.569694 0.196431 0.996612
Si Si5 0.431034 0.861712 0.434654
Si Si6 0.072642 0.229347 0.316837
Si Si7 0.640090 0.460979 0.753453
O O1 0.823812 0.500000 0.500000
O O2 0.749893 0.718365 0.425727
O O3 0.877564 0.749071 0.430467
O O4 0.817135 0.530654 0.335714
O O5 0.122245 0.273174 0.940451
O O6 0.177198 0.470253 0.833490
O O7 0.186259 0.500000 0.000000
O O8 0.931900 0.943976 0.155653
O O9 0.895083 0.714604 0.260266
O O10 0.000000 0.858209 0.286942
O O11 0.898040 0.045788 0.297584
O O12 0.500000 0.257126 0.969153
O O13 0.585806 0.273725 0.086852
O O14 0.569862 0.000000 0.000000
O O15 0.500000 0.784528 0.453884
O O16 0.412992 0.000000 0.500000
O O17 0.096859 0.375575 0.257062
O O18 0.000000 0.212899 0.298143
#
# Coordination Sequence:
#
# PCOD8220196 Si02
#       7
#     8   8   8   8   8   8   8
#     4  11  22  40  59  84 123 162 198 248 301 360
#     4  10  24  40  60  87 117 157 206 254 305 360
#     4   9  19  35  55  86 123 152 195 251 302 364
#     4  10  21  37  60  93 129 162 204 254 304 372
#     4   9  19  37  60  85 115 152 197 253 313 364
#     4  10  20  34  58  92 124 161 199 245 310 368
#     4  11  21  38  62  83 117 163 204 251 303 361
#
# _framework density 20.176725000000001
#
# number of rings (size 3 to 8) (size 9 to 14) (size 15 to 20)
#    0.000    2.000    1.429    1.714    2.000    4.000 
#    0.000    0.000    0.000    1.714    0.000    0.000 
#    0.000    0.000    0.000    0.000    0.000    0.000 
#
# Total GULP energy -693749.109496 kJ/mol
# GULP energy per Si atom -12388.376955 kJ/mol
# Density = 2.013080 g / cm^3
# Si number density = 20.176725 Si / 1000 Ang^3
#
#
#
# Elastic Constant Matrix: (Units=GPa)
#
#
# Indices 1 2 3 4 5 6 
#
# 1 121.9792 36.3746 39.2921 0.0000 0.0000 0.0000
# 2 36.3746 83.3278 27.6574 0.0000 0.0000 0.0000
# 3 39.2921 27.6574 124.6232 0.0000 0.0000 0.0000
# 4 0.0000 0.0000 0.0000 30.6911 0.0000 0.0000
# 5 0.0000 0.0000 0.0000 0.0000 -17.4472 0.0000
# 6 0.0000 0.0000 0.0000 0.0000 0.0000 5.8403
#
#
#
# Elastic Compliance Matrix: (Units=1/GPa)
#
#
# Indices 1 2 3 4 5 6 
#
# 1 0.010032 -0.003594 -0.002365 0.000000 0.000000 0.000000
# 2 -0.003594 0.014243 -0.002028 0.000000 0.000000 0.000000
# 3 -0.002365 -0.002028 0.009220 0.000000 0.000000 0.000000
# 4 0.000000 0.000000 0.000000 0.032583 0.000000 0.000000
# 5 0.000000 0.000000 0.000000 0.000000 -0.057316 0.000000
# 6 0.000000 0.000000 0.000000 0.000000 0.000000 0.171225
#
#
# Mechanical properties :
#
#
# Convention : Reuss Voigt Hill
#
# Bulk Modulus (GPa) = 57.07643 59.61982 58.34813
# Shear Modulus (GPa) = 24.77695 18.92391 21.85043
#
# Velocity S-wave (km/s) = 3.50808 3.06585 3.29439
# Velocity P-wave (km/s) = 6.69018 6.49196 6.59181
#
# Compressibility (1/GPa) = 0.01752037
#
# Stress axis : x y z
#
# Youngs Moduli (GPa) = 99.68317 70.21142 108.46064
#
# Poissons Ratio (x) = 0.25234 0.25654
# Poissons Ratio (y) = 0.35827 0.21993
# Poissons Ratio (z) = 0.23578 0.14237
#
# Static dielectric constant tensor:
#      x y z
#    x 4.038160 0.000000 0.000000 
#    y 0.000000 3.424110 0.000000 
#    z 0.000000 0.000000 4.152680 
# 
# 
# High freq. dielectric constant tensor:
#      x y z
#    x 1.783550 0.000000 0.000000 
#    y 0.000000 1.761820 0.000000 
#    z 0.000000 0.000000 1.811850 
# 
# From -- ./inp_files/24344.got.cif
#   From: 2010.03.12/outbox.cif.g09.slc.cpg/sg53_13_cif.got.tgz:24344.got - 2010.04.16 14:36:59.
