data_PCOD8220661
_publ_section_title
;
Structure prediction by ZEFSAII (Michael W. Deem and Ramdas Pophale) SiO2 
 PCOD8220661
Probable space group: P M N A
;
_chemical_formula_sum "Si O2"
_cell_formula_units_Z 48
_cell_length_a 16.227247
_cell_length_b 26.991422
_cell_length_c 5.039187
_cell_angle_alpha 90.000000
_cell_angle_beta 90.000000
_cell_angle_gamma 90.000000
_cell_volume 2207.146126
_symmetry_space_group_name_H-M "P M N A"
_symmetry_group_IT_number 53
_symmetry_cell_setting 'orthorhombic'
loop_
_space_group_symop_operation_xyz
x,y,z
1/2-x,-y,1/2+z
x,-y,-z
1/2-x,y,1/2-z
-x,-y,-z
1/2+x,y,1/2-z
-x,y,z
1/2+x,-y,1/2+z
loop_
_atom_site_type_symbol
_atom_site_label
_atom_site_fract_x
_atom_site_fract_y
_atom_site_fract_z
Si Si1 0.592867 0.967375 0.758475
Si Si2 0.595462 0.383311 0.987309
Si Si3 0.406037 0.191650 0.840209
Si Si4 0.303959 0.287118 0.994951
Si Si5 0.595699 0.445290 0.501181
Si Si6 0.342277 0.138399 0.323497
O O1 0.500000 0.949870 0.832653
O O2 0.591206 0.000000 0.500000
O O3 0.649988 0.920678 0.693834
O O4 0.630057 0.000000 0.000000
O O5 0.500000 0.369672 0.950903
O O6 0.633707 0.408127 0.721659
O O7 0.639587 0.333066 0.076659
O O8 0.610532 0.423284 0.213827
O O9 0.500000 0.202583 0.756999
O O10 0.362040 0.158721 0.615462
O O11 0.359186 0.242743 0.884695
O O12 0.405562 0.161552 0.113790
O O13 0.250000 0.270360 0.250000
O O14 0.250000 0.305438 0.750000
O O15 0.636787 0.500000 0.500000
O O16 0.500000 0.450900 0.575777
O O17 0.250000 0.154469 0.250000
#
# Coordination Sequence:
#
# PCOD8220661 Si02
#       6
#     8   8   8   8   8   8
#     4  10  21  38  61  90 126 168 212 255 302 360
#     4  10  20  36  59  87 118 155 202 250 303 368
#     4  12  25  44  68  93 123 163 212 258 309 374
#     4  12  25  42  63  88 123 160 201 254 316 374
#     4   9  17  31  56  88 118 151 198 254 302 353
#     4  12  25  42  66  97 132 165 205 259 318 373
#
# _framework density 21.747540000000001
#
# number of rings (size 3 to 8) (size 9 to 14) (size 15 to 20)
#    0.000    1.167    0.000    7.500    0.000    4.000 
#    0.000    5.000    0.000   10.000    0.000    0.000 
#    0.000    0.000    0.000    0.000    0.000    0.000 
#
# Total GULP energy -595361.474448 kJ/mol
# GULP energy per Si atom -12403.364051 kJ/mol
# Density = 2.169804 g / cm^3
# Si number density = 21.747540 Si / 1000 Ang^3
#
#
#
# Elastic Constant Matrix: (Units=GPa)
#
#
# Indices 1 2 3 4 5 6 
#
# 1 80.1142 39.9381 21.2242 0.0000 0.0000 0.0000
# 2 39.9381 136.6770 22.7879 0.0000 0.0000 0.0000
# 3 21.2242 22.7879 99.4417 0.0000 0.0000 0.0000
# 4 0.0000 0.0000 0.0000 36.4383 0.0000 0.0000
# 5 0.0000 0.0000 0.0000 0.0000 22.2300 0.0000
# 6 0.0000 0.0000 0.0000 0.0000 0.0000 14.9207
#
#
#
# Elastic Compliance Matrix: (Units=1/GPa)
#
#
# Indices 1 2 3 4 5 6 
#
# 1 0.015100 -0.004029 -0.002300 0.000000 0.000000 0.000000
# 2 -0.004029 0.008682 -0.001130 0.000000 0.000000 0.000000
# 3 -0.002300 -0.001130 0.010806 0.000000 0.000000 0.000000
# 4 0.000000 0.000000 0.000000 0.027444 0.000000 0.000000
# 5 0.000000 0.000000 0.000000 0.000000 0.044984 0.000000
# 6 0.000000 0.000000 0.000000 0.000000 0.000000 0.067021
#
#
# Mechanical properties :
#
#
# Convention : Reuss Voigt Hill
#
# Bulk Modulus (GPa) = 50.83488 53.79260 52.31374
# Shear Modulus (GPa) = 25.57413 30.20332 27.88872
#
# Velocity S-wave (km/s) = 3.43294 3.73072 3.58493
# Velocity P-wave (km/s) = 6.25613 6.58380 6.42206
#
# Compressibility (1/GPa) = 0.01967153
#
# Stress axis : x y z
#
# Youngs Moduli (GPa) = 66.22584 115.17890 92.54262
#
# Poissons Ratio (x) = 0.46404 0.21281
# Poissons Ratio (y) = 0.26682 0.10454
# Poissons Ratio (z) = 0.15229 0.13012
#
# Static dielectric constant tensor:
#      x y z
#    x 3.914170 0.000000 0.000000 
#    y 0.000000 3.911110 0.000000 
#    z 0.000000 0.000000 4.002430 
# 
# 
# High freq. dielectric constant tensor:
#      x y z
#    x 1.835020 0.000000 0.000000 
#    y 0.000000 1.868010 0.000000 
#    z 0.000000 0.000000 1.869610 
# 
# From -- ./inp_files/1433.got.cif
#   From: 2010.03.12/outbox.cif.g09.slc.cpg/sg53_1_cif.got.tgz:1433.got - 2010.04.16 14:36:59.
