data_PCOD8220136
_publ_section_title
;
Structure prediction by ZEFSAII (Michael W. Deem and Ramdas Pophale) SiO2 
 PCOD8220136
Probable space group: P M N A
;
_chemical_formula_sum "Si O2"
_cell_formula_units_Z 64
_cell_length_a 8.880449
_cell_length_b 21.521748
_cell_length_c 17.759197
_cell_angle_alpha 90.000000
_cell_angle_beta 90.000000
_cell_angle_gamma 90.000000
_cell_volume 3394.187199
_symmetry_space_group_name_H-M "P M N A"
_symmetry_group_IT_number 53
_symmetry_cell_setting 'orthorhombic'
loop_
_space_group_symop_operation_xyz
x,y,z
1/2-x,-y,1/2+z
x,-y,-z
1/2-x,y,1/2-z
-x,-y,-z
1/2+x,y,1/2-z
-x,y,z
1/2+x,-y,1/2+z
loop_
_atom_site_type_symbol
_atom_site_label
_atom_site_fract_x
_atom_site_fract_y
_atom_site_fract_z
Si Si1 0.177189 0.107650 0.579579
Si Si2 0.174610 0.115345 0.403197
Si Si3 0.676985 0.434259 0.468620
Si Si4 0.321511 0.999097 0.669740
Si Si5 0.324611 0.746672 0.903297
Si Si6 0.677820 0.623253 0.827611
Si Si7 0.327641 0.308606 0.541002
Si Si8 0.324429 0.780014 0.330458
O O1 0.212224 0.112054 0.491363
O O2 0.248210 0.164987 0.623463
O O3 0.000000 0.105763 0.595823
O O4 0.253366 0.044524 0.607464
O O5 0.279999 0.070562 0.354855
O O6 0.214184 0.184617 0.373357
O O7 0.000000 0.098454 0.388606
O O8 0.732792 0.500000 0.500000
O O9 0.500000 0.435047 0.451253
O O10 0.765588 0.423307 0.391593
O O11 0.720378 0.380609 0.529446
O O12 0.250000 0.015746 0.750000
O O13 0.500000 0.006662 0.674780
O O14 0.500000 0.738821 0.914698
O O15 0.265477 0.693568 0.846267
O O16 0.259055 0.737662 0.986135
O O17 0.750000 0.601469 0.750000
O O18 0.500000 0.619025 0.821071
O O19 0.500000 0.300970 0.518448
O O20 0.298491 0.285496 0.626145
O O21 0.250000 0.772445 0.250000
O O22 0.500000 0.795638 0.321109
#
# Coordination Sequence:
#
# PCOD8220136 Si02
#       8
#     8   8   8   8   8   8   8   8
#     4  11  22  39  62  83 109 143 182 227 279 336
#     4  10  21  38  60  85 112 143 181 225 279 337
#     4   9  18  35  59  84 113 151 191 232 279 330
#     4  12  26  42  58  78 109 145 186 232 280 332
#     4   9  18  34  56  82 110 143 180 222 274 331
#     4  10  20  34  55  83 117 151 190 233 277 329
#     4   9  18  33  54  80 110 143 182 225 270 326
#     4  11  22  35  54  81 112 143 183 229 279 333
#
# _framework density 18.855765999999999
#
# number of rings (size 3 to 8) (size 9 to 14) (size 15 to 20)
#    0.000    1.875    1.250    3.000    0.000    4.750 
#    0.000    1.875    0.000    1.500    0.000    0.000 
#    0.000    0.000    0.000    0.000    0.000    0.000 
#
# Total GULP energy -793652.081387 kJ/mol
# GULP energy per Si atom -12400.813772 kJ/mol
# Density = 1.881285 g / cm^3
# Si number density = 18.855766 Si / 1000 Ang^3
#
#
#
# Elastic Constant Matrix: (Units=GPa)
#
#
# Indices 1 2 3 4 5 6 
#
# 1 78.0328 33.7710 33.7680 0.0000 0.0000 0.0000
# 2 33.7710 104.7463 35.2718 0.0000 0.0000 0.0000
# 3 33.7680 35.2718 77.2169 0.0000 0.0000 0.0000
# 4 0.0000 0.0000 0.0000 17.0753 0.0000 0.0000
# 5 0.0000 0.0000 0.0000 0.0000 30.1145 0.0000
# 6 0.0000 0.0000 0.0000 0.0000 0.0000 26.4564
#
#
#
# Elastic Compliance Matrix: (Units=1/GPa)
#
#
# Indices 1 2 3 4 5 6 
#
# 1 0.016816 -0.003481 -0.005764 0.000000 0.000000 0.000000
# 2 -0.003481 0.012003 -0.003961 0.000000 0.000000 0.000000
# 3 -0.005764 -0.003961 0.017280 0.000000 0.000000 0.000000
# 4 0.000000 0.000000 0.000000 0.058564 0.000000 0.000000
# 5 0.000000 0.000000 0.000000 0.000000 0.033207 0.000000
# 6 0.000000 0.000000 0.000000 0.000000 0.000000 0.037798
#
#
# Mechanical properties :
#
#
# Convention : Reuss Voigt Hill
#
# Bulk Modulus (GPa) = 50.79070 51.73529 51.26300
# Shear Modulus (GPa) = 23.96468 25.20827 24.58648
#
# Velocity S-wave (km/s) = 3.56890 3.66033 3.61491
# Velocity P-wave (km/s) = 6.63157 6.73506 6.68351
#
# Compressibility (1/GPa) = 0.01968864
#
# Stress axis : x y z
#
# Youngs Moduli (GPa) = 59.46825 83.31443 57.86941
#
# Poissons Ratio (x) = 0.28999 0.33355
# Poissons Ratio (y) = 0.20699 0.22920
# Poissons Ratio (z) = 0.34276 0.32997
#
# Static dielectric constant tensor:
#      x y z
#    x 3.480470 0.000000 0.000000 
#    y 0.000000 3.713530 0.000000 
#    z 0.000000 0.000000 3.452980 
# 
# 
# High freq. dielectric constant tensor:
#      x y z
#    x 1.736590 0.000000 0.000000 
#    y 0.000000 1.734090 0.000000 
#    z 0.000000 0.000000 1.727890 
# 
# From -- ./inp_files/20902.got.cif
#   From: 2010.03.12/outbox.cif.g09.slc.cpg/sg53_11_cif.got.tgz:20902.got - 2010.04.16 14:36:59.
