data_PCOD8220691
_publ_section_title
;
Structure prediction by ZEFSAII (Michael W. Deem and Ramdas Pophale) SiO2 
 PCOD8220691
Probable space group: P M N A
;
_chemical_formula_sum "Si O2"
_cell_formula_units_Z 64
_cell_length_a 13.867118
_cell_length_b 18.380354
_cell_length_c 12.434006
_cell_angle_alpha 90.000000
_cell_angle_beta 90.000000
_cell_angle_gamma 90.000000
_cell_volume 3169.211004
_symmetry_space_group_name_H-M "P M N A"
_symmetry_group_IT_number 53
_symmetry_cell_setting 'orthorhombic'
loop_
_space_group_symop_operation_xyz
x,y,z
1/2-x,-y,1/2+z
x,-y,-z
1/2-x,y,1/2-z
-x,-y,-z
1/2+x,y,1/2-z
-x,y,z
1/2+x,-y,1/2+z
loop_
_atom_site_type_symbol
_atom_site_label
_atom_site_fract_x
_atom_site_fract_y
_atom_site_fract_z
Si Si1 0.721402 0.619924 0.130445
Si Si2 0.898026 0.540879 0.106916
Si Si3 0.114854 0.326408 0.439012
Si Si4 0.221485 0.185311 0.371885
Si Si5 0.113575 0.012832 0.831530
Si Si6 0.614051 0.882395 0.513532
Si Si7 0.387292 0.476097 0.174119
Si Si8 0.885528 0.039594 0.394676
O O1 0.750000 0.647681 0.250000
O O2 0.826041 0.606210 0.079164
O O3 0.665226 0.543570 0.118417
O O4 0.658496 0.675949 0.060873
O O5 0.860754 0.484044 0.198752
O O6 0.000000 0.574665 0.148161
O O7 0.919594 0.500000 0.000000
O O8 0.163740 0.260285 0.377800
O O9 0.147173 0.399278 0.375060
O O10 0.000000 0.317031 0.443739
O O11 0.250000 0.173765 0.250000
O O12 0.316196 0.184536 0.451588
O O13 0.147373 0.122312 0.403056
O O14 0.000000 0.006604 0.824065
O O15 0.148077 0.945349 0.903898
O O16 0.156645 0.004000 0.710507
O O17 0.137942 0.089289 0.891951
O O18 0.500000 0.862216 0.524900
O O19 0.500000 0.484138 0.151046
O O20 0.000000 0.038684 0.391830
O O21 0.844492 0.000000 0.500000
#
# Coordination Sequence:
#
# PCOD8220691 Si02
#       8
#     8   8   8   8   8   8   8   8
#     4  10  20  36  61  85 109 147 201 253 303 358
#     4   9  17  29  50  83 118 147 182 239 300 350
#     4  11  24  41  59  86 124 162 204 250 307 371
#     4  12  25  37  58  84 120 161 197 240 302 370
#     4   8  15  32  60  86 109 142 191 245 291 339
#     4   9  18  35  59  84 111 147 196 248 292 348
#     4   9  18  34  59  87 112 148 197 249 300 357
#     4  10  21  37  58  88 122 153 192 243 299 357
#
# _framework density 20.194299999999998
#
# number of rings (size 3 to 8) (size 9 to 14) (size 15 to 20)
#    0.000    2.250    1.250    2.625    1.750    4.500 
#    0.000    1.875    0.000    2.250    0.000    0.000 
#    0.000    0.000    0.000    0.000    0.000    0.000 
#
# Total GULP energy -792871.419469 kJ/mol
# GULP energy per Si atom -12388.615929 kJ/mol
# Density = 2.014834 g / cm^3
# Si number density = 20.194300 Si / 1000 Ang^3
#
#
#
# Elastic Constant Matrix: (Units=GPa)
#
#
# Indices 1 2 3 4 5 6 
#
# 1 51.8134 14.7697 24.7040 0.0000 0.0000 0.0000
# 2 14.7697 53.8387 26.6135 0.0000 0.0000 0.0000
# 3 24.7040 26.6135 97.6727 0.0000 0.0000 0.0000
# 4 0.0000 0.0000 0.0000 18.1389 0.0000 0.0000
# 5 0.0000 0.0000 0.0000 0.0000 22.4936 0.0000
# 6 0.0000 0.0000 0.0000 0.0000 0.0000 31.1580
#
#
#
# Elastic Compliance Matrix: (Units=1/GPa)
#
#
# Indices 1 2 3 4 5 6 
#
# 1 0.022636 -0.003906 -0.004661 0.000000 0.000000 0.000000
# 2 -0.003906 0.022139 -0.005045 0.000000 0.000000 0.000000
# 3 -0.004661 -0.005045 0.012792 0.000000 0.000000 0.000000
# 4 0.000000 0.000000 0.000000 0.055130 0.000000 0.000000
# 5 0.000000 0.000000 0.000000 0.000000 0.044457 0.000000
# 6 0.000000 0.000000 0.000000 0.000000 0.000000 0.032094
#
#
# Mechanical properties :
#
#
# Convention : Reuss Voigt Hill
#
# Bulk Modulus (GPa) = 32.95537 37.27770 35.11654
# Shear Modulus (GPa) = 22.06676 23.50727 22.78702
#
# Velocity S-wave (km/s) = 3.30922 3.41553 3.36279
# Velocity P-wave (km/s) = 5.56380 5.83558 5.70131
#
# Compressibility (1/GPa) = 0.03034406
#
# Stress axis : x y z
#
# Youngs Moduli (GPa) = 44.17810 45.16899 78.17586
#
# Poissons Ratio (x) = 0.17642 0.36437
# Poissons Ratio (y) = 0.17255 0.39436
# Poissons Ratio (z) = 0.20591 0.22786
#
# Static dielectric constant tensor:
#      x y z
#    x 4.108710 0.000000 0.000000 
#    y 0.000000 3.250450 0.000000 
#    z 0.000000 0.000000 4.073730 
# 
# 
# High freq. dielectric constant tensor:
#      x y z
#    x 1.813650 0.000000 0.000000 
#    y 0.000000 1.733140 0.000000 
#    z 0.000000 0.000000 1.796600 
# 
# From -- ./inp_files/16216.got.cif
#   From: 2010.03.12/outbox.cif.g09.slc.cpg/sg53_9_cif.got.tgz:16216.got - 2010.04.16 14:36:59.
