data_PCOD8220777
_publ_section_title
;
Structure prediction by ZEFSAII (Michael W. Deem and Ramdas Pophale) SiO2 
 PCOD8220777
Probable space group: P M N A
;
_chemical_formula_sum "Si O2"
_cell_formula_units_Z 40
_cell_length_a 8.789514
_cell_length_b 10.130348
_cell_length_c 22.773071
_cell_angle_alpha 90.000000
_cell_angle_beta 90.000000
_cell_angle_gamma 90.000000
_cell_volume 2027.733270
_symmetry_space_group_name_H-M "P M N A"
_symmetry_group_IT_number 53
_symmetry_cell_setting 'orthorhombic'
loop_
_space_group_symop_operation_xyz
x,y,z
1/2-x,-y,1/2+z
x,-y,-z
1/2-x,y,1/2-z
-x,-y,-z
1/2+x,y,1/2-z
-x,y,z
1/2+x,-y,1/2+z
loop_
_atom_site_type_symbol
_atom_site_label
_atom_site_fract_x
_atom_site_fract_y
_atom_site_fract_z
Si Si1 0.322714 0.233655 0.613867
Si Si2 0.322348 0.145007 0.488762
Si Si3 0.820471 0.513796 0.186614
Si Si4 0.318813 0.764079 0.636252
Si Si5 0.320595 0.984773 0.190041
O O1 0.500000 0.205610 0.626417
O O2 0.290882 0.241132 0.544006
O O3 0.267827 0.369152 0.643328
O O4 0.226484 0.111430 0.637672
O O5 0.500000 0.125064 0.478063
O O6 0.255651 0.211975 0.429876
O O7 0.249150 0.000000 0.500000
O O8 0.750000 0.538088 0.250000
O O9 0.761353 0.378493 0.157826
O O10 0.000000 0.512083 0.193739
O O11 0.500000 0.775028 0.639828
O O12 0.245489 0.869971 0.679609
O O13 0.250000 0.927466 0.250000
O O14 0.500000 0.991709 0.195674
#
# Coordination Sequence:
#
# PCOD8220777 Si02
#       5
#     8   8   8   8   8
#     4  10  20  37  59  85 115 150 189 232 284 338
#     4   9  16  31  59  87 114 148 185 232 283 335
#     4  10  22  37  57  83 115 152 191 236 283 338
#     4  10  20  37  59  85 115 150 189 232 284 338
#     4  12  24  37  56  83 111 148 194 240 285 336
#
# _framework density 19.726459999999999
#
# number of rings (size 3 to 8) (size 9 to 14) (size 15 to 20)
#    0.000    1.800    2.000    3.000    0.000    5.600 
#    0.000    6.000    0.000    0.000    0.000    4.200 
#    0.000    0.000    0.000    0.000    0.000    0.000 
#
# Total GULP energy -496082.048155 kJ/mol
# GULP energy per Si atom -12402.051204 kJ/mol
# Density = 1.968156 g / cm^3
# Si number density = 19.726460 Si / 1000 Ang^3
#
#
#
# Elastic Constant Matrix: (Units=GPa)
#
#
# Indices 1 2 3 4 5 6 
#
# 1 43.5139 21.4889 14.4647 0.0000 0.0000 0.0000
# 2 21.4889 105.1656 21.4417 0.0000 0.0000 0.0000
# 3 14.4647 21.4417 105.6053 0.0000 0.0000 0.0000
# 4 0.0000 0.0000 0.0000 41.0501 0.0000 0.0000
# 5 0.0000 0.0000 0.0000 0.0000 25.1614 0.0000
# 6 0.0000 0.0000 0.0000 0.0000 0.0000 4.6086
#
#
#
# Elastic Compliance Matrix: (Units=1/GPa)
#
#
# Indices 1 2 3 4 5 6 
#
# 1 0.026234 -0.004828 -0.002613 0.000000 0.000000 0.000000
# 2 -0.004828 0.010808 -0.001533 0.000000 0.000000 0.000000
# 3 -0.002613 -0.001533 0.010138 0.000000 0.000000 0.000000
# 4 0.000000 0.000000 0.000000 0.024361 0.000000 0.000000
# 5 0.000000 0.000000 0.000000 0.000000 0.039743 0.000000
# 6 0.000000 0.000000 0.000000 0.000000 0.000000 0.216987
#
#
# Mechanical properties :
#
#
# Convention : Reuss Voigt Hill
#
# Bulk Modulus (GPa) = 34.20864 41.00837 37.60850
# Shear Modulus (GPa) = 14.04640 27.28998 20.66819
#
# Velocity S-wave (km/s) = 2.67134 3.72347 3.24039
# Velocity P-wave (km/s) = 5.18593 6.27051 5.75383
#
# Compressibility (1/GPa) = 0.02923238
#
# Stress axis : x y z
#
# Youngs Moduli (GPa) = 38.11865 92.52532 98.63477
#
# Poissons Ratio (x) = 0.44668 0.25774
# Poissons Ratio (y) = 0.18403 0.15122
# Poissons Ratio (z) = 0.09961 0.14185
#
# Static dielectric constant tensor:
#      x y z
#    x 3.238240 0.000000 0.000000 
#    y 0.000000 3.720200 0.000000 
#    z 0.000000 0.000000 3.807840 
# 
# 
# High freq. dielectric constant tensor:
#      x y z
#    x 1.731970 0.000000 0.000000 
#    y 0.000000 1.770670 0.000000 
#    z 0.000000 0.000000 1.787000 
# 
# From -- ./inp_files/33610.got.cif
#   From: 2010.03.12/outbox.cif.g09.slc.cpg/sg53_17_cif.got.tgz:33610.got - 2010.04.16 14:36:59.
