data_PCOD8220090
_publ_section_title
;
Structure prediction by ZEFSAII (Michael W. Deem and Ramdas Pophale) SiO2 
 PCOD8220090
Probable space group: P M N A
;
_chemical_formula_sum "Si O2"
_cell_formula_units_Z 56
_cell_length_a 9.067460
_cell_length_b 21.299160
_cell_length_c 15.155600
_cell_angle_alpha 90.000000
_cell_angle_beta 90.000000
_cell_angle_gamma 90.000000
_cell_volume 2926.990136
_symmetry_space_group_name_H-M "P M N A"
_symmetry_group_IT_number 53
_symmetry_cell_setting 'orthorhombic'
loop_
_space_group_symop_operation_xyz
x,y,z
1/2-x,-y,1/2+z
x,-y,-z
1/2-x,y,1/2-z
-x,-y,-z
1/2+x,y,1/2-z
-x,y,z
1/2+x,-y,1/2+z
loop_
_atom_site_type_symbol
_atom_site_label
_atom_site_fract_x
_atom_site_fract_y
_atom_site_fract_z
Si Si1 0.669845 0.513395 0.159845
Si Si2 0.665762 0.967866 0.905741
Si Si3 0.675020 0.276573 0.013948
Si Si4 0.673568 0.650181 0.156601
Si Si5 0.827673 0.622021 0.655997
Si Si6 0.173160 0.854534 0.981003
Si Si7 0.172659 0.917555 0.165527
O O1 0.750000 0.504036 0.250000
O O2 0.500000 0.518701 0.182182
O O3 0.717861 0.580416 0.117986
O O4 0.702240 0.447229 0.109700
O O5 0.500000 0.957604 0.868990
O O6 0.749412 0.901540 0.912228
O O7 0.757839 0.013038 0.841916
O O8 0.659383 0.000000 0.000000
O O9 0.500000 0.265705 0.017429
O O10 0.728362 0.326653 0.086593
O O11 0.760008 0.213323 0.035853
O O12 0.724775 0.300314 0.917073
O O13 0.750000 0.664883 0.250000
O O14 0.500000 0.655398 0.172270
O O15 0.750000 0.631562 0.750000
O O16 0.000000 0.630415 0.673792
O O17 0.000000 0.854677 0.961693
O O18 0.207719 0.875007 0.081051
O O19 0.250000 0.884621 0.250000
O O20 0.000000 0.924486 0.181781
#
# Coordination Sequence:
#
# PCOD8220090 Si02
#       7
#     8   8   8   8   8   8   8
#     4   8  14  27  48  72  97 127 165 212 267 319
#     4   9  17  32  55  78 100 128 161 200 246 293
#     4  10  21  35  51  74 104 140 180 218 261 315
#     4   9  18  32  50  73 103 137 173 216 264 317
#     4   9  18  33  53  75  99 129 169 219 271 321
#     4  10  21  36  53  74 103 139 175 211 252 302
#     4  10  20  34  54  81 109 135 168 209 252 300
#
# _framework density 19.132282
#
# number of rings (size 3 to 8) (size 9 to 14) (size 15 to 20)
#    0.000    2.714    0.000    1.286    0.000    5.714 
#    0.000    6.429    0.000    1.714    0.000   11.000 
#    0.000    0.000    0.000    0.000    0.000    0.000 
#
# Total GULP energy -693872.656171 kJ/mol
# GULP energy per Si atom -12390.583146 kJ/mol
# Density = 1.908874 g / cm^3
# Si number density = 19.132282 Si / 1000 Ang^3
#
#
#
# Elastic Constant Matrix: (Units=GPa)
#
#
# Indices 1 2 3 4 5 6 
#
# 1 53.8722 18.6760 6.0497 0.0000 0.0000 0.0000
# 2 18.6760 96.4829 -1.4124 0.0000 0.0000 0.0000
# 3 6.0497 -1.4124 33.0637 0.0000 0.0000 0.0000
# 4 0.0000 0.0000 0.0000 21.5794 0.0000 0.0000
# 5 0.0000 0.0000 0.0000 0.0000 25.9292 0.0000
# 6 0.0000 0.0000 0.0000 0.0000 0.0000 29.8132
#
#
#
# Elastic Compliance Matrix: (Units=1/GPa)
#
#
# Indices 1 2 3 4 5 6 
#
# 1 0.020389 -0.004004 -0.003902 0.000000 0.000000 0.000000
# 2 -0.004004 0.011157 0.001209 0.000000 0.000000 0.000000
# 3 -0.003902 0.001209 0.031010 0.000000 0.000000 0.000000
# 4 0.000000 0.000000 0.000000 0.046340 0.000000 0.000000
# 5 0.000000 0.000000 0.000000 0.000000 0.038567 0.000000
# 6 0.000000 0.000000 0.000000 0.000000 0.000000 0.033542
#
#
# Mechanical properties :
#
#
# Convention : Reuss Voigt Hill
#
# Bulk Modulus (GPa) = 20.34014 25.56058 22.95036
# Shear Modulus (GPa) = 23.72083 26.13807 24.92945
#
# Velocity S-wave (km/s) = 3.52495 3.70019 3.61363
# Velocity P-wave (km/s) = 5.21741 5.62531 5.42520
#
# Compressibility (1/GPa) = 0.04916386
#
# Stress axis : x y z
#
# Youngs Moduli (GPa) = 49.04714 89.62812 32.24748
#
# Poissons Ratio (x) = 0.35884 0.12581
# Poissons Ratio (y) = 0.19637 -0.03899
# Poissons Ratio (z) = 0.19136 -0.10838
#
# Static dielectric constant tensor:
#      x y z
#    x 3.469500 0.000000 0.000000 
#    y 0.000000 3.742060 0.000000 
#    z 0.000000 0.000000 3.304950 
# 
# 
# High freq. dielectric constant tensor:
#      x y z
#    x 1.742850 0.000000 0.000000 
#    y 0.000000 1.750280 0.000000 
#    z 0.000000 0.000000 1.720900 
# 
# From -- ./inp_files/20585.got.cif
#   From: 2010.03.12/outbox.cif.g09.slc.cpg/sg53_11_cif.got.tgz:20585.got - 2010.04.16 14:36:59.
