data_PCOD8220052
_publ_section_title
;
Structure prediction by ZEFSAII (Michael W. Deem and Ramdas Pophale) SiO2 
 PCOD8220052
Probable space group: P M N A
;
_chemical_formula_sum "Si O2"
_cell_formula_units_Z 64
_cell_length_a 9.333048
_cell_length_b 15.765610
_cell_length_c 23.156404
_cell_angle_alpha 90.000000
_cell_angle_beta 90.000000
_cell_angle_gamma 90.000000
_cell_volume 3407.260954
_symmetry_space_group_name_H-M "P M N A"
_symmetry_group_IT_number 53
_symmetry_cell_setting 'orthorhombic'
loop_
_space_group_symop_operation_xyz
x,y,z
1/2-x,-y,1/2+z
x,-y,-z
1/2-x,y,1/2-z
-x,-y,-z
1/2+x,y,1/2-z
-x,y,z
1/2+x,-y,1/2+z
loop_
_atom_site_type_symbol
_atom_site_label
_atom_site_fract_x
_atom_site_fract_y
_atom_site_fract_z
Si Si1 0.332448 0.397117 0.689584
Si Si2 0.330805 0.099760 0.306848
Si Si3 0.347601 0.288170 0.297390
Si Si4 0.330811 0.293683 0.577344
Si Si5 0.337013 0.950676 0.914889
Si Si6 0.337118 0.134606 0.968568
Si Si7 0.156666 0.561325 0.880786
Si Si8 0.656927 0.403616 0.012225
O O1 0.250000 0.381911 0.750000
O O2 0.500000 0.402120 0.704792
O O3 0.300959 0.320357 0.644234
O O4 0.282088 0.485197 0.659144
O O5 0.250000 0.064824 0.250000
O O6 0.500000 0.083641 0.301211
O O7 0.285475 0.197715 0.317633
O O8 0.273083 0.051428 0.362479
O O9 0.250000 0.333018 0.250000
O O10 0.500000 0.268386 0.267729
O O11 0.369218 0.352571 0.347894
O O12 0.500000 0.293155 0.564796
O O13 0.267226 0.201553 0.562613
O O14 0.257121 0.362907 0.536315
O O15 0.500000 0.933858 0.894414
O O16 0.321837 0.045139 0.938026
O O17 0.296189 0.880945 0.964075
O O18 0.500000 0.168337 0.963684
O O19 0.267144 0.596171 0.926712
O O20 0.000000 0.532061 0.906019
O O21 0.500000 0.357787 0.015034
O O22 0.629285 0.500000 0.000000
#
# Coordination Sequence:
#
# PCOD8220052 Si02
#       8
#     8   8   8   8   8   8   8   8
#     4  10  22  38  58  81 109 149 192 236 284 330
#     4  10  20  34  53  81 115 150 191 232 278 338
#     4   9  19  33  50  75 108 145 184 225 269 320
#     4  11  23  39  59  85 117 151 188 232 285 337
#     4   9  19  38  61  85 115 147 182 228 287 343
#     4   9  20  39  62  87 114 146 184 231 285 343
#     4  10  20  36  55  78 111 148 186 230 280 330
#     4  11  23  37  55  82 112 147 189 231 276 329
#
# _framework density 18.783415000000002
#
# number of rings (size 3 to 8) (size 9 to 14) (size 15 to 20)
#    0.000    2.125    1.250    2.250    1.750    4.000 
#    0.000    1.875    0.000    1.500    0.000    0.000 
#    0.000    0.000    0.000    0.000    0.000    0.000 
#
# Total GULP energy -793030.364740 kJ/mol
# GULP energy per Si atom -12391.099449 kJ/mol
# Density = 1.874066 g / cm^3
# Si number density = 18.783415 Si / 1000 Ang^3
#
#
#
# Elastic Constant Matrix: (Units=GPa)
#
#
# Indices 1 2 3 4 5 6 
#
# 1 122.6037 36.0489 76.5035 0.0000 0.0000 0.0000
# 2 36.0489 61.6874 37.1149 0.0000 0.0000 0.0000
# 3 76.5035 37.1149 130.5103 0.0000 0.0000 0.0000
# 4 0.0000 0.0000 0.0000 23.3754 0.0000 0.0000
# 5 0.0000 0.0000 0.0000 0.0000 37.6589 0.0000
# 6 0.0000 0.0000 0.0000 0.0000 0.0000 31.7511
#
#
#
# Elastic Compliance Matrix: (Units=1/GPa)
#
#
# Indices 1 2 3 4 5 6 
#
# 1 0.013557 -0.003789 -0.006869 0.000000 0.000000 0.000000
# 2 -0.003789 0.020616 -0.003642 0.000000 0.000000 0.000000
# 3 -0.006869 -0.003642 0.012724 0.000000 0.000000 0.000000
# 4 0.000000 0.000000 0.000000 0.042780 0.000000 0.000000
# 5 0.000000 0.000000 0.000000 0.000000 0.026554 0.000000
# 6 0.000000 0.000000 0.000000 0.000000 0.000000 0.031495
#
#
# Mechanical properties :
#
#
# Convention : Reuss Voigt Hill
#
# Bulk Modulus (GPa) = 54.65341 68.23733 61.44537
# Shear Modulus (GPa) = 27.40833 29.56602 28.48718
#
# Velocity S-wave (km/s) = 3.82406 3.97173 3.89860
# Velocity P-wave (km/s) = 6.97551 7.57893 7.28347
#
# Compressibility (1/GPa) = 0.01829712
#
# Stress axis : x y z
#
# Youngs Moduli (GPa) = 73.76323 48.50550 78.58856
#
# Poissons Ratio (x) = 0.18381 0.53984
# Poissons Ratio (y) = 0.27952 0.28619
# Poissons Ratio (z) = 0.50670 0.17664
#
# Static dielectric constant tensor:
#      x y z
#    x 3.943730 0.000000 0.000000 
#    y 0.000000 3.333850 0.000000 
#    z 0.000000 0.000000 3.420520 
# 
# 
# High freq. dielectric constant tensor:
#      x y z
#    x 1.738390 0.000000 0.000000 
#    y 0.000000 1.721970 0.000000 
#    z 0.000000 0.000000 1.724330 
# 
# From -- ./inp_files/34139.got.cif
#   From: 2010.03.12/outbox.cif.g09.slc.cpg/sg53_18_cif.got.tgz:34139.got - 2010.04.16 14:36:59.
