data_PCOD8220476
_publ_section_title
;
Structure prediction by ZEFSAII (Michael W. Deem and Ramdas Pophale) SiO2 
 PCOD8220476
Probable space group: P M N A
;
_chemical_formula_sum "Si O2"
_cell_formula_units_Z 64
_cell_length_a 8.780448
_cell_length_b 19.742490
_cell_length_c 20.046924
_cell_angle_alpha 90.000000
_cell_angle_beta 90.000000
_cell_angle_gamma 90.000000
_cell_volume 3475.092314
_symmetry_space_group_name_H-M "P M N A"
_symmetry_group_IT_number 53
_symmetry_cell_setting 'orthorhombic'
loop_
_space_group_symop_operation_xyz
x,y,z
1/2-x,-y,1/2+z
x,-y,-z
1/2-x,y,1/2-z
-x,-y,-z
1/2+x,y,1/2-z
-x,y,z
1/2+x,-y,1/2+z
loop_
_atom_site_type_symbol
_atom_site_label
_atom_site_fract_x
_atom_site_fract_y
_atom_site_fract_z
Si Si1 0.178390 0.321895 0.574623
Si Si2 0.820875 0.574227 0.818510
Si Si3 0.823876 0.327515 0.065874
Si Si4 0.819860 0.066766 0.819965
Si Si5 0.179051 0.923589 0.680199
Si Si6 0.320579 0.419853 0.680989
Si Si7 0.822414 0.819722 0.074701
Si Si8 0.826809 0.827381 0.922601
O O1 0.222653 0.338913 0.499090
O O2 0.261525 0.375589 0.620681
O O3 0.228573 0.246495 0.595164
O O4 0.000000 0.329180 0.584538
O O5 0.750000 0.601584 0.750000
O O6 0.761492 0.620880 0.878688
O O7 0.769420 0.497239 0.832381
O O8 0.000000 0.580783 0.811771
O O9 0.804626 0.251659 0.093570
O O10 0.000000 0.341382 0.047272
O O11 0.750000 0.091525 0.750000
O O12 0.773604 0.120235 0.876385
O O13 0.000000 0.059708 0.812556
O O14 0.750971 0.994964 0.841625
O O15 0.250000 0.898612 0.750000
O O16 0.212406 0.868878 0.623467
O O17 0.000000 0.932400 0.689325
O O18 0.250000 0.393055 0.750000
O O19 0.500000 0.413159 0.686252
O O20 0.000000 0.801192 0.080608
O O21 0.784118 0.842418 0.999436
O O22 0.000000 0.850089 0.907815
#
# Coordination Sequence:
#
# PCOD8220476 Si02
#       8
#     8   8   8   8   8   8   8   8
#     4  11  22  35  54  80 109 141 178 220 263 310
#     4   9  19  35  56  80 106 139 177 220 268 317
#     4   9  19  37  57  78 107 142 178 216 264 318
#     4  10  20  36  57  80 106 137 174 214 259 310
#     4  11  22  36  54  77 107 140 175 216 260 309
#     4  10  20  36  56  78 107 140 177 220 266 317
#     4   9  20  38  58  78 105 141 176 215 264 317
#     4   9  18  35  56  77 104 138 176 217 261 312
#
# _framework density 18.416778000000001
#
# number of rings (size 3 to 8) (size 9 to 14) (size 15 to 20)
#    0.000    2.250    0.000    4.500    0.000    6.000 
#    0.000    7.500    0.000    0.000    0.000    0.000 
#    0.000    0.000    0.000    0.000    0.000    0.000 
#
# Total GULP energy -793811.966904 kJ/mol
# GULP energy per Si atom -12403.311983 kJ/mol
# Density = 1.837486 g / cm^3
# Si number density = 18.416778 Si / 1000 Ang^3
#
#
#
# Elastic Constant Matrix: (Units=GPa)
#
#
# Indices 1 2 3 4 5 6 
#
# 1 77.3263 38.5862 37.7053 0.0000 0.0000 0.0000
# 2 38.5862 96.1169 76.9415 0.0000 0.0000 0.0000
# 3 37.7053 76.9415 106.1929 0.0000 0.0000 0.0000
# 4 0.0000 0.0000 0.0000 36.1584 0.0000 0.0000
# 5 0.0000 0.0000 0.0000 0.0000 34.3507 0.0000
# 6 0.0000 0.0000 0.0000 0.0000 0.0000 20.7676
#
#
#
# Elastic Compliance Matrix: (Units=1/GPa)
#
#
# Indices 1 2 3 4 5 6 
#
# 1 0.016449 -0.004591 -0.002514 0.000000 0.000000 0.000000
# 2 -0.004591 0.026053 -0.017246 0.000000 0.000000 0.000000
# 3 -0.002514 -0.017246 0.022805 0.000000 0.000000 0.000000
# 4 0.000000 0.000000 0.000000 0.027656 0.000000 0.000000
# 5 0.000000 0.000000 0.000000 0.000000 0.029111 0.000000
# 6 0.000000 0.000000 0.000000 0.000000 0.000000 0.048152
#
#
# Mechanical properties :
#
#
# Convention : Reuss Voigt Hill
#
# Bulk Modulus (GPa) = 60.22546 65.12245 62.67395
# Shear Modulus (GPa) = 22.27536 26.68224 24.47880
#
# Velocity S-wave (km/s) = 3.48158 3.81044 3.64972
# Velocity P-wave (km/s) = 6.99530 7.40246 7.20176
#
# Compressibility (1/GPa) = 0.01660427
#
# Stress axis : x y z
#
# Youngs Moduli (GPa) = 60.79391 38.38398 43.84980
#
# Poissons Ratio (x) = 0.17622 0.11025
# Poissons Ratio (y) = 0.27910 0.75624
# Poissons Ratio (z) = 0.15285 0.66198
#
# Static dielectric constant tensor:
#      x y z
#    x 3.360470 0.000000 0.000000 
#    y 0.000000 3.434750 0.000000 
#    z 0.000000 0.000000 3.451270 
# 
# 
# High freq. dielectric constant tensor:
#      x y z
#    x 1.715800 0.000000 0.000000 
#    y 0.000000 1.714610 0.000000 
#    z 0.000000 0.000000 1.718430 
# 
# From -- ./inp_files/26755.got.cif
#   From: 2010.03.12/outbox.cif.g09.slc.cpg/sg53_14_cif.got.tgz:26755.got - 2010.04.16 14:36:59.
