data_PCOD8220396
_publ_section_title
;
Structure prediction by ZEFSAII (Michael W. Deem and Ramdas Pophale) SiO2 
 PCOD8220396
Probable space group: P M N A
;
_chemical_formula_sum "Si O2"
_cell_formula_units_Z 64
_cell_length_a 8.896367
_cell_length_b 19.634723
_cell_length_c 20.105136
_cell_angle_alpha 90.000000
_cell_angle_beta 90.000000
_cell_angle_gamma 90.000000
_cell_volume 3511.918950
_symmetry_space_group_name_H-M "P M N A"
_symmetry_group_IT_number 53
_symmetry_cell_setting 'orthorhombic'
loop_
_space_group_symop_operation_xyz
x,y,z
1/2-x,-y,1/2+z
x,-y,-z
1/2-x,y,1/2-z
-x,-y,-z
1/2+x,y,1/2-z
-x,y,z
1/2+x,-y,1/2+z
loop_
_atom_site_type_symbol
_atom_site_label
_atom_site_fract_x
_atom_site_fract_y
_atom_site_fract_z
Si Si1 0.178379 0.188733 0.065163
Si Si2 0.171468 0.688217 0.394757
Si Si3 0.177393 0.898759 0.680766
Si Si4 0.823977 0.670114 0.546722
Si Si5 0.175463 0.839186 0.427443
Si Si6 0.175761 0.574174 0.181133
Si Si7 0.175129 0.055779 0.682159
Si Si8 0.176762 0.467445 0.069473
O O1 0.246689 0.142626 0.122347
O O2 0.237814 0.265086 0.076311
O O3 0.000000 0.188221 0.069348
O O4 0.229617 0.157852 0.994778
O O5 0.212013 0.663331 0.468726
O O6 0.203295 0.768517 0.388646
O O7 0.274726 0.649201 0.342180
O O8 0.000000 0.670903 0.377408
O O9 0.250000 0.874730 0.750000
O O10 0.000000 0.885228 0.682747
O O11 0.215619 0.977712 0.667516
O O12 0.764204 0.602714 0.582914
O O13 0.000000 0.680260 0.559939
O O14 0.233076 0.899697 0.380018
O O15 0.000000 0.846242 0.446717
O O16 0.250000 0.553186 0.250000
O O17 0.226361 0.518637 0.127234
O O18 0.000000 0.575057 0.191274
O O19 0.250000 0.081692 0.750000
O O20 0.000000 0.067417 0.691522
O O21 0.000000 0.452376 0.069445
O O22 0.228588 0.500000 0.000000
#
# Coordination Sequence:
#
# PCOD8220396 Si02
#       8
#     8   8   8   8   8   8   8   8
#     4  11  22  36  56  83 114 147 184 232 280 330
#     4   9  18  33  53  77 107 141 180 221 267 323
#     4  10  20  37  59  82 109 145 187 232 282 339
#     4  10  20  35  58  85 110 139 179 228 273 328
#     4   9  19  36  55  81 114 148 185 228 277 329
#     4  11  23  37  54  77 111 147 181 225 271 322
#     4   9  19  35  56  79 109 147 188 232 280 335
#     4  10  20  36  58  83 109 141 182 227 273 326
#
# _framework density 18.223655999999998
#
# number of rings (size 3 to 8) (size 9 to 14) (size 15 to 20)
#    0.000    2.125    1.250    3.000    0.000    5.250 
#    0.000    4.375    0.000    1.500    0.000    0.000 
#    0.000    0.000    0.000    0.000    0.000    0.000 
#
# Total GULP energy -793823.507421 kJ/mol
# GULP energy per Si atom -12403.492303 kJ/mol
# Density = 1.818218 g / cm^3
# Si number density = 18.223656 Si / 1000 Ang^3
#
#
#
# Elastic Constant Matrix: (Units=GPa)
#
#
# Indices 1 2 3 4 5 6 
#
# 1 86.9467 53.6479 56.6542 0.0000 0.0000 0.0000
# 2 53.6479 110.8410 74.8433 0.0000 0.0000 0.0000
# 3 56.6542 74.8433 119.4271 0.0000 0.0000 0.0000
# 4 0.0000 0.0000 0.0000 26.9487 0.0000 0.0000
# 5 0.0000 0.0000 0.0000 0.0000 33.8540 0.0000
# 6 0.0000 0.0000 0.0000 0.0000 0.0000 28.7025
#
#
#
# Elastic Compliance Matrix: (Units=1/GPa)
#
#
# Indices 1 2 3 4 5 6 
#
# 1 0.018208 -0.005167 -0.005399 0.000000 0.000000 0.000000
# 2 -0.005167 0.017106 -0.008269 0.000000 0.000000 0.000000
# 3 -0.005399 -0.008269 0.016117 0.000000 0.000000 0.000000
# 4 0.000000 0.000000 0.000000 0.037108 0.000000 0.000000
# 5 0.000000 0.000000 0.000000 0.000000 0.029539 0.000000
# 6 0.000000 0.000000 0.000000 0.000000 0.000000 0.034840
#
#
# Mechanical properties :
#
#
# Convention : Reuss Voigt Hill
#
# Bulk Modulus (GPa) = 72.67477 76.38948 74.53213
# Shear Modulus (GPa) = 25.61807 26.70567 26.16187
#
# Velocity S-wave (km/s) = 3.75341 3.83226 3.79304
# Velocity P-wave (km/s) = 7.66486 7.84795 7.75695
#
# Compressibility (1/GPa) = 0.01375993
#
# Stress axis : x y z
#
# Youngs Moduli (GPa) = 54.92236 58.45779 62.04640
#
# Poissons Ratio (x) = 0.30203 0.33502
# Poissons Ratio (y) = 0.28377 0.51308
# Poissons Ratio (z) = 0.29655 0.48341
#
# Static dielectric constant tensor:
#      x y z
#    x 3.346630 0.000000 0.000000 
#    y 0.000000 3.480640 0.000000 
#    z 0.000000 0.000000 3.354170 
# 
# 
# High freq. dielectric constant tensor:
#      x y z
#    x 1.709970 0.000000 0.000000 
#    y 0.000000 1.710980 0.000000 
#    z 0.000000 0.000000 1.697080 
# 
# From -- ./inp_files/31242.got.cif
#   From: 2010.03.12/outbox.cif.g09.slc.cpg/sg53_16_cif.got.tgz:31242.got - 2010.04.16 14:36:59.
