data_PCOD8220591
_publ_section_title
;
Structure prediction by ZEFSAII (Michael W. Deem and Ramdas Pophale) SiO2 
 PCOD8220591
Probable space group: P M N A
;
_chemical_formula_sum "Si O2"
_cell_formula_units_Z 48
_cell_length_a 9.021098
_cell_length_b 30.068309
_cell_length_c 9.504156
_cell_angle_alpha 90.000000
_cell_angle_beta 90.000000
_cell_angle_gamma 90.000000
_cell_volume 2577.994352
_symmetry_space_group_name_H-M "P M N A"
_symmetry_group_IT_number 53
_symmetry_cell_setting 'orthorhombic'
loop_
_space_group_symop_operation_xyz
x,y,z
1/2-x,-y,1/2+z
x,-y,-z
1/2-x,y,1/2-z
-x,-y,-z
1/2+x,y,1/2-z
-x,y,z
1/2+x,-y,1/2+z
loop_
_atom_site_type_symbol
_atom_site_label
_atom_site_fract_x
_atom_site_fract_y
_atom_site_fract_z
Si Si1 0.171960 0.788922 0.391324
Si Si2 0.173483 0.363242 0.603835
Si Si3 0.174682 0.713774 0.600793
Si Si4 0.324973 0.891409 0.103659
Si Si5 0.173640 0.958190 0.899555
Si Si6 0.326320 0.536914 0.105356
O O1 0.250000 0.772515 0.250000
O O2 0.226042 0.758417 0.520022
O O3 0.210164 0.839896 0.425607
O O4 0.000000 0.782032 0.363892
O O5 0.250000 0.351128 0.750000
O O6 0.229824 0.329400 0.484941
O O7 0.214047 0.413246 0.553578
O O8 0.000000 0.357640 0.629505
O O9 0.250000 0.713395 0.750000
O O10 0.000000 0.712848 0.622798
O O11 0.250000 0.906983 0.250000
O O12 0.500000 0.901437 0.112505
O O13 0.252204 0.916364 0.972381
O O14 0.250000 0.967746 0.750000
O O15 0.000000 0.948249 0.876929
O O16 0.199445 0.000000 0.000000
O O17 0.250000 0.525900 0.250000
O O18 0.500000 0.531547 0.126437
O O19 0.263094 0.500000 0.000000
#
# Coordination Sequence:
#
# PCOD8220591 Si02
#       6
#     8   8   8   8   8   8
#     4   9  19  35  55  79 105 136 173 212 254 304
#     4   9  18  33  52  72  96 129 168 208 250 300
#     4  10  21  35  50  73 104 134 168 210 256 303
#     4  10  20  36  58  83 111 141 176 217 261 310
#     4  11  24  40  59  83 111 144 180 219 264 311
#     4   9  18  32  49  71  99 129 163 205 251 299
#
# _framework density 18.619125
#
# number of rings (size 3 to 8) (size 9 to 14) (size 15 to 20)
#    0.000    2.333    0.000    2.000    0.000    6.333 
#    0.000    1.667    0.000    0.000    0.000    0.000 
#    0.000    0.000    0.000    0.000    0.000    0.000 
#
# Total GULP energy -595269.742383 kJ/mol
# GULP energy per Si atom -12401.452966 kJ/mol
# Density = 1.857675 g / cm^3
# Si number density = 18.619125 Si / 1000 Ang^3
#
#
#
# Elastic Constant Matrix: (Units=GPa)
#
#
# Indices 1 2 3 4 5 6 
#
# 1 66.0229 49.7600 64.0493 0.0000 0.0000 0.0000
# 2 49.7600 118.2002 90.5407 0.0000 0.0000 0.0000
# 3 64.0493 90.5407 160.0508 0.0000 0.0000 0.0000
# 4 0.0000 0.0000 0.0000 38.9975 0.0000 0.0000
# 5 0.0000 0.0000 0.0000 0.0000 39.5366 0.0000
# 6 0.0000 0.0000 0.0000 0.0000 0.0000 18.2290
#
#
#
# Elastic Compliance Matrix: (Units=1/GPa)
#
#
# Indices 1 2 3 4 5 6 
#
# 1 0.026554 -0.005363 -0.007593 0.000000 0.000000 0.000000
# 2 -0.005363 0.016013 -0.006912 0.000000 0.000000 0.000000
# 3 -0.007593 -0.006912 0.013197 0.000000 0.000000 0.000000
# 4 0.000000 0.000000 0.000000 0.025643 0.000000 0.000000
# 5 0.000000 0.000000 0.000000 0.000000 0.025293 0.000000
# 6 0.000000 0.000000 0.000000 0.000000 0.000000 0.054858
#
#
# Mechanical properties :
#
#
# Convention : Reuss Voigt Hill
#
# Bulk Modulus (GPa) = 62.39153 83.66376 73.02764
# Shear Modulus (GPa) = 24.19739 28.68088 26.43914
#
# Velocity S-wave (km/s) = 3.60891 3.92905 3.77238
# Velocity P-wave (km/s) = 7.13777 8.10031 7.63423
#
# Compressibility (1/GPa) = 0.01602782
#
# Stress axis : x y z
#
# Youngs Moduli (GPa) = 37.65964 62.45089 75.77655
#
# Poissons Ratio (x) = 0.33491 0.57534
# Poissons Ratio (y) = 0.20196 0.52379
# Poissons Ratio (z) = 0.28593 0.43168
#
# Static dielectric constant tensor:
#      x y z
#    x 3.412240 0.000000 0.000000 
#    y 0.000000 3.740820 0.000000 
#    z 0.000000 0.000000 3.458840 
# 
# 
# High freq. dielectric constant tensor:
#      x y z
#    x 1.721650 0.000000 0.000000 
#    y 0.000000 1.736520 0.000000 
#    z 0.000000 0.000000 1.720060 
# 
# From -- ./inp_files/6597.got.cif
#   From: 2010.03.12/outbox.cif.g09.slc.cpg/sg53_4_cif.got.tgz:6597.got - 2010.04.16 14:36:59.
