data_PCOD8220419
_publ_section_title
;
Structure prediction by ZEFSAII (Michael W. Deem and Ramdas Pophale) SiO2 
 PCOD8220419
Probable space group: P M N A
;
_chemical_formula_sum "Si O2"
_cell_formula_units_Z 36
_cell_length_a 25.399759
_cell_length_b 10.212027
_cell_length_c 6.772861
_cell_angle_alpha 90.000000
_cell_angle_beta 90.000000
_cell_angle_gamma 90.000000
_cell_volume 1756.765172
_symmetry_space_group_name_H-M "P M N A"
_symmetry_group_IT_number 53
_symmetry_cell_setting 'orthorhombic'
loop_
_space_group_symop_operation_xyz
x,y,z
1/2-x,-y,1/2+z
x,-y,-z
1/2-x,y,1/2-z
-x,-y,-z
1/2+x,y,1/2-z
-x,y,z
1/2+x,-y,1/2+z
loop_
_atom_site_type_symbol
_atom_site_label
_atom_site_fract_x
_atom_site_fract_y
_atom_site_fract_z
Si Si1 0.868202 0.149539 0.484679
Si Si2 0.308355 0.388717 0.167380
Si Si3 0.441705 0.294119 0.714244
Si Si4 0.121057 0.500000 0.000000
Si Si5 0.942677 0.887852 0.869646
O O1 0.820665 0.249392 0.438532
O O2 0.902274 0.196346 0.671721
O O3 0.909181 0.156305 0.311250
O O4 0.846407 0.000000 0.500000
O O5 0.250000 0.386917 0.250000
O O6 0.343464 0.404595 0.364794
O O7 0.316391 0.500000 0.000000
O O8 0.500000 0.311275 0.816548
O O9 0.413651 0.431786 0.671654
O O10 0.451100 0.240368 0.497122
O O11 0.000000 0.942265 0.797880
O O12 0.914236 0.000000 0.000000
#
# Coordination Sequence:
#
# PCOD8220419 Si02
#       5
#     8   8   8   4   8
#     4  12  24  41  66 102 138 172 219 276 333 398
#     4  12  26  47  72  96 122 173 229 282 338 396
#     4  11  23  38  63 100 141 180 217 263 324 398
#     4  12  23  44  68  94 132 172 233 276 326 394
#     4  10  20  35  58  91 134 183 218 250 312 394
#
# _framework density 20.492211000000001
#
# number of rings (size 3 to 8) (size 9 to 14) (size 15 to 20)
#    0.000    0.667    7.778    1.000    0.000    0.889 
#    0.000    5.556    0.000    0.000    0.000    0.000 
#    0.000    0.000    0.000    0.000    0.000    0.000 
#
# Total GULP energy -446036.280898 kJ/mol
# GULP energy per Si atom -12389.896692 kJ/mol
# Density = 2.044557 g / cm^3
# Si number density = 20.492211 Si / 1000 Ang^3
#
#
#
# Elastic Constant Matrix: (Units=GPa)
#
#
# Indices 1 2 3 4 5 6 
#
# 1 64.7454 43.7079 24.2752 0.0000 0.0000 0.0000
# 2 43.7079 130.8237 30.6254 0.0000 0.0000 0.0000
# 3 24.2752 30.6254 78.2878 0.0000 0.0000 0.0000
# 4 0.0000 0.0000 0.0000 37.8883 0.0000 0.0000
# 5 0.0000 0.0000 0.0000 0.0000 34.3999 0.0000
# 6 0.0000 0.0000 0.0000 0.0000 0.0000 26.4883
#
#
#
# Elastic Compliance Matrix: (Units=1/GPa)
#
#
# Indices 1 2 3 4 5 6 
#
# 1 0.021111 -0.006077 -0.004169 0.000000 0.000000 0.000000
# 2 -0.006077 0.010164 -0.002092 0.000000 0.000000 0.000000
# 3 -0.004169 -0.002092 0.014884 0.000000 0.000000 0.000000
# 4 0.000000 0.000000 0.000000 0.026393 0.000000 0.000000
# 5 0.000000 0.000000 0.000000 0.000000 0.029070 0.000000
# 6 0.000000 0.000000 0.000000 0.000000 0.000000 0.037753
#
#
# Mechanical properties :
#
#
# Convention : Reuss Voigt Hill
#
# Bulk Modulus (GPa) = 46.54641 52.34156 49.44399
# Shear Modulus (GPa) = 29.20383 31.43851 30.32117
#
# Velocity S-wave (km/s) = 3.77917 3.92110 3.85079
# Velocity P-wave (km/s) = 6.46578 6.78952 6.62963
#
# Compressibility (1/GPa) = 0.02148393
#
# Stress axis : x y z
#
# Youngs Moduli (GPa) = 47.36965 98.38760 67.18545
#
# Poissons Ratio (x) = 0.59792 0.28007
# Poissons Ratio (y) = 0.28787 0.14053
# Poissons Ratio (z) = 0.19746 0.20579
#
# Static dielectric constant tensor:
#      x y z
#    x 3.760950 0.000000 0.000000 
#    y 0.000000 4.470830 0.000000 
#    z 0.000000 0.000000 3.748120 
# 
# 
# High freq. dielectric constant tensor:
#      x y z
#    x 1.786590 0.000000 0.000000 
#    y 0.000000 1.805000 0.000000 
#    z 0.000000 0.000000 1.806800 
# 
# From -- ./inp_files/3493.got.cif
#   From: 2010.03.12/outbox.cif.g09.slc.cpg/sg53_2_cif.got.tgz:3493.got - 2010.04.16 14:36:59.
