data_PCOD8220104
_publ_section_title
;
Structure prediction by ZEFSAII (Michael W. Deem and Ramdas Pophale) SiO2 
 PCOD8220104
Probable space group: P M N A
;
_chemical_formula_sum "Si O2"
_cell_formula_units_Z 64
_cell_length_a 8.859439
_cell_length_b 22.480531
_cell_length_c 17.401719
_cell_angle_alpha 90.000000
_cell_angle_beta 90.000000
_cell_angle_gamma 90.000000
_cell_volume 3465.811504
_symmetry_space_group_name_H-M "P M N A"
_symmetry_group_IT_number 53
_symmetry_cell_setting 'orthorhombic'
loop_
_space_group_symop_operation_xyz
x,y,z
1/2-x,-y,1/2+z
x,-y,-z
1/2-x,y,1/2-z
-x,-y,-z
1/2+x,y,1/2-z
-x,y,z
1/2+x,-y,1/2+z
loop_
_atom_site_type_symbol
_atom_site_label
_atom_site_fract_x
_atom_site_fract_y
_atom_site_fract_z
Si Si1 0.827380 0.918481 0.612955
Si Si2 0.679627 0.757452 0.993057
Si Si3 0.830102 0.543688 0.571614
Si Si4 0.173042 0.791813 0.673536
Si Si5 0.177171 0.363944 0.971207
Si Si6 0.677435 0.550726 0.330526
Si Si7 0.177731 0.878463 0.035963
Si Si8 0.323297 0.952098 0.170651
O O1 0.796854 0.862496 0.668249
O O2 0.717539 0.915647 0.540158
O O3 0.000000 0.916716 0.582432
O O4 0.793322 0.977887 0.659737
O O5 0.500000 0.757437 0.998528
O O6 0.734295 0.760072 0.903910
O O7 0.746098 0.700067 0.035081
O O8 0.741559 0.814664 0.037436
O O9 0.831146 0.500000 0.500000
O O10 0.742111 0.602922 0.546448
O O11 0.746058 0.512484 0.642843
O O12 0.000000 0.560466 0.596727
O O13 0.250000 0.765948 0.750000
O O14 0.000000 0.776476 0.682893
O O15 0.216932 0.398742 0.892898
O O16 0.000000 0.357197 0.982303
O O17 0.750000 0.570394 0.250000
O O18 0.500000 0.542759 0.320531
O O19 0.236793 0.915631 0.106865
O O20 0.000000 0.869115 0.041559
O O21 0.250000 0.931913 0.250000
O O22 0.500000 0.936939 0.169093
#
# Coordination Sequence:
#
# PCOD8220104 Si02
#       8
#     8   8   8   8   8   8   8   8
#     4   9  19  35  54  77 105 136 170 212 266 325
#     4  10  21  38  57  77 104 141 184 225 268 318
#     4   9  17  31  53  79 107 140 174 208 254 309
#     4   9  18  32  51  76 104 133 167 211 263 317
#     4  10  20  35  56  82 109 140 182 226 266 314
#     4  10  20  34  54  82 115 145 177 221 268 313
#     4  11  22  36  55  78 104 137 179 222 267 322
#     4  11  22  36  54  77 107 139 173 218 271 325
#
# _framework density 18.466093999999998
#
# number of rings (size 3 to 8) (size 9 to 14) (size 15 to 20)
#    0.000    2.125    0.000    4.500    0.000    8.000 
#    0.000    1.250    0.000    3.000    0.000    0.000 
#    0.000    0.000    0.000    0.000    0.000    0.000 
#
# Total GULP energy -793698.591386 kJ/mol
# GULP energy per Si atom -12401.540490 kJ/mol
# Density = 1.842406 g / cm^3
# Si number density = 18.466094 Si / 1000 Ang^3
#
#
#
# Elastic Constant Matrix: (Units=GPa)
#
#
# Indices 1 2 3 4 5 6 
#
# 1 101.8282 32.0095 40.4458 0.0000 0.0000 0.0000
# 2 32.0095 54.5064 19.1208 0.0000 0.0000 0.0000
# 3 40.4458 19.1208 63.0823 0.0000 0.0000 0.0000
# 4 0.0000 0.0000 0.0000 18.0792 0.0000 0.0000
# 5 0.0000 0.0000 0.0000 0.0000 35.3929 0.0000
# 6 0.0000 0.0000 0.0000 0.0000 0.0000 28.2010
#
#
#
# Elastic Compliance Matrix: (Units=1/GPa)
#
#
# Indices 1 2 3 4 5 6 
#
# 1 0.014730 -0.005972 -0.007634 0.000000 0.000000 0.000000
# 2 -0.005972 0.022951 -0.003127 0.000000 0.000000 0.000000
# 3 -0.007634 -0.003127 0.021695 0.000000 0.000000 0.000000
# 4 0.000000 0.000000 0.000000 0.055312 0.000000 0.000000
# 5 0.000000 0.000000 0.000000 0.000000 0.028254 0.000000
# 6 0.000000 0.000000 0.000000 0.000000 0.000000 0.035460
#
#
# Mechanical properties :
#
#
# Convention : Reuss Voigt Hill
#
# Bulk Modulus (GPa) = 38.59771 44.72988 41.66379
# Shear Modulus (GPa) = 22.67517 24.85736 23.76627
#
# Velocity S-wave (km/s) = 3.50799 3.67291 3.59140
# Velocity P-wave (km/s) = 6.11190 6.50095 6.30943
#
# Compressibility (1/GPa) = 0.02590827
#
# Stress axis : x y z
#
# Youngs Moduli (GPa) = 67.88832 43.57132 46.09383
#
# Poissons Ratio (x) = 0.26022 0.35188
# Poissons Ratio (y) = 0.40545 0.14415
# Poissons Ratio (z) = 0.51826 0.13626
#
# Static dielectric constant tensor:
#      x y z
#    x 3.486650 0.000000 0.000000 
#    y 0.000000 3.367000 0.000000 
#    z 0.000000 0.000000 3.308140 
# 
# 
# High freq. dielectric constant tensor:
#      x y z
#    x 1.727920 0.000000 0.000000 
#    y 0.000000 1.705050 0.000000 
#    z 0.000000 0.000000 1.707460 
# 
# From -- ./inp_files/26790.got.cif
#   From: 2010.03.12/outbox.cif.g09.slc.cpg/sg53_14_cif.got.tgz:26790.got - 2010.04.16 14:36:59.
