data_PCOD8220393
_publ_section_title
;
Structure prediction by ZEFSAII (Michael W. Deem and Ramdas Pophale) SiO2 
 PCOD8220393
Probable space group: P M N A
;
_chemical_formula_sum "Si O2"
_cell_formula_units_Z 48
_cell_length_a 8.851834
_cell_length_b 15.045836
_cell_length_c 18.901357
_cell_angle_alpha 90.000000
_cell_angle_beta 90.000000
_cell_angle_gamma 90.000000
_cell_volume 2517.344016
_symmetry_space_group_name_H-M "P M N A"
_symmetry_group_IT_number 53
_symmetry_cell_setting 'orthorhombic'
loop_
_space_group_symop_operation_xyz
x,y,z
1/2-x,-y,1/2+z
x,-y,-z
1/2-x,y,1/2-z
-x,-y,-z
1/2+x,y,1/2-z
-x,y,z
1/2+x,-y,1/2+z
loop_
_atom_site_type_symbol
_atom_site_label
_atom_site_fract_x
_atom_site_fract_y
_atom_site_fract_z
Si Si1 0.322187 0.604177 0.676812
Si Si2 0.176831 0.598193 0.177769
Si Si3 0.676990 0.907648 0.323902
Si Si4 0.821695 0.908327 0.675571
Si Si5 0.823590 0.255694 0.421459
Si Si6 0.324119 0.747937 0.428974
O O1 0.250000 0.638569 0.750000
O O2 0.500000 0.614279 0.683835
O O3 0.273105 0.502683 0.661482
O O4 0.264433 0.661465 0.611507
O O5 0.250000 0.633336 0.250000
O O6 0.228400 0.659917 0.112991
O O7 0.000000 0.606314 0.189153
O O8 0.750000 0.877284 0.250000
O O9 0.500000 0.922434 0.311911
O O10 0.710521 0.833593 0.381852
O O11 0.751203 0.999080 0.351006
O O12 0.750000 0.879301 0.750000
O O13 0.778240 0.834378 0.618466
O O14 0.000000 0.919188 0.684851
O O15 0.777542 0.244666 0.502229
O O16 0.000000 0.275188 0.415177
O O17 0.500000 0.742520 0.449917
#
# Coordination Sequence:
#
# PCOD8220393 Si02
#       6
#     8   8   8   8   8   8
#     4  10  20  36  59  83 109 141 179 224 269 318
#     4   9  19  36  58  83 109 141 180 221 268 319
#     4  10  20  35  58  84 108 139 179 222 268 318
#     4  10  21  37  57  80 106 138 178 223 269 318
#     4  11  24  38  54  79 110 146 184 223 271 321
#     4  10  22  38  55  79 112 147 180 217 267 324
#
# _framework density 19.067716999999998
#
# number of rings (size 3 to 8) (size 9 to 14) (size 15 to 20)
#    0.000    2.000    0.000    4.000    0.000    8.000 
#    0.000    6.667    0.000    0.000    0.000    0.000 
#    0.000    0.000    0.000    0.000    0.000    0.000 
#
# Total GULP energy -595404.497797 kJ/mol
# GULP energy per Si atom -12404.260371 kJ/mol
# Density = 1.902432 g / cm^3
# Si number density = 19.067717 Si / 1000 Ang^3
#
#
#
# Elastic Constant Matrix: (Units=GPa)
#
#
# Indices 1 2 3 4 5 6 
#
# 1 78.3679 49.7048 46.7409 0.0000 0.0000 0.0000
# 2 49.7048 114.0544 74.0638 0.0000 0.0000 0.0000
# 3 46.7409 74.0638 124.2710 0.0000 0.0000 0.0000
# 4 0.0000 0.0000 0.0000 14.2221 0.0000 0.0000
# 5 0.0000 0.0000 0.0000 0.0000 37.1184 0.0000
# 6 0.0000 0.0000 0.0000 0.0000 0.0000 32.3725
#
#
#
# Elastic Compliance Matrix: (Units=1/GPa)
#
#
# Indices 1 2 3 4 5 6 
#
# 1 0.018532 -0.005791 -0.003519 0.000000 0.000000 0.000000
# 2 -0.005791 0.016113 -0.007425 0.000000 0.000000 0.000000
# 3 -0.003519 -0.007425 0.013796 0.000000 0.000000 0.000000
# 4 0.000000 0.000000 0.000000 0.070313 0.000000 0.000000
# 5 0.000000 0.000000 0.000000 0.000000 0.026941 0.000000
# 6 0.000000 0.000000 0.000000 0.000000 0.000000 0.030890
#
#
# Mechanical properties :
#
#
# Convention : Reuss Voigt Hill
#
# Bulk Modulus (GPa) = 66.79680 73.07915 69.93798
# Shear Modulus (GPa) = 23.25088 26.48819 24.86954
#
# Velocity S-wave (km/s) = 3.49576 3.73119 3.61539
# Velocity P-wave (km/s) = 7.16946 7.54796 7.36114
#
# Compressibility (1/GPa) = 0.01497078
#
# Stress axis : x y z
#
# Youngs Moduli (GPa) = 53.96020 62.06094 72.48675
#
# Poissons Ratio (x) = 0.35941 0.25507
# Poissons Ratio (y) = 0.31250 0.53822
# Poissons Ratio (z) = 0.18987 0.46080
#
# Static dielectric constant tensor:
#      x y z
#    x 3.529360 0.000000 0.000000 
#    y 0.000000 3.732330 0.000000 
#    z 0.000000 0.000000 3.405170 
# 
# 
# High freq. dielectric constant tensor:
#      x y z
#    x 1.748850 0.000000 0.000000 
#    y 0.000000 1.754590 0.000000 
#    z 0.000000 0.000000 1.736740 
# 
# From -- ./inp_files/26191.got.cif
#   From: 2010.03.12/outbox.cif.g09.slc.cpg/sg53_14_cif.got.tgz:26191.got - 2010.04.16 14:36:59.
