data_PCOD8220630
_publ_section_title
;
Structure prediction by ZEFSAII (Michael W. Deem and Ramdas Pophale) SiO2 
 PCOD8220630
Probable space group: P M N A
;
_chemical_formula_sum "Si O2"
_cell_formula_units_Z 48
_cell_length_a 8.664742
_cell_length_b 18.626745
_cell_length_c 15.286683
_cell_angle_alpha 90.000000
_cell_angle_beta 90.000000
_cell_angle_gamma 90.000000
_cell_volume 2467.208568
_symmetry_space_group_name_H-M "P M N A"
_symmetry_group_IT_number 53
_symmetry_cell_setting 'orthorhombic'
loop_
_space_group_symop_operation_xyz
x,y,z
1/2-x,-y,1/2+z
x,-y,-z
1/2-x,y,1/2-z
-x,-y,-z
1/2+x,y,1/2-z
-x,y,z
1/2+x,-y,1/2+z
loop_
_atom_site_type_symbol
_atom_site_label
_atom_site_fract_x
_atom_site_fract_y
_atom_site_fract_z
Si Si1 0.319052 0.329385 0.340514
Si Si2 0.317221 0.164993 0.342080
Si Si3 0.321526 0.915820 0.004848
Si Si4 0.181729 0.674658 0.343303
Si Si5 0.319816 0.583660 0.492534
Si Si6 0.317874 0.173527 0.656331
O O1 0.250000 0.358763 0.250000
O O2 0.500000 0.336258 0.331974
O O3 0.268563 0.247494 0.357955
O O4 0.257554 0.377971 0.419834
O O5 0.250000 0.137827 0.250000
O O6 0.500000 0.154646 0.343852
O O7 0.239731 0.117867 0.416025
O O8 0.500000 0.896028 0.017566
O O9 0.225856 0.886789 0.086829
O O10 0.293802 0.000000 0.000000
O O11 0.250000 0.652136 0.250000
O O12 0.223716 0.612744 0.411098
O O13 0.252201 0.750067 0.375664
O O14 0.000000 0.683284 0.334686
O O15 0.286062 0.500000 0.500000
O O16 0.500000 0.600125 0.477567
O O17 0.250000 0.151240 0.750000
O O18 0.500000 0.179853 0.664178
#
# Coordination Sequence:
#
# PCOD8220630 Si02
#       6
#     8   8   8   8   8   8
#     4   9  19  35  56  81 108 142 184 230 278 328
#     4  10  20  36  59  84 111 146 190 238 285 336
#     4  11  24  40  58  84 118 153 189 231 282 340
#     4  11  22  38  61  86 114 149 192 240 289 342
#     4  10  21  37  56  82 118 155 190 234 287 339
#     4  11  22  39  63  88 115 148 191 239 289 344
#
# _framework density 19.455186000000001
#
# number of rings (size 3 to 8) (size 9 to 14) (size 15 to 20)
#    0.000    1.667    0.000    6.000    0.000    5.667 
#    0.000    1.667    0.000    0.000    0.000    0.000 
#    0.000    0.000    0.000    0.000    0.000    0.000 
#
# Total GULP energy -595466.492214 kJ/mol
# GULP energy per Si atom -12405.551921 kJ/mol
# Density = 1.941091 g / cm^3
# Si number density = 19.455186 Si / 1000 Ang^3
#
#
#
# Elastic Constant Matrix: (Units=GPa)
#
#
# Indices 1 2 3 4 5 6 
#
# 1 122.0774 55.4975 58.9329 0.0000 0.0000 0.0000
# 2 55.4975 98.1257 80.2481 0.0000 0.0000 0.0000
# 3 58.9329 80.2481 150.8685 0.0000 0.0000 0.0000
# 4 0.0000 0.0000 0.0000 -1.6528 0.0000 0.0000
# 5 0.0000 0.0000 0.0000 0.0000 37.4771 0.0000
# 6 0.0000 0.0000 0.0000 0.0000 0.0000 24.0858
#
#
#
# Elastic Compliance Matrix: (Units=1/GPa)
#
#
# Indices 1 2 3 4 5 6 
#
# 1 0.011295 -0.004920 -0.001795 0.000000 0.000000 0.000000
# 2 -0.004920 0.020180 -0.008812 0.000000 0.000000 0.000000
# 3 -0.001795 -0.008812 0.012017 0.000000 0.000000 0.000000
# 4 0.000000 0.000000 0.000000 -0.605051 0.000000 0.000000
# 5 0.000000 0.000000 0.000000 0.000000 0.026683 0.000000
# 6 0.000000 0.000000 0.000000 0.000000 0.000000 0.041518
#
#
# Mechanical properties :
#
#
# Convention : Reuss Voigt Hill
#
# Bulk Modulus (GPa) = 80.40298 84.49207 82.44753
# Shear Modulus (GPa) = -10.91327 23.74158 6.41415
#
# Velocity S-wave (km/s) = -2.37100 3.49710 1.81770
# Velocity P-wave (km/s) = 5.82422 7.73496 6.84657
#
# Compressibility (1/GPa) = 0.01243735
#
# Stress axis : x y z
#
# Youngs Moduli (GPa) = 88.53648 49.55304 83.21742
#
# Poissons Ratio (x) = 0.24381 0.14937
# Poissons Ratio (y) = 0.43561 0.73333
# Poissons Ratio (z) = 0.15892 0.43667
#
# Static dielectric constant tensor:
#      x y z
#    x 3.605730 0.000000 0.000000 
#    y 0.000000 3.526930 0.000000 
#    z 0.000000 0.000000 3.694630 
# 
# 
# High freq. dielectric constant tensor:
#      x y z
#    x 1.765840 0.000000 0.000000 
#    y 0.000000 1.751730 0.000000 
#    z 0.000000 0.000000 1.772660 
# 
# From -- ./inp_files/20121.got.cif
#   From: 2010.03.12/outbox.cif.g09.slc.cpg/sg53_11_cif.got.tgz:20121.got - 2010.04.16 14:36:59.
