data_PCOD8220838
_publ_section_title
;
Structure prediction by ZEFSAII (Michael W. Deem and Ramdas Pophale) SiO2 
 PCOD8220838
Probable space group: P M N A
;
_chemical_formula_sum "Si O2"
_cell_formula_units_Z 48
_cell_length_a 9.523775
_cell_length_b 29.553834
_cell_length_c 8.732347
_cell_angle_alpha 90.000000
_cell_angle_beta 90.000000
_cell_angle_gamma 90.000000
_cell_volume 2457.841887
_symmetry_space_group_name_H-M "P M N A"
_symmetry_group_IT_number 53
_symmetry_cell_setting 'orthorhombic'
loop_
_space_group_symop_operation_xyz
x,y,z
1/2-x,-y,1/2+z
x,-y,-z
1/2-x,y,1/2-z
-x,-y,-z
1/2+x,y,1/2-z
-x,y,z
1/2+x,-y,1/2+z
loop_
_atom_site_type_symbol
_atom_site_label
_atom_site_fract_x
_atom_site_fract_y
_atom_site_fract_z
Si Si1 0.247255 0.604618 0.434056
Si Si2 0.500000 0.449499 0.432612
Si Si3 0.000000 0.548897 0.569293
Si Si4 0.840749 0.958702 0.100506
Si Si5 0.836230 0.870006 0.899108
Si Si6 0.334752 0.200990 0.908949
Si Si7 0.160506 0.300839 0.600466
O O1 0.250000 0.603369 0.250000
O O2 0.378379 0.581674 0.507781
O O3 0.227293 0.656758 0.492182
O O4 0.129356 0.574491 0.503568
O O5 0.500000 0.500000 0.500000
O O6 0.500000 0.453874 0.251465
O O7 0.000000 0.500000 0.500000
O O8 0.750000 0.953172 0.250000
O O9 0.000000 0.969809 0.148914
O O10 0.831515 0.912071 0.011431
O O11 0.780193 0.000000 0.000000
O O12 0.750000 0.884834 0.750000
O O13 0.000000 0.856750 0.864937
O O14 0.748719 0.828728 0.969479
O O15 0.250000 0.197055 0.750000
O O16 0.500000 0.186317 0.886519
O O17 0.332047 0.251917 0.981569
O O18 0.250000 0.293794 0.750000
O O19 0.000000 0.313475 0.642658
#
# Coordination Sequence:
#
# PCOD8220838 Si02
#       7
#     8   4   4   8   8   8   8
#     4  11  22  40  64  91 119 155 199 245 298 359
#     4  12  26  42  60  90 122 158 200 242 303 358
#     4  12  24  42  64  86 120 156 194 248 297 360
#     4  10  22  39  60  88 121 158 203 253 308 368
#     4  11  23  39  59  86 121 163 209 256 310 367
#     4  10  20  37  61  90 121 157 202 252 301 360
#     4   9  19  35  61  91 120 153 197 244 292 351
#
# _framework density 19.529329000000001
#
# number of rings (size 3 to 8) (size 9 to 14) (size 15 to 20)
#    0.000    1.500    0.833    4.500    3.500    3.667 
#    0.000    1.667    0.000    0.000    0.000    0.000 
#    0.000    0.000    0.000    0.000    0.000    0.000 
#
# Total GULP energy -594732.102232 kJ/mol
# GULP energy per Si atom -12390.252130 kJ/mol
# Density = 1.948488 g / cm^3
# Si number density = 19.529329 Si / 1000 Ang^3
#
#
#
# Elastic Constant Matrix: (Units=GPa)
#
#
# Indices 1 2 3 4 5 6 
#
# 1 161.2883 60.9822 52.4442 0.0000 0.0000 0.0000
# 2 60.9822 132.0142 37.3463 0.0000 0.0000 0.0000
# 3 52.4442 37.3463 104.9070 0.0000 0.0000 0.0000
# 4 0.0000 0.0000 0.0000 31.1628 0.0000 0.0000
# 5 0.0000 0.0000 0.0000 0.0000 31.9121 0.0000
# 6 0.0000 0.0000 0.0000 0.0000 0.0000 33.3941
#
#
#
# Elastic Compliance Matrix: (Units=1/GPa)
#
#
# Indices 1 2 3 4 5 6 
#
# 1 0.008334 -0.002970 -0.003109 0.000000 0.000000 0.000000
# 2 -0.002970 0.009482 -0.001891 0.000000 0.000000 0.000000
# 3 -0.003109 -0.001891 0.011759 0.000000 0.000000 0.000000
# 4 0.000000 0.000000 0.000000 0.032090 0.000000 0.000000
# 5 0.000000 0.000000 0.000000 0.000000 0.031336 0.000000
# 6 0.000000 0.000000 0.000000 0.000000 0.000000 0.029945
#
#
# Mechanical properties :
#
#
# Convention : Reuss Voigt Hill
#
# Bulk Modulus (GPa) = 73.33631 77.75054 75.54342
# Shear Modulus (GPa) = 34.85994 35.78959 35.32476
#
# Velocity S-wave (km/s) = 4.22951 4.28554 4.25762
# Velocity P-wave (km/s) = 7.84125 8.02412 7.93321
#
# Compressibility (1/GPa) = 0.01363581
#
# Stress axis : x y z
#
# Youngs Moduli (GPa) = 119.99044 105.46433 85.03805
#
# Poissons Ratio (x) = 0.31326 0.26437
# Poissons Ratio (y) = 0.35641 0.16077
# Poissons Ratio (z) = 0.37303 0.19939
#
# Static dielectric constant tensor:
#      x y z
#    x 3.885780 0.000000 0.000000 
#    y 0.000000 4.097400 0.000000 
#    z 0.000000 0.000000 3.419780 
# 
# 
# High freq. dielectric constant tensor:
#      x y z
#    x 1.783660 0.000000 0.000000 
#    y 0.000000 1.786400 0.000000 
#    z 0.000000 0.000000 1.738330 
# 
# From -- ./inp_files/6804.got.cif
#   From: 2010.03.12/outbox.cif.g09.slc.cpg/sg53_4_cif.got.tgz:6804.got - 2010.04.16 14:36:59.
