data_PCOD8220999
_publ_section_title
;
Structure prediction by ZEFSAII (Michael W. Deem and Ramdas Pophale) SiO2 
 PCOD8220999
Probable space group: P M N A
;
_chemical_formula_sum "Si O2"
_cell_formula_units_Z 64
_cell_length_a 17.214635
_cell_length_b 16.872766
_cell_length_c 11.212365
_cell_angle_alpha 90.000000
_cell_angle_beta 90.000000
_cell_angle_gamma 90.000000
_cell_volume 3256.726811
_symmetry_space_group_name_H-M "P M N A"
_symmetry_group_IT_number 53
_symmetry_cell_setting 'orthorhombic'
loop_
_space_group_symop_operation_xyz
x,y,z
1/2-x,-y,1/2+z
x,-y,-z
1/2-x,y,1/2-z
-x,-y,-z
1/2+x,y,1/2-z
-x,y,z
1/2+x,-y,1/2+z
loop_
_atom_site_type_symbol
_atom_site_label
_atom_site_fract_x
_atom_site_fract_y
_atom_site_fract_z
Si Si1 0.280009 0.293170 0.448043
Si Si2 0.652514 0.828799 0.882733
Si Si3 0.635107 0.600921 0.917804
Si Si4 0.803119 0.004359 0.634722
Si Si5 0.409507 0.157204 0.865335
Si Si6 0.164261 0.295034 0.792158
Si Si7 0.912436 0.439049 0.669100
Si Si8 0.084962 0.711783 0.778024
O O1 0.236562 0.214072 0.399939
O O2 0.220851 0.366858 0.450940
O O3 0.326571 0.275207 0.569011
O O4 0.348481 0.321461 0.362354
O O5 0.606319 0.799422 0.766658
O O6 0.657869 0.919996 0.849836
O O7 0.603497 0.809798 0.001859
O O8 0.641461 0.517316 0.846363
O O9 0.584571 0.659320 0.839615
O O10 0.586249 0.599897 0.039050
O O11 0.750000 0.021026 0.750000
O O12 0.867759 0.072376 0.641381
O O13 0.763517 0.000000 0.500000
O O14 0.500000 0.145991 0.837084
O O15 0.374394 0.219565 0.771443
O O16 0.250000 0.311078 0.750000
O O17 0.117498 0.376458 0.767690
O O18 0.000000 0.463518 0.705329
O O19 0.000000 0.710632 0.839505
#
# Coordination Sequence:
#
# PCOD8220999 Si02
#       8
#     8   8   8   8   8   8   8   8
#     4  11  23  39  62  88 121 164 210 249 302 383
#     4  10  20  39  64  91 119 158 213 259 306 371
#     4  10  20  40  60  87 118 153 205 260 302 367
#     4  10  22  38  63  94 125 166 207 261 321 384
#     4  11  23  38  63  92 124 160 205 265 318 365
#     4  12  22  40  60  87 123 162 207 248 305 375
#     4  11  22  37  63  92 118 153 200 257 318 364
#     4  11  22  37  59  86 122 159 197 253 312 363
#
# _framework density 19.651633
#
# number of rings (size 3 to 8) (size 9 to 14) (size 15 to 20)
#    0.000    1.250    2.500    5.625    1.750    4.750 
#    0.000    0.000    0.000    1.875    0.000    0.000 
#    0.000    0.000    0.000    0.000    0.000    0.000 
#
# Total GULP energy -793058.507911 kJ/mol
# GULP energy per Si atom -12391.539186 kJ/mol
# Density = 1.960690 g / cm^3
# Si number density = 19.651633 Si / 1000 Ang^3
#
#
#
# Elastic Constant Matrix: (Units=GPa)
#
#
# Indices 1 2 3 4 5 6 
#
# 1 120.4527 31.7236 36.3276 0.0000 0.0000 0.0000
# 2 31.7236 92.6590 5.3286 0.0000 0.0000 0.0000
# 3 36.3276 5.3286 45.5333 0.0000 0.0000 0.0000
# 4 0.0000 0.0000 0.0000 11.5787 0.0000 0.0000
# 5 0.0000 0.0000 0.0000 0.0000 25.6872 0.0000
# 6 0.0000 0.0000 0.0000 0.0000 0.0000 26.9833
#
#
#
# Elastic Compliance Matrix: (Units=1/GPa)
#
#
# Indices 1 2 3 4 5 6 
#
# 1 0.012009 -0.003585 -0.009162 0.000000 0.000000 0.000000
# 2 -0.003585 0.011935 0.001463 0.000000 0.000000 0.000000
# 3 -0.009162 0.001463 0.029100 0.000000 0.000000 0.000000
# 4 0.000000 0.000000 0.000000 0.086365 0.000000 0.000000
# 5 0.000000 0.000000 0.000000 0.000000 0.038930 0.000000
# 6 0.000000 0.000000 0.000000 0.000000 0.000000 0.037060
#
#
# Mechanical properties :
#
#
# Convention : Reuss Voigt Hill
#
# Bulk Modulus (GPa) = 32.81019 45.04496 38.92758
# Shear Modulus (GPa) = 20.15107 25.20086 22.67596
#
# Velocity S-wave (km/s) = 3.20568 3.58492 3.40059
# Velocity P-wave (km/s) = 5.51670 6.33301 5.93890
#
# Compressibility (1/GPa) = 0.03047833
#
# Stress axis : x y z
#
# Youngs Moduli (GPa) = 83.26921 83.78429 34.36402
#
# Poissons Ratio (x) = 0.30034 0.31484
# Poissons Ratio (y) = 0.29850 -0.05028
# Poissons Ratio (z) = 0.76289 -0.12260
#
# Static dielectric constant tensor:
#      x y z
#    x 3.483330 0.000000 0.000000 
#    y 0.000000 3.759910 0.000000 
#    z 0.000000 0.000000 2.761170 
# 
# 
# High freq. dielectric constant tensor:
#      x y z
#    x 1.755970 0.000000 0.000000 
#    y 0.000000 1.775680 0.000000 
#    z 0.000000 0.000000 1.761590 
# 
# From -- ./inp_files/16207.got.cif
#   From: 2010.03.12/outbox.cif.g09.slc.cpg/sg53_9_cif.got.tgz:16207.got - 2010.04.16 14:36:59.
