data_PCOD8220198
_publ_section_title
;
Structure prediction by ZEFSAII (Michael W. Deem and Ramdas Pophale) SiO2 
 PCOD8220198
Probable space group: P M N A
;
_chemical_formula_sum "Si O2"
_cell_formula_units_Z 64
_cell_length_a 23.500256
_cell_length_b 14.957468
_cell_length_c 9.303028
_cell_angle_alpha 90.000000
_cell_angle_beta 90.000000
_cell_angle_gamma 90.000000
_cell_volume 3270.054597
_symmetry_space_group_name_H-M "P M N A"
_symmetry_group_IT_number 53
_symmetry_cell_setting 'orthorhombic'
loop_
_space_group_symop_operation_xyz
x,y,z
1/2-x,-y,1/2+z
x,-y,-z
1/2-x,y,1/2-z
-x,-y,-z
1/2+x,y,1/2-z
-x,y,z
1/2+x,-y,1/2+z
loop_
_atom_site_type_symbol
_atom_site_label
_atom_site_fract_x
_atom_site_fract_y
_atom_site_fract_z
Si Si1 0.434669 0.311382 0.264148
Si Si2 0.638542 0.724722 0.462202
Si Si3 0.119857 0.511636 0.661875
Si Si4 0.562984 0.807780 0.987980
Si Si5 0.209365 0.436892 0.876075
Si Si6 0.938884 0.665594 0.283053
Si Si7 0.673742 0.912687 0.093564
Si Si8 0.802364 0.093727 0.921755
O O1 0.500000 0.336764 0.289174
O O2 0.406406 0.299163 0.417513
O O3 0.404446 0.389596 0.175558
O O4 0.427974 0.217213 0.179181
O O5 0.688289 0.651198 0.459374
O O6 0.608308 0.717348 0.308454
O O7 0.661673 0.824764 0.487999
O O8 0.145686 0.500000 0.500000
O O9 0.163615 0.496848 0.792088
O O10 0.071264 0.438483 0.688067
O O11 0.500000 0.856514 0.008132
O O12 0.559333 0.712165 0.063236
O O13 0.617944 0.857653 0.049642
O O14 0.250000 0.401967 0.750000
O O15 0.237070 0.500000 0.000000
O O16 0.000000 0.674186 0.204834
O O17 0.674509 0.928848 0.263309
O O18 0.736724 0.872266 0.062283
O O19 0.667372 0.000000 0.000000
O O20 0.812647 0.000000 0.000000
#
# Coordination Sequence:
#
# PCOD8220198 Si02
#       8
#     8   8   8   8   8   8   8   8
#     4  11  23  39  61  91 128 164 212 266 312 369
#     4  11  23  41  63  89 125 163 207 253 324 375
#     4  11  21  37  58  86 123 164 209 259 303 358
#     4  10  21  38  61  92 124 162 204 251 314 374
#     4  11  24  42  60  89 125 167 209 254 308 378
#     4  10  20  34  59  86 117 162 206 249 301 366
#     4  10  22  42  67  91 122 153 203 259 311 376
#     4  10  23  42  66  94 121 159 206 261 316 377
#
# _framework density 19.571538
#
# number of rings (size 3 to 8) (size 9 to 14) (size 15 to 20)
#    0.000    1.500    3.750    1.125    3.500    0.750 
#    2.250    1.875    0.000    1.875    0.000    0.000 
#    0.000    0.000    0.000    0.000    0.000    0.000 
#
# Total GULP energy -792871.003644 kJ/mol
# GULP energy per Si atom -12388.609432 kJ/mol
# Density = 1.952699 g / cm^3
# Si number density = 19.571538 Si / 1000 Ang^3
#
#
#
# Elastic Constant Matrix: (Units=GPa)
#
#
# Indices 1 2 3 4 5 6 
#
# 1 91.9521 41.2248 21.0673 0.0000 0.0000 0.0000
# 2 41.2248 81.3715 28.9111 0.0000 0.0000 0.0000
# 3 21.0673 28.9111 86.5348 0.0000 0.0000 0.0000
# 4 0.0000 0.0000 0.0000 29.7198 0.0000 0.0000
# 5 0.0000 0.0000 0.0000 0.0000 32.5386 0.0000
# 6 0.0000 0.0000 0.0000 0.0000 0.0000 35.8764
#
#
#
# Elastic Compliance Matrix: (Units=1/GPa)
#
#
# Indices 1 2 3 4 5 6 
#
# 1 0.014179 -0.006759 -0.001194 0.000000 0.000000 0.000000
# 2 -0.006759 0.017167 -0.004090 0.000000 0.000000 0.000000
# 3 -0.001194 -0.004090 0.013213 0.000000 0.000000 0.000000
# 4 0.000000 0.000000 0.000000 0.033648 0.000000 0.000000
# 5 0.000000 0.000000 0.000000 0.000000 0.030733 0.000000
# 6 0.000000 0.000000 0.000000 0.000000 0.000000 0.027873
#
#
# Mechanical properties :
#
#
# Convention : Reuss Voigt Hill
#
# Bulk Modulus (GPa) = 48.84409 49.14053 48.99231
# Shear Modulus (GPa) = 29.81106 30.87066 30.34086
#
# Velocity S-wave (km/s) = 3.90703 3.97586 3.94160
# Velocity P-wave (km/s) = 6.73529 6.79995 6.76770
#
# Compressibility (1/GPa) = 0.02047331
#
# Stress axis : x y z
#
# Youngs Moduli (GPa) = 70.52619 58.25171 75.68275
#
# Poissons Ratio (x) = 0.39375 0.09034
# Poissons Ratio (y) = 0.47671 0.30953
# Poissons Ratio (z) = 0.08419 0.23824
#
# Static dielectric constant tensor:
#      x y z
#    x 3.808350 0.000000 0.000000 
#    y 0.000000 3.348700 0.000000 
#    z 0.000000 0.000000 3.591430 
# 
# 
# High freq. dielectric constant tensor:
#      x y z
#    x 1.768650 0.000000 0.000000 
#    y 0.000000 1.745330 0.000000 
#    z 0.000000 0.000000 1.772940 
# 
# From -- ./inp_files/11930.got.cif
#   From: 2010.03.12/outbox.cif.g09.slc.cpg/sg53_6_cif.got.tgz:11930.got - 2010.04.16 14:36:59.
