data_PCOD8220993
_publ_section_title
;
Structure prediction by ZEFSAII (Michael W. Deem and Ramdas Pophale) SiO2 
 PCOD8220993
Probable space group: P M N A
;
_chemical_formula_sum "Si O2"
_cell_formula_units_Z 48
_cell_length_a 14.668765
_cell_length_b 9.559122
_cell_length_c 17.016845
_cell_angle_alpha 90.000000
_cell_angle_beta 90.000000
_cell_angle_gamma 90.000000
_cell_volume 2386.110756
_symmetry_space_group_name_H-M "P M N A"
_symmetry_group_IT_number 53
_symmetry_cell_setting 'orthorhombic'
loop_
_space_group_symop_operation_xyz
x,y,z
1/2-x,-y,1/2+z
x,-y,-z
1/2-x,y,1/2-z
-x,-y,-z
1/2+x,y,1/2-z
-x,y,z
1/2+x,-y,1/2+z
loop_
_atom_site_type_symbol
_atom_site_label
_atom_site_fract_x
_atom_site_fract_y
_atom_site_fract_z
Si Si1 0.813231 0.520649 0.407362
Si Si2 0.694249 0.738092 0.624127
Si Si3 0.000000 0.843773 0.229314
Si Si4 0.500000 0.612991 0.656828
Si Si5 0.309784 0.766335 0.449481
Si Si6 0.000000 0.432618 0.683401
Si Si7 0.000000 0.661286 0.074783
Si Si8 0.182434 0.971497 0.188393
O O1 0.827316 0.500000 0.500000
O O2 0.758701 0.396625 0.362163
O O3 0.751689 0.659381 0.398632
O O4 0.910636 0.534072 0.367048
O O5 0.589249 0.705650 0.643680
O O6 0.723310 0.794534 0.537485
O O7 0.714269 0.867492 0.681616
O O8 0.000000 0.735305 0.302142
O O9 0.084328 0.949673 0.227908
O O10 0.000000 0.739293 0.157226
O O11 0.500000 0.531828 0.740147
O O12 0.500000 0.504428 0.585205
O O13 0.408911 0.703036 0.470245
O O14 0.315053 0.906404 0.398715
O O15 0.250000 0.896887 0.250000
#
# Coordination Sequence:
#
# PCOD8220993 Si02
#       8
#     8   8   4   4   8   4   4   8
#     4  10  22  39  63  89 117 157 209 259 305 361
#     4  11  23  37  59  93 122 156 195 249 319 369
#     4   9  21  39  56  86 110 163 204 237 290 359
#     4  11  22  35  57  91 126 153 185 253 311 369
#     4  10  20  39  63  86 120 159 201 248 300 369
#     4  11  23  39  62  85 124 165 213 252 303 355
#     4   9  17  33  58  88 115 144 190 233 297 358
#     4  11  23  39  59  85 122 159 202 250 299 369
#
# _framework density 20.116416999999998
#
# number of rings (size 3 to 8) (size 9 to 14) (size 15 to 20)
#    0.000    1.667    1.667    2.750    2.333    0.667 
#    0.000    3.333    0.000    0.000    0.000    8.167 
#    0.000    0.000    0.000    0.000    0.000    0.000 
#
# Total GULP energy -594815.753645 kJ/mol
# GULP energy per Si atom -12391.994868 kJ/mol
# Density = 2.007063 g / cm^3
# Si number density = 20.116417 Si / 1000 Ang^3
#
#
#
# Elastic Constant Matrix: (Units=GPa)
#
#
# Indices 1 2 3 4 5 6 
#
# 1 138.0419 40.9364 34.3340 0.0000 0.0000 0.0000
# 2 40.9364 94.9015 26.8782 0.0000 0.0000 0.0000
# 3 34.3340 26.8782 59.5185 0.0000 0.0000 0.0000
# 4 0.0000 0.0000 0.0000 26.9361 0.0000 0.0000
# 5 0.0000 0.0000 0.0000 0.0000 31.2252 0.0000
# 6 0.0000 0.0000 0.0000 0.0000 0.0000 11.7819
#
#
#
# Elastic Compliance Matrix: (Units=1/GPa)
#
#
# Indices 1 2 3 4 5 6 
#
# 1 0.009056 -0.002783 -0.003968 0.000000 0.000000 0.000000
# 2 -0.002783 0.012938 -0.004237 0.000000 0.000000 0.000000
# 3 -0.003968 -0.004237 0.021004 0.000000 0.000000 0.000000
# 4 0.000000 0.000000 0.000000 0.037125 0.000000 0.000000
# 5 0.000000 0.000000 0.000000 0.000000 0.032025 0.000000
# 6 0.000000 0.000000 0.000000 0.000000 0.000000 0.084876
#
#
# Mechanical properties :
#
#
# Convention : Reuss Voigt Hill
#
# Bulk Modulus (GPa) = 47.56812 55.19546 51.38179
# Shear Modulus (GPa) = 22.12322 26.67618 24.39970
#
# Velocity S-wave (km/s) = 3.31986 3.64550 3.48649
# Velocity P-wave (km/s) = 6.19621 6.72437 6.46569
#
# Compressibility (1/GPa) = 0.02102249
#
# Stress axis : x y z
#
# Youngs Moduli (GPa) = 110.42134 77.29344 47.61053
#
# Poissons Ratio (x) = 0.21509 0.18890
# Poissons Ratio (y) = 0.30728 0.20174
# Poissons Ratio (z) = 0.43810 0.32752
#
# Static dielectric constant tensor:
#      x y z
#    x 3.785530 0.000000 0.000000 
#    y 0.000000 3.579800 0.000000 
#    z 0.000000 0.000000 3.535700 
# 
# 
# High freq. dielectric constant tensor:
#      x y z
#    x 1.783360 0.000000 0.000000 
#    y 0.000000 1.785390 0.000000 
#    z 0.000000 0.000000 1.785820 
# 
# From -- ./inp_files/28333.got.cif
#   From: 2010.03.12/outbox.cif.g09.slc.cpg/sg53_15_cif.got.tgz:28333.got - 2010.04.16 14:36:59.
