data_PCOD8220200
_publ_section_title
;
Structure prediction by ZEFSAII (Michael W. Deem and Ramdas Pophale) SiO2 
 PCOD8220200
Probable space group: P M N A
;
_chemical_formula_sum "Si O2"
_cell_formula_units_Z 44
_cell_length_a 25.375976
_cell_length_b 13.727583
_cell_length_c 5.928346
_cell_angle_alpha 90.000000
_cell_angle_beta 90.000000
_cell_angle_gamma 90.000000
_cell_volume 2065.144171
_symmetry_space_group_name_H-M "P M N A"
_symmetry_group_IT_number 53
_symmetry_cell_setting 'orthorhombic'
loop_
_space_group_symop_operation_xyz
x,y,z
1/2-x,-y,1/2+z
x,-y,-z
1/2-x,y,1/2-z
-x,-y,-z
1/2+x,y,1/2-z
-x,y,z
1/2+x,-y,1/2+z
loop_
_atom_site_type_symbol
_atom_site_label
_atom_site_fract_x
_atom_site_fract_y
_atom_site_fract_z
Si Si1 0.381097 0.253560 0.828454
Si Si2 0.399647 0.888247 0.543524
Si Si3 0.652134 0.605983 0.543852
Si Si4 0.500000 0.943643 0.752103
Si Si5 0.190913 0.219660 0.285930
Si Si6 0.939446 0.400675 0.369479
O O1 0.413174 0.171302 0.686023
O O2 0.351715 0.336400 0.687582
O O3 0.423421 0.304943 0.990002
O O4 0.332557 0.203544 0.964477
O O5 0.446633 0.879018 0.732200
O O6 0.345534 0.841352 0.619997
O O7 0.387834 0.000000 0.500000
O O8 0.677574 0.500000 0.500000
O O9 0.688209 0.665441 0.721094
O O10 0.592838 0.596031 0.638247
O O11 0.500000 0.000000 0.500000
O O12 0.500000 0.000000 0.000000
O O13 0.250000 0.180919 0.250000
O O14 0.927161 0.500000 0.500000
O O15 0.000000 0.391637 0.301883
#
# Coordination Sequence:
#
# PCOD8220200 Si02
#       6
#     8   8   8   4   8   8
#     4  10  22  41  64  90 137 166 226 285 345 413
#     4  10  24  44  67 100 132 183 224 285 350 424
#     4  10  20  39  58  89 129 171 218 276 341 409
#     4  10  24  44  74 106 144 187 238 289 350 434
#     4  10  24  45  65  97 129 171 229 295 344 418
#     4  10  20  34  59  91 129 179 226 279 341 413
#
# _framework density 21.306018000000002
#
# number of rings (size 3 to 8) (size 9 to 14) (size 15 to 20)
#    0.000    2.000    1.818    0.000    6.364    4.000 
#   19.636    0.000    0.000    0.000    0.000    0.000 
#    0.000    0.000    0.000    0.000    0.000    0.000 
#
# Total GULP energy -545244.222751 kJ/mol
# GULP energy per Si atom -12391.914153 kJ/mol
# Density = 2.125752 g / cm^3
# Si number density = 21.306018 Si / 1000 Ang^3
#
#
#
# Elastic Constant Matrix: (Units=GPa)
#
#
# Indices 1 2 3 4 5 6 
#
# 1 137.2913 25.6084 29.0001 0.0000 0.0000 0.0000
# 2 25.6084 118.6537 27.1714 0.0000 0.0000 0.0000
# 3 29.0001 27.1714 94.7468 0.0000 0.0000 0.0000
# 4 0.0000 0.0000 0.0000 37.1028 0.0000 0.0000
# 5 0.0000 0.0000 0.0000 0.0000 21.2598 0.0000
# 6 0.0000 0.0000 0.0000 0.0000 0.0000 20.3538
#
#
#
# Elastic Compliance Matrix: (Units=1/GPa)
#
#
# Indices 1 2 3 4 5 6 
#
# 1 0.007954 -0.001241 -0.002079 0.000000 0.000000 0.000000
# 2 -0.001241 0.009214 -0.002263 0.000000 0.000000 0.000000
# 3 -0.002079 -0.002263 0.011840 0.000000 0.000000 0.000000
# 4 0.000000 0.000000 0.000000 0.026952 0.000000 0.000000
# 5 0.000000 0.000000 0.000000 0.000000 0.047037 0.000000
# 6 0.000000 0.000000 0.000000 0.000000 0.000000 0.049131
#
#
# Mechanical properties :
#
#
# Convention : Reuss Voigt Hill
#
# Bulk Modulus (GPa) = 56.04287 57.13905 56.59096
# Shear Modulus (GPa) = 29.54385 33.67073 31.60729
#
# Velocity S-wave (km/s) = 3.72781 3.97966 3.85579
# Velocity P-wave (km/s) = 6.69997 6.92773 6.81480
#
# Compressibility (1/GPa) = 0.01784348
#
# Stress axis : x y z
#
# Youngs Moduli (GPa) = 125.71783 108.53304 84.46232
#
# Poissons Ratio (x) = 0.13466 0.17558
# Poissons Ratio (y) = 0.15598 0.19110
# Poissons Ratio (z) = 0.26135 0.24556
#
# Static dielectric constant tensor:
#      x y z
#    x 3.734090 0.000000 0.000000 
#    y 0.000000 4.035030 0.000000 
#    z 0.000000 0.000000 4.109950 
# 
# 
# High freq. dielectric constant tensor:
#      x y z
#    x 1.815900 0.000000 0.000000 
#    y 0.000000 1.836950 0.000000 
#    z 0.000000 0.000000 1.842780 
# 
# From -- ./inp_files/4424.got.cif
#   From: 2010.03.12/outbox.cif.g09.slc.cpg/sg53_3_cif.got.tgz:4424.got - 2010.04.16 14:36:59.
