data_PCOD8220018
_publ_section_title
;
Structure prediction by ZEFSAII (Michael W. Deem and Ramdas Pophale) SiO2 
 PCOD8220018
Probable space group: P M N A
;
_chemical_formula_sum "Si O2"
_cell_formula_units_Z 56
_cell_length_a 26.345587
_cell_length_b 7.623151
_cell_length_c 15.505926
_cell_angle_alpha 90.000000
_cell_angle_beta 90.000000
_cell_angle_gamma 90.000000
_cell_volume 3114.154169
_symmetry_space_group_name_H-M "P M N A"
_symmetry_group_IT_number 53
_symmetry_cell_setting 'orthorhombic'
loop_
_space_group_symop_operation_xyz
x,y,z
1/2-x,-y,1/2+z
x,-y,-z
1/2-x,y,1/2-z
-x,-y,-z
1/2+x,y,1/2-z
-x,y,z
1/2+x,-y,1/2+z
loop_
_atom_site_type_symbol
_atom_site_label
_atom_site_fract_x
_atom_site_fract_y
_atom_site_fract_z
Si Si1 0.694997 0.798879 0.283756
Si Si2 0.194997 0.798879 0.783756
Si Si3 0.844999 0.500000 0.898778
Si Si4 0.055921 0.500000 0.204437
Si Si5 0.904053 0.196836 0.316725
Si Si6 0.595947 0.803164 0.183275
Si Si7 0.441832 0.707419 1.000000
O O1 0.750000 0.744614 0.250000
O O2 0.681675 0.675150 0.363847
O O3 0.654938 0.766974 0.206291
O O4 0.694082 1.000000 0.316085
O O5 0.250000 0.744614 0.750000
O O6 0.181675 0.675150 0.863847
O O7 0.154938 0.766974 0.706291
O O8 0.904164 0.500000 0.873029
O O9 0.839844 0.500000 0.000000
O O10 0.060544 0.329301 0.264572
O O11 0.060544 0.670700 0.264572
O O12 0.000000 0.500000 0.162978
O O13 0.911639 0.219790 0.418217
O O14 0.919350 0.000000 0.289231
O O15 0.588361 0.780210 0.081783
O O16 0.500000 0.775706 1.000000
O O17 0.440615 0.500000 0.000000
#
# Coordination Sequence:
#
# PCOD8220018 Si02
#       7
#     8   8   8   8   8   8   8
#     4   9  19  38  59  78 106 141 176 217 264 314
#     4   9  19  38  59  78 106 141 176 217 264 314
#     4  10  21  36  55  82 108 135 174 218 264 311
#     4  10  20  35  54  75 103 138 176 217 260 311
#     4  10  20  34  53  76 104 139 178 217 260 314
#     4  10  20  34  53  76 104 139 178 217 260 314
#     4  11  21  33  49  74 111 145 174 217 265 311
#
# _framework density 17.982412
#
# number of rings (size 3 to 8) (size 9 to 14) (size 15 to 20)
#    0.000    2.143    1.429    1.714    0.000    3.714 
#    2.571    0.000    0.000    0.000    0.000    8.000 
#    0.000    0.000    0.000    0.000    0.000    0.000 
#
# Total GULP energy -694487.362109 kJ/mol
# GULP energy per Si atom -12401.560038 kJ/mol
# Density = 1.794148 g / cm^3
# Si number density = 17.982412 Si / 1000 Ang^3
#
#
#
# Elastic Constant Matrix: (Units=GPa)
#
#
# Indices 1 2 3 4 5 6 
#
# 1 140.5060 58.0753 66.5246 0.0000 0.0000 0.0000
# 2 58.0753 117.6897 56.6124 0.0000 0.0000 0.0000
# 3 66.5246 56.6124 140.2902 0.0000 0.0000 0.0000
# 4 0.0000 0.0000 0.0000 11.6090 0.0000 0.0000
# 5 0.0000 0.0000 0.0000 0.0000 14.0205 0.0000
# 6 0.0000 0.0000 0.0000 0.0000 0.0000 -361.6564
#
#
#
# Elastic Compliance Matrix: (Units=1/GPa)
#
#
# Indices 1 2 3 4 5 6 
#
# 1 0.010134 -0.003337 -0.003459 0.000000 0.000000 0.000000
# 2 -0.003337 0.011642 -0.003116 0.000000 0.000000 0.000000
# 3 -0.003459 -0.003116 0.010026 0.000000 0.000000 0.000000
# 4 0.000000 0.000000 0.000000 0.086140 0.000000 0.000000
# 5 0.000000 0.000000 0.000000 0.000000 0.071324 0.000000
# 6 0.000000 0.000000 0.000000 0.000000 0.000000 -0.002765
#
#
# Mechanical properties :
#
#
# Convention : Reuss Voigt Hill
#
# Bulk Modulus (GPa) = 83.48101 84.54559 84.01330
# Shear Modulus (GPa) = 23.77360 -52.72048 -14.47344
#
# Velocity S-wave (km/s) = 3.63994 -5.42047 -2.84009
# Velocity P-wave (km/s) = 8.01187 2.81825 6.00552
#
# Compressibility (1/GPa) = 0.01197877
#
# Stress axis : x y z
#
# Youngs Moduli (GPa) = 98.67724 85.89330 99.74450
#
# Poissons Ratio (x) = 0.28662 0.34501
# Poissons Ratio (y) = 0.32928 0.31078
# Poissons Ratio (z) = 0.34132 0.26763
#
# Static dielectric constant tensor:
#      x y z
#    x 3.418120 0.000000 0.000000 
#    y 0.000000 3.632490 0.000000 
#    z 0.000000 0.000000 3.064600 
# 
# 
# High freq. dielectric constant tensor:
#      x y z
#    x 1.701790 0.000000 0.000000 
#    y 0.000000 1.718820 0.000000 
#    z 0.000000 0.000000 1.668680 
# 
# From -- ./inp_files/24329.got.cif
#   From: 2010.03.12/outbox.cif.g09.slc.cpg/sg53_13_cif.got.tgz:24329.got - 2010.04.16 14:36:59.
