data_PCOD8220022
_publ_section_title
;
Structure prediction by ZEFSAII (Michael W. Deem and Ramdas Pophale) SiO2 
 PCOD8220022
Probable space group: P M N A
;
_chemical_formula_sum "Si O2"
_cell_formula_units_Z 40
_cell_length_a 9.015826
_cell_length_b 15.781059
_cell_length_c 13.971834
_cell_angle_alpha 90.000000
_cell_angle_beta 90.000000
_cell_angle_gamma 90.000000
_cell_volume 1987.902510
_symmetry_space_group_name_H-M "P M N A"
_symmetry_group_IT_number 53
_symmetry_cell_setting 'orthorhombic'
loop_
_space_group_symop_operation_xyz
x,y,z
1/2-x,-y,1/2+z
x,-y,-z
1/2-x,y,1/2-z
-x,-y,-z
1/2+x,y,1/2-z
-x,y,z
1/2+x,-y,1/2+z
loop_
_atom_site_type_symbol
_atom_site_label
_atom_site_fract_x
_atom_site_fract_y
_atom_site_fract_z
Si Si1 0.337898 0.026869 0.108947
Si Si2 0.174330 0.867614 0.156822
Si Si3 0.325759 0.199468 0.030988
Si Si4 0.173407 0.536807 0.150444
Si Si5 0.825730 0.369837 0.040440
O O1 0.500000 0.013026 0.158295
O O2 0.292130 0.126290 0.110195
O O3 0.214012 0.968315 0.157905
O O4 0.353612 0.000000 0.000000
O O5 0.250000 0.825694 0.250000
O O6 0.000000 0.854925 0.160288
O O7 0.237782 0.819510 0.065830
O O8 0.500000 0.203158 0.008288
O O9 0.267469 0.287997 0.072532
O O10 0.250000 0.560617 0.250000
O O11 0.220525 0.443725 0.113900
O O12 0.000000 0.539679 0.168534
O O13 0.217239 0.604252 0.068283
O O14 0.000000 0.350858 0.047259
#
# Coordination Sequence:
#
# PCOD8220022 Si02
#       5
#     8   8   8   8   8
#     4   8  16  32  50  69  97 130 164 203 247 297
#     4  11  21  33  51  74 102 136 174 215 260 309
#     4  10  20  34  53  77 104 134 170 213 259 309
#     4   9  19  36  57  79 106 140 177 219 268 321
#     4   9  19  36  55  78 109 143 177 216 267 325
#
# _framework density 20.12171
#
# number of rings (size 3 to 8) (size 9 to 14) (size 15 to 20)
#    0.000    2.600    0.000    4.800    0.000    6.800 
#    0.000    5.000    0.000    2.400    0.000    0.000 
#    0.000    0.000    0.000    0.000    0.000    0.000 
#
# Total GULP energy -495825.172752 kJ/mol
# GULP energy per Si atom -12395.629319 kJ/mol
# Density = 2.007591 g / cm^3
# Si number density = 20.121710 Si / 1000 Ang^3
#
#
#
# Elastic Constant Matrix: (Units=GPa)
#
#
# Indices 1 2 3 4 5 6 
#
# 1 85.4305 14.9326 4.0678 0.0000 0.0000 0.0000
# 2 14.9326 84.7496 -21.6145 0.0000 0.0000 0.0000
# 3 4.0678 -21.6145 34.9069 0.0000 0.0000 0.0000
# 4 0.0000 0.0000 0.0000 13.1906 0.0000 0.0000
# 5 0.0000 0.0000 0.0000 0.0000 27.7300 0.0000
# 6 0.0000 0.0000 0.0000 0.0000 0.0000 16.5555
#
#
#
# Elastic Compliance Matrix: (Units=1/GPa)
#
#
# Indices 1 2 3 4 5 6 
#
# 1 0.012393 -0.003031 -0.003321 0.000000 0.000000 0.000000
# 2 -0.003031 0.014753 0.009489 0.000000 0.000000 0.000000
# 3 -0.003321 0.009489 0.034910 0.000000 0.000000 0.000000
# 4 0.000000 0.000000 0.000000 0.075812 0.000000 0.000000
# 5 0.000000 0.000000 0.000000 0.000000 0.036062 0.000000
# 6 0.000000 0.000000 0.000000 0.000000 0.000000 0.060403
#
#
# Mechanical properties :
#
#
# Convention : Reuss Voigt Hill
#
# Bulk Modulus (GPa) = 14.63466 22.20653 18.42059
# Shear Modulus (GPa) = 19.93338 25.34198 22.63768
#
# Velocity S-wave (km/s) = 3.15086 3.55270 3.35780
# Velocity P-wave (km/s) = 4.53057 5.28100 4.92011
#
# Compressibility (1/GPa) = 0.06833095
#
# Stress axis : x y z
#
# Youngs Moduli (GPa) = 80.68906 67.78104 28.64516
#
# Poissons Ratio (x) = 0.20542 0.09512
# Poissons Ratio (y) = 0.24453 -0.27180
# Poissons Ratio (z) = 0.26795 -0.64314
#
# Static dielectric constant tensor:
#      x y z
#    x 3.511440 0.000000 0.000000 
#    y 0.000000 3.882890 0.000000 
#    z 0.000000 0.000000 3.568260 
# 
# 
# High freq. dielectric constant tensor:
#      x y z
#    x 1.781270 0.000000 0.000000 
#    y 0.000000 1.785100 0.000000 
#    z 0.000000 0.000000 1.766790 
# 
# From -- ./inp_files/19840.got.cif
#   From: 2010.03.12/outbox.cif.g09.slc.cpg/sg53_10_cif.got.tgz:19840.got - 2010.04.16 14:36:59.
