data_PCOD8220519
_publ_section_title
;
Structure prediction by ZEFSAII (Michael W. Deem and Ramdas Pophale) SiO2 
 PCOD8220519
Probable space group: P M N A
;
_chemical_formula_sum "Si O2"
_cell_formula_units_Z 48
_cell_length_a 9.016919
_cell_length_b 30.247879
_cell_length_c 9.482990
_cell_angle_alpha 90.000000
_cell_angle_beta 90.000000
_cell_angle_gamma 90.000000
_cell_volume 2586.416058
_symmetry_space_group_name_H-M "P M N A"
_symmetry_group_IT_number 53
_symmetry_cell_setting 'orthorhombic'
loop_
_space_group_symop_operation_xyz
x,y,z
1/2-x,-y,1/2+z
x,-y,-z
1/2-x,y,1/2-z
-x,-y,-z
1/2+x,y,1/2-z
-x,y,z
1/2+x,-y,1/2+z
loop_
_atom_site_type_symbol
_atom_site_label
_atom_site_fract_x
_atom_site_fract_y
_atom_site_fract_z
Si Si1 0.172017 0.789294 0.392647
Si Si2 0.173705 0.382543 0.396730
Si Si3 0.173916 0.716871 0.605799
Si Si4 0.325396 0.890341 0.100954
Si Si5 0.173620 0.958298 0.899955
Si Si6 0.325297 0.540308 0.098971
O O1 0.250000 0.777191 0.250000
O O2 0.237258 0.753929 0.501574
O O3 0.205186 0.839459 0.439225
O O4 0.000000 0.781729 0.369411
O O5 0.250000 0.395697 0.250000
O O6 0.215989 0.332714 0.444148
O O7 0.227034 0.414703 0.521736
O O8 0.000000 0.387935 0.370058
O O9 0.250000 0.728561 0.750000
O O10 0.000000 0.721705 0.626000
O O11 0.250000 0.902872 0.250000
O O12 0.500000 0.901079 0.112563
O O13 0.251530 0.916827 0.973663
O O14 0.250000 0.967695 0.750000
O O15 0.000000 0.948436 0.877025
O O16 0.199291 0.000000 0.000000
O O17 0.250000 0.536470 0.250000
O O18 0.500000 0.539568 0.123783
O O19 0.274343 0.500000 0.000000
#
# Coordination Sequence:
#
# PCOD8220519 Si02
#       6
#     8   8   8   8   8   8
#     4   9  19  34  52  76 105 137 172 212 256 303
#     4   9  18  33  52  73  99 132 169 210 254 302
#     4   9  18  33  51  73 102 134 170 211 255 302
#     4  10  20  36  57  80 108 141 177 217 262 310
#     4  11  24  40  59  83 110 141 176 215 260 309
#     4  10  21  35  51  74 102 131 166 208 253 302
#
# _framework density 18.558499999999999
#
# number of rings (size 3 to 8) (size 9 to 14) (size 15 to 20)
#    0.000    2.333    0.000    2.000    0.000    6.333 
#    0.000    1.667    0.000    0.000    0.000    0.000 
#    0.000    0.000    0.000    0.000    0.000    0.000 
#
# Total GULP energy -595205.093800 kJ/mol
# GULP energy per Si atom -12400.106121 kJ/mol
# Density = 1.851626 g / cm^3
# Si number density = 18.558500 Si / 1000 Ang^3
#
#
#
# Elastic Constant Matrix: (Units=GPa)
#
#
# Indices 1 2 3 4 5 6 
#
# 1 64.9341 51.8936 67.2743 0.0000 0.0000 0.0000
# 2 51.8936 127.5129 99.4536 0.0000 0.0000 0.0000
# 3 67.2743 99.4536 158.0011 0.0000 0.0000 0.0000
# 4 0.0000 0.0000 0.0000 41.4727 0.0000 0.0000
# 5 0.0000 0.0000 0.0000 0.0000 38.2925 0.0000
# 6 0.0000 0.0000 0.0000 0.0000 0.0000 20.3457
#
#
#
# Elastic Compliance Matrix: (Units=1/GPa)
#
#
# Indices 1 2 3 4 5 6 
#
# 1 0.028665 -0.004216 -0.009551 0.000000 0.000000 0.000000
# 2 -0.004216 0.016026 -0.008292 0.000000 0.000000 0.000000
# 3 -0.009551 -0.008292 0.015615 0.000000 0.000000 0.000000
# 4 0.000000 0.000000 0.000000 0.024112 0.000000 0.000000
# 5 0.000000 0.000000 0.000000 0.000000 0.026115 0.000000
# 6 0.000000 0.000000 0.000000 0.000000 0.000000 0.049150
#
#
# Mechanical properties :
#
#
# Convention : Reuss Voigt Hill
#
# Bulk Modulus (GPa) = 61.77841 87.52123 74.64982
# Shear Modulus (GPa) = 23.90072 28.81062 26.35567
#
# Velocity S-wave (km/s) = 3.59257 3.94435 3.77256
# Velocity P-wave (km/s) = 7.11122 8.24657 7.69985
#
# Compressibility (1/GPa) = 0.01618689
#
# Stress axis : x y z
#
# Youngs Moduli (GPa) = 34.88539 62.39987 64.03983
#
# Poissons Ratio (x) = 0.26310 0.61166
# Poissons Ratio (y) = 0.14709 0.53102
# Poissons Ratio (z) = 0.33320 0.51743
#
# Static dielectric constant tensor:
#      x y z
#    x 3.405080 0.000000 0.000000 
#    y 0.000000 3.715900 0.000000 
#    z 0.000000 0.000000 3.446990 
# 
# 
# High freq. dielectric constant tensor:
#      x y z
#    x 1.719510 0.000000 0.000000 
#    y 0.000000 1.734250 0.000000 
#    z 0.000000 0.000000 1.719230 
# 
# From -- ./inp_files/6601.got.cif
#   From: 2010.03.12/outbox.cif.g09.slc.cpg/sg53_4_cif.got.tgz:6601.got - 2010.04.16 14:36:59.
