data_PCOD8220030
_publ_section_title
;
Structure prediction by ZEFSAII (Michael W. Deem and Ramdas Pophale) SiO2 
 PCOD8220030
Probable space group: P M N A
;
_chemical_formula_sum "Si O2"
_cell_formula_units_Z 40
_cell_length_a 8.952364
_cell_length_b 9.465107
_cell_length_c 25.642396
_cell_angle_alpha 90.000000
_cell_angle_beta 90.000000
_cell_angle_gamma 90.000000
_cell_volume 2172.810558
_symmetry_space_group_name_H-M "P M N A"
_symmetry_group_IT_number 53
_symmetry_cell_setting 'orthorhombic'
loop_
_space_group_symop_operation_xyz
x,y,z
1/2-x,-y,1/2+z
x,-y,-z
1/2-x,y,1/2-z
-x,-y,-z
1/2+x,y,1/2-z
-x,y,z
1/2+x,-y,1/2+z
loop_
_atom_site_type_symbol
_atom_site_label
_atom_site_fract_x
_atom_site_fract_y
_atom_site_fract_z
Si Si1 0.174837 0.735834 0.194370
Si Si2 0.171929 0.549102 0.388271
Si Si3 0.173270 0.260583 0.968469
Si Si4 0.328893 0.761312 0.922497
Si Si5 0.170685 0.975565 0.114165
O O1 0.250000 0.743829 0.250000
O O2 0.239756 0.604928 0.161843
O O3 0.208970 0.881846 0.164646
O O4 0.000000 0.709709 0.200623
O O5 0.235809 0.612215 0.442052
O O6 0.191574 0.380976 0.389492
O O7 0.000000 0.594230 0.383391
O O8 0.201105 0.115393 0.937699
O O9 0.000000 0.302744 0.967031
O O10 0.224930 0.238866 0.027092
O O11 0.500000 0.781250 0.939914
O O12 0.278711 0.889561 0.885312
O O13 0.000000 0.027513 0.115693
#
# Coordination Sequence:
#
# PCOD8220030 Si02
#       5
#     8   8   8   8   8
#     4  10  21  39  62  83 102 132 174 218 267 319
#     4  10  21  36  53  78 110 141 178 220 260 309
#     4  10  20  34  53  77 107 146 185 217 257 311
#     4  11  22  33  50  79 112 144 177 216 262 309
#     4   9  20  36  53  77 107 139 177 217 259 312
#
# _framework density 18.409336
#
# number of rings (size 3 to 8) (size 9 to 14) (size 15 to 20)
#    0.000    2.000    0.000    4.800    0.000   12.800 
#    0.000    1.000    0.000    2.400    0.000    0.000 
#    0.000    0.000    0.000    0.000    0.000    0.000 
#
# Total GULP energy -496192.656135 kJ/mol
# GULP energy per Si atom -12404.816403 kJ/mol
# Density = 1.836744 g / cm^3
# Si number density = 18.409336 Si / 1000 Ang^3
#
#
#
# Elastic Constant Matrix: (Units=GPa)
#
#
# Indices 1 2 3 4 5 6 
#
# 1 122.8269 69.2169 56.7616 0.0000 0.0000 0.0000
# 2 69.2169 113.0500 44.6350 0.0000 0.0000 0.0000
# 3 56.7616 44.6350 116.9200 0.0000 0.0000 0.0000
# 4 0.0000 0.0000 0.0000 9.1871 0.0000 0.0000
# 5 0.0000 0.0000 0.0000 0.0000 18.1239 0.0000
# 6 0.0000 0.0000 0.0000 0.0000 0.0000 33.4587
#
#
#
# Elastic Compliance Matrix: (Units=1/GPa)
#
#
# Indices 1 2 3 4 5 6 
#
# 1 0.013942 -0.006905 -0.004133 0.000000 0.000000 0.000000
# 2 -0.006905 0.013835 -0.001930 0.000000 0.000000 0.000000
# 3 -0.004133 -0.001930 0.011296 0.000000 0.000000 0.000000
# 4 0.000000 0.000000 0.000000 0.108848 0.000000 0.000000
# 5 0.000000 0.000000 0.000000 0.000000 0.055176 0.000000
# 6 0.000000 0.000000 0.000000 0.000000 0.000000 0.029888
#
#
# Mechanical properties :
#
#
# Convention : Reuss Voigt Hill
#
# Bulk Modulus (GPa) = 76.10826 77.11375 76.61101
# Shear Modulus (GPa) = 18.98983 24.29951 21.64467
#
# Velocity S-wave (km/s) = 3.21523 3.63706 3.43263
# Velocity P-wave (km/s) = 7.43072 7.72120 7.57735
#
# Compressibility (1/GPa) = 0.01313918
#
# Stress axis : x y z
#
# Youngs Moduli (GPa) = 71.72329 72.28013 88.52850
#
# Poissons Ratio (x) = 0.49908 0.36587
# Poissons Ratio (y) = 0.49524 0.17082
# Poissons Ratio (z) = 0.29641 0.13947
#
# Static dielectric constant tensor:
#      x y z
#    x 3.539900 0.000000 0.000000 
#    y 0.000000 3.390410 0.000000 
#    z 0.000000 0.000000 3.201380 
# 
# 
# High freq. dielectric constant tensor:
#      x y z
#    x 1.730320 0.000000 0.000000 
#    y 0.000000 1.715140 0.000000 
#    z 0.000000 0.000000 1.697490 
# 
# From -- ./inp_files/33605.got.cif
#   From: 2010.03.12/outbox.cif.g09.slc.cpg/sg53_17_cif.got.tgz:33605.got - 2010.04.16 14:36:59.
