data_PCOD8220859
_publ_section_title
;
Structure prediction by ZEFSAII (Michael W. Deem and Ramdas Pophale) SiO2 
 PCOD8220859
Probable space group: P M N A
;
_chemical_formula_sum "Si O2"
_cell_formula_units_Z 48
_cell_length_a 27.997497
_cell_length_b 9.410766
_cell_length_c 9.755971
_cell_angle_alpha 90.000000
_cell_angle_beta 90.000000
_cell_angle_gamma 90.000000
_cell_volume 2570.482682
_symmetry_space_group_name_H-M "P M N A"
_symmetry_group_IT_number 53
_symmetry_cell_setting 'orthorhombic'
loop_
_space_group_symop_operation_xyz
x,y,z
1/2-x,-y,1/2+z
x,-y,-z
1/2-x,y,1/2-z
-x,-y,-z
1/2+x,y,1/2-z
-x,y,z
1/2+x,-y,1/2+z
loop_
_atom_site_type_symbol
_atom_site_label
_atom_site_fract_x
_atom_site_fract_y
_atom_site_fract_z
Si Si1 0.804787 0.136214 0.596377
Si Si2 0.596448 0.170140 0.001731
Si Si3 0.384367 0.662323 0.485419
Si Si4 0.446346 0.349832 0.771615
Si Si5 0.944398 0.325123 0.251573
Si Si6 0.699838 0.141989 0.586094
O O1 0.850433 0.225174 0.542256
O O2 0.753192 0.212407 0.580141
O O3 0.813668 0.102630 0.757150
O O4 0.803400 0.000000 0.500000
O O5 0.558929 0.248223 0.902591
O O6 0.584921 0.217924 0.154242
O O7 0.591519 0.000000 0.000000
O O8 0.368759 0.500000 0.500000
O O9 0.409968 0.700265 0.343840
O O10 0.422076 0.699728 0.602743
O O11 0.335803 0.750778 0.488762
O O12 0.500000 0.334153 0.714895
O O13 0.437123 0.515034 0.808051
O O14 0.000000 0.283679 0.245933
O O15 0.698170 0.000000 0.500000
#
# Coordination Sequence:
#
# PCOD8220859 Si02
#       6
#     8   8   8   8   8   8
#     4   9  20  37  58  85 113 144 184 223 277 336
#     4  11  22  36  56  84 114 144 182 233 280 322
#     4  10  21  37  58  84 112 143 186 235 279 319
#     4  10  20  38  59  79 108 150 190 224 277 338
#     4  10  22  38  57  80 112 151 189 225 270 336
#     4  10  20  37  63  83 110 147 187 227 275 334
#
# _framework density 18.673534
#
# number of rings (size 3 to 8) (size 9 to 14) (size 15 to 20)
#    0.000    2.000    1.667    1.500    4.667    4.667 
#    0.000    1.667    0.000    3.000    0.000    0.000 
#    0.000    0.000    0.000    0.000    0.000    0.000 
#
# Total GULP energy -594954.880979 kJ/mol
# GULP energy per Si atom -12394.893354 kJ/mol
# Density = 1.863103 g / cm^3
# Si number density = 18.673534 Si / 1000 Ang^3
#
#
#
# Elastic Constant Matrix: (Units=GPa)
#
#
# Indices 1 2 3 4 5 6 
#
# 1 135.1271 46.8595 40.3045 0.0000 0.0000 0.0000
# 2 46.8595 68.6362 34.7437 0.0000 0.0000 0.0000
# 3 40.3045 34.7437 81.7521 0.0000 0.0000 0.0000
# 4 0.0000 0.0000 0.0000 27.6157 0.0000 0.0000
# 5 0.0000 0.0000 0.0000 0.0000 32.2861 0.0000
# 6 0.0000 0.0000 0.0000 0.0000 0.0000 -5.8185
#
#
#
# Elastic Compliance Matrix: (Units=1/GPa)
#
#
# Indices 1 2 3 4 5 6 
#
# 1 0.010116 -0.005583 -0.002615 0.000000 0.000000 0.000000
# 2 -0.005583 0.021644 -0.006446 0.000000 0.000000 0.000000
# 3 -0.002615 -0.006446 0.016261 0.000000 0.000000 0.000000
# 4 0.000000 0.000000 0.000000 0.036211 0.000000 0.000000
# 5 0.000000 0.000000 0.000000 0.000000 0.030973 0.000000
# 6 0.000000 0.000000 0.000000 0.000000 0.000000 -0.171866
#
#
# Mechanical properties :
#
#
# Convention : Reuss Voigt Hill
#
# Bulk Modulus (GPa) = 53.38004 58.81455 56.09730
# Shear Modulus (GPa) = -236.65769 21.72382 -107.46693
#
# Velocity S-wave (km/s) = -11.26985 3.41449 -7.59443
# Velocity P-wave (km/s) = 11.86161 6.86364 6.84063
#
# Compressibility (1/GPa) = 0.01873359
#
# Stress axis : x y z
#
# Youngs Moduli (GPa) = 98.84860 46.20149 61.49804
#
# Poissons Ratio (x) = 0.25795 0.16080
# Poissons Ratio (y) = 0.55189 0.39642
# Poissons Ratio (z) = 0.25846 0.29782
#
# Static dielectric constant tensor:
#      x y z
#    x 3.885820 0.000000 0.000000 
#    y 0.000000 3.209770 0.000000 
#    z 0.000000 0.000000 3.488920 
# 
# 
# High freq. dielectric constant tensor:
#      x y z
#    x 1.743880 0.000000 0.000000 
#    y 0.000000 1.694620 0.000000 
#    z 0.000000 0.000000 1.737160 
# 
# From -- ./inp_files/12975.got.cif
#   From: 2010.03.12/outbox.cif.g09.slc.cpg/sg53_7_cif.got.tgz:12975.got - 2010.04.16 14:36:59.
