data_PCOD8220788
_publ_section_title
;
Structure prediction by ZEFSAII (Michael W. Deem and Ramdas Pophale) SiO2 
 PCOD8220788
Probable space group: P M N A
;
_chemical_formula_sum "Si O2"
_cell_formula_units_Z 48
_cell_length_a 8.935370
_cell_length_b 8.998728
_cell_length_c 30.886186
_cell_angle_alpha 90.000000
_cell_angle_beta 90.000000
_cell_angle_gamma 90.000000
_cell_volume 2483.464452
_symmetry_space_group_name_H-M "P M N A"
_symmetry_group_IT_number 53
_symmetry_cell_setting 'orthorhombic'
loop_
_space_group_symop_operation_xyz
x,y,z
1/2-x,-y,1/2+z
x,-y,-z
1/2-x,y,1/2-z
-x,-y,-z
1/2+x,y,1/2-z
-x,y,z
1/2+x,-y,1/2+z
loop_
_atom_site_type_symbol
_atom_site_label
_atom_site_fract_x
_atom_site_fract_y
_atom_site_fract_z
Si Si1 0.177005 0.413126 0.541598
Si Si2 0.824593 0.909956 0.206076
Si Si3 0.673912 0.901094 0.623853
Si Si4 0.676829 0.409659 0.125839
Si Si5 0.322969 0.571143 0.294654
Si Si6 0.826992 0.902301 0.040290
O O1 0.242710 0.500000 0.500000
O O2 0.232501 0.495116 0.584878
O O3 0.233108 0.246407 0.541653
O O4 0.000000 0.411066 0.539520
O O5 0.750000 0.969325 0.250000
O O6 0.774897 0.741088 0.195850
O O7 0.000000 0.917473 0.212935
O O8 0.772533 0.014063 0.166955
O O9 0.500000 0.854295 0.626657
O O10 0.777657 0.759336 0.617309
O O11 0.703150 0.009498 0.584061
O O12 0.500000 0.421600 0.132731
O O13 0.761137 0.467478 0.167878
O O14 0.250000 0.516221 0.250000
O O15 0.500000 0.552213 0.291615
O O16 0.000000 0.859788 0.034814
O O17 0.770839 0.000000 0.000000
#
# Coordination Sequence:
#
# PCOD8220788 Si02
#       6
#     8   8   8   8   8   8
#     4  10  22  39  58  82 114 150 188 231 280 335
#     4   9  19  35  56  80 106 139 179 222 270 325
#     4  10  21  37  55  79 112 146 181 226 280 332
#     4  11  23  37  55  82 113 148 191 232 275 331
#     4  10  20  37  60  84 112 146 184 230 282 333
#     4  10  21  37  59  86 112 141 183 232 281 335
#
# _framework density 19.327839999999998
#
# number of rings (size 3 to 8) (size 9 to 14) (size 15 to 20)
#    0.000    2.000    0.000    3.000    0.000    6.000 
#    0.000    1.667    0.000    0.000    0.000    0.000 
#    0.000    0.000    0.000    0.000    0.000    0.000 
#
# Total GULP energy -595433.273425 kJ/mol
# GULP energy per Si atom -12404.859863 kJ/mol
# Density = 1.928385 g / cm^3
# Si number density = 19.327840 Si / 1000 Ang^3
#
#
#
# Elastic Constant Matrix: (Units=GPa)
#
#
# Indices 1 2 3 4 5 6 
#
# 1 32.7154 17.0952 32.5318 0.0000 0.0000 0.0000
# 2 17.0952 92.2942 53.8320 0.0000 0.0000 0.0000
# 3 32.5318 53.8320 146.8327 0.0000 0.0000 0.0000
# 4 0.0000 0.0000 0.0000 34.1048 0.0000 0.0000
# 5 0.0000 0.0000 0.0000 0.0000 27.6272 0.0000
# 6 0.0000 0.0000 0.0000 0.0000 0.0000 37.5979
#
#
#
# Elastic Compliance Matrix: (Units=1/GPa)
#
#
# Indices 1 2 3 4 5 6 
#
# 1 0.039778 -0.002833 -0.007774 0.000000 0.000000 0.000000
# 2 -0.002833 0.013984 -0.004499 0.000000 0.000000 0.000000
# 3 -0.007774 -0.004499 0.010182 0.000000 0.000000 0.000000
# 4 0.000000 0.000000 0.000000 0.029321 0.000000 0.000000
# 5 0.000000 0.000000 0.000000 0.000000 0.036196 0.000000
# 6 0.000000 0.000000 0.000000 0.000000 0.000000 0.026597
#
#
# Mechanical properties :
#
#
# Convention : Reuss Voigt Hill
#
# Bulk Modulus (GPa) = 29.64659 53.19559 41.42109
# Shear Modulus (GPa) = 25.31442 31.09154 28.20298
#
# Velocity S-wave (km/s) = 3.62296 4.01514 3.82408
# Velocity P-wave (km/s) = 5.73352 7.00554 6.40120
#
# Compressibility (1/GPa) = 0.03373070
#
# Stress axis : x y z
#
# Youngs Moduli (GPa) = 25.13961 71.51100 98.20914
#
# Poissons Ratio (x) = 0.20262 0.76350
# Poissons Ratio (y) = 0.07123 0.44185
# Poissons Ratio (z) = 0.19544 0.32173
#
# Static dielectric constant tensor:
#      x y z
#    x 3.435640 0.000000 0.000000 
#    y 0.000000 3.503240 0.000000 
#    z 0.000000 0.000000 3.846240 
# 
# 
# High freq. dielectric constant tensor:
#      x y z
#    x 1.746030 0.000000 0.000000 
#    y 0.000000 1.756310 0.000000 
#    z 0.000000 0.000000 1.771730 
# 
# From -- ./inp_files/37669.got.cif
#   From: 2010.03.12/outbox.cif.g09.slc.cpg/sg53_19_cif.got.tgz:37669.got - 2010.04.16 14:36:59.
