data_PCOD8220177
_publ_section_title
;
Structure prediction by ZEFSAII (Michael W. Deem and Ramdas Pophale) SiO2 
 PCOD8220177
Probable space group: P M N A
;
_chemical_formula_sum "Si O2"
_cell_formula_units_Z 40
_cell_length_a 8.949712
_cell_length_b 12.401920
_cell_length_c 18.120205
_cell_angle_alpha 90.000000
_cell_angle_beta 90.000000
_cell_angle_gamma 90.000000
_cell_volume 2011.227008
_symmetry_space_group_name_H-M "P M N A"
_symmetry_group_IT_number 53
_symmetry_cell_setting 'orthorhombic'
loop_
_space_group_symop_operation_xyz
x,y,z
1/2-x,-y,1/2+z
x,-y,-z
1/2-x,y,1/2-z
-x,-y,-z
1/2+x,y,1/2-z
-x,y,z
1/2+x,-y,1/2+z
loop_
_atom_site_type_symbol
_atom_site_label
_atom_site_fract_x
_atom_site_fract_y
_atom_site_fract_z
Si Si1 0.673709 0.355303 0.826168
Si Si2 0.325589 0.790159 0.911806
Si Si3 0.677860 0.452465 0.076001
Si Si4 0.671938 0.149996 0.921809
Si Si5 0.823582 0.973123 0.827034
O O1 0.750000 0.325046 0.750000
O O2 0.500000 0.360591 0.810192
O O3 0.730972 0.470211 0.857306
O O4 0.711594 0.264931 0.886450
O O5 0.500000 0.793810 0.891256
O O6 0.263006 0.668100 0.910070
O O7 0.233847 0.855328 0.850618
O O8 0.297481 0.842870 0.991417
O O9 0.500000 0.450486 0.069443
O O10 0.744610 0.500000 0.000000
O O11 0.500000 0.118209 0.906110
O O12 0.778392 0.059042 0.889048
O O13 0.750000 0.008048 0.750000
O O14 0.000000 0.971374 0.817548
#
# Coordination Sequence:
#
# PCOD8220177 Si02
#       5
#     8   8   8   8   8
#     4  10  20  34  56  87 119 152 192 237 288 342
#     4  10  20  37  64  91 117 153 197 240 286 348
#     4   9  16  33  60  87 114 151 195 234 275 336
#     4  10  20  37  62  89 117 152 195 239 289 351
#     4  12  26  42  59  82 117 156 197 245 298 349
#
# _framework density 19.888356999999999
#
# number of rings (size 3 to 8) (size 9 to 14) (size 15 to 20)
#    0.000    1.800    2.000    3.000    0.000    6.400 
#    0.000    3.000    0.000    1.200    0.000    0.000 
#    0.000    0.000    0.000    0.000    0.000    0.000 
#
# Total GULP energy -496130.648732 kJ/mol
# GULP energy per Si atom -12403.266218 kJ/mol
# Density = 1.984309 g / cm^3
# Si number density = 19.888357 Si / 1000 Ang^3
#
#
#
# Elastic Constant Matrix: (Units=GPa)
#
#
# Indices 1 2 3 4 5 6 
#
# 1 70.4281 38.5427 25.7604 0.0000 0.0000 0.0000
# 2 38.5427 106.6274 9.1084 0.0000 0.0000 0.0000
# 3 25.7604 9.1084 58.0727 0.0000 0.0000 0.0000
# 4 0.0000 0.0000 0.0000 -45.6263 0.0000 0.0000
# 5 0.0000 0.0000 0.0000 0.0000 26.9287 0.0000
# 6 0.0000 0.0000 0.0000 0.0000 0.0000 22.1746
#
#
#
# Elastic Compliance Matrix: (Units=1/GPa)
#
#
# Indices 1 2 3 4 5 6 
#
# 1 0.020971 -0.006878 -0.008224 0.000000 0.000000 0.000000
# 2 -0.006878 0.011762 0.001206 0.000000 0.000000 0.000000
# 3 -0.008224 0.001206 0.020679 0.000000 0.000000 0.000000
# 4 0.000000 0.000000 0.000000 -0.021917 0.000000 0.000000
# 5 0.000000 0.000000 0.000000 0.000000 0.037135 0.000000
# 6 0.000000 0.000000 0.000000 0.000000 0.000000 0.045097
#
#
# Mechanical properties :
#
#
# Convention : Reuss Voigt Hill
#
# Bulk Modulus (GPa) = 39.03158 42.43902 40.73530
# Shear Modulus (GPa) = 33.32085 11.47652 22.39868
#
# Velocity S-wave (km/s) = 4.09760 2.40479 3.35956
# Velocity P-wave (km/s) = 6.48499 5.39404 5.96451
#
# Compressibility (1/GPa) = 0.02562028
#
# Stress axis : x y z
#
# Youngs Moduli (GPa) = 47.68532 85.02278 48.35933
#
# Poissons Ratio (x) = 0.58477 0.39769
# Poissons Ratio (y) = 0.32797 -0.05833
# Poissons Ratio (z) = 0.39215 -0.10255
#
# Static dielectric constant tensor:
#      x y z
#    x 3.242610 0.000000 0.000000 
#    y 0.000000 3.878260 0.000000 
#    z 0.000000 0.000000 3.584180 
# 
# 
# High freq. dielectric constant tensor:
#      x y z
#    x 1.738180 0.000000 0.000000 
#    y 0.000000 1.792950 0.000000 
#    z 0.000000 0.000000 1.780370 
# 
# From -- ./inp_files/25819.got.cif
#   From: 2010.03.12/outbox.cif.g09.slc.cpg/sg53_13_cif.got.tgz:25819.got - 2010.04.16 14:36:59.
