data_PCOD8220473
_publ_section_title
;
Structure prediction by ZEFSAII (Michael W. Deem and Ramdas Pophale) SiO2 
 PCOD8220473
Probable space group: P M N A
;
_chemical_formula_sum "Si O2"
_cell_formula_units_Z 48
_cell_length_a 17.915301
_cell_length_b 14.868420
_cell_length_c 9.195059
_cell_angle_alpha 90.000000
_cell_angle_beta 90.000000
_cell_angle_gamma 90.000000
_cell_volume 2449.308276
_symmetry_space_group_name_H-M "P M N A"
_symmetry_group_IT_number 53
_symmetry_cell_setting 'orthorhombic'
loop_
_space_group_symop_operation_xyz
x,y,z
1/2-x,-y,1/2+z
x,-y,-z
1/2-x,y,1/2-z
-x,-y,-z
1/2+x,y,1/2-z
-x,y,z
1/2+x,-y,1/2+z
loop_
_atom_site_type_symbol
_atom_site_label
_atom_site_fract_x
_atom_site_fract_y
_atom_site_fract_z
Si Si1 0.582421 0.520667 0.830184
Si Si2 0.586375 0.799185 0.417163
Si Si3 0.676917 0.030734 0.662395
Si Si4 0.414672 0.862930 0.736252
Si Si5 0.087559 0.703250 0.558959
Si Si6 0.337904 0.347775 0.762439
O O1 0.500000 0.508147 0.761236
O O2 0.608485 0.625089 0.822843
O O3 0.638210 0.452638 0.748467
O O4 0.579912 0.500000 0.000000
O O5 0.500000 0.796421 0.373087
O O6 0.622052 0.884510 0.336213
O O7 0.598315 0.807340 0.589031
O O8 0.625313 0.706930 0.369177
O O9 0.750000 0.059209 0.750000
O O10 0.697674 0.000000 0.500000
O O11 0.637221 0.949650 0.747543
O O12 0.500000 0.895719 0.744332
O O13 0.393694 0.798960 0.870511
O O14 0.135916 0.695533 0.413869
O O15 0.000000 0.694201 0.518647
O O16 0.250000 0.341210 0.750000
#
# Coordination Sequence:
#
# PCOD8220473 Si02
#       6
#     8   8   8   8   8   8
#     4   8  15  32  56  76  98 136 180 215 252 303
#     4  10  20  36  56  77 104 139 178 219 263 311
#     4  10  21  36  54  77 107 140 171 211 265 320
#     4   9  19  36  57  79 102 135 179 220 259 307
#     4   9  18  36  60  80 102 138 182 221 257 308
#     4  11  21  33  51  80 112 140 173 216 266 316
#
# _framework density 19.597369
#
# number of rings (size 3 to 8) (size 9 to 14) (size 15 to 20)
#    0.000    2.500    0.000    3.500    0.000    6.000 
#    0.000    6.667    0.000    8.000    0.000    0.000 
#    0.000    0.000    0.000    0.000    0.000    0.000 
#
# Total GULP energy -595165.448979 kJ/mol
# GULP energy per Si atom -12399.280187 kJ/mol
# Density = 1.955276 g / cm^3
# Si number density = 19.597369 Si / 1000 Ang^3
#
#
#
# Elastic Constant Matrix: (Units=GPa)
#
#
# Indices 1 2 3 4 5 6 
#
# 1 112.8681 20.3577 29.8290 0.0000 0.0000 0.0000
# 2 20.3577 48.7953 10.3432 0.0000 0.0000 0.0000
# 3 29.8290 10.3432 37.6211 0.0000 0.0000 0.0000
# 4 0.0000 0.0000 0.0000 26.6357 0.0000 0.0000
# 5 0.0000 0.0000 0.0000 0.0000 27.0632 0.0000
# 6 0.0000 0.0000 0.0000 0.0000 0.0000 54.6507
#
#
#
# Elastic Compliance Matrix: (Units=1/GPa)
#
#
# Indices 1 2 3 4 5 6 
#
# 1 0.011628 -0.003076 -0.008374 0.000000 0.000000 0.000000
# 2 -0.003076 0.022576 -0.003768 0.000000 0.000000 0.000000
# 3 -0.008374 -0.003768 0.034256 0.000000 0.000000 0.000000
# 4 0.000000 0.000000 0.000000 0.037544 0.000000 0.000000
# 5 0.000000 0.000000 0.000000 0.000000 0.036950 0.000000
# 6 0.000000 0.000000 0.000000 0.000000 0.000000 0.018298
#
#
# Mechanical properties :
#
#
# Convention : Reuss Voigt Hill
#
# Bulk Modulus (GPa) = 26.29891 35.59382 30.94636
# Shear Modulus (GPa) = 24.46643 30.92025 27.69334
#
# Velocity S-wave (km/s) = 3.53718 3.97643 3.76322
# Velocity P-wave (km/s) = 5.48917 6.26775 5.89133
#
# Compressibility (1/GPa) = 0.03802439
#
# Stress axis : x y z
#
# Youngs Moduli (GPa) = 86.00119 44.29515 29.19195
#
# Poissons Ratio (x) = 0.13626 0.24444
# Poissons Ratio (y) = 0.26456 0.10999
# Poissons Ratio (z) = 0.72014 0.16689
#
# Static dielectric constant tensor:
#      x y z
#    x 3.493210 0.000000 0.000000 
#    y 0.000000 3.922120 0.000000 
#    z 0.000000 0.000000 3.304600 
# 
# 
# High freq. dielectric constant tensor:
#      x y z
#    x 1.757580 0.000000 0.000000 
#    y 0.000000 1.775980 0.000000 
#    z 0.000000 0.000000 1.739650 
# 
# From -- ./inp_files/8684.got.cif
#   From: 2010.03.12/outbox.cif.g09.slc.cpg/sg53_5_cif.got.tgz:8684.got - 2010.04.16 14:36:59.
