data_PCOD8220864
_publ_section_title
;
Structure prediction by ZEFSAII (Michael W. Deem and Ramdas Pophale) SiO2 
 PCOD8220864
Probable space group: P M N A
;
_chemical_formula_sum "Si O2"
_cell_formula_units_Z 64
_cell_length_a 8.466334
_cell_length_b 23.718584
_cell_length_c 15.405496
_cell_angle_alpha 90.000000
_cell_angle_beta 90.000000
_cell_angle_gamma 90.000000
_cell_volume 3093.569243
_symmetry_space_group_name_H-M "P M N A"
_symmetry_group_IT_number 53
_symmetry_cell_setting 'orthorhombic'
loop_
_space_group_symop_operation_xyz
x,y,z
1/2-x,-y,1/2+z
x,-y,-z
1/2-x,y,1/2-z
-x,-y,-z
1/2+x,y,1/2-z
-x,y,z
1/2+x,-y,1/2+z
loop_
_atom_site_type_symbol
_atom_site_label
_atom_site_fract_x
_atom_site_fract_y
_atom_site_fract_z
Si Si1 0.813218 0.364309 0.341509
Si Si2 0.182810 0.249751 0.597483
Si Si3 0.315764 0.126721 0.341653
Si Si4 0.183904 0.365341 0.843519
Si Si5 0.684949 0.241346 0.103994
Si Si6 0.184419 0.865117 0.160737
Si Si7 0.813124 0.563158 0.499480
Si Si8 0.183300 0.934880 0.493511
O O1 0.750000 0.387056 0.250000
O O2 0.756433 0.300347 0.356587
O O3 0.742428 0.403413 0.417722
O O4 0.000000 0.367017 0.343190
O O5 0.285809 0.299932 0.636442
O O6 0.224972 0.240559 0.497415
O O7 0.221876 0.192923 0.647996
O O8 0.000000 0.265780 0.609697
O O9 0.250000 0.104461 0.250000
O O10 0.500000 0.113104 0.349480
O O11 0.286530 0.193520 0.348973
O O12 0.220647 0.094824 0.416074
O O13 0.250000 0.381888 0.750000
O O14 0.269038 0.405205 0.912030
O O15 0.000000 0.377733 0.846488
O O16 0.500000 0.230293 0.120491
O O17 0.250000 0.892251 0.250000
O O18 0.000000 0.852355 0.166782
O O19 0.213989 0.908451 0.083123
O O20 0.742602 0.500000 0.500000
O O21 0.000000 0.561404 0.506886
O O22 0.000000 0.925675 0.471543
O O23 0.228864 0.000000 0.500000
#
# Coordination Sequence:
#
# PCOD8220864 Si02
#       8
#     8   8   8   8   8   8   8   8
#     4  10  21  38  60  90 122 159 200 248 307 366
#     4  11  21  39  66  94 130 166 206 256 315 379
#     4  12  25  41  65  95 130 167 210 257 312 377
#     4  12  25  41  64  93 128 165 211 261 315 380
#     4  10  20  37  63  91 126 163 203 253 312 376
#     4  12  25  42  66  97 131 168 210 256 315 378
#     4  10  22  43  66  88 121 165 212 262 317 373
#     4  11  25  46  69  93 125 166 213 265 318 371
#
# _framework density 20.688077
#
# number of rings (size 3 to 8) (size 9 to 14) (size 15 to 20)
#    0.000    1.000    2.500    4.875    0.000    4.750 
#    0.000    1.250    0.000    0.000    0.000    0.000 
#    0.000    0.000    0.000    0.000    0.000    0.000 
#
# Total GULP energy -794048.768399 kJ/mol
# GULP energy per Si atom -12407.012006 kJ/mol
# Density = 2.064099 g / cm^3
# Si number density = 20.688077 Si / 1000 Ang^3
#
#
#
# Elastic Constant Matrix: (Units=GPa)
#
#
# Indices 1 2 3 4 5 6 
#
# 1 28.8881 7.9272 8.0059 0.0000 0.0000 0.0000
# 2 7.9272 120.6997 44.2604 0.0000 0.0000 0.0000
# 3 8.0059 44.2604 146.5370 0.0000 0.0000 0.0000
# 4 0.0000 0.0000 0.0000 -0.5655 0.0000 0.0000
# 5 0.0000 0.0000 0.0000 0.0000 32.4604 0.0000
# 6 0.0000 0.0000 0.0000 0.0000 0.0000 38.7965
#
#
#
# Elastic Compliance Matrix: (Units=1/GPa)
#
#
# Indices 1 2 3 4 5 6 
#
# 1 0.035501 -0.001822 -0.001389 0.000000 0.000000 0.000000
# 2 -0.001822 0.009410 -0.002743 0.000000 0.000000 0.000000
# 3 -0.001389 -0.002743 0.007729 0.000000 0.000000 0.000000
# 4 0.000000 0.000000 0.000000 -1.768384 0.000000 0.000000
# 5 0.000000 0.000000 0.000000 0.000000 0.030807 0.000000
# 6 0.000000 0.000000 0.000000 0.000000 0.000000 0.025776
#
#
# Mechanical properties :
#
#
# Convention : Reuss Voigt Hill
#
# Bulk Modulus (GPa) = 24.55075 46.27908 35.41492
# Shear Modulus (GPa) = -3.06058 29.86705 13.40323
#
# Velocity S-wave (km/s) = -1.21762 3.80371 2.54810
# Velocity P-wave (km/s) = 3.14898 6.45828 5.08062
#
# Compressibility (1/GPa) = 0.04073195
#
# Stress axis : x y z
#
# Youngs Moduli (GPa) = 28.16798 106.26442 129.39026
#
# Poissons Ratio (x) = 0.19363 0.17975
# Poissons Ratio (y) = 0.05133 0.35489
# Poissons Ratio (z) = 0.03913 0.29146
#
# Static dielectric constant tensor:
#      x y z
#    x 3.627470 0.000000 0.000000 
#    y 0.000000 3.836870 0.000000 
#    z 0.000000 0.000000 3.970580 
# 
# 
# High freq. dielectric constant tensor:
#      x y z
#    x 1.806190 0.000000 0.000000 
#    y 0.000000 1.805920 0.000000 
#    z 0.000000 0.000000 1.828610 
# 
# From -- ./inp_files/21032.got.cif
#   From: 2010.03.12/outbox.cif.g09.slc.cpg/sg53_11_cif.got.tgz:21032.got - 2010.04.16 14:36:59.
