data_PCOD8220146
_publ_section_title
;
Structure prediction by ZEFSAII (Michael W. Deem and Ramdas Pophale) SiO2 
 PCOD8220146
Probable space group: P M N A
;
_chemical_formula_sum "Si O2"
_cell_formula_units_Z 64
_cell_length_a 8.853649
_cell_length_b 23.823648
_cell_length_c 14.564849
_cell_angle_alpha 90.000000
_cell_angle_beta 90.000000
_cell_angle_gamma 90.000000
_cell_volume 3072.108505
_symmetry_space_group_name_H-M "P M N A"
_symmetry_group_IT_number 53
_symmetry_cell_setting 'orthorhombic'
loop_
_space_group_symop_operation_xyz
x,y,z
1/2-x,-y,1/2+z
x,-y,-z
1/2-x,y,1/2-z
-x,-y,-z
1/2+x,y,1/2-z
-x,y,z
1/2+x,-y,1/2+z
loop_
_atom_site_type_symbol
_atom_site_label
_atom_site_fract_x
_atom_site_fract_y
_atom_site_fract_z
Si Si1 0.821879 0.746096 0.019828
Si Si2 0.669083 0.475757 0.601249
Si Si3 0.678414 0.041299 0.850596
Si Si4 0.177150 0.583417 0.661115
Si Si5 0.678361 0.630835 0.035028
Si Si6 0.821218 0.799393 0.649781
Si Si7 0.321661 0.848442 0.350071
Si Si8 0.324825 0.921539 0.847035
O O1 0.753991 0.689492 0.062712
O O2 0.749688 0.754838 0.919549
O O3 0.000000 0.740644 0.009195
O O4 0.774808 0.796086 0.087558
O O5 0.662932 0.500000 0.500000
O O6 0.500000 0.467642 0.640431
O O7 0.760610 0.519895 0.662073
O O8 0.755931 0.416412 0.602876
O O9 0.750000 0.039497 0.750000
O O10 0.500000 0.052273 0.845365
O O11 0.755671 0.094948 0.899932
O O12 0.712243 0.980461 0.900944
O O13 0.250000 0.614292 0.750000
O O14 0.223763 0.616970 0.569988
O O15 0.000000 0.581186 0.672638
O O16 0.500000 0.633926 0.048398
O O17 0.750000 0.790914 0.750000
O O18 0.778947 0.861777 0.608193
O O19 0.000000 0.789534 0.656230
O O20 0.250000 0.839638 0.250000
O O21 0.500000 0.854273 0.340218
O O22 0.250000 0.926011 0.750000
O O23 0.500000 0.919703 0.826452
#
# Coordination Sequence:
#
# PCOD8220146 Si02
#       8
#     8   8   8   8   8   8   8   8
#     4  11  24  40  57  80 111 148 193 239 283 335
#     4   9  17  32  55  80 107 139 172 209 256 307
#     4   9  15  26  48  76 104 134 171 219 276 339
#     4  10  20  34  55  85 117 146 179 220 265 316
#     4  10  21  37  57  80 108 145 187 228 272 323
#     4  10  20  36  57  80 110 148 188 231 280 335
#     4  10  21  37  57  80 106 138 179 231 287 342
#     4   8  15  27  46  74 104 136 175 219 272 334
#
# _framework density 20.832598000000001
#
# number of rings (size 3 to 8) (size 9 to 14) (size 15 to 20)
#    0.000    2.375    0.000    3.375    0.000    6.500 
#    0.000    2.500    0.000    5.250    0.000    0.000 
#    0.000    0.000    0.000    0.000    0.000    0.000 
#
# Total GULP energy -793055.002186 kJ/mol
# GULP energy per Si atom -12391.484409 kJ/mol
# Density = 2.078518 g / cm^3
# Si number density = 20.832598 Si / 1000 Ang^3
#
#
#
# Elastic Constant Matrix: (Units=GPa)
#
#
# Indices 1 2 3 4 5 6 
#
# 1 77.9054 28.2868 4.5000 0.0000 0.0000 0.0000
# 2 28.2868 109.9332 -6.9204 0.0000 0.0000 0.0000
# 3 4.5000 -6.9204 18.6411 0.0000 0.0000 0.0000
# 4 0.0000 0.0000 0.0000 18.4621 0.0000 0.0000
# 5 0.0000 0.0000 0.0000 0.0000 20.9197 0.0000
# 6 0.0000 0.0000 0.0000 0.0000 0.0000 35.6703
#
#
#
# Elastic Compliance Matrix: (Units=1/GPa)
#
#
# Indices 1 2 3 4 5 6 
#
# 1 0.014607 -0.004076 -0.005039 0.000000 0.000000 0.000000
# 2 -0.004076 0.010451 0.004864 0.000000 0.000000 0.000000
# 3 -0.005039 0.004864 0.056667 0.000000 0.000000 0.000000
# 4 0.000000 0.000000 0.000000 0.054165 0.000000 0.000000
# 5 0.000000 0.000000 0.000000 0.000000 0.047802 0.000000
# 6 0.000000 0.000000 0.000000 0.000000 0.000000 0.028035
#
#
# Mechanical properties :
#
#
# Convention : Reuss Voigt Hill
#
# Bulk Modulus (GPa) = 13.65683 28.69027 21.17355
# Shear Modulus (GPa) = 20.43843 27.05131 23.74487
#
# Velocity S-wave (km/s) = 3.13562 3.60739 3.37975
# Velocity P-wave (km/s) = 4.43612 5.58146 5.04143
#
# Compressibility (1/GPa) = 0.07322341
#
# Stress axis : x y z
#
# Youngs Moduli (GPa) = 68.46017 95.68142 17.64687
#
# Poissons Ratio (x) = 0.38997 0.08893
# Poissons Ratio (y) = 0.27903 -0.08583
# Poissons Ratio (z) = 0.34499 -0.46539
#
# Static dielectric constant tensor:
#      x y z
#    x 3.714160 0.000000 0.000000 
#    y 0.000000 4.299340 0.000000 
#    z 0.000000 0.000000 3.430120 
# 
# 
# High freq. dielectric constant tensor:
#      x y z
#    x 1.825000 0.000000 0.000000 
#    y 0.000000 1.829050 0.000000 
#    z 0.000000 0.000000 1.781420 
# 
# From -- ./inp_files/26992.got.cif
#   From: 2010.03.12/outbox.cif.g09.slc.cpg/sg53_14_cif.got.tgz:26992.got - 2010.04.16 14:36:59.
