data_PCOD8220972
_publ_section_title
;
Structure prediction by ZEFSAII (Michael W. Deem and Ramdas Pophale) SiO2 
 PCOD8220972
Probable space group: P M N A
;
_chemical_formula_sum "Si O2"
_cell_formula_units_Z 64
_cell_length_a 18.024044
_cell_length_b 14.488976
_cell_length_c 12.212405
_cell_angle_alpha 90.000000
_cell_angle_beta 90.000000
_cell_angle_gamma 90.000000
_cell_volume 3189.268844
_symmetry_space_group_name_H-M "P M N A"
_symmetry_group_IT_number 53
_symmetry_cell_setting 'orthorhombic'
loop_
_space_group_symop_operation_xyz
x,y,z
1/2-x,-y,1/2+z
x,-y,-z
1/2-x,y,1/2-z
-x,-y,-z
1/2+x,y,1/2-z
-x,y,z
1/2+x,-y,1/2+z
loop_
_atom_site_type_symbol
_atom_site_label
_atom_site_fract_x
_atom_site_fract_y
_atom_site_fract_z
Si Si1 0.581597 0.060399 0.106391
Si Si2 0.085042 0.725669 0.331744
Si Si3 0.668894 0.005739 0.297917
Si Si4 0.164955 0.645188 0.727380
Si Si5 0.841800 0.795226 0.908466
Si Si6 0.175703 0.224554 0.463502
Si Si7 0.085908 0.485163 0.623397
Si Si8 0.915426 0.841578 0.118500
O O1 0.500000 0.103728 0.129773
O O2 0.606407 0.993718 0.204354
O O3 0.646062 0.135493 0.100163
O O4 0.577417 0.000000 0.000000
O O5 0.139796 0.774771 0.416888
O O6 0.101435 0.617249 0.333045
O O7 0.102234 0.766650 0.212451
O O8 0.000000 0.745617 0.367248
O O9 0.750000 0.985023 0.250000
O O10 0.663723 0.106908 0.348601
O O11 0.643910 0.925975 0.382239
O O12 0.250000 0.622710 0.750000
O O13 0.136966 0.715127 0.821804
O O14 0.150863 0.688279 0.607762
O O15 0.121554 0.549083 0.718437
O O16 0.764172 0.777284 0.969696
O O17 0.905159 0.792893 0.000720
O O18 0.118985 0.500000 0.500000
O O19 0.000000 0.510214 0.619676
O O20 0.000000 0.877243 0.127711
#
# Coordination Sequence:
#
# PCOD8220972 Si02
#       8
#     8   8   8   8   8   8   8   8
#     4  11  23  36  57  90 123 158 202 257 320 370
#     4  10  22  42  65  93 130 162 209 273 323 373
#     4  12  23  41  63  90 126 167 213 264 311 372
#     4  10  21  41  60  94 131 161 207 263 314 379
#     4  11  24  42  63  89 129 176 215 252 309 383
#     4  11  20  38  64  90 126 161 207 264 316 370
#     4  10  20  38  67  99 124 158 205 263 328 378
#     4  11  27  45  61  90 130 172 218 262 310 379
#
# _framework density 20.067295999999999
#
# number of rings (size 3 to 8) (size 9 to 14) (size 15 to 20)
#    0.000    1.250    3.750    2.250    3.500    4.500 
#    2.250    0.625    0.000    2.250    0.000    0.000 
#    0.000    0.000    0.000    0.000    0.000    0.000 
#
# Total GULP energy -793577.732759 kJ/mol
# GULP energy per Si atom -12399.652074 kJ/mol
# Density = 2.002162 g / cm^3
# Si number density = 20.067296 Si / 1000 Ang^3
#
#
#
# Elastic Constant Matrix: (Units=GPa)
#
#
# Indices 1 2 3 4 5 6 
#
# 1 65.9549 33.2704 45.7518 0.0000 0.0000 0.0000
# 2 33.2704 95.2614 39.7247 0.0000 0.0000 0.0000
# 3 45.7518 39.7247 111.6187 0.0000 0.0000 0.0000
# 4 0.0000 0.0000 0.0000 24.0138 0.0000 0.0000
# 5 0.0000 0.0000 0.0000 0.0000 32.0706 0.0000
# 6 0.0000 0.0000 0.0000 0.0000 0.0000 29.5621
#
#
#
# Elastic Compliance Matrix: (Units=1/GPa)
#
#
# Indices 1 2 3 4 5 6 
#
# 1 0.022912 -0.004798 -0.007684 0.000000 0.000000 0.000000
# 2 -0.004798 0.013332 -0.002778 0.000000 0.000000 0.000000
# 3 -0.007684 -0.002778 0.013097 0.000000 0.000000 0.000000
# 4 0.000000 0.000000 0.000000 0.041643 0.000000 0.000000
# 5 0.000000 0.000000 0.000000 0.000000 0.031181 0.000000
# 6 0.000000 0.000000 0.000000 0.000000 0.000000 0.033827
#
#
# Mechanical properties :
#
#
# Convention : Reuss Voigt Hill
#
# Bulk Modulus (GPa) = 53.13112 56.70318 54.91715
# Shear Modulus (GPa) = 25.93545 27.40186 26.66865
#
# Velocity S-wave (km/s) = 3.59893 3.69927 3.64945
# Velocity P-wave (km/s) = 6.61843 6.82378 6.72189
#
# Compressibility (1/GPa) = 0.01882136
#
# Stress axis : x y z
#
# Youngs Moduli (GPa) = 43.64434 75.00987 76.35094
#
# Poissons Ratio (x) = 0.35989 0.58669
# Poissons Ratio (y) = 0.20940 0.21210
# Poissons Ratio (z) = 0.33537 0.20838
#
# Static dielectric constant tensor:
#      x y z
#    x 3.734590 0.000000 0.000000 
#    y 0.000000 3.782080 0.000000 
#    z 0.000000 0.000000 3.516870 
# 
# 
# High freq. dielectric constant tensor:
#      x y z
#    x 1.780900 0.000000 0.000000 
#    y 0.000000 1.779010 0.000000 
#    z 0.000000 0.000000 1.786600 
# 
# From -- ./inp_files/17072.got.cif
#   From: 2010.03.12/outbox.cif.g09.slc.cpg/sg53_9_cif.got.tgz:17072.got - 2010.04.16 14:36:59.
