data_PCOD8220280
_publ_section_title
;
Structure prediction by ZEFSAII (Michael W. Deem and Ramdas Pophale) SiO2 
 PCOD8220280
Probable space group: P M N A
;
_chemical_formula_sum "Si O2"
_cell_formula_units_Z 64
_cell_length_a 8.837374
_cell_length_b 19.767362
_cell_length_c 20.123743
_cell_angle_alpha 90.000000
_cell_angle_beta 90.000000
_cell_angle_gamma 90.000000
_cell_volume 3515.448279
_symmetry_space_group_name_H-M "P M N A"
_symmetry_group_IT_number 53
_symmetry_cell_setting 'orthorhombic'
loop_
_space_group_symop_operation_xyz
x,y,z
1/2-x,-y,1/2+z
x,-y,-z
1/2-x,y,1/2-z
-x,-y,-z
1/2+x,y,1/2-z
-x,y,z
1/2+x,-y,1/2+z
loop_
_atom_site_type_symbol
_atom_site_label
_atom_site_fract_x
_atom_site_fract_y
_atom_site_fract_z
Si Si1 0.177707 0.184493 0.940952
Si Si2 0.676694 0.169614 0.078562
Si Si3 0.822302 0.052647 0.318548
Si Si4 0.174042 0.664182 0.043336
Si Si5 0.820814 0.427313 0.319215
Si Si6 0.179142 0.090320 0.819113
Si Si7 0.323741 0.308088 0.392397
Si Si8 0.678715 0.529320 0.068713
O O1 0.223577 0.262637 0.928595
O O2 0.225050 0.143184 0.876015
O O3 0.000000 0.179542 0.957056
O O4 0.265554 0.154522 0.004238
O O5 0.500000 0.186532 0.076577
O O6 0.712900 0.104322 0.122591
O O7 0.763232 0.232008 0.112042
O O8 0.750000 0.079875 0.250000
O O9 0.000000 0.041900 0.307558
O O10 0.747031 0.981924 0.339177
O O11 0.268453 0.606236 0.080297
O O12 0.000000 0.650162 0.058509
O O13 0.208498 0.661546 0.964998
O O14 0.750000 0.449715 0.250000
O O15 0.763541 0.352957 0.338770
O O16 0.761436 0.482516 0.371883
O O17 0.000000 0.425884 0.314106
O O18 0.250000 0.116342 0.750000
O O19 0.000000 0.084228 0.811285
O O20 0.500000 0.307742 0.374996
O O21 0.500000 0.528373 0.066169
O O22 0.746858 0.500000 0.000000
#
# Coordination Sequence:
#
# PCOD8220280 Si02
#       8
#     8   8   8   8   8   8   8   8
#     4   9  20  37  55  81 112 143 180 225 274 327
#     4  10  21  35  54  81 112 145 181 226 272 319
#     4  10  21  36  54  78 107 141 184 225 269 325
#     4   9  18  33  55  81 107 136 176 220 262 316
#     4  11  23  38  55  78 111 145 181 225 272 323
#     4  10  20  36  58  80 107 142 183 227 275 329
#     4  10  20  35  55  79 108 142 179 219 267 324
#     4  10  20  35  56  81 107 138 178 224 268 317
#
# _framework density 18.205359999999999
#
# number of rings (size 3 to 8) (size 9 to 14) (size 15 to 20)
#    0.000    2.125    1.250    3.375    0.000    7.250 
#    0.000    4.375    0.000    3.000    0.000    0.000 
#    0.000    0.000    0.000    0.000    0.000    0.000 
#
# Total GULP energy -793779.410150 kJ/mol
# GULP energy per Si atom -12402.803284 kJ/mol
# Density = 1.816392 g / cm^3
# Si number density = 18.205360 Si / 1000 Ang^3
#
#
#
# Elastic Constant Matrix: (Units=GPa)
#
#
# Indices 1 2 3 4 5 6 
#
# 1 72.7419 44.4460 51.2415 0.0000 0.0000 0.0000
# 2 44.4460 116.2642 83.9485 0.0000 0.0000 0.0000
# 3 51.2415 83.9485 131.2446 0.0000 0.0000 0.0000
# 4 0.0000 0.0000 0.0000 30.6157 0.0000 0.0000
# 5 0.0000 0.0000 0.0000 0.0000 23.2591 0.0000
# 6 0.0000 0.0000 0.0000 0.0000 0.0000 28.9365
#
#
#
# Elastic Compliance Matrix: (Units=1/GPa)
#
#
# Indices 1 2 3 4 5 6 
#
# 1 0.019779 -0.003689 -0.005362 0.000000 0.000000 0.000000
# 2 -0.003689 0.016671 -0.009223 0.000000 0.000000 0.000000
# 3 -0.005362 -0.009223 0.015612 0.000000 0.000000 0.000000
# 4 0.000000 0.000000 0.000000 0.032663 0.000000 0.000000
# 5 0.000000 0.000000 0.000000 0.000000 0.042994 0.000000
# 6 0.000000 0.000000 0.000000 0.000000 0.000000 0.034558
#
#
# Mechanical properties :
#
#
# Convention : Reuss Voigt Hill
#
# Bulk Modulus (GPa) = 64.46251 75.50253 69.98252
# Shear Modulus (GPa) = 24.51014 25.93656 25.22335
#
# Velocity S-wave (km/s) = 3.67320 3.77857 3.72626
# Velocity P-wave (km/s) = 7.31268 7.78457 7.55231
#
# Compressibility (1/GPa) = 0.01551289
#
# Stress axis : x y z
#
# Youngs Moduli (GPa) = 50.55907 59.98536 64.05225
#
# Poissons Ratio (x) = 0.22130 0.34348
# Poissons Ratio (y) = 0.18652 0.59074
# Poissons Ratio (z) = 0.27112 0.55323
#
# Static dielectric constant tensor:
#      x y z
#    x 3.368310 0.000000 0.000000 
#    y 0.000000 3.389080 0.000000 
#    z 0.000000 0.000000 3.350640 
# 
# 
# High freq. dielectric constant tensor:
#      x y z
#    x 1.712810 0.000000 0.000000 
#    y 0.000000 1.709280 0.000000 
#    z 0.000000 0.000000 1.695700 
# 
# From -- ./inp_files/31267.got.cif
#   From: 2010.03.12/outbox.cif.g09.slc.cpg/sg53_16_cif.got.tgz:31267.got - 2010.04.16 14:36:59.
