data_PCOD8220138
_publ_section_title
;
Structure prediction by ZEFSAII (Michael W. Deem and Ramdas Pophale) SiO2 
 PCOD8220138
Probable space group: P M N A
;
_chemical_formula_sum "Si O2"
_cell_formula_units_Z 48
_cell_length_a 13.799107
_cell_length_b 9.613686
_cell_length_c 17.394784
_cell_angle_alpha 90.000000
_cell_angle_beta 90.000000
_cell_angle_gamma 90.000000
_cell_volume 2307.596947
_symmetry_space_group_name_H-M "P M N A"
_symmetry_group_IT_number 53
_symmetry_cell_setting 'orthorhombic'
loop_
_space_group_symop_operation_xyz
x,y,z
1/2-x,-y,1/2+z
x,-y,-z
1/2-x,y,1/2-z
-x,-y,-z
1/2+x,y,1/2-z
-x,y,z
1/2+x,-y,1/2+z
loop_
_atom_site_type_symbol
_atom_site_label
_atom_site_fract_x
_atom_site_fract_y
_atom_site_fract_z
Si Si1 0.702833 0.988857 0.869158
Si Si2 0.114027 0.269313 0.581953
Si Si3 0.107642 0.939285 0.789630
Si Si4 0.613027 0.506925 0.804776
Si Si5 0.608765 0.370419 0.348996
Si Si6 0.790177 0.690214 0.569994
O O1 0.664848 0.120885 0.915247
O O2 0.629751 0.961863 0.799441
O O3 0.812786 0.019638 0.840808
O O4 0.703593 0.857234 0.925643
O O5 0.135474 0.354699 0.660171
O O6 0.162312 0.354663 0.511004
O O7 0.000000 0.253618 0.566496
O O8 0.000000 0.998101 0.808209
O O9 0.113248 0.776281 0.805777
O O10 0.500000 0.536933 0.802642
O O11 0.648522 0.518786 0.715473
O O12 0.654915 0.628013 0.857371
O O13 0.500000 0.405832 0.377482
O O14 0.679020 0.365909 0.423296
#
# Coordination Sequence:
#
# PCOD8220138 Si02
#       6
#     8   8   8   8   8   8
#     4  10  20  34  55  84 116 153 190 232 284 344
#     4  11  24  37  53  85 124 153 181 233 301 352
#     4   9  17  33  57  82 110 146 193 242 278 325
#     4  10  20  36  58  82 111 147 188 237 289 337
#     4   9  18  35  61  86 105 141 199 245 274 323
#     4  11  20  35  58  85 115 150 193 233 280 346
#
# _framework density 20.800858999999999
#
# number of rings (size 3 to 8) (size 9 to 14) (size 15 to 20)
#    0.000    2.000    1.667    2.500    0.000    4.000 
#    6.000    0.833    0.000    6.000    0.000    0.000 
#    0.000    0.000    0.000    0.000    0.000    0.000 
#
# Total GULP energy -595058.934750 kJ/mol
# GULP energy per Si atom -12397.061141 kJ/mol
# Density = 2.075352 g / cm^3
# Si number density = 20.800859 Si / 1000 Ang^3
#
#
#
# Elastic Constant Matrix: (Units=GPa)
#
#
# Indices 1 2 3 4 5 6 
#
# 1 101.4130 33.3117 52.4039 0.0000 0.0000 0.0000
# 2 33.3117 57.8419 14.8890 0.0000 0.0000 0.0000
# 3 52.4039 14.8890 65.1565 0.0000 0.0000 0.0000
# 4 0.0000 0.0000 0.0000 21.4939 0.0000 0.0000
# 5 0.0000 0.0000 0.0000 0.0000 32.6407 0.0000
# 6 0.0000 0.0000 0.0000 0.0000 0.0000 21.9094
#
#
#
# Elastic Compliance Matrix: (Units=1/GPa)
#
#
# Indices 1 2 3 4 5 6 
#
# 1 0.019645 -0.007700 -0.014041 0.000000 0.000000 0.000000
# 2 -0.007700 0.021387 0.001306 0.000000 0.000000 0.000000
# 3 -0.014041 0.001306 0.026342 0.000000 0.000000 0.000000
# 4 0.000000 0.000000 0.000000 0.046525 0.000000 0.000000
# 5 0.000000 0.000000 0.000000 0.000000 0.030637 0.000000
# 6 0.000000 0.000000 0.000000 0.000000 0.000000 0.045643
#
#
# Mechanical properties :
#
#
# Convention : Reuss Voigt Hill
#
# Bulk Modulus (GPa) = 37.72983 47.29120 42.51051
# Shear Modulus (GPa) = 20.84353 23.46256 22.15305
#
# Velocity S-wave (km/s) = 3.16895 3.36216 3.26698
# Velocity P-wave (km/s) = 5.61851 6.15278 5.89170
#
# Compressibility (1/GPa) = 0.02650423
#
# Stress axis : x y z
#
# Youngs Moduli (GPa) = 50.90298 46.75796 37.96218
#
# Poissons Ratio (x) = 0.36002 0.53302
# Poissons Ratio (y) = 0.39194 -0.04956
# Poissons Ratio (z) = 0.71472 -0.06104
#
# Static dielectric constant tensor:
#      x y z
#    x 4.161930 0.000000 0.000000 
#    y 0.000000 3.545940 0.000000 
#    z 0.000000 0.000000 3.604570 
# 
# 
# High freq. dielectric constant tensor:
#      x y z
#    x 1.826860 0.000000 0.000000 
#    y 0.000000 1.795360 0.000000 
#    z 0.000000 0.000000 1.795340 
# 
# From -- ./inp_files/28274.got.cif
#   From: 2010.03.12/outbox.cif.g09.slc.cpg/sg53_15_cif.got.tgz:28274.got - 2010.04.16 14:36:59.
