data_PCOD8220696
_publ_section_title
;
Structure prediction by ZEFSAII (Michael W. Deem and Ramdas Pophale) SiO2 
 PCOD8220696
Probable space group: P M N A
;
_chemical_formula_sum "Si O2"
_cell_formula_units_Z 64
_cell_length_a 8.898616
_cell_length_b 18.730784
_cell_length_c 19.267478
_cell_angle_alpha 90.000000
_cell_angle_beta 90.000000
_cell_angle_gamma 90.000000
_cell_volume 3211.465742
_symmetry_space_group_name_H-M "P M N A"
_symmetry_group_IT_number 53
_symmetry_cell_setting 'orthorhombic'
loop_
_space_group_symop_operation_xyz
x,y,z
1/2-x,-y,1/2+z
x,-y,-z
1/2-x,y,1/2-z
-x,-y,-z
1/2+x,y,1/2-z
-x,y,z
1/2+x,-y,1/2+z
loop_
_atom_site_type_symbol
_atom_site_label
_atom_site_fract_x
_atom_site_fract_y
_atom_site_fract_z
Si Si1 0.676365 0.359639 0.566653
Si Si2 0.326844 0.946306 0.437296
Si Si3 0.178972 0.456851 0.673139
Si Si4 0.331770 0.824841 0.870670
Si Si5 0.823820 0.580483 0.918145
Si Si6 0.824274 0.974084 0.680012
Si Si7 0.170118 0.676969 0.682047
Si Si8 0.675073 0.790928 0.490388
O O1 0.500000 0.361447 0.584000
O O2 0.767168 0.384503 0.634806
O O3 0.708432 0.412520 0.500805
O O4 0.732084 0.278633 0.551613
O O5 0.500000 0.953770 0.414503
O O6 0.284423 0.864693 0.452592
O O7 0.292172 0.000000 0.500000
O O8 0.215561 0.966970 0.376235
O O9 0.250000 0.463535 0.750000
O O10 0.231512 0.519318 0.621211
O O11 0.000000 0.457663 0.680770
O O12 0.500000 0.844173 0.894678
O O13 0.255112 0.896743 0.841352
O O14 0.332065 0.762963 0.812675
O O15 0.246183 0.792124 0.934781
O O16 0.767664 0.654398 0.884606
O O17 0.000000 0.568119 0.905160
O O18 0.750000 0.000810 0.750000
O O19 0.000000 0.968449 0.691482
O O20 0.250000 0.644695 0.750000
O O21 0.000000 0.646622 0.677594
O O22 0.500000 0.782868 0.502581
#
# Coordination Sequence:
#
# PCOD8220696 Si02
#       8
#     8   8   8   8   8   8   8   8
#     4  10  22  41  65  93 124 158 200 247 299 357
#     4  10  20  36  61  89 119 155 199 246 294 353
#     4  12  26  44  66  91 122 159 202 250 303 358
#     4  10  21  35  54  82 118 157 198 247 296 352
#     4  11  22  39  64  92 124 159 197 243 296 355
#     4  11  23  38  57  84 119 159 202 250 303 358
#     4  11  22  35  52  80 120 162 203 244 292 351
#     4  10  20  37  62  91 120 157 199 244 298 358
#
# _framework density 19.928595999999999
#
# number of rings (size 3 to 8) (size 9 to 14) (size 15 to 20)
#    0.000    1.375    2.500    3.375    0.000    4.750 
#    0.000    0.625    0.000    0.000    0.000    0.000 
#    0.000    0.000    0.000    0.000    0.000    0.000 
#
# Total GULP energy -793498.755048 kJ/mol
# GULP energy per Si atom -12398.418048 kJ/mol
# Density = 1.988324 g / cm^3
# Si number density = 19.928596 Si / 1000 Ang^3
#
#
#
# Elastic Constant Matrix: (Units=GPa)
#
#
# Indices 1 2 3 4 5 6 
#
# 1 76.7883 43.9385 50.4619 0.0000 0.0000 0.0000
# 2 43.9385 99.1530 43.3589 0.0000 0.0000 0.0000
# 3 50.4619 43.3589 103.3232 0.0000 0.0000 0.0000
# 4 0.0000 0.0000 0.0000 22.0281 0.0000 0.0000
# 5 0.0000 0.0000 0.0000 0.0000 32.5376 0.0000
# 6 0.0000 0.0000 0.0000 0.0000 0.0000 27.0232
#
#
#
# Elastic Compliance Matrix: (Units=1/GPa)
#
#
# Indices 1 2 3 4 5 6 
#
# 1 0.021861 -0.006147 -0.008097 0.000000 0.000000 0.000000
# 2 -0.006147 0.014080 -0.002907 0.000000 0.000000 0.000000
# 3 -0.008097 -0.002907 0.014853 0.000000 0.000000 0.000000
# 4 0.000000 0.000000 0.000000 0.045397 0.000000 0.000000
# 5 0.000000 0.000000 0.000000 0.000000 0.030734 0.000000
# 6 0.000000 0.000000 0.000000 0.000000 0.000000 0.037005
#
#
# Mechanical properties :
#
#
# Convention : Reuss Voigt Hill
#
# Bulk Modulus (GPa) = 60.63238 61.64254 61.13746
# Shear Modulus (GPa) = 24.54243 25.75147 25.14695
#
# Velocity S-wave (km/s) = 3.51311 3.59860 3.55611
# Velocity P-wave (km/s) = 6.85177 6.94733 6.89972
#
# Compressibility (1/GPa) = 0.01649284
#
# Stress axis : x y z
#
# Youngs Moduli (GPa) = 45.74328 71.02107 67.32716
#
# Poissons Ratio (x) = 0.43654 0.54517
# Poissons Ratio (y) = 0.28116 0.19571
# Poissons Ratio (z) = 0.37040 0.20644
#
# Static dielectric constant tensor:
#      x y z
#    x 3.603460 0.000000 0.000000 
#    y 0.000000 3.890910 0.000000 
#    z 0.000000 0.000000 3.529540 
# 
# 
# High freq. dielectric constant tensor:
#      x y z
#    x 1.775570 0.000000 0.000000 
#    y 0.000000 1.784250 0.000000 
#    z 0.000000 0.000000 1.768630 
# 
# From -- ./inp_files/26951.got.cif
#   From: 2010.03.12/outbox.cif.g09.slc.cpg/sg53_14_cif.got.tgz:26951.got - 2010.04.16 14:36:59.
