data_PCOD8220265
_publ_section_title
;
Structure prediction by ZEFSAII (Michael W. Deem and Ramdas Pophale) SiO2 
 PCOD8220265
Probable space group: P M N A
;
_chemical_formula_sum "Si O2"
_cell_formula_units_Z 64
_cell_length_a 9.023099
_cell_length_b 16.802522
_cell_length_c 23.581578
_cell_angle_alpha 90.000000
_cell_angle_beta 90.000000
_cell_angle_gamma 90.000000
_cell_volume 3575.222365
_symmetry_space_group_name_H-M "P M N A"
_symmetry_group_IT_number 53
_symmetry_cell_setting 'orthorhombic'
loop_
_space_group_symop_operation_xyz
x,y,z
1/2-x,-y,1/2+z
x,-y,-z
1/2-x,y,1/2-z
-x,-y,-z
1/2+x,y,1/2-z
-x,y,z
1/2+x,-y,1/2+z
loop_
_atom_site_type_symbol
_atom_site_label
_atom_site_fract_x
_atom_site_fract_y
_atom_site_fract_z
Si Si1 0.833179 0.871509 0.693490
Si Si2 0.329041 0.821800 0.530095
Si Si3 0.670250 0.132674 0.592890
Si Si4 0.324930 0.769047 0.188636
Si Si5 0.675886 0.725588 0.880959
Si Si6 0.170531 0.030723 0.414283
Si Si7 0.826486 0.575840 0.689244
Si Si8 0.670470 0.403880 0.808525
O O1 0.750000 0.894728 0.750000
O O2 0.769562 0.792215 0.663763
O O3 0.819406 0.946392 0.651779
O O4 0.000000 0.853916 0.711185
O O5 0.500000 0.832209 0.548444
O O6 0.315947 0.810654 0.462239
O O7 0.259274 0.743251 0.559735
O O8 0.236917 0.899344 0.547632
O O9 0.500000 0.123147 0.611526
O O10 0.761600 0.167276 0.645215
O O11 0.734835 0.047664 0.575254
O O12 0.250000 0.779714 0.250000
O O13 0.500000 0.782926 0.195238
O O14 0.287893 0.680465 0.162064
O O15 0.500000 0.730774 0.891715
O O16 0.728015 0.640473 0.856629
O O17 0.000000 0.017111 0.432384
O O18 0.750000 0.588423 0.750000
O O19 0.791814 0.488320 0.660763
O O20 0.000000 0.587602 0.700326
O O21 0.750000 0.408339 0.750000
O O22 0.500000 0.401532 0.793336
#
# Coordination Sequence:
#
# PCOD8220265 Si02
#       8
#     8   8   8   8   8   8   8   8
#     4   9  18  30  44  66  96 129 161 192 232 283
#     4  10  21  36  53  73  98 128 165 209 252 293
#     4  11  23  37  54  76  99 125 163 209 252 296
#     4  10  20  35  55  78 104 133 164 200 247 299
#     4   9  18  31  47  70 100 132 167 205 243 288
#     4  10  21  36  53  74  99 128 165 207 251 299
#     4   9  16  27  46  74 105 134 166 204 244 289
#     4   8  15  28  47  72 101 131 163 200 242 289
#
# _framework density 17.900984000000001
#
# number of rings (size 3 to 8) (size 9 to 14) (size 15 to 20)
#    0.000    2.500    0.000    3.000    0.000    7.500 
#    0.000    1.250    0.000    0.750    0.000    5.250 
#    0.000    0.000    0.000    0.000    0.000    0.000 
#
# Total GULP energy -793097.671432 kJ/mol
# GULP energy per Si atom -12392.151116 kJ/mol
# Density = 1.786024 g / cm^3
# Si number density = 17.900984 Si / 1000 Ang^3
#
#
#
# Elastic Constant Matrix: (Units=GPa)
#
#
# Indices 1 2 3 4 5 6 
#
# 1 76.1807 26.2085 35.7456 0.0000 0.0000 0.0000
# 2 26.2085 77.3108 23.9517 0.0000 0.0000 0.0000
# 3 35.7456 23.9517 75.2395 0.0000 0.0000 0.0000
# 4 0.0000 0.0000 0.0000 17.7569 0.0000 0.0000
# 5 0.0000 0.0000 0.0000 0.0000 27.3105 0.0000
# 6 0.0000 0.0000 0.0000 0.0000 0.0000 20.9540
#
#
#
# Elastic Compliance Matrix: (Units=1/GPa)
#
#
# Indices 1 2 3 4 5 6 
#
# 1 0.017844 -0.003797 -0.007269 0.000000 0.000000 0.000000
# 2 -0.003797 0.015158 -0.003021 0.000000 0.000000 0.000000
# 3 -0.007269 -0.003021 0.017706 0.000000 0.000000 0.000000
# 4 0.000000 0.000000 0.000000 0.056316 0.000000 0.000000
# 5 0.000000 0.000000 0.000000 0.000000 0.036616 0.000000
# 6 0.000000 0.000000 0.000000 0.000000 0.000000 0.047723
#
#
# Mechanical properties :
#
#
# Convention : Reuss Voigt Hill
#
# Bulk Modulus (GPa) = 44.37856 44.50474 44.44165
# Shear Modulus (GPa) = 22.02170 22.72594 22.37382
#
# Velocity S-wave (km/s) = 3.51122 3.56692 3.53918
# Velocity P-wave (km/s) = 6.42520 6.47144 6.44836
#
# Compressibility (1/GPa) = 0.02253340
#
# Stress axis : x y z
#
# Youngs Moduli (GPa) = 56.04262 65.97120 56.47813
#
# Poissons Ratio (x) = 0.25050 0.41051
# Poissons Ratio (y) = 0.21280 0.17065
# Poissons Ratio (z) = 0.40735 0.19933
#
# Static dielectric constant tensor:
#      x y z
#    x 3.331120 0.000000 0.000000 
#    y 0.000000 3.739160 0.000000 
#    z 0.000000 0.000000 3.128110 
# 
# 
# High freq. dielectric constant tensor:
#      x y z
#    x 1.700660 0.000000 0.000000 
#    y 0.000000 1.692790 0.000000 
#    z 0.000000 0.000000 1.667520 
# 
# From -- ./inp_files/34486.got.cif
#   From: 2010.03.12/outbox.cif.g09.slc.cpg/sg53_18_cif.got.tgz:34486.got - 2010.04.16 14:36:59.
