data_PCOD8220992
_publ_section_title
;
Structure prediction by ZEFSAII (Michael W. Deem and Ramdas Pophale) SiO2 
 PCOD8220992
Probable space group: P M N A
;
_chemical_formula_sum "Si O2"
_cell_formula_units_Z 40
_cell_length_a 11.425994
_cell_length_b 9.096636
_cell_length_c 19.262609
_cell_angle_alpha 90.000000
_cell_angle_beta 90.000000
_cell_angle_gamma 90.000000
_cell_volume 2002.119141
_symmetry_space_group_name_H-M "P M N A"
_symmetry_group_IT_number 53
_symmetry_cell_setting 'orthorhombic'
loop_
_space_group_symop_operation_xyz
x,y,z
1/2-x,-y,1/2+z
x,-y,-z
1/2-x,y,1/2-z
-x,-y,-z
1/2+x,y,1/2-z
-x,y,z
1/2+x,-y,1/2+z
loop_
_atom_site_type_symbol
_atom_site_label
_atom_site_fract_x
_atom_site_fract_y
_atom_site_fract_z
Si Si1 0.631583 0.857603 0.573790
Si Si2 0.862896 0.565085 0.427589
Si Si3 0.873041 0.308335 0.789450
Si Si4 0.213253 0.388807 0.176229
Si Si5 0.701896 0.827797 0.423737
O O1 0.500000 0.918410 0.582241
O O2 0.653904 0.737593 0.631970
O O3 0.643972 0.786526 0.497611
O O4 0.721260 0.995501 0.581341
O O5 0.814312 0.500000 0.500000
O O6 0.822392 0.460707 0.364697
O O7 0.821041 0.733380 0.417231
O O8 0.000000 0.567950 0.427088
O O9 0.750000 0.267996 0.750000
O O10 0.877140 0.480725 0.807674
O O11 0.881206 0.217546 0.860511
O O12 0.000000 0.275749 0.750740
O O13 0.250000 0.318004 0.250000
#
# Coordination Sequence:
#
# PCOD8220992 Si02
#       5
#     8   8   8   8   8
#     4  11  21  37  58  83 118 153 189 244 300 348
#     4  10  20  39  63  86 118 157 197 247 297 351
#     4  10  21  37  59  86 116 154 201 249 299 355
#     4  10  22  37  59  88 119 150 198 241 294 354
#     4  10  21  37  59  86 115 149 200 241 293 351
#
# _framework density 19.978832000000001
#
# number of rings (size 3 to 8) (size 9 to 14) (size 15 to 20)
#    0.000    1.800    2.000    3.000    0.000    8.800 
#    0.000    6.000    0.000    0.000    0.000    0.000 
#    0.000    0.000    0.000    0.000    0.000    0.000 
#
# Total GULP energy -495541.703361 kJ/mol
# GULP energy per Si atom -12388.542584 kJ/mol
# Density = 1.993336 g / cm^3
# Si number density = 19.978832 Si / 1000 Ang^3
#
#
#
# Elastic Constant Matrix: (Units=GPa)
#
#
# Indices 1 2 3 4 5 6 
#
# 1 113.3736 24.3780 37.0502 0.0000 0.0000 0.0000
# 2 24.3780 63.1824 41.3771 0.0000 0.0000 0.0000
# 3 37.0502 41.3771 140.1879 0.0000 0.0000 0.0000
# 4 0.0000 0.0000 0.0000 32.3850 0.0000 0.0000
# 5 0.0000 0.0000 0.0000 0.0000 20.6277 0.0000
# 6 0.0000 0.0000 0.0000 0.0000 0.0000 12.5659
#
#
#
# Elastic Compliance Matrix: (Units=1/GPa)
#
#
# Indices 1 2 3 4 5 6 
#
# 1 0.009996 -0.002636 -0.001864 0.000000 0.000000 0.000000
# 2 -0.002636 0.020315 -0.005299 0.000000 0.000000 0.000000
# 3 -0.001864 -0.005299 0.009190 0.000000 0.000000 0.000000
# 4 0.000000 0.000000 0.000000 0.030878 0.000000 0.000000
# 5 0.000000 0.000000 0.000000 0.000000 0.048478 0.000000
# 6 0.000000 0.000000 0.000000 0.000000 0.000000 0.079581
#
#
# Mechanical properties :
#
#
# Convention : Reuss Voigt Hill
#
# Bulk Modulus (GPa) = 50.24549 58.03939 54.14244
# Shear Modulus (GPa) = 22.25470 27.37830 24.81650
#
# Velocity S-wave (km/s) = 3.34116 3.70586 3.52822
# Velocity P-wave (km/s) = 6.33154 6.88656 6.61487
#
# Compressibility (1/GPa) = 0.01990228
#
# Stress axis : x y z
#
# Youngs Moduli (GPa) = 100.03638 49.22526 108.81450
#
# Poissons Ratio (x) = 0.12978 0.20281
# Poissons Ratio (y) = 0.26373 0.57663
# Poissons Ratio (z) = 0.18645 0.26086
#
# Static dielectric constant tensor:
#      x y z
#    x 3.479690 0.000000 0.000000 
#    y 0.000000 3.497610 0.000000 
#    z 0.000000 0.000000 4.001820 
# 
# 
# High freq. dielectric constant tensor:
#      x y z
#    x 1.764390 0.000000 0.000000 
#    y 0.000000 1.766060 0.000000 
#    z 0.000000 0.000000 1.795740 
# 
# From -- ./inp_files/27379.got.cif
#   From: 2010.03.12/outbox.cif.g09.slc.cpg/sg53_14_cif.got.tgz:27379.got - 2010.04.16 14:36:59.
