data_PCOD8220148
_publ_section_title
;
Structure prediction by ZEFSAII (Michael W. Deem and Ramdas Pophale) SiO2 
 PCOD8220148
Probable space group: P M N A
;
_chemical_formula_sum "Si O2"
_cell_formula_units_Z 56
_cell_length_a 9.026564
_cell_length_b 21.597307
_cell_length_c 14.448055
_cell_angle_alpha 90.000000
_cell_angle_beta 90.000000
_cell_angle_gamma 90.000000
_cell_volume 2816.640721
_symmetry_space_group_name_H-M "P M N A"
_symmetry_group_IT_number 53
_symmetry_cell_setting 'orthorhombic'
loop_
_space_group_symop_operation_xyz
x,y,z
1/2-x,-y,1/2+z
x,-y,-z
1/2-x,y,1/2-z
-x,-y,-z
1/2+x,y,1/2-z
-x,y,z
1/2+x,-y,1/2+z
loop_
_atom_site_type_symbol
_atom_site_label
_atom_site_fract_x
_atom_site_fract_y
_atom_site_fract_z
Si Si1 0.827372 0.753303 0.151465
Si Si2 0.671239 0.534487 0.160004
Si Si3 0.326110 0.395205 0.158211
Si Si4 0.171501 0.351630 0.537373
Si Si5 0.671318 0.889398 0.843830
Si Si6 0.825951 0.871829 0.028540
Si Si7 0.328814 0.964474 0.156485
O O1 0.750000 0.755194 0.250000
O O2 0.772919 0.696273 0.090636
O O3 0.790341 0.815856 0.097177
O O4 0.000000 0.745032 0.168978
O O5 0.750000 0.563071 0.250000
O O6 0.500000 0.531675 0.183955
O O7 0.730890 0.465321 0.138878
O O8 0.702199 0.578925 0.073499
O O9 0.250000 0.367436 0.250000
O O10 0.500000 0.394850 0.174229
O O11 0.284442 0.352115 0.070916
O O12 0.000000 0.333384 0.551846
O O13 0.750000 0.866710 0.750000
O O14 0.500000 0.869346 0.841353
O O15 0.688810 0.962648 0.855597
O O16 0.752954 0.856460 0.929488
O O17 0.750510 0.933335 0.069244
O O18 0.000000 0.883289 0.015535
O O19 0.250000 0.941272 0.250000
O O20 0.500000 0.944225 0.160277
#
# Coordination Sequence:
#
# PCOD8220148 Si02
#       7
#     8   8   8   8   8   8   8
#     4  11  25  42  59  81 109 141 180 225 269 317
#     4   9  17  30  50  78 110 141 175 217 267 323
#     4   9  18  33  53  79 110 142 177 220 269 321
#     4  10  20  35  56  79 106 144 184 222 269 321
#     4  10  21  37  58  85 116 147 181 224 273 326
#     4  11  23  38  57  81 110 147 188 229 274 323
#     4  10  20  34  55  85 117 148 182 223 274 329
#
# _framework density 19.88184
#
# number of rings (size 3 to 8) (size 9 to 14) (size 15 to 20)
#    0.000    2.000    0.000    3.429    0.000   10.857 
#    0.000    0.714    0.000    6.000    0.000    0.000 
#    0.000    0.000    0.000    0.000    0.000    0.000 
#
# Total GULP energy -694562.856232 kJ/mol
# GULP energy per Si atom -12402.908147 kJ/mol
# Density = 1.983659 g / cm^3
# Si number density = 19.881840 Si / 1000 Ang^3
#
#
#
# Elastic Constant Matrix: (Units=GPa)
#
#
# Indices 1 2 3 4 5 6 
#
# 1 106.5274 41.2489 76.2244 0.0000 0.0000 0.0000
# 2 41.2489 46.1306 40.2405 0.0000 0.0000 0.0000
# 3 76.2244 40.2405 169.5060 0.0000 0.0000 0.0000
# 4 0.0000 0.0000 0.0000 24.9639 0.0000 0.0000
# 5 0.0000 0.0000 0.0000 0.0000 41.5205 0.0000
# 6 0.0000 0.0000 0.0000 0.0000 0.0000 -12.9988
#
#
#
# Elastic Compliance Matrix: (Units=1/GPa)
#
#
# Indices 1 2 3 4 5 6 
#
# 1 0.017363 -0.010990 -0.005199 0.000000 0.000000 0.000000
# 2 -0.010990 0.034296 -0.003200 0.000000 0.000000 0.000000
# 3 -0.005199 -0.003200 0.008997 0.000000 0.000000 0.000000
# 4 0.000000 0.000000 0.000000 0.040058 0.000000 0.000000
# 5 0.000000 0.000000 0.000000 0.000000 0.024085 0.000000
# 6 0.000000 0.000000 0.000000 0.000000 0.000000 -0.076930
#
#
# Mechanical properties :
#
#
# Convention : Reuss Voigt Hill
#
# Bulk Modulus (GPa) = 45.70760 70.84350 58.27555
# Shear Modulus (GPa) = 53.22677 21.66047 37.44362
#
# Velocity S-wave (km/s) = 5.17974 3.30428 4.34442
# Velocity P-wave (km/s) = 7.66893 7.08994 7.38511
#
# Compressibility (1/GPa) = 0.02187820
#
# Stress axis : x y z
#
# Youngs Moduli (GPa) = 57.59450 29.15791 111.15028
#
# Poissons Ratio (x) = 0.32046 0.57783
# Poissons Ratio (y) = 0.63299 0.35563
# Poissons Ratio (z) = 0.29941 0.09329
#
# Static dielectric constant tensor:
#      x y z
#    x 3.656890 0.000000 0.000000 
#    y 0.000000 3.428870 0.000000 
#    z 0.000000 0.000000 3.861630 
# 
# 
# High freq. dielectric constant tensor:
#      x y z
#    x 1.777210 0.000000 0.000000 
#    y 0.000000 1.752560 0.000000 
#    z 0.000000 0.000000 1.790650 
# 
# From -- ./inp_files/20459.got.cif
#   From: 2010.03.12/outbox.cif.g09.slc.cpg/sg53_11_cif.got.tgz:20459.got - 2010.04.16 14:36:59.
