data_PCOD8220871
_publ_section_title
;
Structure prediction by ZEFSAII (Michael W. Deem and Ramdas Pophale) SiO2 
 PCOD8220871
Probable space group: P M N A
;
_chemical_formula_sum "Si O2"
_cell_formula_units_Z 32
_cell_length_a 15.320773
_cell_length_b 7.513164
_cell_length_c 12.647778
_cell_angle_alpha 90.000000
_cell_angle_beta 90.000000
_cell_angle_gamma 90.000000
_cell_volume 1455.853855
_symmetry_space_group_name_H-M "P M N A"
_symmetry_group_IT_number 53
_symmetry_cell_setting 'orthorhombic'
loop_
_space_group_symop_operation_xyz
x,y,z
1/2-x,-y,1/2+z
x,-y,-z
1/2-x,y,1/2-z
-x,-y,-z
1/2+x,y,1/2-z
-x,y,z
1/2+x,-y,1/2+z
loop_
_atom_site_type_symbol
_atom_site_label
_atom_site_fract_x
_atom_site_fract_y
_atom_site_fract_z
Si Si1 0.304275 0.144870 0.353849
Si Si2 0.773740 0.766023 0.083971
Si Si3 0.596719 0.612239 0.104472
Si Si4 0.404627 0.474344 0.331535
O O1 0.250000 0.196019 0.250000
O O2 0.255297 0.204655 0.460287
O O3 0.391722 0.263869 0.353908
O O4 0.322489 0.933184 0.360355
O O5 0.674509 0.752342 0.127739
O O6 0.831221 0.591883 0.109386
O O7 0.500000 0.702720 0.093267
O O8 0.597796 0.485313 0.205404
O O9 0.619085 0.500000 0.000000
O O10 0.500000 0.530597 0.375311
#
# Coordination Sequence:
#
# PCOD8220871 Si02
#       4
#     8   8   8   8
#     4  11  23  39  61  88 119 159 202 246 301 363
#     4  11  23  40  63  88 121 161 199 248 306 360
#     4  10  20  37  64  93 121 159 204 250 304 361
#     4  11  23  39  62  90 123 162 203 249 298 355
#
# _framework density 21.980229999999999
#
# number of rings (size 3 to 8) (size 9 to 14) (size 15 to 20)
#    0.000    1.250    0.000    7.500    0.000    3.000 
#    0.000    6.250    0.000    1.500    0.000    0.000 
#    0.000    0.000    0.000    0.000    0.000    0.000 
#
# Total GULP energy -396489.476661 kJ/mol
# GULP energy per Si atom -12390.296146 kJ/mol
# Density = 2.193020 g / cm^3
# Si number density = 21.980230 Si / 1000 Ang^3
#
#
#
# Elastic Constant Matrix: (Units=GPa)
#
#
# Indices 1 2 3 4 5 6 
#
# 1 151.8547 70.9971 29.5348 0.0000 0.0000 0.0000
# 2 70.9971 132.4357 34.4773 0.0000 0.0000 0.0000
# 3 29.5348 34.4773 102.2054 0.0000 0.0000 0.0000
# 4 0.0000 0.0000 0.0000 27.8291 0.0000 0.0000
# 5 0.0000 0.0000 0.0000 0.0000 22.2959 0.0000
# 6 0.0000 0.0000 0.0000 0.0000 0.0000 16.0106
#
#
#
# Elastic Compliance Matrix: (Units=1/GPa)
#
#
# Indices 1 2 3 4 5 6 
#
# 1 0.008890 -0.004492 -0.001054 0.000000 0.000000 0.000000
# 2 -0.004492 0.010547 -0.002260 0.000000 0.000000 0.000000
# 3 -0.001054 -0.002260 0.010851 0.000000 0.000000 0.000000
# 4 0.000000 0.000000 0.000000 0.035934 0.000000 0.000000
# 5 0.000000 0.000000 0.000000 0.000000 0.044851 0.000000
# 6 0.000000 0.000000 0.000000 0.000000 0.000000 0.062459
#
#
# Mechanical properties :
#
#
# Convention : Reuss Voigt Hill
#
# Bulk Modulus (GPa) = 68.13103 72.94601 70.53852
# Shear Modulus (GPa) = 25.76853 29.99289 27.88071
#
# Velocity S-wave (km/s) = 3.42767 3.69797 3.56539
# Velocity P-wave (km/s) = 6.83587 7.17583 7.00791
#
# Compressibility (1/GPa) = 0.01467760
#
# Stress axis : x y z
#
# Youngs Moduli (GPa) = 112.48386 94.81350 92.15649
#
# Poissons Ratio (x) = 0.42586 0.09712
# Poissons Ratio (y) = 0.50523 0.20827
# Poissons Ratio (z) = 0.11854 0.21427
#
# Static dielectric constant tensor:
#      x y z
#    x 4.005890 0.000000 0.000000 
#    y 0.000000 3.890830 0.000000 
#    z 0.000000 0.000000 4.245390 
# 
# 
# High freq. dielectric constant tensor:
#      x y z
#    x 1.851490 0.000000 0.000000 
#    y 0.000000 1.844260 0.000000 
#    z 0.000000 0.000000 1.894860 
# 
# From -- ./inp_files/15515.got.cif
#   From: 2010.03.12/outbox.cif.g09.slc.cpg/sg53_8_cif.got.tgz:15515.got - 2010.04.16 14:36:59.
