data_PCOD8220024
_publ_section_title
;
Structure prediction by ZEFSAII (Michael W. Deem and Ramdas Pophale) SiO2 
 PCOD8220024
Probable space group: P M N A
;
_chemical_formula_sum "Si O2"
_cell_formula_units_Z 48
_cell_length_a 8.848457
_cell_length_b 18.255358
_cell_length_c 16.311936
_cell_angle_alpha 90.000000
_cell_angle_beta 90.000000
_cell_angle_gamma 90.000000
_cell_volume 2634.895573
_symmetry_space_group_name_H-M "P M N A"
_symmetry_group_IT_number 53
_symmetry_cell_setting 'orthorhombic'
loop_
_space_group_symop_operation_xyz
x,y,z
1/2-x,-y,1/2+z
x,-y,-z
1/2-x,y,1/2-z
-x,-y,-z
1/2+x,y,1/2-z
-x,y,z
1/2+x,-y,1/2+z
loop_
_atom_site_type_symbol
_atom_site_label
_atom_site_fract_x
_atom_site_fract_y
_atom_site_fract_z
Si Si1 0.669986 0.952349 0.918629
Si Si2 0.176257 0.827385 0.007982
Si Si3 0.323768 0.921125 0.332075
Si Si4 0.178740 0.327746 0.485619
Si Si5 0.333767 0.539753 0.086331
Si Si6 0.177866 0.588832 0.835626
O O1 0.500000 0.931800 0.891346
O O2 0.750071 0.999409 0.848079
O O3 0.765181 0.878634 0.934169
O O4 0.667944 0.000000 0.000000
O O5 0.210036 0.864882 0.094966
O O6 0.000000 0.812026 0.994819
O O7 0.269016 0.753067 0.006738
O O8 0.250000 0.887730 0.250000
O O9 0.500000 0.933000 0.319369
O O10 0.221907 0.377831 0.565135
O O11 0.260879 0.356296 0.404362
O O12 0.000000 0.330788 0.469868
O O13 0.500000 0.540374 0.128350
O O14 0.219441 0.496138 0.145072
O O15 0.346068 0.500000 0.000000
O O16 0.250000 0.613137 0.750000
O O17 0.000000 0.596583 0.830255
#
# Coordination Sequence:
#
# PCOD8220024 Si02
#       6
#     8   8   8   8   8   8
#     4   9  17  31  52  75  99 131 170 208 250 302
#     4  10  20  34  53  78 107 139 175 213 256 309
#     4  10  20  34  53  77 105 136 173 217 261 306
#     4  10  20  35  55  78 106 139 174 212 258 312
#     4   8  16  32  52  74 100 131 168 208 250 300
#     4  11  21  34  54  78 105 136 173 216 261 308
#
# _framework density 18.217040000000001
#
# number of rings (size 3 to 8) (size 9 to 14) (size 15 to 20)
#    0.000    2.333    0.000    4.500    0.000    7.667 
#    0.000    1.667    0.000    2.000    0.000    0.000 
#    0.000    0.000    0.000    0.000    0.000    0.000 
#
# Total GULP energy -595131.607759 kJ/mol
# GULP energy per Si atom -12398.575162 kJ/mol
# Density = 1.817558 g / cm^3
# Si number density = 18.217040 Si / 1000 Ang^3
#
#
#
# Elastic Constant Matrix: (Units=GPa)
#
#
# Indices 1 2 3 4 5 6 
#
# 1 124.3145 42.1427 48.6244 0.0000 0.0000 0.0000
# 2 42.1427 103.9322 27.5768 0.0000 0.0000 0.0000
# 3 48.6244 27.5768 72.8990 0.0000 0.0000 0.0000
# 4 0.0000 0.0000 0.0000 14.8540 0.0000 0.0000
# 5 0.0000 0.0000 0.0000 0.0000 30.2914 0.0000
# 6 0.0000 0.0000 0.0000 0.0000 0.0000 25.5885
#
#
#
# Elastic Compliance Matrix: (Units=1/GPa)
#
#
# Indices 1 2 3 4 5 6 
#
# 1 0.011648 -0.002959 -0.006650 0.000000 0.000000 0.000000
# 2 -0.002959 0.011447 -0.002357 0.000000 0.000000 0.000000
# 3 -0.006650 -0.002357 0.019045 0.000000 0.000000 0.000000
# 4 0.000000 0.000000 0.000000 0.067322 0.000000 0.000000
# 5 0.000000 0.000000 0.000000 0.000000 0.033013 0.000000
# 6 0.000000 0.000000 0.000000 0.000000 0.000000 0.039080
#
#
# Mechanical properties :
#
#
# Convention : Reuss Voigt Hill
#
# Bulk Modulus (GPa) = 54.91908 59.75928 57.33918
# Shear Modulus (GPa) = 23.63451 26.33359 24.98405
#
# Velocity S-wave (km/s) = 3.60583 3.80616 3.70735
# Velocity P-wave (km/s) = 6.89555 7.22434 7.06186
#
# Compressibility (1/GPa) = 0.01820861
#
# Stress axis : x y z
#
# Youngs Moduli (GPa) = 85.84948 87.36187 52.50741
#
# Poissons Ratio (x) = 0.25847 0.34919
# Poissons Ratio (y) = 0.25400 0.12374
# Poissons Ratio (z) = 0.57093 0.20588
#
# Static dielectric constant tensor:
#      x y z
#    x 3.480570 0.000000 0.000000 
#    y 0.000000 3.503980 0.000000 
#    z 0.000000 0.000000 3.246340 
# 
# 
# High freq. dielectric constant tensor:
#      x y z
#    x 1.720620 0.000000 0.000000 
#    y 0.000000 1.697980 0.000000 
#    z 0.000000 0.000000 1.685150 
# 
# From -- ./inp_files/20198.got.cif
#   From: 2010.03.12/outbox.cif.g09.slc.cpg/sg53_11_cif.got.tgz:20198.got - 2010.04.16 14:36:59.
