data_PCOD8220628
_publ_section_title
;
Structure prediction by ZEFSAII (Michael W. Deem and Ramdas Pophale) SiO2 
 PCOD8220628
Probable space group: P M N A
;
_chemical_formula_sum "Si O2"
_cell_formula_units_Z 20
_cell_length_a 11.871006
_cell_length_b 11.067971
_cell_length_c 5.411164
_cell_angle_alpha 90.000000
_cell_angle_beta 90.000000
_cell_angle_gamma 90.000000
_cell_volume 710.961746
_symmetry_space_group_name_H-M "P M N A"
_symmetry_group_IT_number 53
_symmetry_cell_setting 'orthorhombic'
loop_
_space_group_symop_operation_xyz
x,y,z
1/2-x,-y,1/2+z
x,-y,-z
1/2-x,y,1/2-z
-x,-y,-z
1/2+x,y,1/2-z
-x,y,z
1/2+x,-y,1/2+z
loop_
_atom_site_type_symbol
_atom_site_label
_atom_site_fract_x
_atom_site_fract_y
_atom_site_fract_z
Si Si1 0.868472 0.866161 0.597199
Si Si2 0.182388 0.500000 0.000000
Si Si3 0.875052 0.760322 0.102520
O O1 0.817442 0.840168 0.877056
O O2 0.818989 0.774875 0.380470
O O3 0.000000 0.836722 0.634552
O O4 0.846803 0.000000 0.500000
O O5 0.250000 0.520569 0.750000
O O6 0.109190 0.620598 0.031880
O O7 0.000000 0.816232 0.139010
#
# Coordination Sequence:
#
# PCOD8220628 Si02
#       3
#     8   4   8
#     4   9  17  31  56  88 114 137 174 227 277 321
#     4  12  25  40  57  78 112 150 186 230 277 322
#     4  10  20  36  59  84 110 143 185 226 268 325
#
# _framework density 28.130907000000001
#
# number of rings (size 3 to 8) (size 9 to 14) (size 15 to 20)
#    0.000    2.000    0.000    4.200    0.000    4.800 
#    0.000    8.000    0.000   24.000    0.000    0.000 
#    0.000    0.000    0.000    0.000    0.000    0.000 
#
# Total GULP energy -248085.702456 kJ/mol
# GULP energy per Si atom -12404.285123 kJ/mol
# Density = 2.806688 g / cm^3
# Si number density = 28.130907 Si / 1000 Ang^3
#
#
#
# Elastic Constant Matrix: (Units=GPa)
#
#
# Indices 1 2 3 4 5 6 
#
# 1 97.6384 -1.2178 104.7517 0.0000 0.0000 0.0000
# 2 -1.2178 166.8661 93.6650 0.0000 0.0000 0.0000
# 3 104.7517 93.6650 322.7994 0.0000 0.0000 0.0000
# 4 0.0000 0.0000 0.0000 62.0351 0.0000 0.0000
# 5 0.0000 0.0000 0.0000 0.0000 43.4408 0.0000
# 6 0.0000 0.0000 0.0000 0.0000 0.0000 35.4260
#
#
#
# Elastic Compliance Matrix: (Units=1/GPa)
#
#
# Indices 1 2 3 4 5 6 
#
# 1 0.017702 0.004006 -0.006907 0.000000 0.000000 0.000000
# 2 0.004006 0.008065 -0.003640 0.000000 0.000000 0.000000
# 3 -0.006907 -0.003640 0.006396 0.000000 0.000000 0.000000
# 4 0.000000 0.000000 0.000000 0.016120 0.000000 0.000000
# 5 0.000000 0.000000 0.000000 0.000000 0.023020 0.000000
# 6 0.000000 0.000000 0.000000 0.000000 0.000000 0.028228
#
#
# Mechanical properties :
#
#
# Convention : Reuss Voigt Hill
#
# Bulk Modulus (GPa) = 52.40880 109.07798 80.74339
# Shear Modulus (GPa) = 42.02633 54.18736 48.10685
#
# Velocity S-wave (km/s) = 3.86937 4.39368 4.13983
# Velocity P-wave (km/s) = 6.21558 8.03732 7.18442
#
# Compressibility (1/GPa) = 0.01908077
#
# Stress axis : x y z
#
# Youngs Moduli (GPa) = 56.49098 123.98548 156.35843
#
# Poissons Ratio (x) = -0.49671 1.07995
# Poissons Ratio (y) = -0.22631 0.56920
# Poissons Ratio (z) = 0.39018 0.45135
#
# Static dielectric constant tensor:
#      x y z
#    x 5.726730 0.000000 0.000000 
#    y 0.000000 4.753930 0.000000 
#    z 0.000000 0.000000 5.970120 
# 
# 
# High freq. dielectric constant tensor:
#      x y z
#    x 2.227200 0.000000 0.000000 
#    y 0.000000 2.103370 0.000000 
#    z 0.000000 0.000000 2.200670 
# 
# From -- ./inp_files/403.got.cif
#   From: 2010.03.12/outbox.cif.g09.slc.cpg/sg53_1_cif.got.tgz:403.got - 2010.04.16 14:36:59.
