data_PCOD8220328
_publ_section_title
;
Structure prediction by ZEFSAII (Michael W. Deem and Ramdas Pophale) SiO2 
 PCOD8220328
Probable space group: P M N A
;
_chemical_formula_sum "Si O2"
_cell_formula_units_Z 48
_cell_length_a 8.741937
_cell_length_b 19.951731
_cell_length_c 14.027761
_cell_angle_alpha 90.000000
_cell_angle_beta 90.000000
_cell_angle_gamma 90.000000
_cell_volume 2446.676840
_symmetry_space_group_name_H-M "P M N A"
_symmetry_group_IT_number 53
_symmetry_cell_setting 'orthorhombic'
loop_
_space_group_symop_operation_xyz
x,y,z
1/2-x,-y,1/2+z
x,-y,-z
1/2-x,y,1/2-z
-x,-y,-z
1/2+x,y,1/2-z
-x,y,z
1/2+x,-y,1/2+z
loop_
_atom_site_type_symbol
_atom_site_label
_atom_site_fract_x
_atom_site_fract_y
_atom_site_fract_z
Si Si1 0.181934 0.229574 0.647707
Si Si2 0.681057 0.901001 0.040655
Si Si3 0.821463 0.622381 0.651413
Si Si4 0.679053 0.533962 0.151227
Si Si5 0.319241 0.648052 0.460656
Si Si6 0.180991 0.031040 0.351645
O O1 0.250000 0.212019 0.750000
O O2 0.238469 0.171552 0.575226
O O3 0.247432 0.299799 0.612679
O O4 0.000000 0.233896 0.654094
O O5 0.500000 0.904792 0.042964
O O6 0.741480 0.958216 0.113440
O O7 0.735606 0.915133 0.932028
O O8 0.750000 0.648048 0.750000
O O9 0.786995 0.544044 0.636862
O O10 0.739649 0.663389 0.567189
O O11 0.000000 0.638459 0.650641
O O12 0.750000 0.559649 0.250000
O O13 0.500000 0.549852 0.149441
O O14 0.761380 0.573889 0.066744
O O15 0.500000 0.652181 0.456407
O O16 0.250000 0.050888 0.250000
O O17 0.000000 0.031524 0.341208
#
# Coordination Sequence:
#
# PCOD8220328 Si02
#       6
#     8   8   8   8   8   8
#     4  11  22  38  57  78 106 142 180 220 268 321
#     4   8  17  33  54  77 108 146 178 212 263 322
#     4  10  21  38  59  82 107 137 175 221 272 324
#     4  10  20  35  56  82 110 139 174 219 271 325
#     4  12  24  37  54  78 108 143 182 223 266 317
#     4   9  16  31  54  82 110 139 176 217 263 313
#
# _framework density 19.618447
#
# number of rings (size 3 to 8) (size 9 to 14) (size 15 to 20)
#    0.000    2.000    0.000    5.500    0.000    4.000 
#    0.000    5.000    0.000    2.000    0.000    0.000 
#    0.000    0.000    0.000    0.000    0.000    0.000 
#
# Total GULP energy -595253.881530 kJ/mol
# GULP energy per Si atom -12401.122532 kJ/mol
# Density = 1.957379 g / cm^3
# Si number density = 19.618447 Si / 1000 Ang^3
#
#
#
# Elastic Constant Matrix: (Units=GPa)
#
#
# Indices 1 2 3 4 5 6 
#
# 1 90.5902 26.2203 43.1211 0.0000 0.0000 0.0000
# 2 26.2203 47.2569 27.0073 0.0000 0.0000 0.0000
# 3 43.1211 27.0073 145.7819 0.0000 0.0000 0.0000
# 4 0.0000 0.0000 0.0000 32.8848 0.0000 0.0000
# 5 0.0000 0.0000 0.0000 0.0000 39.0573 0.0000
# 6 0.0000 0.0000 0.0000 0.0000 0.0000 3.2528
#
#
#
# Elastic Compliance Matrix: (Units=1/GPa)
#
#
# Indices 1 2 3 4 5 6 
#
# 1 0.014292 -0.006167 -0.003085 0.000000 0.000000 0.000000
# 2 -0.006167 0.026328 -0.003053 0.000000 0.000000 0.000000
# 3 -0.003085 -0.003053 0.008338 0.000000 0.000000 0.000000
# 4 0.000000 0.000000 0.000000 0.030409 0.000000 0.000000
# 5 0.000000 0.000000 0.000000 0.000000 0.025603 0.000000
# 6 0.000000 0.000000 0.000000 0.000000 0.000000 0.307424
#
#
# Mechanical properties :
#
#
# Convention : Reuss Voigt Hill
#
# Bulk Modulus (GPa) = 41.07270 52.92516 46.99893
# Shear Modulus (GPa) = 11.23292 27.52435 19.37864
#
# Velocity S-wave (km/s) = 2.39544 3.74971 3.14630
# Velocity P-wave (km/s) = 5.35089 6.76630 6.09979
#
# Compressibility (1/GPa) = 0.02434707
#
# Stress axis : x y z
#
# Youngs Moduli (GPa) = 69.96856 37.98301 119.93661
#
# Poissons Ratio (x) = 0.23424 0.37001
# Poissons Ratio (y) = 0.43149 0.36620
# Poissons Ratio (z) = 0.21586 0.11597
#
# Static dielectric constant tensor:
#      x y z
#    x 3.408180 0.000000 0.000000 
#    y 0.000000 3.530400 0.000000 
#    z 0.000000 0.000000 3.810000 
# 
# 
# High freq. dielectric constant tensor:
#      x y z
#    x 1.754810 0.000000 0.000000 
#    y 0.000000 1.743210 0.000000 
#    z 0.000000 0.000000 1.780380 
# 
# From -- ./inp_files/20236.got.cif
#   From: 2010.03.12/outbox.cif.g09.slc.cpg/sg53_11_cif.got.tgz:20236.got - 2010.04.16 14:36:59.
