data_PCOD8220961
_publ_section_title
;
Structure prediction by ZEFSAII (Michael W. Deem and Ramdas Pophale) SiO2 
 PCOD8220961
Probable space group: P M N A
;
_chemical_formula_sum "Si O2"
_cell_formula_units_Z 48
_cell_length_a 15.115906
_cell_length_b 15.904523
_cell_length_c 9.187298
_cell_angle_alpha 90.000000
_cell_angle_beta 90.000000
_cell_angle_gamma 90.000000
_cell_volume 2208.730023
_symmetry_space_group_name_H-M "P M N A"
_symmetry_group_IT_number 53
_symmetry_cell_setting 'orthorhombic'
loop_
_space_group_symop_operation_xyz
x,y,z
1/2-x,-y,1/2+z
x,-y,-z
1/2-x,y,1/2-z
-x,-y,-z
1/2+x,y,1/2-z
-x,y,z
1/2+x,-y,1/2+z
loop_
_atom_site_type_symbol
_atom_site_label
_atom_site_fract_x
_atom_site_fract_y
_atom_site_fract_z
Si Si1 0.599920 0.855264 0.126941
Si Si2 0.500000 0.388607 0.333489
Si Si3 0.341261 0.335076 0.833179
Si Si4 0.171425 0.337744 0.342158
Si Si5 0.900254 0.092264 0.945880
Si Si6 0.500000 0.587990 0.338246
Si Si7 0.235845 0.150226 0.402836
O O1 0.500000 0.854526 0.066141
O O2 0.631609 0.761724 0.162016
O O3 0.607153 0.909818 0.272215
O O4 0.664344 0.896749 0.005716
O O5 0.416961 0.349190 0.250274
O O6 0.500000 0.488348 0.336479
O O7 0.500000 0.365170 0.504741
O O8 0.250000 0.346093 0.750000
O O9 0.413019 0.385964 0.745605
O O10 0.336201 0.375850 0.995359
O O11 0.250000 0.382280 0.250000
O O12 0.194858 0.240140 0.363263
O O13 0.000000 0.117974 0.994032
O O14 0.830326 0.157976 0.014484
O O15 0.874669 0.000000 0.000000
O O16 0.250000 0.100646 0.250000
#
# Coordination Sequence:
#
# PCOD8220961 Si02
#       7
#     8   4   8   8   8   4   8
#     4  10  20  38  65  94 127 168 218 270 317 387
#     4  11  25  43  65  87 138 163 218 271 344 403
#     4  11  21  38  66  96 128 166 225 263 321 401
#     4  10  22  41  62  95 128 169 209 273 335 389
#     4  10  22  41  64  94 133 179 226 276 333 386
#     4  11  25  43  63  97 118 179 214 273 333 407
#     4  10  22  38  60  95 126 168 214 267 327 390
#
# _framework density 21.731946000000001
#
# number of rings (size 3 to 8) (size 9 to 14) (size 15 to 20)
#    0.000    1.667    0.833    4.000    3.500    5.333 
#    4.500    0.000    0.000    3.500    0.000    0.000 
#    0.000    0.000    0.000    0.000    0.000    0.000 
#
# Total GULP energy -595027.858963 kJ/mol
# GULP energy per Si atom -12396.413728 kJ/mol
# Density = 2.168248 g / cm^3
# Si number density = 21.731946 Si / 1000 Ang^3
#
#
#
# Elastic Constant Matrix: (Units=GPa)
#
#
# Indices 1 2 3 4 5 6 
#
# 1 220.3242 31.1928 113.5167 0.0000 0.0000 0.0000
# 2 31.1928 48.7627 30.6461 0.0000 0.0000 0.0000
# 3 113.5167 30.6461 199.2417 0.0000 0.0000 0.0000
# 4 0.0000 0.0000 0.0000 24.3780 0.0000 0.0000
# 5 0.0000 0.0000 0.0000 0.0000 54.3721 0.0000
# 6 0.0000 0.0000 0.0000 0.0000 0.0000 -33.1163
#
#
#
# Elastic Compliance Matrix: (Units=1/GPa)
#
#
# Indices 1 2 3 4 5 6 
#
# 1 0.006606 -0.002060 -0.003447 0.000000 0.000000 0.000000
# 2 -0.002060 0.023344 -0.002417 0.000000 0.000000 0.000000
# 3 -0.003447 -0.002417 0.007355 0.000000 0.000000 0.000000
# 4 0.000000 0.000000 0.000000 0.041021 0.000000 0.000000
# 5 0.000000 0.000000 0.000000 0.000000 0.018392 0.000000
# 6 0.000000 0.000000 0.000000 0.000000 0.000000 -0.030197
#
#
# Mechanical properties :
#
#
# Convention : Reuss Voigt Hill
#
# Bulk Modulus (GPa) = 46.60390 91.00444 68.80417
# Shear Modulus (GPa) = 55.85248 28.65829 42.25538
#
# Velocity S-wave (km/s) = 5.07508 3.63535 4.41431
# Velocity P-wave (km/s) = 7.47217 7.71932 7.59675
#
# Compressibility (1/GPa) = 0.02145743
#
# Stress axis : x y z
#
# Youngs Moduli (GPa) = 151.36762 42.83737 135.96484
#
# Poissons Ratio (x) = 0.08823 0.46870
# Poissons Ratio (y) = 0.31175 0.32866
# Poissons Ratio (z) = 0.52179 0.10355
#
# Static dielectric constant tensor:
#      x y z
#    x 4.182640 0.000000 0.000000 
#    y 0.000000 3.480950 0.000000 
#    z 0.000000 0.000000 5.141700 
# 
# 
# High freq. dielectric constant tensor:
#      x y z
#    x 1.875370 0.000000 0.000000 
#    y 0.000000 1.815490 0.000000 
#    z 0.000000 0.000000 1.879660 
# 
# From -- ./inp_files/8732.got.cif
#   From: 2010.03.12/outbox.cif.g09.slc.cpg/sg53_5_cif.got.tgz:8732.got - 2010.04.16 14:36:59.
