data_PCOD8220434
_publ_section_title
;
Structure prediction by ZEFSAII (Michael W. Deem and Ramdas Pophale) SiO2 
 PCOD8220434
Probable space group: P M N A
;
_chemical_formula_sum "Si O2"
_cell_formula_units_Z 36
_cell_length_a 26.106822
_cell_length_b 11.097972
_cell_length_c 6.126244
_cell_angle_alpha 90.000000
_cell_angle_beta 90.000000
_cell_angle_gamma 90.000000
_cell_volume 1774.973702
_symmetry_space_group_name_H-M "P M N A"
_symmetry_group_IT_number 53
_symmetry_cell_setting 'orthorhombic'
loop_
_space_group_symop_operation_xyz
x,y,z
1/2-x,-y,1/2+z
x,-y,-z
1/2-x,y,1/2-z
-x,-y,-z
1/2+x,y,1/2-z
-x,y,z
1/2+x,-y,1/2+z
loop_
_atom_site_type_symbol
_atom_site_label
_atom_site_fract_x
_atom_site_fract_y
_atom_site_fract_z
Si Si1 0.854789 0.368692 0.446701
Si Si2 0.059526 0.372657 0.113595
Si Si3 0.808134 0.169174 0.207924
Si Si4 0.374403 0.000000 0.000000
Si Si5 0.620516 0.805019 0.322678
O O1 0.833329 0.500000 0.500000
O O2 0.911999 0.372529 0.345473
O O3 0.816195 0.309880 0.269750
O O4 0.855728 0.296877 0.671139
O O5 0.000000 0.357033 0.162499
O O6 0.071773 0.500000 0.000000
O O7 0.077146 0.256658 0.971802
O O8 0.750000 0.130012 0.250000
O O9 0.840582 0.097175 0.381433
O O10 0.830866 0.145372 0.965513
O O11 0.404321 0.918257 0.183070
#
# Coordination Sequence:
#
# PCOD8220434 Si02
#       5
#     8   8   8   4   8
#     4  10  20  37  56  86 123 157 191 241 298 354
#     4  10  20  35  61  89 118 158 203 246 292 354
#     4  10  23  38  59  87 114 155 201 246 292 355
#     4  10  22  36  63  84 114 156 197 244 304 356
#     4  10  21  39  59  85 124 153 194 246 301 348
#
# _framework density 20.281991000000001
#
# number of rings (size 3 to 8) (size 9 to 14) (size 15 to 20)
#    0.000    2.000    2.222    0.667    3.111    4.000 
#    4.000    0.556    0.000   17.333    0.000    0.000 
#    0.000    0.000    0.000    0.000    0.000    0.000 
#
# Total GULP energy -446097.407260 kJ/mol
# GULP energy per Si atom -12391.594646 kJ/mol
# Density = 2.023583 g / cm^3
# Si number density = 20.281991 Si / 1000 Ang^3
#
#
#
# Elastic Constant Matrix: (Units=GPa)
#
#
# Indices 1 2 3 4 5 6 
#
# 1 55.4828 0.1360 13.1074 0.0000 0.0000 0.0000
# 2 0.1360 102.0860 26.1411 0.0000 0.0000 0.0000
# 3 13.1074 26.1411 96.4251 0.0000 0.0000 0.0000
# 4 0.0000 0.0000 0.0000 44.2403 0.0000 0.0000
# 5 0.0000 0.0000 0.0000 0.0000 0.7400 0.0000
# 6 0.0000 0.0000 0.0000 0.0000 0.0000 23.1347
#
#
#
# Elastic Compliance Matrix: (Units=1/GPa)
#
#
# Indices 1 2 3 4 5 6 
#
# 1 0.018664 0.000671 -0.002719 0.000000 0.000000 0.000000
# 2 0.000671 0.010551 -0.002952 0.000000 0.000000 0.000000
# 3 -0.002719 -0.002952 0.011541 0.000000 0.000000 0.000000
# 4 0.000000 0.000000 0.000000 0.022604 0.000000 0.000000
# 5 0.000000 0.000000 0.000000 0.000000 1.351439 0.000000
# 6 0.000000 0.000000 0.000000 0.000000 0.000000 0.043225
#
#
# Mechanical properties :
#
#
# Convention : Reuss Voigt Hill
#
# Bulk Modulus (GPa) = 32.51302 36.97365 34.74334
# Shear Modulus (GPa) = 3.38232 27.93029 15.65631
#
# Velocity S-wave (km/s) = 1.29278 3.71495 2.78138
# Velocity P-wave (km/s) = 4.27711 6.05562 5.24234
#
# Compressibility (1/GPa) = 0.03075691
#
# Stress axis : x y z
#
# Youngs Moduli (GPa) = 53.57815 94.78163 86.65102
#
# Poissons Ratio (x) = -0.06364 0.23562
# Poissons Ratio (y) = -0.03597 0.25576
# Poissons Ratio (z) = 0.14569 0.27975
#
# Static dielectric constant tensor:
#      x y z
#    x 3.260730 0.000000 0.000000 
#    y 0.000000 4.491350 0.000000 
#    z 0.000000 0.000000 3.967930 
# 
# 
# High freq. dielectric constant tensor:
#      x y z
#    x 1.741250 0.000000 0.000000 
#    y 0.000000 1.812690 0.000000 
#    z 0.000000 0.000000 1.810530 
# 
# From -- ./inp_files/3478.got.cif
#   From: 2010.03.12/outbox.cif.g09.slc.cpg/sg53_2_cif.got.tgz:3478.got - 2010.04.16 14:36:59.
