data_PCOD8220106
_publ_section_title
;
Structure prediction by ZEFSAII (Michael W. Deem and Ramdas Pophale) SiO2 
 PCOD8220106
Probable space group: P M N A
;
_chemical_formula_sum "Si O2"
_cell_formula_units_Z 64
_cell_length_a 9.056139
_cell_length_b 23.967000
_cell_length_c 14.463115
_cell_angle_alpha 90.000000
_cell_angle_beta 90.000000
_cell_angle_gamma 90.000000
_cell_volume 3139.197176
_symmetry_space_group_name_H-M "P M N A"
_symmetry_group_IT_number 53
_symmetry_cell_setting 'orthorhombic'
loop_
_space_group_symop_operation_xyz
x,y,z
1/2-x,-y,1/2+z
x,-y,-z
1/2-x,y,1/2-z
-x,-y,-z
1/2+x,y,1/2-z
-x,y,z
1/2+x,-y,1/2+z
loop_
_atom_site_type_symbol
_atom_site_label
_atom_site_fract_x
_atom_site_fract_y
_atom_site_fract_z
Si Si1 0.834783 0.903952 0.837599
Si Si2 0.829456 0.867598 0.340116
Si Si3 0.329452 0.827203 0.964927
Si Si4 0.174904 0.615099 0.529521
Si Si5 0.673099 0.721287 0.848722
Si Si6 0.329287 0.531740 0.656744
Si Si7 0.671002 0.600077 0.343824
Si Si8 0.667401 0.023069 0.596841
O O1 0.750000 0.878370 0.750000
O O2 0.760587 0.880908 0.930614
O O3 0.000000 0.880919 0.833360
O O4 0.830167 0.970849 0.833363
O O5 0.750000 0.842316 0.250000
O O6 0.804154 0.824353 0.424473
O O7 0.769130 0.928894 0.362801
O O8 0.000000 0.875056 0.316379
O O9 0.500000 0.837706 0.942274
O O10 0.271952 0.771323 0.915211
O O11 0.215855 0.664522 0.599605
O O12 0.248266 0.559044 0.569346
O O13 0.245813 0.628739 0.429868
O O14 0.000000 0.607046 0.517990
O O15 0.750000 0.724524 0.750000
O O16 0.500000 0.725070 0.831623
O O17 0.250000 0.552721 0.750000
O O18 0.500000 0.550382 0.659938
O O19 0.313223 0.466019 0.645433
O O20 0.750000 0.620535 0.250000
O O21 0.500000 0.618359 0.341778
O O22 0.500000 0.045753 0.583523
O O23 0.730099 0.000000 0.500000
#
# Coordination Sequence:
#
# PCOD8220106 Si02
#       8
#     8   8   8   8   8   8   8   8
#     4  11  22  35  55  82 113 146 182 224 273 331
#     4  11  23  38  60  85 113 149 189 233 280 335
#     4  10  22  41  61  82 110 145 187 234 283 333
#     4  11  22  36  57  84 116 154 193 239 290 344
#     4  10  23  42  62  86 115 146 185 233 286 339
#     4  10  20  34  54  83 119 156 195 239 286 343
#     4  10  21  37  57  83 117 156 196 238 285 338
#     4  10  20  36  56  82 116 150 183 225 274 330
#
# _framework density 20.387377999999998
#
# number of rings (size 3 to 8) (size 9 to 14) (size 15 to 20)
#    0.000    1.625    1.250    3.375    0.000    9.250 
#    0.000    0.625    0.000    1.500    0.000    0.000 
#    0.000    0.000    0.000    0.000    0.000    0.000 
#
# Total GULP energy -793797.881684 kJ/mol
# GULP energy per Si atom -12403.091901 kJ/mol
# Density = 2.034098 g / cm^3
# Si number density = 20.387378 Si / 1000 Ang^3
#
#
#
# Elastic Constant Matrix: (Units=GPa)
#
#
# Indices 1 2 3 4 5 6 
#
# 1 123.9979 34.2636 73.6174 0.0000 0.0000 0.0000
# 2 34.2636 52.6483 33.4019 0.0000 0.0000 0.0000
# 3 73.6174 33.4019 158.3342 0.0000 0.0000 0.0000
# 4 0.0000 0.0000 0.0000 28.9885 0.0000 0.0000
# 5 0.0000 0.0000 0.0000 0.0000 41.5208 0.0000
# 6 0.0000 0.0000 0.0000 0.0000 0.0000 19.9437
#
#
#
# Elastic Compliance Matrix: (Units=1/GPa)
#
#
# Indices 1 2 3 4 5 6 
#
# 1 0.012184 -0.005005 -0.004609 0.000000 0.000000 0.000000
# 2 -0.005005 0.023985 -0.002733 0.000000 0.000000 0.000000
# 3 -0.004609 -0.002733 0.009035 0.000000 0.000000 0.000000
# 4 0.000000 0.000000 0.000000 0.034496 0.000000 0.000000
# 5 0.000000 0.000000 0.000000 0.000000 0.024084 0.000000
# 6 0.000000 0.000000 0.000000 0.000000 0.000000 0.050141
#
#
# Mechanical properties :
#
#
# Convention : Reuss Voigt Hill
#
# Bulk Modulus (GPa) = 48.75574 68.61626 58.68600
# Shear Modulus (GPa) = 26.96039 31.00377 28.98208
#
# Velocity S-wave (km/s) = 3.64043 3.90389 3.77446
# Velocity P-wave (km/s) = 6.45267 7.35186 6.91689
#
# Compressibility (1/GPa) = 0.02051041
#
# Stress axis : x y z
#
# Youngs Moduli (GPa) = 82.07374 41.69248 110.67779
#
# Poissons Ratio (x) = 0.20868 0.51013
# Poissons Ratio (y) = 0.41080 0.30244
# Poissons Ratio (z) = 0.37829 0.11393
#
# Static dielectric constant tensor:
#      x y z
#    x 3.728480 0.000000 0.000000 
#    y 0.000000 3.431810 0.000000 
#    z 0.000000 0.000000 3.884730 
# 
# 
# High freq. dielectric constant tensor:
#      x y z
#    x 1.802250 0.000000 0.000000 
#    y 0.000000 1.768850 0.000000 
#    z 0.000000 0.000000 1.812590 
# 
# From -- ./inp_files/20808.got.cif
#   From: 2010.03.12/outbox.cif.g09.slc.cpg/sg53_11_cif.got.tgz:20808.got - 2010.04.16 14:36:59.
