data_PCOD8220610
_publ_section_title
;
Structure prediction by ZEFSAII (Michael W. Deem and Ramdas Pophale) SiO2 
 PCOD8220610
Probable space group: P M N A
;
_chemical_formula_sum "Si O2"
_cell_formula_units_Z 64
_cell_length_a 8.935778
_cell_length_b 24.315910
_cell_length_c 14.462113
_cell_angle_alpha 90.000000
_cell_angle_beta 90.000000
_cell_angle_gamma 90.000000
_cell_volume 3142.350671
_symmetry_space_group_name_H-M "P M N A"
_symmetry_group_IT_number 53
_symmetry_cell_setting 'orthorhombic'
loop_
_space_group_symop_operation_xyz
x,y,z
1/2-x,-y,1/2+z
x,-y,-z
1/2-x,y,1/2-z
-x,-y,-z
1/2+x,y,1/2-z
-x,y,z
1/2+x,-y,1/2+z
loop_
_atom_site_type_symbol
_atom_site_label
_atom_site_fract_x
_atom_site_fract_y
_atom_site_fract_z
Si Si1 0.173669 0.370376 0.541283
Si Si2 0.669043 0.985359 0.606365
Si Si3 0.676012 0.596272 0.842868
Si Si4 0.178195 0.725578 0.148912
Si Si5 0.675853 0.817947 0.022496
Si Si6 0.172554 0.472776 0.659751
Si Si7 0.178069 0.137971 0.152759
Si Si8 0.328815 0.909810 0.163403
O O1 0.218338 0.367212 0.432758
O O2 0.280290 0.332069 0.601711
O O3 0.200246 0.433353 0.572462
O O4 0.000000 0.353339 0.556172
O O5 0.500000 0.992561 0.642120
O O6 0.726526 0.924049 0.626963
O O7 0.681062 0.000000 0.500000
O O8 0.774055 0.027532 0.659759
O O9 0.750000 0.621440 0.750000
O O10 0.500000 0.596981 0.828621
O O11 0.735361 0.534021 0.860228
O O12 0.250000 0.729858 0.250000
O O13 0.244090 0.772499 0.083710
O O14 0.000000 0.731252 0.157343
O O15 0.500000 0.804383 0.013543
O O16 0.704697 0.877101 0.069645
O O17 0.752065 0.820342 0.922154
O O18 0.250000 0.446771 0.750000
O O19 0.000000 0.476894 0.683776
O O20 0.250000 0.154566 0.250000
O O21 0.000000 0.145056 0.154967
O O22 0.250000 0.879495 0.250000
O O23 0.500000 0.910076 0.188133
#
# Coordination Sequence:
#
# PCOD8220610 Si02
#       8
#     8   8   8   8   8   8   8   8
#     4  10  20  36  58  84 117 157 200 246 296 351
#     4  10  20  36  58  86 121 160 196 236 285 343
#     4   9  18  33  54  82 118 159 200 243 291 345
#     4  12  26  44  66  91 119 151 191 241 298 357
#     4  11  24  43  65  89 116 151 196 246 299 352
#     4   9  17  30  51  81 117 157 198 240 291 350
#     4  11  23  40  63  90 123 161 201 245 294 349
#     4  11  23  36  57  86 117 152 191 236 287 347
#
# _framework density 20.366917999999998
#
# number of rings (size 3 to 8) (size 9 to 14) (size 15 to 20)
#    0.000    1.625    1.250    3.750    0.000    8.250 
#    0.000    0.625    0.000    5.250    0.000    0.000 
#    0.000    0.000    0.000    0.000    0.000    0.000 
#
# Total GULP energy -793622.154336 kJ/mol
# GULP energy per Si atom -12400.346162 kJ/mol
# Density = 2.032056 g / cm^3
# Si number density = 20.366918 Si / 1000 Ang^3
#
#
#
# Elastic Constant Matrix: (Units=GPa)
#
#
# Indices 1 2 3 4 5 6 
#
# 1 101.4294 37.5505 66.4788 0.0000 0.0000 0.0000
# 2 37.5505 65.3534 42.5622 0.0000 0.0000 0.0000
# 3 66.4788 42.5622 159.4420 0.0000 0.0000 0.0000
# 4 0.0000 0.0000 0.0000 29.3109 0.0000 0.0000
# 5 0.0000 0.0000 0.0000 0.0000 38.7086 0.0000
# 6 0.0000 0.0000 0.0000 0.0000 0.0000 24.9749
#
#
#
# Elastic Compliance Matrix: (Units=1/GPa)
#
#
# Indices 1 2 3 4 5 6 
#
# 1 0.015050 -0.005520 -0.004801 0.000000 0.000000 0.000000
# 2 -0.005520 0.020546 -0.003183 0.000000 0.000000 0.000000
# 3 -0.004801 -0.003183 0.009123 0.000000 0.000000 0.000000
# 4 0.000000 0.000000 0.000000 0.034117 0.000000 0.000000
# 5 0.000000 0.000000 0.000000 0.000000 0.025834 0.000000
# 6 0.000000 0.000000 0.000000 0.000000 0.000000 0.040040
#
#
# Mechanical properties :
#
#
# Convention : Reuss Voigt Hill
#
# Bulk Modulus (GPa) = 56.46492 68.82309 62.64401
# Shear Modulus (GPa) = 28.14949 30.57443 29.36196
#
# Velocity S-wave (km/s) = 3.72172 3.87871 3.80103
# Velocity P-wave (km/s) = 6.80090 7.34331 7.07730
#
# Compressibility (1/GPa) = 0.01771011
#
# Stress axis : x y z
#
# Youngs Moduli (GPa) = 66.44695 48.67068 109.60759
#
# Poissons Ratio (x) = 0.26867 0.52626
# Poissons Ratio (y) = 0.36680 0.34889
# Poissons Ratio (z) = 0.31903 0.15492
#
# Static dielectric constant tensor:
#      x y z
#    x 3.671450 0.000000 0.000000 
#    y 0.000000 3.614810 0.000000 
#    z 0.000000 0.000000 4.007340 
# 
# 
# High freq. dielectric constant tensor:
#      x y z
#    x 1.792910 0.000000 0.000000 
#    y 0.000000 1.776750 0.000000 
#    z 0.000000 0.000000 1.811320 
# 
# From -- ./inp_files/21012.got.cif
#   From: 2010.03.12/outbox.cif.g09.slc.cpg/sg53_11_cif.got.tgz:21012.got - 2010.04.16 14:36:59.
