data_PCOD8220768
_publ_section_title
;
Structure prediction by ZEFSAII (Michael W. Deem and Ramdas Pophale) SiO2 
 PCOD8220768
Probable space group: P M N A
;
_chemical_formula_sum "Si O2"
_cell_formula_units_Z 48
_cell_length_a 8.734565
_cell_length_b 30.338853
_cell_length_c 9.148664
_cell_angle_alpha 90.000000
_cell_angle_beta 90.000000
_cell_angle_gamma 90.000000
_cell_volume 2424.365619
_symmetry_space_group_name_H-M "P M N A"
_symmetry_group_IT_number 53
_symmetry_cell_setting 'orthorhombic'
loop_
_space_group_symop_operation_xyz
x,y,z
1/2-x,-y,1/2+z
x,-y,-z
1/2-x,y,1/2-z
-x,-y,-z
1/2+x,y,1/2-z
-x,y,z
1/2+x,-y,1/2+z
loop_
_atom_site_type_symbol
_atom_site_label
_atom_site_fract_x
_atom_site_fract_y
_atom_site_fract_z
Si Si1 0.680844 0.374796 0.407360
Si Si2 0.181473 0.194878 0.905385
Si Si3 0.681071 0.458052 0.590863
Si Si4 0.176936 0.956393 0.094212
Si Si5 0.681464 0.879656 0.907847
Si Si6 0.679752 0.295001 0.598246
O O1 0.750000 0.382060 0.250000
O O2 0.500000 0.376031 0.393165
O O3 0.739814 0.413825 0.511689
O O4 0.737679 0.327878 0.471842
O O5 0.250000 0.179466 0.750000
O O6 0.229970 0.245176 0.939328
O O7 0.000000 0.188205 0.901451
O O8 0.254239 0.166806 0.035618
O O9 0.740510 0.500000 0.500000
O O10 0.750000 0.460313 0.750000
O O11 0.500000 0.458418 0.604278
O O12 0.250000 0.966547 0.250000
O O13 0.000000 0.942421 0.110565
O O14 0.269764 0.917205 0.020190
O O15 0.195079 0.000000 0.000000
O O16 0.750000 0.890560 0.750000
O O17 0.500000 0.877562 0.896011
O O18 0.750000 0.311059 0.750000
O O19 0.500000 0.298085 0.617019
#
# Coordination Sequence:
#
# PCOD8220768 Si02
#       6
#     8   8   8   8   8   8
#     4  10  21  36  53  78 110 143 183 227 274 329
#     4  10  20  37  59  84 114 148 189 234 283 337
#     4  10  21  36  55  80 109 141 180 225 272 327
#     4  11  24  42  65  92 122 156 194 236 283 335
#     4  12  25  41  61  86 118 154 193 237 286 338
#     4   9  19  35  56  81 109 143 184 230 277 331
#
# _framework density 19.798995000000001
#
# number of rings (size 3 to 8) (size 9 to 14) (size 15 to 20)
#    0.000    1.667    0.000    4.500    0.000    5.667 
#    0.000    1.667    0.000    0.000    0.000    0.000 
#    0.000    0.000    0.000    0.000    0.000    0.000 
#
# Total GULP energy -595422.457927 kJ/mol
# GULP energy per Si atom -12404.634540 kJ/mol
# Density = 1.975393 g / cm^3
# Si number density = 19.798995 Si / 1000 Ang^3
#
#
#
# Elastic Constant Matrix: (Units=GPa)
#
#
# Indices 1 2 3 4 5 6 
#
# 1 82.4647 38.7964 46.0276 0.0000 0.0000 0.0000
# 2 38.7964 111.4369 60.3526 0.0000 0.0000 0.0000
# 3 46.0276 60.3526 151.5137 0.0000 0.0000 0.0000
# 4 0.0000 0.0000 0.0000 15.0646 0.0000 0.0000
# 5 0.0000 0.0000 0.0000 0.0000 39.1948 0.0000
# 6 0.0000 0.0000 0.0000 0.0000 0.0000 15.1361
#
#
#
# Elastic Compliance Matrix: (Units=1/GPa)
#
#
# Indices 1 2 3 4 5 6 
#
# 1 0.015701 -0.003676 -0.003305 0.000000 0.000000 0.000000
# 2 -0.003676 0.012303 -0.003784 0.000000 0.000000 0.000000
# 3 -0.003305 -0.003784 0.009111 0.000000 0.000000 0.000000
# 4 0.000000 0.000000 0.000000 0.066381 0.000000 0.000000
# 5 0.000000 0.000000 0.000000 0.000000 0.025514 0.000000
# 6 0.000000 0.000000 0.000000 0.000000 0.000000 0.066067
#
#
# Mechanical properties :
#
#
# Convention : Reuss Voigt Hill
#
# Bulk Modulus (GPa) = 64.16671 70.64095 67.40383
# Shear Modulus (GPa) = 22.54266 27.22835 24.88550
#
# Velocity S-wave (km/s) = 3.37794 3.71244 3.54914
# Velocity P-wave (km/s) = 6.90604 7.35750 7.13534
#
# Compressibility (1/GPa) = 0.01558441
#
# Stress axis : x y z
#
# Youngs Moduli (GPa) = 63.69144 81.28254 109.75253
#
# Poissons Ratio (x) = 0.29880 0.36277
# Poissons Ratio (y) = 0.23413 0.41529
# Poissons Ratio (z) = 0.21052 0.30756
#
# Static dielectric constant tensor:
#      x y z
#    x 3.598540 0.000000 0.000000 
#    y 0.000000 3.971270 0.000000 
#    z 0.000000 0.000000 3.614290 
# 
# 
# High freq. dielectric constant tensor:
#      x y z
#    x 1.772290 0.000000 0.000000 
#    y 0.000000 1.789090 0.000000 
#    z 0.000000 0.000000 1.778670 
# 
# From -- ./inp_files/6661.got.cif
#   From: 2010.03.12/outbox.cif.g09.slc.cpg/sg53_4_cif.got.tgz:6661.got - 2010.04.16 14:36:59.
