data_PCOD8220542
_publ_section_title
;
Structure prediction by ZEFSAII (Michael W. Deem and Ramdas Pophale) SiO2 
 PCOD8220542
Probable space group: P M N A
;
_chemical_formula_sum "Si O2"
_cell_formula_units_Z 40
_cell_length_a 8.676222
_cell_length_b 25.491887
_cell_length_c 9.190425
_cell_angle_alpha 90.000000
_cell_angle_beta 90.000000
_cell_angle_gamma 90.000000
_cell_volume 2032.676357
_symmetry_space_group_name_H-M "P M N A"
_symmetry_group_IT_number 53
_symmetry_cell_setting 'orthorhombic'
loop_
_space_group_symop_operation_xyz
x,y,z
1/2-x,-y,1/2+z
x,-y,-z
1/2-x,y,1/2-z
-x,-y,-z
1/2+x,y,1/2-z
-x,y,z
1/2+x,-y,1/2+z
loop_
_atom_site_type_symbol
_atom_site_label
_atom_site_fract_x
_atom_site_fract_y
_atom_site_fract_z
Si Si1 0.182624 0.247563 0.905011
Si Si2 0.817775 0.358766 0.594168
Si Si3 0.178758 0.448640 0.094720
Si Si4 0.181648 0.149003 0.091437
Si Si5 0.317503 0.949869 0.409675
O O1 0.250000 0.230307 0.750000
O O2 0.253403 0.302611 0.956351
O O3 0.000000 0.253080 0.891132
O O4 0.232790 0.204238 0.022191
O O5 0.750000 0.375572 0.750000
O O6 0.770124 0.400417 0.473884
O O7 0.000000 0.355874 0.607956
O O8 0.250000 0.461279 0.250000
O O9 0.000000 0.433627 0.107929
O O10 0.204493 0.500000 0.000000
O O11 0.250000 0.143310 0.250000
O O12 0.000000 0.145191 0.104241
O O13 0.244702 0.102100 0.990457
O O14 0.250000 0.952424 0.250000
O O15 0.500000 0.949225 0.397349
O O16 0.258983 0.000000 0.500000
#
# Coordination Sequence:
#
# PCOD8220542 Si02
#       5
#     8   8   8   8   8
#     4  10  20  36  57  82 112 146 189 234 280 336
#     4  11  22  38  61  87 117 152 191 235 285 338
#     4  11  24  41  62  88 118 152 191 234 282 337
#     4  10  22  37  55  81 112 147 187 232 279 333
#     4  10  21  37  57  83 113 145 185 230 278 334
#
# _framework density 19.678488999999999
#
# number of rings (size 3 to 8) (size 9 to 14) (size 15 to 20)
#    0.000    1.600    0.000    6.000    0.000    6.800 
#    0.000    2.000    0.000    0.000    0.000    0.000 
#    0.000    0.000    0.000    0.000    0.000    0.000 
#
# Total GULP energy -496195.294663 kJ/mol
# GULP energy per Si atom -12404.882367 kJ/mol
# Density = 1.963370 g / cm^3
# Si number density = 19.678489 Si / 1000 Ang^3
#
#
#
# Elastic Constant Matrix: (Units=GPa)
#
#
# Indices 1 2 3 4 5 6 
#
# 1 92.0703 55.4279 46.6924 0.0000 0.0000 0.0000
# 2 55.4279 129.6498 80.2006 0.0000 0.0000 0.0000
# 3 46.6924 80.2006 150.9040 0.0000 0.0000 0.0000
# 4 0.0000 0.0000 0.0000 94.7087 0.0000 0.0000
# 5 0.0000 0.0000 0.0000 0.0000 38.0805 0.0000
# 6 0.0000 0.0000 0.0000 0.0000 0.0000 6.0984
#
#
#
# Elastic Compliance Matrix: (Units=1/GPa)
#
#
# Indices 1 2 3 4 5 6 
#
# 1 0.014958 -0.005262 -0.001832 0.000000 0.000000 0.000000
# 2 -0.005262 0.013342 -0.005463 0.000000 0.000000 0.000000
# 3 -0.001832 -0.005463 0.010097 0.000000 0.000000 0.000000
# 4 0.000000 0.000000 0.000000 0.010559 0.000000 0.000000
# 5 0.000000 0.000000 0.000000 0.000000 0.026260 0.000000
# 6 0.000000 0.000000 0.000000 0.000000 0.000000 0.163978
#
#
# Mechanical properties :
#
#
# Convention : Reuss Voigt Hill
#
# Bulk Modulus (GPa) = 75.27803 81.91843 78.59823
# Shear Modulus (GPa) = 18.60578 40.46441 29.53510
#
# Velocity S-wave (km/s) = 3.07822 4.53954 3.87833
# Velocity P-wave (km/s) = 7.13939 8.31837 7.75133
#
# Compressibility (1/GPa) = 0.01328409
#
# Stress axis : x y z
#
# Youngs Moduli (GPa) = 66.85454 74.95302 99.04178
#
# Poissons Ratio (x) = 0.39437 0.18143
# Poissons Ratio (y) = 0.35176 0.54103
# Poissons Ratio (z) = 0.12247 0.40944
#
# Static dielectric constant tensor:
#      x y z
#    x 3.609120 0.000000 0.000000 
#    y 0.000000 3.877640 0.000000 
#    z 0.000000 0.000000 3.508680 
# 
# 
# High freq. dielectric constant tensor:
#      x y z
#    x 1.771520 0.000000 0.000000 
#    y 0.000000 1.784380 0.000000 
#    z 0.000000 0.000000 1.772570 
# 
# From -- ./inp_files/6293.got.cif
#   From: 2010.03.12/outbox.cif.g09.slc.cpg/sg53_4_cif.got.tgz:6293.got - 2010.04.16 14:36:59.
