data_PCOD8220097
_publ_section_title
;
Structure prediction by ZEFSAII (Michael W. Deem and Ramdas Pophale) SiO2 
 PCOD8220097
Probable space group: P M N A
;
_chemical_formula_sum "Si O2"
_cell_formula_units_Z 48
_cell_length_a 9.273105
_cell_length_b 14.804708
_cell_length_c 19.185218
_cell_angle_alpha 90.000000
_cell_angle_beta 90.000000
_cell_angle_gamma 90.000000
_cell_volume 2633.854390
_symmetry_space_group_name_H-M "P M N A"
_symmetry_group_IT_number 53
_symmetry_cell_setting 'orthorhombic'
loop_
_space_group_symop_operation_xyz
x,y,z
1/2-x,-y,1/2+z
x,-y,-z
1/2-x,y,1/2-z
-x,-y,-z
1/2+x,y,1/2-z
-x,y,z
1/2+x,-y,1/2+z
loop_
_atom_site_type_symbol
_atom_site_label
_atom_site_fract_x
_atom_site_fract_y
_atom_site_fract_z
Si Si1 0.832843 0.239191 0.592537
Si Si2 0.165715 0.071494 0.682680
Si Si3 0.330819 0.726464 0.934916
Si Si4 0.830677 0.132647 0.319303
Si Si5 0.833957 0.545586 0.929471
Si Si6 0.332553 0.612074 0.321569
O O1 0.804861 0.136677 0.617310
O O2 0.785053 0.244627 0.512445
O O3 0.733478 0.304478 0.637144
O O4 0.000000 0.266811 0.602477
O O5 0.250000 0.107897 0.750000
O O6 0.000000 0.072626 0.704519
O O7 0.214172 0.970228 0.662143
O O8 0.500000 0.709616 0.929507
O O9 0.280026 0.805829 0.883505
O O10 0.253733 0.635052 0.911820
O O11 0.750000 0.165973 0.250000
O O12 0.000000 0.141740 0.305895
O O13 0.812223 0.478627 0.865413
O O14 0.000000 0.572143 0.940853
O O15 0.772584 0.500000 0.000000
O O16 0.250000 0.597466 0.250000
O O17 0.500000 0.632667 0.307044
#
# Coordination Sequence:
#
# PCOD8220097 Si02
#       6
#     8   8   8   8   8   8
#     4  10  20  34  54  82 111 142 179 221 270 321
#     4   9  18  33  53  76 107 144 180 219 266 318
#     4  10  21  35  56  83 109 140 180 225 272 320
#     4   9  19  36  55  78 108 143 182 224 269 319
#     4  10  21  39  58  77 105 143 181 218 269 323
#     4  11  23  38  57  81 110 142 179 223 269 322
#
# _framework density 18.224242
#
# number of rings (size 3 to 8) (size 9 to 14) (size 15 to 20)
#    0.000    2.167    1.667    1.000    0.000    5.667 
#    0.000    6.667    0.000    0.000    0.000    7.000 
#    0.000    0.000    0.000    0.000    0.000    0.000 
#
# Total GULP energy -595357.520662 kJ/mol
# GULP energy per Si atom -12403.281680 kJ/mol
# Density = 1.818276 g / cm^3
# Si number density = 18.224242 Si / 1000 Ang^3
#
#
#
# Elastic Constant Matrix: (Units=GPa)
#
#
# Indices 1 2 3 4 5 6 
#
# 1 60.9487 48.5852 55.6586 0.0000 0.0000 0.0000
# 2 48.5852 113.2908 66.4339 0.0000 0.0000 0.0000
# 3 55.6586 66.4339 137.9638 0.0000 0.0000 0.0000
# 4 0.0000 0.0000 0.0000 33.3281 0.0000 0.0000
# 5 0.0000 0.0000 0.0000 0.0000 25.3844 0.0000
# 6 0.0000 0.0000 0.0000 0.0000 0.0000 24.1468
#
#
#
# Elastic Compliance Matrix: (Units=1/GPa)
#
#
# Indices 1 2 3 4 5 6 
#
# 1 0.030621 -0.008205 -0.008403 0.000000 0.000000 0.000000
# 2 -0.008205 0.014498 -0.003671 0.000000 0.000000 0.000000
# 3 -0.008403 -0.003671 0.012406 0.000000 0.000000 0.000000
# 4 0.000000 0.000000 0.000000 0.030005 0.000000 0.000000
# 5 0.000000 0.000000 0.000000 0.000000 0.039394 0.000000
# 6 0.000000 0.000000 0.000000 0.000000 0.000000 0.041413
#
#
# Mechanical properties :
#
#
# Convention : Reuss Voigt Hill
#
# Bulk Modulus (GPa) = 58.93445 72.61765 65.77605
# Shear Modulus (GPa) = 23.30454 26.00691 24.65572
#
# Velocity S-wave (km/s) = 3.57986 3.78173 3.68218
# Velocity P-wave (km/s) = 7.03533 7.68127 7.36539
#
# Compressibility (1/GPa) = 0.01696800
#
# Stress axis : x y z
#
# Youngs Moduli (GPa) = 32.65762 68.97345 80.60598
#
# Poissons Ratio (x) = 0.56590 0.67730
# Poissons Ratio (y) = 0.26794 0.29594
# Poissons Ratio (z) = 0.27441 0.25323
#
# Static dielectric constant tensor:
#      x y z
#    x 3.389090 0.000000 0.000000 
#    y 0.000000 3.445270 0.000000 
#    z 0.000000 0.000000 3.531140 
# 
# 
# High freq. dielectric constant tensor:
#      x y z
#    x 1.703060 0.000000 0.000000 
#    y 0.000000 1.712470 0.000000 
#    z 0.000000 0.000000 1.709530 
# 
# From -- ./inp_files/21790.got.cif
#   From: 2010.03.12/outbox.cif.g09.slc.cpg/sg53_11_cif.got.tgz:21790.got - 2010.04.16 14:36:59.
