data_PCOD8220055
_publ_section_title
;
Structure prediction by ZEFSAII (Michael W. Deem and Ramdas Pophale) SiO2 
 PCOD8220055
Probable space group: P M N A
;
_chemical_formula_sum "Si O2"
_cell_formula_units_Z 64
_cell_length_a 8.791963
_cell_length_b 14.685607
_cell_length_c 24.773563
_cell_angle_alpha 90.000000
_cell_angle_beta 90.000000
_cell_angle_gamma 90.000000
_cell_volume 3198.646350
_symmetry_space_group_name_H-M "P M N A"
_symmetry_group_IT_number 53
_symmetry_cell_setting 'orthorhombic'
loop_
_space_group_symop_operation_xyz
x,y,z
1/2-x,-y,1/2+z
x,-y,-z
1/2-x,y,1/2-z
-x,-y,-z
1/2+x,y,1/2-z
-x,y,z
1/2+x,-y,1/2+z
loop_
_atom_site_type_symbol
_atom_site_label
_atom_site_fract_x
_atom_site_fract_y
_atom_site_fract_z
Si Si1 0.321364 0.514845 0.562057
Si Si2 0.827138 0.022606 0.667326
Si Si3 0.322300 0.654560 0.104846
Si Si4 0.325076 0.717631 0.598165
Si Si5 0.320461 0.177127 0.195239
Si Si6 0.319895 0.213110 0.693894
Si Si7 0.328785 0.063390 0.952117
Si Si8 0.326097 0.763192 0.480946
O O1 0.266678 0.500000 0.500000
O O2 0.500000 0.496078 0.565672
O O3 0.236708 0.449144 0.605240
O O4 0.278859 0.615043 0.582994
O O5 0.726190 0.107661 0.685611
O O6 0.822254 0.008578 0.603171
O O7 0.000000 0.040907 0.686883
O O8 0.761128 0.927305 0.689643
O O9 0.500000 0.659345 0.116798
O O10 0.239541 0.720437 0.147237
O O11 0.282099 0.686329 0.044092
O O12 0.500000 0.723733 0.616059
O O13 0.225085 0.758022 0.645998
O O14 0.293680 0.776901 0.544326
O O15 0.250000 0.218101 0.250000
O O16 0.500000 0.177316 0.198891
O O17 0.250000 0.248627 0.750000
O O18 0.500000 0.219666 0.695945
O O19 0.500000 0.100823 0.962834
O O20 0.208969 0.144762 0.948851
O O21 0.273419 0.000000 0.000000
O O22 0.500000 0.732932 0.471321
#
# Coordination Sequence:
#
# PCOD8220055 Si02
#       8
#     8   8   8   8   8   8   8   8
#     4  10  20  40  66  93 127 163 202 251 308 368
#     4  10  21  38  60  89 123 162 208 257 305 359
#     4  12  24  39  61  92 128 162 202 252 305 367
#     4  10  22  40  64  92 125 162 204 254 307 366
#     4  11  24  42  64  89 123 164 210 259 308 361
#     4  12  25  42  65  91 123 164 209 258 310 367
#     4  10  20  34  53  82 123 166 204 251 309 364
#     4  11  21  36  58  88 123 163 203 247 306 365
#
# _framework density 20.008464
#
# number of rings (size 3 to 8) (size 9 to 14) (size 15 to 20)
#    0.000    1.250    2.500    4.125    0.000    5.000 
#    0.000    0.625    0.000    3.000    0.000    0.000 
#    0.000    0.000    0.000    0.000    0.000    0.000 
#
# Total GULP energy -793605.823317 kJ/mol
# GULP energy per Si atom -12400.090989 kJ/mol
# Density = 1.996292 g / cm^3
# Si number density = 20.008464 Si / 1000 Ang^3
#
#
#
# Elastic Constant Matrix: (Units=GPa)
#
#
# Indices 1 2 3 4 5 6 
#
# 1 104.1383 46.4318 45.6106 0.0000 0.0000 0.0000
# 2 46.4318 99.5157 44.8515 0.0000 0.0000 0.0000
# 3 45.6106 44.8515 107.4984 0.0000 0.0000 0.0000
# 4 0.0000 0.0000 0.0000 18.9920 0.0000 0.0000
# 5 0.0000 0.0000 0.0000 0.0000 31.4765 0.0000
# 6 0.0000 0.0000 0.0000 0.0000 0.0000 31.2267
#
#
#
# Elastic Compliance Matrix: (Units=1/GPa)
#
#
# Indices 1 2 3 4 5 6 
#
# 1 0.013246 -0.004492 -0.003746 0.000000 0.000000 0.000000
# 2 -0.004492 0.013899 -0.003893 0.000000 0.000000 0.000000
# 3 -0.003746 -0.003893 0.012516 0.000000 0.000000 0.000000
# 4 0.000000 0.000000 0.000000 0.052654 0.000000 0.000000
# 5 0.000000 0.000000 0.000000 0.000000 0.031770 0.000000
# 6 0.000000 0.000000 0.000000 0.000000 0.000000 0.032024
#
#
# Mechanical properties :
#
#
# Convention : Reuss Voigt Hill
#
# Bulk Modulus (GPa) = 64.93909 64.99334 64.96621
# Shear Modulus (GPa) = 26.95352 27.95628 27.45490
#
# Velocity S-wave (km/s) = 3.67428 3.74200 3.70829
# Velocity P-wave (km/s) = 7.10821 7.15706 7.13268
#
# Compressibility (1/GPa) = 0.01539904
#
# Stress axis : x y z
#
# Youngs Moduli (GPa) = 75.49361 71.94644 79.89628
#
# Poissons Ratio (x) = 0.32319 0.29929
# Poissons Ratio (y) = 0.33912 0.31105
# Poissons Ratio (z) = 0.28280 0.28010
#
# Static dielectric constant tensor:
#      x y z
#    x 3.562530 0.000000 0.000000 
#    y 0.000000 3.747640 0.000000 
#    z 0.000000 0.000000 3.733060 
# 
# 
# High freq. dielectric constant tensor:
#      x y z
#    x 1.777090 0.000000 0.000000 
#    y 0.000000 1.777360 0.000000 
#    z 0.000000 0.000000 1.783370 
# 
# From -- ./inp_files/34192.got.cif
#   From: 2010.03.12/outbox.cif.g09.slc.cpg/sg53_18_cif.got.tgz:34192.got - 2010.04.16 14:36:59.
