data_PCOD8220363
_publ_section_title
;
Structure prediction by ZEFSAII (Michael W. Deem and Ramdas Pophale) SiO2 
 PCOD8220363
Probable space group: P M N A
;
_chemical_formula_sum "Si O2"
_cell_formula_units_Z 40
_cell_length_a 8.789900
_cell_length_b 25.482761
_cell_length_c 9.163117
_cell_angle_alpha 90.000000
_cell_angle_beta 90.000000
_cell_angle_gamma 90.000000
_cell_volume 2052.455015
_symmetry_space_group_name_H-M "P M N A"
_symmetry_group_IT_number 53
_symmetry_cell_setting 'orthorhombic'
loop_
_space_group_symop_operation_xyz
x,y,z
1/2-x,-y,1/2+z
x,-y,-z
1/2-x,y,1/2-z
-x,-y,-z
1/2+x,y,1/2-z
-x,y,z
1/2+x,-y,1/2+z
loop_
_atom_site_type_symbol
_atom_site_label
_atom_site_fract_x
_atom_site_fract_y
_atom_site_fract_z
Si Si1 0.321805 0.256759 0.096059
Si Si2 0.822330 0.357113 0.591768
Si Si3 0.177691 0.448648 0.093238
Si Si4 0.180263 0.147847 0.094613
Si Si5 0.320563 0.950934 0.407386
O O1 0.250000 0.274493 0.250000
O O2 0.500000 0.248042 0.121024
O O3 0.246735 0.203081 0.038547
O O4 0.288190 0.299954 0.973741
O O5 0.750000 0.361728 0.750000
O O6 0.751369 0.399017 0.483560
O O7 0.000000 0.368420 0.605618
O O8 0.250000 0.457536 0.250000
O O9 0.000000 0.438061 0.111181
O O10 0.212812 0.500000 0.000000
O O11 0.250000 0.132819 0.250000
O O12 0.000000 0.152061 0.109374
O O13 0.231103 0.103199 0.982041
O O14 0.250000 0.953965 0.250000
O O15 0.500000 0.954086 0.392913
O O16 0.258062 0.000000 0.500000
#
# Coordination Sequence:
#
# PCOD8220363 Si02
#       5
#     8   8   8   8   8
#     4  10  21  37  58  84 113 148 189 232 281 335
#     4  11  24  40  60  86 117 154 194 238 287 338
#     4  11  24  41  63  90 120 154 192 236 285 339
#     4  10  20  35  57  83 111 145 185 229 278 333
#     4  10  22  38  56  81 111 144 184 228 276 331
#
# _framework density 19.488855999999998
#
# number of rings (size 3 to 8) (size 9 to 14) (size 15 to 20)
#    0.000    1.600    0.000    5.400    0.000   10.800 
#    0.000    4.000    0.000    0.000    0.000    0.000 
#    0.000    0.000    0.000    0.000    0.000    0.000 
#
# Total GULP energy -496184.250281 kJ/mol
# GULP energy per Si atom -12404.606257 kJ/mol
# Density = 1.944450 g / cm^3
# Si number density = 19.488856 Si / 1000 Ang^3
#
#
#
# Elastic Constant Matrix: (Units=GPa)
#
#
# Indices 1 2 3 4 5 6 
#
# 1 104.6854 77.1818 71.9640 0.0000 0.0000 0.0000
# 2 77.1818 134.1508 85.6595 0.0000 0.0000 0.0000
# 3 71.9640 85.6595 156.2319 0.0000 0.0000 0.0000
# 4 0.0000 0.0000 0.0000 4.0095 0.0000 0.0000
# 5 0.0000 0.0000 0.0000 0.0000 32.8351 0.0000
# 6 0.0000 0.0000 0.0000 0.0000 0.0000 87.8413
#
#
#
# Elastic Compliance Matrix: (Units=1/GPa)
#
#
# Indices 1 2 3 4 5 6 
#
# 1 0.018112 -0.007837 -0.004046 0.000000 0.000000 0.000000
# 2 -0.007837 0.014861 -0.004538 0.000000 0.000000 0.000000
# 3 -0.004046 -0.004538 0.010752 0.000000 0.000000 0.000000
# 4 0.000000 0.000000 0.000000 0.249410 0.000000 0.000000
# 5 0.000000 0.000000 0.000000 0.000000 0.030455 0.000000
# 6 0.000000 0.000000 0.000000 0.000000 0.000000 0.011384
#
#
# Mechanical properties :
#
#
# Convention : Reuss Voigt Hill
#
# Bulk Modulus (GPa) = 91.88329 96.07540 93.97934
# Shear Modulus (GPa) = 13.46099 35.62137 24.54118
#
# Velocity S-wave (km/s) = 2.63097 4.27989 3.55243
# Velocity P-wave (km/s) = 7.51520 8.59232 8.07175
#
# Compressibility (1/GPa) = 0.01088337
#
# Stress axis : x y z
#
# Youngs Moduli (GPa) = 55.21342 67.29075 93.00168
#
# Poissons Ratio (x) = 0.52735 0.37626
# Poissons Ratio (y) = 0.43270 0.42205
# Poissons Ratio (z) = 0.22338 0.30537
#
# Static dielectric constant tensor:
#      x y z
#    x 3.689220 0.000000 0.000000 
#    y 0.000000 3.890980 0.000000 
#    z 0.000000 0.000000 3.282610 
# 
# 
# High freq. dielectric constant tensor:
#      x y z
#    x 1.771710 0.000000 0.000000 
#    y 0.000000 1.777180 0.000000 
#    z 0.000000 0.000000 1.764290 
# 
# From -- ./inp_files/6305.got.cif
#   From: 2010.03.12/outbox.cif.g09.slc.cpg/sg53_4_cif.got.tgz:6305.got - 2010.04.16 14:36:59.
