data_PCOD8220095
_publ_section_title
;
Structure prediction by ZEFSAII (Michael W. Deem and Ramdas Pophale) SiO2 
 PCOD8220095
Probable space group: P M N A
;
_chemical_formula_sum "Si O2"
_cell_formula_units_Z 56
_cell_length_a 8.828831
_cell_length_b 15.324010
_cell_length_c 22.807301
_cell_angle_alpha 90.000000
_cell_angle_beta 90.000000
_cell_angle_gamma 90.000000
_cell_volume 3085.670330
_symmetry_space_group_name_H-M "P M N A"
_symmetry_group_IT_number 53
_symmetry_cell_setting 'orthorhombic'
loop_
_space_group_symop_operation_xyz
x,y,z
1/2-x,-y,1/2+z
x,-y,-z
1/2-x,y,1/2-z
-x,-y,-z
1/2+x,y,1/2-z
-x,y,z
1/2+x,-y,1/2+z
loop_
_atom_site_type_symbol
_atom_site_label
_atom_site_fract_x
_atom_site_fract_y
_atom_site_fract_z
Si Si1 0.176289 0.693173 0.313563
Si Si2 0.178594 0.670235 0.814214
Si Si3 0.673099 0.901863 0.512295
Si Si4 0.323864 0.499730 0.812946
Si Si5 0.826676 0.844475 0.116021
Si Si6 0.824956 0.830057 0.625120
Si Si7 0.323965 0.992583 0.188094
O O1 0.250000 0.705605 0.250000
O O2 0.201931 0.595981 0.341096
O O3 0.246007 0.758677 0.360148
O O4 0.000000 0.713065 0.305578
O O5 0.250000 0.683589 0.750000
O O6 0.240028 0.580591 0.845084
O O7 0.222570 0.749122 0.856311
O O8 0.000000 0.665821 0.807662
O O9 0.500000 0.903982 0.535425
O O10 0.687187 0.843654 0.454055
O O11 0.781170 0.858793 0.560029
O O12 0.729324 0.000000 0.500000
O O13 0.250000 0.493940 0.750000
O O14 0.500000 0.522576 0.807860
O O15 0.000000 0.844086 0.136615
O O16 0.749675 0.932109 0.139092
O O17 0.793705 0.907625 0.670908
O O18 0.000000 0.802458 0.625798
O O19 0.250000 0.971209 0.250000
O O20 0.500000 0.970536 0.191861
#
# Coordination Sequence:
#
# PCOD8220095 Si02
#       7
#     8   8   8   8   8   8   8
#     4  10  20  34  54  81 113 145 179 221 268 322
#     4  11  21  34  55  82 114 146 179 221 269 324
#     4  10  21  39  59  78 103 140 185 228 272 320
#     4   9  17  31  52  78 109 143 178 217 264 319
#     4  11  22  36  56  78 106 142 179 223 269 319
#     4  11  23  37  56  80 107 142 182 226 270 320
#     4  11  23  36  52  76 107 141 176 216 266 319
#
# _framework density 18.148406999999999
#
# number of rings (size 3 to 8) (size 9 to 14) (size 15 to 20)
#    0.000    1.571    1.429    5.143    0.000    6.000 
#    0.000    0.000    0.000    0.857    0.000    6.000 
#    0.000    0.000    0.000    0.000    0.000    0.000 
#
# Total GULP energy -694428.627500 kJ/mol
# GULP energy per Si atom -12400.511205 kJ/mol
# Density = 1.810710 g / cm^3
# Si number density = 18.148407 Si / 1000 Ang^3
#
#
#
# Elastic Constant Matrix: (Units=GPa)
#
#
# Indices 1 2 3 4 5 6 
#
# 1 131.4509 61.0466 30.5794 0.0000 0.0000 0.0000
# 2 61.0466 118.7112 25.9250 0.0000 0.0000 0.0000
# 3 30.5794 25.9250 59.4635 0.0000 0.0000 0.0000
# 4 0.0000 0.0000 0.0000 15.4598 0.0000 0.0000
# 5 0.0000 0.0000 0.0000 0.0000 27.0114 0.0000
# 6 0.0000 0.0000 0.0000 0.0000 0.0000 37.5030
#
#
#
# Elastic Compliance Matrix: (Units=1/GPa)
#
#
# Indices 1 2 3 4 5 6 
#
# 1 0.010579 -0.004699 -0.003391 0.000000 0.000000 0.000000
# 2 -0.004699 0.011398 -0.002553 0.000000 0.000000 0.000000
# 3 -0.003391 -0.002553 0.019674 0.000000 0.000000 0.000000
# 4 0.000000 0.000000 0.000000 0.064684 0.000000 0.000000
# 5 0.000000 0.000000 0.000000 0.000000 0.037021 0.000000
# 6 0.000000 0.000000 0.000000 0.000000 0.000000 0.026665
#
#
# Mechanical properties :
#
#
# Convention : Reuss Voigt Hill
#
# Bulk Modulus (GPa) = 49.10642 60.52530 54.81586
# Shear Modulus (GPa) = 25.24039 28.79980 27.02009
#
# Velocity S-wave (km/s) = 3.73336 3.98792 3.86274
# Velocity P-wave (km/s) = 6.76025 7.39103 7.08266
#
# Compressibility (1/GPa) = 0.02036394
#
# Stress axis : x y z
#
# Youngs Moduli (GPa) = 94.52884 87.73524 50.82872
#
# Poissons Ratio (x) = 0.41231 0.17238
# Poissons Ratio (y) = 0.44423 0.12974
# Poissons Ratio (z) = 0.32058 0.22395
#
# Static dielectric constant tensor:
#      x y z
#    x 3.525030 0.000000 0.000000 
#    y 0.000000 3.892340 0.000000 
#    z 0.000000 0.000000 3.061700 
# 
# 
# High freq. dielectric constant tensor:
#      x y z
#    x 1.721880 0.000000 0.000000 
#    y 0.000000 1.715500 0.000000 
#    z 0.000000 0.000000 1.671320 
# 
# From -- ./inp_files/30752.got.cif
#   From: 2010.03.12/outbox.cif.g09.slc.cpg/sg53_16_cif.got.tgz:30752.got - 2010.04.16 14:36:59.
