data_PCOD8220642
_publ_section_title
;
Structure prediction by ZEFSAII (Michael W. Deem and Ramdas Pophale) SiO2 
 PCOD8220642
Probable space group: P M N A
;
_chemical_formula_sum "Si O2"
_cell_formula_units_Z 52
_cell_length_a 17.379692
_cell_length_b 16.835637
_cell_length_c 9.481948
_cell_angle_alpha 90.000000
_cell_angle_beta 90.000000
_cell_angle_gamma 90.000000
_cell_volume 2774.400782
_symmetry_space_group_name_H-M "P M N A"
_symmetry_group_IT_number 53
_symmetry_cell_setting 'orthorhombic'
loop_
_space_group_symop_operation_xyz
x,y,z
1/2-x,-y,1/2+z
x,-y,-z
1/2-x,y,1/2-z
-x,-y,-z
1/2+x,y,1/2-z
-x,y,z
1/2+x,-y,1/2+z
loop_
_atom_site_type_symbol
_atom_site_label
_atom_site_fract_x
_atom_site_fract_y
_atom_site_fract_z
Si Si1 0.312897 0.671918 0.502241
Si Si2 0.360302 0.729383 0.981037
Si Si3 0.500000 0.493131 0.745052
Si Si4 0.090998 0.221461 0.195221
Si Si5 0.836319 0.202224 0.770524
Si Si6 0.000000 0.385485 0.502502
Si Si7 0.377017 0.500000 0.500000
Si Si8 0.590305 0.087642 0.518915
O O1 0.224029 0.691177 0.530518
O O2 0.367058 0.702231 0.628240
O O3 0.340425 0.716275 0.360255
O O4 0.322826 0.577343 0.489671
O O5 0.376409 0.789342 0.852145
O O6 0.422181 0.660768 0.974212
O O7 0.374237 0.780878 0.120360
O O8 0.500000 0.550907 0.878080
O O9 0.426428 0.502662 0.643638
O O10 0.500000 0.410261 0.831371
O O11 0.000000 0.237651 0.190660
O O12 0.114261 0.141157 0.114382
O O13 0.750000 0.172865 0.750000
O O14 0.880554 0.128971 0.839401
O O15 0.500000 0.080278 0.532873
O O16 0.626966 0.000000 0.500000
#
# Coordination Sequence:
#
# PCOD8220642 Si02
#       8
#     8   8   4   8   8   4   4   8
#     4  10  22  38  58  82 110 153 196 241 279 339
#     4  11  21  36  58  82 114 147 192 235 283 344
#     4  10  24  36  52  80 110 144 186 250 280 342
#     4  10  20  36  59  86 113 149 190 233 284 340
#     4   9  20  38  57  83 115 148 193 234 278 341
#     4  11  22  38  52  78 115 146 182 234 307 334
#     4  11  22  38  58  79 110 150 202 239 280 332
#     4   9  19  37  61  87 117 149 187 229 277 339
#
# _framework density 18.742785999999999
#
# number of rings (size 3 to 8) (size 9 to 14) (size 15 to 20)
#    0.000    2.000    0.769    2.308    3.231    1.231 
#    0.000   11.538    0.000    2.769    0.000    0.000 
#    0.000    0.000    0.000    0.000    0.000    0.000 
#
# Total GULP energy -644685.142104 kJ/mol
# GULP energy per Si atom -12397.791194 kJ/mol
# Density = 1.870013 g / cm^3
# Si number density = 18.742786 Si / 1000 Ang^3
#
#
#
# Elastic Constant Matrix: (Units=GPa)
#
#
# Indices 1 2 3 4 5 6 
#
# 1 66.5523 37.7268 38.0245 0.0000 0.0000 0.0000
# 2 37.7268 133.6481 52.2830 0.0000 0.0000 0.0000
# 3 38.0245 52.2830 148.3468 0.0000 0.0000 0.0000
# 4 0.0000 0.0000 0.0000 38.1764 0.0000 0.0000
# 5 0.0000 0.0000 0.0000 0.0000 40.6134 0.0000
# 6 0.0000 0.0000 0.0000 0.0000 0.0000 33.4718
#
#
#
# Elastic Compliance Matrix: (Units=1/GPa)
#
#
# Indices 1 2 3 4 5 6 
#
# 1 0.019354 -0.004086 -0.003521 0.000000 0.000000 0.000000
# 2 -0.004086 0.009542 -0.002315 0.000000 0.000000 0.000000
# 3 -0.003521 -0.002315 0.008459 0.000000 0.000000 0.000000
# 4 0.000000 0.000000 0.000000 0.026194 0.000000 0.000000
# 5 0.000000 0.000000 0.000000 0.000000 0.024622 0.000000
# 6 0.000000 0.000000 0.000000 0.000000 0.000000 0.029876
#
#
# Mechanical properties :
#
#
# Convention : Reuss Voigt Hill
#
# Bulk Modulus (GPa) = 57.10919 67.17955 62.14437
# Shear Modulus (GPa) = 34.78793 37.15318 35.97055
#
# Velocity S-wave (km/s) = 4.31289 4.45709 4.38558
# Velocity P-wave (km/s) = 7.43891 7.89989 7.67287
#
# Compressibility (1/GPa) = 0.01751032
#
# Stress axis : x y z
#
# Youngs Moduli (GPa) = 51.67021 104.80479 118.21089
#
# Poissons Ratio (x) = 0.42822 0.41618
# Poissons Ratio (y) = 0.21112 0.27372
# Poissons Ratio (z) = 0.18191 0.24267
#
# Static dielectric constant tensor:
#      x y z
#    x 3.431580 0.000000 0.000000 
#    y 0.000000 3.432870 0.000000 
#    z 0.000000 0.000000 3.865230 
# 
# 
# High freq. dielectric constant tensor:
#      x y z
#    x 1.730340 0.000000 0.000000 
#    y 0.000000 1.712300 0.000000 
#    z 0.000000 0.000000 1.744290 
# 
# From -- ./inp_files/10142.got.cif
#   From: 2010.03.12/outbox.cif.g09.slc.cpg/sg53_6_cif.got.tgz:10142.got - 2010.04.16 14:36:59.
