data_PCOD8220213
_publ_section_title
;
Structure prediction by ZEFSAII (Michael W. Deem and Ramdas Pophale) SiO2 
 PCOD8220213
Probable space group: P M N A
;
_chemical_formula_sum "Si O2"
_cell_formula_units_Z 48
_cell_length_a 8.838572
_cell_length_b 20.803723
_cell_length_c 13.946712
_cell_angle_alpha 90.000000
_cell_angle_beta 90.000000
_cell_angle_gamma 90.000000
_cell_volume 2564.454509
_symmetry_space_group_name_H-M "P M N A"
_symmetry_group_IT_number 53
_symmetry_cell_setting 'orthorhombic'
loop_
_space_group_symop_operation_xyz
x,y,z
1/2-x,-y,1/2+z
x,-y,-z
1/2-x,y,1/2-z
-x,-y,-z
1/2+x,y,1/2-z
-x,y,z
1/2+x,-y,1/2+z
loop_
_atom_site_type_symbol
_atom_site_label
_atom_site_fract_x
_atom_site_fract_y
_atom_site_fract_z
Si Si1 0.678524 0.536127 0.349444
Si Si2 0.172901 0.597873 0.654589
Si Si3 0.172816 0.648061 0.456070
Si Si4 0.820534 0.905708 0.454424
Si Si5 0.179016 0.033399 0.351530
Si Si6 0.179529 0.777709 0.354483
O O1 0.750000 0.559556 0.250000
O O2 0.500000 0.529967 0.341125
O O3 0.745923 0.467468 0.379743
O O4 0.720118 0.589853 0.426182
O O5 0.250000 0.626357 0.750000
O O6 0.184095 0.651548 0.571683
O O7 0.000000 0.580438 0.678285
O O8 0.232040 0.714487 0.411745
O O9 0.000000 0.634388 0.423987
O O10 0.767017 0.917293 0.564487
O O11 0.756501 0.838549 0.414025
O O12 0.000000 0.905830 0.454118
O O13 0.764416 0.962606 0.383979
O O14 0.250000 0.053324 0.250000
O O15 0.000000 0.035079 0.339813
O O16 0.250000 0.776649 0.250000
O O17 0.000000 0.781145 0.344918
#
# Coordination Sequence:
#
# PCOD8220213 Si02
#       6
#     8   8   8   8   8   8
#     4  11  21  33  52  76 101 128 160 201 248 296
#     4  10  20  35  53  72  96 126 162 204 248 294
#     4  10  21  35  51  72  99 130 163 201 246 294
#     4   8  16  31  50  71 100 136 167 196 241 296
#     4   9  16  29  50  75 101 131 166 204 244 285
#     4  10  20  35  53  73  98 130 165 199 240 291
#
# _framework density 18.717431000000001
#
# number of rings (size 3 to 8) (size 9 to 14) (size 15 to 20)
#    0.000    2.333    0.000    5.500    0.000    5.333 
#    0.000    3.333    0.000    0.000    0.000    0.000 
#    0.000    0.000    0.000    0.000    0.000    0.000 
#
# Total GULP energy -595076.290840 kJ/mol
# GULP energy per Si atom -12397.422726 kJ/mol
# Density = 1.867483 g / cm^3
# Si number density = 18.717431 Si / 1000 Ang^3
#
#
#
# Elastic Constant Matrix: (Units=GPa)
#
#
# Indices 1 2 3 4 5 6 
#
# 1 75.2057 25.3527 40.7257 0.0000 0.0000 0.0000
# 2 25.3527 82.9034 80.8108 0.0000 0.0000 0.0000
# 3 40.7257 80.8108 156.0319 0.0000 0.0000 0.0000
# 4 0.0000 0.0000 0.0000 33.0997 0.0000 0.0000
# 5 0.0000 0.0000 0.0000 0.0000 33.1098 0.0000
# 6 0.0000 0.0000 0.0000 0.0000 0.0000 24.1185
#
#
#
# Elastic Compliance Matrix: (Units=1/GPa)
#
#
# Indices 1 2 3 4 5 6 
#
# 1 0.015592 -0.001618 -0.003232 0.000000 0.000000 0.000000
# 2 -0.001618 0.024528 -0.012281 0.000000 0.000000 0.000000
# 3 -0.003232 -0.012281 0.013613 0.000000 0.000000 0.000000
# 4 0.000000 0.000000 0.000000 0.030212 0.000000 0.000000
# 5 0.000000 0.000000 0.000000 0.000000 0.030203 0.000000
# 6 0.000000 0.000000 0.000000 0.000000 0.000000 0.041462
#
#
# Mechanical properties :
#
#
# Convention : Reuss Voigt Hill
#
# Bulk Modulus (GPa) = 51.35675 67.54661 59.45168
# Shear Modulus (GPa) = 25.46314 29.21572 27.33943
#
# Velocity S-wave (km/s) = 3.69236 3.95509 3.82598
# Velocity P-wave (km/s) = 6.75836 7.55135 7.16583
#
# Compressibility (1/GPa) = 0.01947164
#
# Stress axis : x y z
#
# Youngs Moduli (GPa) = 64.13376 40.76939 73.45940
#
# Poissons Ratio (x) = 0.06597 0.23740
# Poissons Ratio (y) = 0.10378 0.90216
# Poissons Ratio (z) = 0.20726 0.50069
#
# Static dielectric constant tensor:
#      x y z
#    x 3.234100 0.000000 0.000000 
#    y 0.000000 3.485600 0.000000 
#    z 0.000000 0.000000 3.593080 
# 
# 
# High freq. dielectric constant tensor:
#      x y z
#    x 1.709190 0.000000 0.000000 
#    y 0.000000 1.707400 0.000000 
#    z 0.000000 0.000000 1.739890 
# 
# From -- ./inp_files/20323.got.cif
#   From: 2010.03.12/outbox.cif.g09.slc.cpg/sg53_11_cif.got.tgz:20323.got - 2010.04.16 14:36:59.
