data_PCOD8220510
_publ_section_title
;
Structure prediction by ZEFSAII (Michael W. Deem and Ramdas Pophale) SiO2 
 PCOD8220510
Probable space group: P M N A
;
_chemical_formula_sum "Si O2"
_cell_formula_units_Z 48
_cell_length_a 9.536153
_cell_length_b 12.079650
_cell_length_c 21.294733
_cell_angle_alpha 90.000000
_cell_angle_beta 90.000000
_cell_angle_gamma 90.000000
_cell_volume 2453.012496
_symmetry_space_group_name_H-M "P M N A"
_symmetry_group_IT_number 53
_symmetry_cell_setting 'orthorhombic'
loop_
_space_group_symop_operation_xyz
x,y,z
1/2-x,-y,1/2+z
x,-y,-z
1/2-x,y,1/2-z
-x,-y,-z
1/2+x,y,1/2-z
-x,y,z
1/2+x,-y,1/2+z
loop_
_atom_site_type_symbol
_atom_site_label
_atom_site_fract_x
_atom_site_fract_y
_atom_site_fract_z
Si Si1 0.662350 0.382059 0.310156
Si Si2 0.660644 0.233801 0.574130
Si Si3 0.660742 0.513910 0.430229
Si Si4 0.341728 0.098443 0.693294
Si Si5 0.664045 0.120668 0.026123
Si Si6 0.343436 0.859995 0.646154
O O1 0.750000 0.425166 0.250000
O O2 0.500000 0.417062 0.300842
O O3 0.724264 0.435865 0.375005
O O4 0.679001 0.249854 0.313207
O O5 0.500000 0.205676 0.556324
O O6 0.676861 0.361006 0.594005
O O7 0.714596 0.154765 0.629768
O O8 0.758174 0.213200 0.514520
O O9 0.731549 0.500000 0.500000
O O10 0.500000 0.477082 0.437966
O O11 0.250000 0.144923 0.750000
O O12 0.500000 0.137758 0.705259
O O13 0.329892 0.965915 0.691092
O O14 0.500000 0.145758 0.025927
O O15 0.721324 0.130909 0.095775
O O16 0.700017 0.000000 0.000000
O O17 0.500000 0.858912 0.615166
#
# Coordination Sequence:
#
# PCOD8220510 Si02
#       6
#     8   8   8   8   8   8
#     4  10  21  37  59  86 115 151 195 239 289 340
#     4  10  20  36  57  79 107 145 186 223 269 335
#     4   9  18  35  59  84 109 144 192 240 279 326
#     4  10  21  34  51  76 105 141 181 220 267 323
#     4  11  22  34  53  84 116 143 175 226 288 339
#     4  10  20  36  57  80 109 148 188 225 270 336
#
# _framework density 19.567775999999999
#
# number of rings (size 3 to 8) (size 9 to 14) (size 15 to 20)
#    0.000    2.000    1.667    2.000    0.000    6.000 
#    0.000    0.833    0.000    2.000    0.000    0.000 
#    0.000    0.000    0.000    0.000    0.000    0.000 
#
# Total GULP energy -595191.646733 kJ/mol
# GULP energy per Si atom -12399.825974 kJ/mol
# Density = 1.952324 g / cm^3
# Si number density = 19.567776 Si / 1000 Ang^3
#
#
#
# Elastic Constant Matrix: (Units=GPa)
#
#
# Indices 1 2 3 4 5 6 
#
# 1 64.1873 14.7730 44.8008 0.0000 0.0000 0.0000
# 2 14.7730 70.0245 21.6333 0.0000 0.0000 0.0000
# 3 44.8008 21.6333 115.0284 0.0000 0.0000 0.0000
# 4 0.0000 0.0000 0.0000 23.7879 0.0000 0.0000
# 5 0.0000 0.0000 0.0000 0.0000 39.2232 0.0000
# 6 0.0000 0.0000 0.0000 0.0000 0.0000 13.4937
#
#
#
# Elastic Compliance Matrix: (Units=1/GPa)
#
#
# Indices 1 2 3 4 5 6 
#
# 1 0.021679 -0.002086 -0.008051 0.000000 0.000000 0.000000
# 2 -0.002086 0.015362 -0.002077 0.000000 0.000000 0.000000
# 3 -0.008051 -0.002077 0.012220 0.000000 0.000000 0.000000
# 4 0.000000 0.000000 0.000000 0.042038 0.000000 0.000000
# 5 0.000000 0.000000 0.000000 0.000000 0.025495 0.000000
# 6 0.000000 0.000000 0.000000 0.000000 0.000000 0.074109
#
#
# Mechanical properties :
#
#
# Convention : Reuss Voigt Hill
#
# Bulk Modulus (GPa) = 40.26875 45.73935 43.00405
# Shear Modulus (GPa) = 22.36045 26.50315 24.43180
#
# Velocity S-wave (km/s) = 3.38408 3.68425 3.53735
# Velocity P-wave (km/s) = 5.99109 6.44390 6.22161
#
# Compressibility (1/GPa) = 0.02483315
#
# Stress axis : x y z
#
# Youngs Moduli (GPa) = 46.12765 65.09391 81.83472
#
# Poissons Ratio (x) = 0.13581 0.65886
# Poissons Ratio (y) = 0.09624 0.16994
# Poissons Ratio (z) = 0.37138 0.13518
#
# Static dielectric constant tensor:
#      x y z
#    x 3.355820 0.000000 0.000000 
#    y 0.000000 3.568600 0.000000 
#    z 0.000000 0.000000 3.482750 
# 
# 
# High freq. dielectric constant tensor:
#      x y z
#    x 1.734720 0.000000 0.000000 
#    y 0.000000 1.764050 0.000000 
#    z 0.000000 0.000000 1.760940 
# 
# From -- ./inp_files/33902.got.cif
#   From: 2010.03.12/outbox.cif.g09.slc.cpg/sg53_17_cif.got.tgz:33902.got - 2010.04.16 14:36:59.
