data_PCOD8220211
_publ_section_title
;
Structure prediction by ZEFSAII (Michael W. Deem and Ramdas Pophale) SiO2 
 PCOD8220211
Probable space group: P M N A
;
_chemical_formula_sum "Si O2"
_cell_formula_units_Z 64
_cell_length_a 18.701980
_cell_length_b 9.811306
_cell_length_c 19.694711
_cell_angle_alpha 90.000000
_cell_angle_beta 90.000000
_cell_angle_gamma 90.000000
_cell_volume 3613.799234
_symmetry_space_group_name_H-M "P M N A"
_symmetry_group_IT_number 53
_symmetry_cell_setting 'orthorhombic'
loop_
_space_group_symop_operation_xyz
x,y,z
1/2-x,-y,1/2+z
x,-y,-z
1/2-x,y,1/2-z
-x,-y,-z
1/2+x,y,1/2-z
-x,y,z
1/2+x,-y,1/2+z
loop_
_atom_site_type_symbol
_atom_site_label
_atom_site_fract_x
_atom_site_fract_y
_atom_site_fract_z
Si Si1 0.287753 0.367426 0.080605
Si Si2 0.083027 0.344662 0.685503
Si Si3 0.669994 0.601326 0.774976
Si Si4 0.187267 0.327355 0.566731
Si Si5 0.419861 0.186408 0.307063
Si Si6 0.161598 0.829762 0.935134
Si Si7 0.919022 0.877900 0.204744
Si Si8 0.684285 0.867165 0.415663
O O1 0.331682 0.335030 0.149031
O O2 0.272646 0.529198 0.078423
O O3 0.211696 0.295596 0.084148
O O4 0.331195 0.315076 0.013840
O O5 0.123619 0.463729 0.726141
O O6 0.114678 0.321161 0.610134
O O7 0.094628 0.205997 0.726921
O O8 0.000000 0.383498 0.677868
O O9 0.750000 0.566952 0.750000
O O10 0.636262 0.711962 0.725715
O O11 0.240034 0.208199 0.590826
O O12 0.500000 0.235958 0.291576
O O13 0.409232 0.182800 0.388944
O O14 0.405639 0.035950 0.277147
O O15 0.201157 0.971733 0.916388
O O16 0.142835 0.825086 0.014948
O O17 0.866111 0.824304 0.146442
O O18 0.000000 0.857090 0.178246
#
# Coordination Sequence:
#
# PCOD8220211 Si02
#       8
#     8   8   8   8   8   8   8   8
#     4   9  18  34  51  75 104 128 172 215 263 298
#     4  10  22  38  54  77 108 140 175 219 268 313
#     4  11  21  34  55  80 104 137 176 217 261 314
#     4   9  19  34  54  75  99 137 171 218 258 307
#     4  10  20  35  52  76 108 141 171 211 262 313
#     4   9  17  32  49  76 106 135 171 215 255 306
#     4   9  20  35  51  74 109 141 173 213 259 312
#     4   9  18  30  52  77 103 135 178 213 254 302
#
# _framework density 17.709893000000001
#
# number of rings (size 3 to 8) (size 9 to 14) (size 15 to 20)
#    0.000    2.500    1.250    0.375    3.500    1.500 
#    0.000    8.125    0.000    0.000    0.000   15.750 
#    0.000    0.000    0.000    0.000    0.000    0.000 
#
# Total GULP energy -793417.363538 kJ/mol
# GULP energy per Si atom -12397.146305 kJ/mol
# Density = 1.766958 g / cm^3
# Si number density = 17.709893 Si / 1000 Ang^3
#
#
#
# Elastic Constant Matrix: (Units=GPa)
#
#
# Indices 1 2 3 4 5 6 
#
# 1 100.6234 44.0548 49.9928 0.0000 0.0000 0.0000
# 2 44.0548 63.6679 35.2972 0.0000 0.0000 0.0000
# 3 49.9928 35.2972 97.2421 0.0000 0.0000 0.0000
# 4 0.0000 0.0000 0.0000 23.7101 0.0000 0.0000
# 5 0.0000 0.0000 0.0000 0.0000 22.8618 0.0000
# 6 0.0000 0.0000 0.0000 0.0000 0.0000 23.2815
#
#
#
# Elastic Compliance Matrix: (Units=1/GPa)
#
#
# Indices 1 2 3 4 5 6 
#
# 1 0.016201 -0.008254 -0.005333 0.000000 0.000000 0.000000
# 2 -0.008254 0.023868 -0.004421 0.000000 0.000000 0.000000
# 3 -0.005333 -0.004421 0.014630 0.000000 0.000000 0.000000
# 4 0.000000 0.000000 0.000000 0.042176 0.000000 0.000000
# 5 0.000000 0.000000 0.000000 0.000000 0.043741 0.000000
# 6 0.000000 0.000000 0.000000 0.000000 0.000000 0.042953
#
#
# Mechanical properties :
#
#
# Convention : Reuss Voigt Hill
#
# Bulk Modulus (GPa) = 53.51956 57.80256 55.66106
# Shear Modulus (GPa) = 22.14220 22.78324 22.46272
#
# Velocity S-wave (km/s) = 3.53976 3.59063 3.56528
# Velocity P-wave (km/s) = 6.85509 7.06396 6.96031
#
# Compressibility (1/GPa) = 0.01868476
#
# Stress axis : x y z
#
# Youngs Moduli (GPa) = 61.72285 41.89643 68.35236
#
# Poissons Ratio (x) = 0.34580 0.36454
# Poissons Ratio (y) = 0.50945 0.30215
# Poissons Ratio (z) = 0.32919 0.18520
#
# Static dielectric constant tensor:
#      x y z
#    x 3.062960 0.000000 0.000000 
#    y 0.000000 3.350200 0.000000 
#    z 0.000000 0.000000 3.537080 
# 
# 
# High freq. dielectric constant tensor:
#      x y z
#    x 1.661320 0.000000 0.000000 
#    y 0.000000 1.688450 0.000000 
#    z 0.000000 0.000000 1.695110 
# 
# From -- ./inp_files/32831.got.cif
#   From: 2010.03.12/outbox.cif.g09.slc.cpg/sg53_17_cif.got.tgz:32831.got - 2010.04.16 14:36:59.
