data_PCOD8220167
_publ_section_title
;
Structure prediction by ZEFSAII (Michael W. Deem and Ramdas Pophale) SiO2 
 PCOD8220167
Probable space group: P M N A
;
_chemical_formula_sum "Si O2"
_cell_formula_units_Z 64
_cell_length_a 9.088695
_cell_length_b 12.790685
_cell_length_c 28.093889
_cell_angle_alpha 90.000000
_cell_angle_beta 90.000000
_cell_angle_gamma 90.000000
_cell_volume 3265.932430
_symmetry_space_group_name_H-M "P M N A"
_symmetry_group_IT_number 53
_symmetry_cell_setting 'orthorhombic'
loop_
_space_group_symop_operation_xyz
x,y,z
1/2-x,-y,1/2+z
x,-y,-z
1/2-x,y,1/2-z
-x,-y,-z
1/2+x,y,1/2-z
-x,y,z
1/2+x,-y,1/2+z
loop_
_atom_site_type_symbol
_atom_site_label
_atom_site_fract_x
_atom_site_fract_y
_atom_site_fract_z
Si Si1 0.827960 0.224708 0.799558
Si Si2 0.174167 0.367866 0.354355
Si Si3 0.827503 0.421046 0.864897
Si Si4 0.671217 0.969477 0.948243
Si Si5 0.330752 0.730835 0.953253
Si Si6 0.173286 0.397420 0.973062
Si Si7 0.328156 0.024721 0.643173
Si Si8 0.174133 0.817222 0.799517
O O1 0.750000 0.245003 0.750000
O O2 0.789124 0.319787 0.834335
O O3 0.000000 0.217239 0.789639
O O4 0.769252 0.117274 0.822902
O O5 0.235113 0.483014 0.343217
O O6 0.214659 0.341566 0.408877
O O7 0.255731 0.288352 0.319527
O O8 0.000000 0.361625 0.344964
O O9 0.774556 0.398275 0.918615
O O10 0.000000 0.449407 0.863454
O O11 0.500000 0.996546 0.945102
O O12 0.704918 0.848591 0.938376
O O13 0.751933 0.036748 0.907999
O O14 0.733650 0.000000 0.000000
O O15 0.500000 0.716819 0.966620
O O16 0.239691 0.702624 0.000255
O O17 0.000000 0.388945 0.976890
O O18 0.233221 0.500000 0.000000
O O19 0.500000 0.038806 0.634658
O O20 0.288761 0.913234 0.665812
O O21 0.250000 0.844829 0.750000
O O22 0.000000 0.802345 0.792839
#
# Coordination Sequence:
#
# PCOD8220167 Si02
#       8
#     8   8   8   8   8   8   8   8
#     4  10  23  43  64  87 118 155 200 253 304 354
#     4  11  22  38  60  87 120 158 198 243 297 357
#     4  10  22  40  60  86 122 159 201 254 302 355
#     4  10  22  39  58  86 124 162 196 237 293 354
#     4  10  21  36  55  82 118 155 194 240 290 347
#     4  10  20  34  56  84 113 152 197 237 289 350
#     4  10  22  40  63  91 120 154 197 245 296 353
#     4  11  23  39  62  90 118 150 192 244 301 359
#
# _framework density 19.596240999999999
#
# number of rings (size 3 to 8) (size 9 to 14) (size 15 to 20)
#    0.000    1.750    2.500    1.125    1.750    4.000 
#    0.000    1.250    0.000    0.000    0.000    0.000 
#    0.000    0.000    0.000    0.000    0.000    0.000 
#
# Total GULP energy -793903.640463 kJ/mol
# GULP energy per Si atom -12404.744382 kJ/mol
# Density = 1.955164 g / cm^3
# Si number density = 19.596241 Si / 1000 Ang^3
#
#
#
# Elastic Constant Matrix: (Units=GPa)
#
#
# Indices 1 2 3 4 5 6 
#
# 1 57.6000 38.0636 51.8201 0.0000 0.0000 0.0000
# 2 38.0636 73.5150 45.6422 0.0000 0.0000 0.0000
# 3 51.8201 45.6422 141.3295 0.0000 0.0000 0.0000
# 4 0.0000 0.0000 0.0000 31.9713 0.0000 0.0000
# 5 0.0000 0.0000 0.0000 0.0000 37.9911 0.0000
# 6 0.0000 0.0000 0.0000 0.0000 0.0000 25.7077
#
#
#
# Elastic Compliance Matrix: (Units=1/GPa)
#
#
# Indices 1 2 3 4 5 6 
#
# 1 0.032405 -0.011759 -0.008084 0.000000 0.000000 0.000000
# 2 -0.011759 0.021281 -0.002561 0.000000 0.000000 0.000000
# 3 -0.008084 -0.002561 0.010867 0.000000 0.000000 0.000000
# 4 0.000000 0.000000 0.000000 0.031278 0.000000 0.000000
# 5 0.000000 0.000000 0.000000 0.000000 0.026322 0.000000
# 6 0.000000 0.000000 0.000000 0.000000 0.000000 0.038899
#
#
# Mechanical properties :
#
#
# Convention : Reuss Voigt Hill
#
# Bulk Modulus (GPa) = 50.64740 60.38849 55.51794
# Shear Modulus (GPa) = 23.53592 28.26193 25.89893
#
# Velocity S-wave (km/s) = 3.46937 3.80177 3.63936
# Velocity P-wave (km/s) = 6.47690 7.08198 6.78619
#
# Compressibility (1/GPa) = 0.01974435
#
# Stress axis : x y z
#
# Youngs Moduli (GPa) = 30.85986 46.98976 92.02303
#
# Poissons Ratio (x) = 0.55256 0.74391
# Poissons Ratio (y) = 0.36288 0.23569
# Poissons Ratio (z) = 0.24947 0.12035
#
# Static dielectric constant tensor:
#      x y z
#    x 3.434270 0.000000 0.000000 
#    y 0.000000 3.609820 0.000000 
#    z 0.000000 0.000000 3.629180 
# 
# 
# High freq. dielectric constant tensor:
#      x y z
#    x 1.755340 0.000000 0.000000 
#    y 0.000000 1.769830 0.000000 
#    z 0.000000 0.000000 1.770600 
# 
# From -- ./inp_files/38168.got.cif
#   From: 2010.03.12/outbox.cif.g09.slc.cpg/sg53_20_cif.got.tgz:38168.got - 2010.04.16 14:36:59.
