data_PCOD8220635
_publ_section_title
;
Structure prediction by ZEFSAII (Michael W. Deem and Ramdas Pophale) SiO2 
 PCOD8220635
Probable space group: P M N A
;
_chemical_formula_sum "Si O2"
_cell_formula_units_Z 40
_cell_length_a 8.717065
_cell_length_b 9.117352
_cell_length_c 25.659740
_cell_angle_alpha 90.000000
_cell_angle_beta 90.000000
_cell_angle_gamma 90.000000
_cell_volume 2039.347609
_symmetry_space_group_name_H-M "P M N A"
_symmetry_group_IT_number 53
_symmetry_cell_setting 'orthorhombic'
loop_
_space_group_symop_operation_xyz
x,y,z
1/2-x,-y,1/2+z
x,-y,-z
1/2-x,y,1/2-z
-x,-y,-z
1/2+x,y,1/2-z
-x,y,z
1/2+x,-y,1/2+z
loop_
_atom_site_type_symbol
_atom_site_label
_atom_site_fract_x
_atom_site_fract_y
_atom_site_fract_z
Si Si1 0.321011 0.171126 0.504433
Si Si2 0.319075 0.341526 0.403124
Si Si3 0.317569 0.161648 0.304947
Si Si4 0.178061 0.342773 0.597264
Si Si5 0.819744 0.152596 0.696215
O O1 0.500000 0.204187 0.513628
O O2 0.258033 0.249464 0.452397
O O3 0.225781 0.229699 0.552947
O O4 0.288014 0.000000 0.500000
O O5 0.500000 0.332527 0.402287
O O6 0.255380 0.270878 0.349678
O O7 0.269924 0.508099 0.409013
O O8 0.250000 0.216473 0.250000
O O9 0.500000 0.160083 0.301567
O O10 0.260126 0.999612 0.319119
O O11 0.218397 0.272465 0.652811
O O12 0.000000 0.378645 0.592301
O O13 0.750000 0.213861 0.750000
O O14 0.000000 0.124418 0.702499
#
# Coordination Sequence:
#
# PCOD8220635 Si02
#       5
#     8   8   8   8   8
#     4  10  21  39  62  84 108 143 187 229 271 328
#     4  10  22  38  57  82 112 148 186 224 271 329
#     4  10  20  36  59  85 112 145 186 230 276 325
#     4  11  24  38  55  83 116 147 181 228 281 327
#     4  10  21  37  57  82 111 145 186 228 273 325
#
# _framework density 19.614115000000002
#
# number of rings (size 3 to 8) (size 9 to 14) (size 15 to 20)
#    0.000    1.800    0.000    4.800    0.000   10.800 
#    0.000    4.000    0.000    0.000    0.000    0.000 
#    0.000    0.000    0.000    0.000    0.000    0.000 
#
# Total GULP energy -496163.599313 kJ/mol
# GULP energy per Si atom -12404.089983 kJ/mol
# Density = 1.956947 g / cm^3
# Si number density = 19.614115 Si / 1000 Ang^3
#
#
#
# Elastic Constant Matrix: (Units=GPa)
#
#
# Indices 1 2 3 4 5 6 
#
# 1 33.7260 2.6714 30.0856 0.0000 0.0000 0.0000
# 2 2.6714 84.8164 51.8946 0.0000 0.0000 0.0000
# 3 30.0856 51.8946 130.6402 0.0000 0.0000 0.0000
# 4 0.0000 0.0000 0.0000 32.9397 0.0000 0.0000
# 5 0.0000 0.0000 0.0000 0.0000 27.4129 0.0000
# 6 0.0000 0.0000 0.0000 0.0000 0.0000 20.2703
#
#
#
# Elastic Compliance Matrix: (Units=1/GPa)
#
#
# Indices 1 2 3 4 5 6 
#
# 1 0.039283 0.005678 -0.011302 0.000000 0.000000 0.000000
# 2 0.005678 0.016396 -0.007821 0.000000 0.000000 0.000000
# 3 -0.011302 -0.007821 0.013364 0.000000 0.000000 0.000000
# 4 0.000000 0.000000 0.000000 0.030359 0.000000 0.000000
# 5 0.000000 0.000000 0.000000 0.000000 0.036479 0.000000
# 6 0.000000 0.000000 0.000000 0.000000 0.000000 0.049333
#
#
# Mechanical properties :
#
#
# Convention : Reuss Voigt Hill
#
# Bulk Modulus (GPa) = 23.72275 46.49842 35.11058
# Shear Modulus (GPa) = 22.10864 27.09330 24.60097
#
# Velocity S-wave (km/s) = 3.36099 3.72064 3.54538
# Velocity P-wave (km/s) = 5.21370 6.49735 5.89060
#
# Compressibility (1/GPa) = 0.04215364
#
# Stress axis : x y z
#
# Youngs Moduli (GPa) = 25.45621 60.98884 74.82739
#
# Poissons Ratio (x) = -0.34629 0.84571
# Poissons Ratio (y) = -0.14454 0.58521
# Poissons Ratio (z) = 0.28771 0.47698
#
# Static dielectric constant tensor:
#      x y z
#    x 3.525590 0.000000 0.000000 
#    y 0.000000 3.497480 0.000000 
#    z 0.000000 0.000000 3.834050 
# 
# 
# High freq. dielectric constant tensor:
#      x y z
#    x 1.763300 0.000000 0.000000 
#    y 0.000000 1.766230 0.000000 
#    z 0.000000 0.000000 1.783360 
# 
# From -- ./inp_files/33615.got.cif
#   From: 2010.03.12/outbox.cif.g09.slc.cpg/sg53_17_cif.got.tgz:33615.got - 2010.04.16 14:36:59.
