data_PCOD8220552
_publ_section_title
;
Structure prediction by ZEFSAII (Michael W. Deem and Ramdas Pophale) SiO2 
 PCOD8220552
Probable space group: P M N A
;
_chemical_formula_sum "Si O2"
_cell_formula_units_Z 48
_cell_length_a 9.506384
_cell_length_b 27.660013
_cell_length_c 9.966777
_cell_angle_alpha 90.000000
_cell_angle_beta 90.000000
_cell_angle_gamma 90.000000
_cell_volume 2620.731172
_symmetry_space_group_name_H-M "P M N A"
_symmetry_group_IT_number 53
_symmetry_cell_setting 'orthorhombic'
loop_
_space_group_symop_operation_xyz
x,y,z
1/2-x,-y,1/2+z
x,-y,-z
1/2-x,y,1/2-z
-x,-y,-z
1/2+x,y,1/2-z
-x,y,z
1/2+x,-y,1/2+z
loop_
_atom_site_type_symbol
_atom_site_label
_atom_site_fract_x
_atom_site_fract_y
_atom_site_fract_z
Si Si1 0.665029 0.802258 0.617030
Si Si2 0.000000 0.453030 0.591483
Si Si3 0.246967 0.384746 0.903509
Si Si4 0.160908 0.032694 0.621325
Si Si5 0.000000 0.455725 0.899882
Si Si6 0.333955 0.855132 0.115046
Si Si7 0.338140 0.688738 0.620247
O O1 0.750000 0.817210 0.750000
O O2 0.500000 0.818794 0.624287
O O3 0.750625 0.826915 0.498553
O O4 0.673390 0.745336 0.592885
O O5 0.000000 0.500000 0.500000
O O6 0.876929 0.416934 0.555891
O O7 0.000000 0.472428 0.744568
O O8 0.250000 0.366625 0.750000
O O9 0.127916 0.422391 0.934586
O O10 0.231452 0.337083 0.992647
O O11 0.250000 0.018222 0.750000
O O12 0.179424 0.088412 0.581693
O O13 0.000000 0.020359 0.654736
O O14 0.217209 0.000000 0.500000
O O15 0.000000 0.500000 0.000000
O O16 0.250000 0.842394 0.250000
O O17 0.500000 0.840043 0.124608
O O18 0.250000 0.673012 0.750000
O O19 0.500000 0.673048 0.640411
#
# Coordination Sequence:
#
# PCOD8220552 Si02
#       7
#     8   4   8   8   4   8   8
#     4  10  21  38  58  82 113 148 187 235 286 339
#     4  10  22  36  54  84 112 140 184 222 267 326
#     4  10  21  38  57  81 112 145 179 223 272 322
#     4   9  19  35  54  79 112 148 189 236 282 334
#     4  10  20  36  58  78 108 146 178 224 269 314
#     4  10  20  36  57  83 114 150 193 237 284 339
#     4  10  22  39  59  84 112 144 184 227 273 328
#
# _framework density 18.315498999999999
#
# number of rings (size 3 to 8) (size 9 to 14) (size 15 to 20)
#    0.000    2.167    0.833    1.500    1.167    4.333 
#    0.000    1.667    0.000    0.000    0.000    0.000 
#    0.000    0.000    0.000    0.000    0.000    0.000 
#
# Total GULP energy -595003.432478 kJ/mol
# GULP energy per Si atom -12395.904843 kJ/mol
# Density = 1.827381 g / cm^3
# Si number density = 18.315499 Si / 1000 Ang^3
#
#
#
# Elastic Constant Matrix: (Units=GPa)
#
#
# Indices 1 2 3 4 5 6 
#
# 1 158.5196 50.8972 79.9012 0.0000 0.0000 0.0000
# 2 50.8972 61.9230 73.8001 0.0000 0.0000 0.0000
# 3 79.9012 73.8001 148.2217 0.0000 0.0000 0.0000
# 4 0.0000 0.0000 0.0000 44.7474 0.0000 0.0000
# 5 0.0000 0.0000 0.0000 0.0000 37.6335 0.0000
# 6 0.0000 0.0000 0.0000 0.0000 0.0000 67.1070
#
#
#
# Elastic Compliance Matrix: (Units=1/GPa)
#
#
# Indices 1 2 3 4 5 6 
#
# 1 0.009046 -0.003993 -0.002888 0.000000 0.000000 0.000000
# 2 -0.003993 0.041481 -0.018501 0.000000 0.000000 0.000000
# 3 -0.002888 -0.018501 0.017515 0.000000 0.000000 0.000000
# 4 0.000000 0.000000 0.000000 0.022348 0.000000 0.000000
# 5 0.000000 0.000000 0.000000 0.000000 0.026572 0.000000
# 6 0.000000 0.000000 0.000000 0.000000 0.000000 0.014902
#
#
# Mechanical properties :
#
#
# Convention : Reuss Voigt Hill
#
# Bulk Modulus (GPa) = 57.87858 86.42906 72.15382
# Shear Modulus (GPa) = 26.54108 40.83528 33.68818
#
# Velocity S-wave (km/s) = 3.81084 4.72693 4.29339
# Velocity P-wave (km/s) = 7.14373 8.77971 8.00363
#
# Compressibility (1/GPa) = 0.01727755
#
# Stress axis : x y z
#
# Youngs Moduli (GPa) = 110.54157 24.10769 57.09329
#
# Poissons Ratio (x) = 0.09627 0.16490
# Poissons Ratio (y) = 0.44143 1.05626
# Poissons Ratio (z) = 0.31928 0.44601
#
# Static dielectric constant tensor:
#      x y z
#    x 3.704410 0.000000 0.000000 
#    y 0.000000 3.303840 0.000000 
#    z 0.000000 0.000000 3.551090 
# 
# 
# High freq. dielectric constant tensor:
#      x y z
#    x 1.732180 0.000000 0.000000 
#    y 0.000000 1.705320 0.000000 
#    z 0.000000 0.000000 1.713700 
# 
# From -- ./inp_files/6786.got.cif
#   From: 2010.03.12/outbox.cif.g09.slc.cpg/sg53_4_cif.got.tgz:6786.got - 2010.04.16 14:36:59.
