data_PCOD8220103
_publ_section_title
;
Structure prediction by ZEFSAII (Michael W. Deem and Ramdas Pophale) SiO2 
 PCOD8220103
Probable space group: P M N A
;
_chemical_formula_sum "Si O2"
_cell_formula_units_Z 64
_cell_length_a 8.791919
_cell_length_b 16.597307
_cell_length_c 22.817529
_cell_angle_alpha 90.000000
_cell_angle_beta 90.000000
_cell_angle_gamma 90.000000
_cell_volume 3329.583546
_symmetry_space_group_name_H-M "P M N A"
_symmetry_group_IT_number 53
_symmetry_cell_setting 'orthorhombic'
loop_
_space_group_symop_operation_xyz
x,y,z
1/2-x,-y,1/2+z
x,-y,-z
1/2-x,y,1/2-z
-x,-y,-z
1/2+x,y,1/2-z
-x,y,z
1/2+x,-y,1/2+z
loop_
_atom_site_type_symbol
_atom_site_label
_atom_site_fract_x
_atom_site_fract_y
_atom_site_fract_z
Si Si1 0.680688 0.290992 0.081588
Si Si2 0.821260 0.290269 0.688863
Si Si3 0.679044 0.863895 0.313173
Si Si4 0.177964 0.122392 0.467875
Si Si5 0.679408 0.045453 0.912987
Si Si6 0.680355 0.614868 0.685158
Si Si7 0.823840 0.558917 0.137356
Si Si8 0.666574 0.589385 0.020213
O O1 0.500000 0.291459 0.091043
O O2 0.746069 0.204681 0.059943
O O3 0.757650 0.314000 0.143561
O O4 0.729857 0.355817 0.032245
O O5 0.750000 0.264636 0.750000
O O6 0.750381 0.215564 0.652401
O O7 0.770827 0.380335 0.676584
O O8 0.000000 0.285963 0.688092
O O9 0.750000 0.884027 0.250000
O O10 0.500000 0.853641 0.306648
O O11 0.722528 0.937262 0.355478
O O12 0.237377 0.102266 0.533331
O O13 0.000000 0.135558 0.473022
O O14 0.216096 0.047720 0.426150
O O15 0.500000 0.057828 0.901999
O O16 0.750000 0.621736 0.750000
O O17 0.500000 0.621505 0.690387
O O18 0.729964 0.530622 0.654521
O O19 0.790880 0.585593 0.071084
O O20 0.000000 0.570246 0.150764
O O21 0.500000 0.622642 0.042132
O O22 0.639373 0.500000 0.000000
#
# Coordination Sequence:
#
# PCOD8220103 Si02
#       8
#     8   8   8   8   8   8   8   8
#     4  10  20  37  59  85 116 150 192 235 282 340
#     4  11  22  37  56  79 111 148 188 231 276 332
#     4  11  22  37  56  83 116 152 190 232 284 341
#     4   8  17  34  60  88 115 149 188 232 283 341
#     4   9  17  35  60  87 116 149 189 230 279 341
#     4  11  24  40  59  81 109 150 193 241 291 338
#     4  11  23  37  55  81 113 149 191 235 283 335
#     4  10  20  34  54  82 114 150 187 230 280 333
#
# _framework density 19.221623000000001
#
# number of rings (size 3 to 8) (size 9 to 14) (size 15 to 20)
#    0.000    1.875    1.250    4.875    1.750    3.250 
#    0.000    3.125    0.000    0.000    0.000    0.000 
#    0.000    0.000    0.000    0.000    0.000    0.000 
#
# Total GULP energy -793189.357742 kJ/mol
# GULP energy per Si atom -12393.583715 kJ/mol
# Density = 1.917787 g / cm^3
# Si number density = 19.221623 Si / 1000 Ang^3
#
#
#
# Elastic Constant Matrix: (Units=GPa)
#
#
# Indices 1 2 3 4 5 6 
#
# 1 96.3230 42.1058 43.3568 0.0000 0.0000 0.0000
# 2 42.1058 128.0357 65.5176 0.0000 0.0000 0.0000
# 3 43.3568 65.5176 116.3240 0.0000 0.0000 0.0000
# 4 0.0000 0.0000 0.0000 27.5887 0.0000 0.0000
# 5 0.0000 0.0000 0.0000 0.0000 34.0557 0.0000
# 6 0.0000 0.0000 0.0000 0.0000 0.0000 22.6692
#
#
#
# Elastic Compliance Matrix: (Units=1/GPa)
#
#
# Indices 1 2 3 4 5 6 
#
# 1 0.013033 -0.002529 -0.003433 0.000000 0.000000 0.000000
# 2 -0.002529 0.011464 -0.005514 0.000000 0.000000 0.000000
# 3 -0.003433 -0.005514 0.012982 0.000000 0.000000 0.000000
# 4 0.000000 0.000000 0.000000 0.036247 0.000000 0.000000
# 5 0.000000 0.000000 0.000000 0.000000 0.029364 0.000000
# 6 0.000000 0.000000 0.000000 0.000000 0.000000 0.044113
#
#
# Mechanical properties :
#
#
# Convention : Reuss Voigt Hill
#
# Bulk Modulus (GPa) = 68.84350 71.40479 70.12415
# Shear Modulus (GPa) = 28.57212 29.50956 29.04084
#
# Velocity S-wave (km/s) = 3.85964 3.92245 3.89117
# Velocity P-wave (km/s) = 7.46698 7.59888 7.53322
#
# Compressibility (1/GPa) = 0.01452570
#
# Stress axis : x y z
#
# Youngs Moduli (GPa) = 76.73073 87.23201 77.02987
#
# Poissons Ratio (x) = 0.22062 0.26445
# Poissons Ratio (y) = 0.19406 0.42475
# Poissons Ratio (z) = 0.26342 0.48100
#
# Static dielectric constant tensor:
#      x y z
#    x 10.537670 0.000000 0.000000 
#    y 0.000000 5.472830 0.000000 
#    z 0.000000 0.000000 3.360070 
# 
# 
# High freq. dielectric constant tensor:
#      x y z
#    x 1.734770 0.000000 0.000000 
#    y 0.000000 1.750820 0.000000 
#    z 0.000000 0.000000 1.744230 
# 
# From -- ./inp_files/34244.got.cif
#   From: 2010.03.12/outbox.cif.g09.slc.cpg/sg53_18_cif.got.tgz:34244.got - 2010.04.16 14:36:59.
