data_PCOD8220004
_publ_section_title
;
Structure prediction by ZEFSAII (Michael W. Deem and Ramdas Pophale) SiO2 
 PCOD8220004
Probable space group: P M N A
;
_chemical_formula_sum "Si O2"
_cell_formula_units_Z 56
_cell_length_a 9.024151
_cell_length_b 14.752269
_cell_length_c 22.441395
_cell_angle_alpha 90.000000
_cell_angle_beta 90.000000
_cell_angle_gamma 90.000000
_cell_volume 2987.548928
_symmetry_space_group_name_H-M "P M N A"
_symmetry_group_IT_number 53
_symmetry_cell_setting 'orthorhombic'
loop_
_space_group_symop_operation_xyz
x,y,z
1/2-x,-y,1/2+z
x,-y,-z
1/2-x,y,1/2-z
-x,-y,-z
1/2+x,y,1/2-z
-x,y,z
1/2+x,-y,1/2+z
loop_
_atom_site_type_symbol
_atom_site_label
_atom_site_fract_x
_atom_site_fract_y
_atom_site_fract_z
Si Si1 0.831016 0.095662 0.021188
Si Si2 0.825087 0.619739 0.445182
Si Si3 0.325844 0.583777 0.923036
Si Si4 0.176205 0.077663 0.688265
Si Si5 0.327298 0.884707 0.858998
Si Si6 0.174040 0.306661 0.310152
Si Si7 0.829660 0.792015 0.095995
O O1 0.815141 0.169276 0.970049
O O2 0.000000 0.079082 0.040488
O O3 0.744844 0.133771 0.077430
O O4 0.761358 0.000000 0.000000
O O5 0.766824 0.622305 0.513725
O O6 0.787352 0.522147 0.416839
O O7 0.735487 0.690999 0.405214
O O8 0.000000 0.640275 0.441857
O O9 0.500000 0.597916 0.924069
O O10 0.258831 0.638435 0.866777
O O11 0.250000 0.105951 0.750000
O O12 0.230962 0.147937 0.639359
O O13 0.000000 0.082397 0.693824
O O14 0.232525 0.976850 0.670976
O O15 0.500000 0.892736 0.870787
O O16 0.288618 0.799771 0.817113
O O17 0.250000 0.342655 0.250000
O O18 0.000000 0.324090 0.304632
O O19 0.000000 0.791137 0.117728
#
# Coordination Sequence:
#
# PCOD8220004 Si02
#       7
#     8   8   8   8   8   8   8
#     4  10  20  34  52  77 110 145 176 216 270 319
#     4   9  17  34  60  84 105 138 179 224 277 328
#     4   8  16  33  58  83 108 138 177 223 273 327
#     4  11  23  38  55  76 104 143 185 225 265 313
#     4  10  21  35  55  81 108 140 182 225 265 315
#     4  10  20  35  53  79 111 143 180 221 266 323
#     4  11  22  36  54  80 112 144 178 221 269 320
#
# _framework density 18.744461999999999
#
# number of rings (size 3 to 8) (size 9 to 14) (size 15 to 20)
#    0.000    2.143    1.429    3.000    0.000    3.714 
#    0.000    3.571    0.000    1.714    0.000    0.000 
#    0.000    0.000    0.000    0.000    0.000    0.000 
#
# Total GULP energy -694459.953306 kJ/mol
# GULP energy per Si atom -12401.070595 kJ/mol
# Density = 1.870180 g / cm^3
# Si number density = 18.744462 Si / 1000 Ang^3
#
#
#
# Elastic Constant Matrix: (Units=GPa)
#
#
# Indices 1 2 3 4 5 6 
#
# 1 46.4008 33.6875 34.6523 0.0000 0.0000 0.0000
# 2 33.6875 109.5183 41.8001 0.0000 0.0000 0.0000
# 3 34.6523 41.8001 103.9609 0.0000 0.0000 0.0000
# 4 0.0000 0.0000 0.0000 24.2545 0.0000 0.0000
# 5 0.0000 0.0000 0.0000 0.0000 33.5411 0.0000
# 6 0.0000 0.0000 0.0000 0.0000 0.0000 18.1462
#
#
#
# Elastic Compliance Matrix: (Units=1/GPa)
#
#
# Indices 1 2 3 4 5 6 
#
# 1 0.032636 -0.006954 -0.008082 0.000000 0.000000 0.000000
# 2 -0.006954 0.012268 -0.002615 0.000000 0.000000 0.000000
# 3 -0.008082 -0.002615 0.013364 0.000000 0.000000 0.000000
# 4 0.000000 0.000000 0.000000 0.041229 0.000000 0.000000
# 5 0.000000 0.000000 0.000000 0.000000 0.029814 0.000000
# 6 0.000000 0.000000 0.000000 0.000000 0.000000 0.055108
#
#
# Mechanical properties :
#
#
# Convention : Reuss Voigt Hill
#
# Bulk Modulus (GPa) = 43.54212 53.35108 48.44660
# Shear Modulus (GPa) = 21.98997 25.17104 23.58050
#
# Velocity S-wave (km/s) = 3.42884 3.66847 3.55068
# Velocity P-wave (km/s) = 6.24145 6.81672 6.53542
#
# Compressibility (1/GPa) = 0.02296627
#
# Stress axis : x y z
#
# Youngs Moduli (GPa) = 30.64125 81.51373 74.82650
#
# Poissons Ratio (x) = 0.56684 0.60476
# Poissons Ratio (y) = 0.21308 0.19565
# Poissons Ratio (z) = 0.24765 0.21314
#
# Static dielectric constant tensor:
#      x y z
#    x 3.233830 0.000000 0.000000 
#    y 0.000000 3.511670 0.000000 
#    z 0.000000 0.000000 3.467930 
# 
# 
# High freq. dielectric constant tensor:
#      x y z
#    x 1.709140 0.000000 0.000000 
#    y 0.000000 1.731420 0.000000 
#    z 0.000000 0.000000 1.724570 
# 
# From -- ./inp_files/30733.got.cif
#   From: 2010.03.12/outbox.cif.g09.slc.cpg/sg53_16_cif.got.tgz:30733.got - 2010.04.16 14:36:59.
