data_PCOD8220377
_publ_section_title
;
Structure prediction by ZEFSAII (Michael W. Deem and Ramdas Pophale) SiO2 
 PCOD8220377
Probable space group: P M N A
;
_chemical_formula_sum "Si O2"
_cell_formula_units_Z 48
_cell_length_a 8.831598
_cell_length_b 11.139948
_cell_length_c 23.017877
_cell_angle_alpha 90.000000
_cell_angle_beta 90.000000
_cell_angle_gamma 90.000000
_cell_volume 2264.580280
_symmetry_space_group_name_H-M "P M N A"
_symmetry_group_IT_number 53
_symmetry_cell_setting 'orthorhombic'
loop_
_space_group_symop_operation_xyz
x,y,z
1/2-x,-y,1/2+z
x,-y,-z
1/2-x,y,1/2-z
-x,-y,-z
1/2+x,y,1/2-z
-x,y,z
1/2+x,-y,1/2+z
loop_
_atom_site_type_symbol
_atom_site_label
_atom_site_fract_x
_atom_site_fract_y
_atom_site_fract_z
Si Si1 0.668413 0.556988 0.883270
Si Si2 0.669689 0.203126 0.190437
Si Si3 0.325592 0.185637 0.898888
Si Si4 0.821713 0.936245 0.906531
Si Si5 0.674025 0.731309 0.978063
Si Si6 0.822413 0.355186 0.812823
O O1 0.500000 0.497713 0.884255
O O2 0.666797 0.674309 0.844248
O O3 0.716833 0.603452 0.947868
O O4 0.786426 0.463631 0.856818
O O5 0.750000 0.231985 0.250000
O O6 0.500000 0.154465 0.200533
O O7 0.765362 0.102712 0.156970
O O8 0.500000 0.166615 0.882553
O O9 0.255591 0.062112 0.921677
O O10 0.240087 0.233351 0.841715
O O11 0.306802 0.280455 0.952339
O O12 0.000000 0.953599 0.906365
O O13 0.778003 0.838818 0.954863
O O14 0.500000 0.762974 0.961519
O O15 0.750000 0.377923 0.750000
O O16 0.000000 0.344489 0.804203
#
# Coordination Sequence:
#
# PCOD8220377 Si02
#       6
#     8   8   8   8   8   8
#     4   9  19  38  62  88 117 151 192 237 288 345
#     4  10  20  35  57  85 116 152 197 246 296 350
#     4  11  23  41  63  86 117 157 198 239 287 346
#     4  11  22  36  57  87 122 157 195 241 293 347
#     4   9  20  39  64  91 119 154 194 237 289 348
#     4  12  26  43  62  86 117 155 198 241 290 346
#
# _framework density 21.195979999999999
#
# number of rings (size 3 to 8) (size 9 to 14) (size 15 to 20)
#    0.000    1.667    0.000    6.000    0.000    9.333 
#    0.000    6.667    0.000    0.000    0.000    0.000 
#    0.000    0.000    0.000    0.000    0.000    0.000 
#
# Total GULP energy -595276.978658 kJ/mol
# GULP energy per Si atom -12401.603722 kJ/mol
# Density = 2.114774 g / cm^3
# Si number density = 21.195980 Si / 1000 Ang^3
#
#
#
# Elastic Constant Matrix: (Units=GPa)
#
#
# Indices 1 2 3 4 5 6 
#
# 1 157.7301 34.1916 36.9509 0.0000 0.0000 0.0000
# 2 34.1916 51.7172 10.1527 0.0000 0.0000 0.0000
# 3 36.9509 10.1527 65.5075 0.0000 0.0000 0.0000
# 4 0.0000 0.0000 0.0000 -48.4386 0.0000 0.0000
# 5 0.0000 0.0000 0.0000 0.0000 21.9603 0.0000
# 6 0.0000 0.0000 0.0000 0.0000 0.0000 32.6031
#
#
#
# Elastic Compliance Matrix: (Units=1/GPa)
#
#
# Indices 1 2 3 4 5 6 
#
# 1 0.008283 -0.004702 -0.003943 0.000000 0.000000 0.000000
# 2 -0.004702 0.022612 -0.000852 0.000000 0.000000 0.000000
# 3 -0.003943 -0.000852 0.017622 0.000000 0.000000 0.000000
# 4 0.000000 0.000000 0.000000 -0.020645 0.000000 0.000000
# 5 0.000000 0.000000 0.000000 0.000000 0.045537 0.000000
# 6 0.000000 0.000000 0.000000 0.000000 0.000000 0.030672
#
#
# Mechanical properties :
#
#
# Convention : Reuss Voigt Hill
#
# Bulk Modulus (GPa) = 33.87379 48.61613 41.24496
# Shear Modulus (GPa) = 37.61754 14.13558 25.87656
#
# Velocity S-wave (km/s) = 4.21735 2.58524 3.49782
# Velocity P-wave (km/s) = 6.30322 5.64779 5.98449
#
# Compressibility (1/GPa) = 0.02952135
#
# Stress axis : x y z
#
# Youngs Moduli (GPa) = 120.72875 44.22458 56.74754
#
# Poissons Ratio (x) = 0.20794 0.22378
# Poissons Ratio (y) = 0.56766 0.04836
# Poissons Ratio (z) = 0.47609 0.03769
#
# Static dielectric constant tensor:
#      x y z
#    x 3.808340 0.000000 0.000000 
#    y 0.000000 3.728590 0.000000 
#    z 0.000000 0.000000 3.614100 
# 
# 
# High freq. dielectric constant tensor:
#      x y z
#    x 1.829230 0.000000 0.000000 
#    y 0.000000 1.823940 0.000000 
#    z 0.000000 0.000000 1.840830 
# 
# From -- ./inp_files/33897.got.cif
#   From: 2010.03.12/outbox.cif.g09.slc.cpg/sg53_17_cif.got.tgz:33897.got - 2010.04.16 14:36:59.
