data_PCOD8220334
_publ_section_title
;
Structure prediction by ZEFSAII (Michael W. Deem and Ramdas Pophale) SiO2 
 PCOD8220334
Probable space group: P M N A
;
_chemical_formula_sum "Si O2"
_cell_formula_units_Z 40
_cell_length_a 8.570503
_cell_length_b 11.213643
_cell_length_c 21.596959
_cell_angle_alpha 90.000000
_cell_angle_beta 90.000000
_cell_angle_gamma 90.000000
_cell_volume 2075.609457
_symmetry_space_group_name_H-M "P M N A"
_symmetry_group_IT_number 53
_symmetry_cell_setting 'orthorhombic'
loop_
_space_group_symop_operation_xyz
x,y,z
1/2-x,-y,1/2+z
x,-y,-z
1/2-x,y,1/2-z
-x,-y,-z
1/2+x,y,1/2-z
-x,y,z
1/2+x,-y,1/2+z
loop_
_atom_site_type_symbol
_atom_site_label
_atom_site_fract_x
_atom_site_fract_y
_atom_site_fract_z
Si Si1 0.677002 0.979281 0.314836
Si Si2 0.816572 0.921807 0.559868
Si Si3 0.180801 0.666786 0.962378
Si Si4 0.320908 0.554336 0.081854
Si Si5 0.175669 0.696701 0.187521
O O1 0.750000 0.027923 0.250000
O O2 0.500000 0.027753 0.320125
O O3 0.775300 0.017097 0.374968
O O4 0.679275 0.838028 0.314214
O O5 0.726240 0.797402 0.559760
O O6 0.000000 0.898764 0.556633
O O7 0.763176 0.000000 0.500000
O O8 0.217532 0.566461 0.910170
O O9 0.000000 0.664634 0.980833
O O10 0.285339 0.626817 0.019728
O O11 0.500000 0.516265 0.083157
O O12 0.286038 0.647188 0.135029
O O13 0.250000 0.646987 0.250000
O O14 0.000000 0.648799 0.180017
#
# Coordination Sequence:
#
# PCOD8220334 Si02
#       5
#     8   8   8   8   8
#     4  10  21  37  58  83 114 151 189 231 279 333
#     4  11  23  38  58  85 116 149 188 233 281 334
#     4  11  22  37  57  81 110 144 183 226 275 328
#     4  11  21  36  57  81 111 144 180 224 276 328
#     4  10  20  35  56  83 112 144 184 226 271 323
#
# _framework density 19.271449
#
# number of rings (size 3 to 8) (size 9 to 14) (size 15 to 20)
#    0.000    1.400    0.000    7.800    0.000    7.200 
#    0.000    1.000    0.000    0.000    0.000    0.000 
#    0.000    0.000    0.000    0.000    0.000    0.000 
#
# Total GULP energy -495983.490303 kJ/mol
# GULP energy per Si atom -12399.587258 kJ/mol
# Density = 1.922759 g / cm^3
# Si number density = 19.271449 Si / 1000 Ang^3
#
#
#
# Elastic Constant Matrix: (Units=GPa)
#
#
# Indices 1 2 3 4 5 6 
#
# 1 105.7391 25.4377 27.1730 0.0000 0.0000 0.0000
# 2 25.4377 33.5583 14.6700 0.0000 0.0000 0.0000
# 3 27.1730 14.6700 93.0896 0.0000 0.0000 0.0000
# 4 0.0000 0.0000 0.0000 31.4560 0.0000 0.0000
# 5 0.0000 0.0000 0.0000 0.0000 32.6154 0.0000
# 6 0.0000 0.0000 0.0000 0.0000 0.0000 32.8049
#
#
#
# Elastic Compliance Matrix: (Units=1/GPa)
#
#
# Indices 1 2 3 4 5 6 
#
# 1 0.011978 -0.008110 -0.002218 0.000000 0.000000 0.000000
# 2 -0.008110 0.037495 -0.003541 0.000000 0.000000 0.000000
# 3 -0.002218 -0.003541 0.011948 0.000000 0.000000 0.000000
# 4 0.000000 0.000000 0.000000 0.031790 0.000000 0.000000
# 5 0.000000 0.000000 0.000000 0.000000 0.030660 0.000000
# 6 0.000000 0.000000 0.000000 0.000000 0.000000 0.030483
#
#
# Mechanical properties :
#
#
# Convention : Reuss Voigt Hill
#
# Bulk Modulus (GPa) = 29.69020 40.77205 35.23112
# Shear Modulus (GPa) = 25.86361 30.38235 28.12298
#
# Velocity S-wave (km/s) = 3.66740 3.97488 3.82423
# Velocity P-wave (km/s) = 5.77692 6.50145 6.14987
#
# Compressibility (1/GPa) = 0.03368115
#
# Stress axis : x y z
#
# Youngs Moduli (GPa) = 83.48385 26.67053 83.69596
#
# Poissons Ratio (x) = 0.21630 0.18568
# Poissons Ratio (y) = 0.67705 0.29640
# Poissons Ratio (z) = 0.18520 0.09445
#
# Static dielectric constant tensor:
#      x y z
#    x 3.729840 0.000000 0.000000 
#    y 0.000000 3.618090 0.000000 
#    z 0.000000 0.000000 3.431570 
# 
# 
# High freq. dielectric constant tensor:
#      x y z
#    x 1.768940 0.000000 0.000000 
#    y 0.000000 1.741570 0.000000 
#    z 0.000000 0.000000 1.748020 
# 
# From -- ./inp_files/25866.got.cif
#   From: 2010.03.12/outbox.cif.g09.slc.cpg/sg53_13_cif.got.tgz:25866.got - 2010.04.16 14:36:59.
