data_PCOD8220617
_publ_section_title
;
Structure prediction by ZEFSAII (Michael W. Deem and Ramdas Pophale) SiO2 
 PCOD8220617
Probable space group: P M N A
;
_chemical_formula_sum "Si O2"
_cell_formula_units_Z 52
_cell_length_a 9.723103
_cell_length_b 13.357392
_cell_length_c 21.011920
_cell_angle_alpha 90.000000
_cell_angle_beta 90.000000
_cell_angle_gamma 90.000000
_cell_volume 2728.929376
_symmetry_space_group_name_H-M "P M N A"
_symmetry_group_IT_number 53
_symmetry_cell_setting 'orthorhombic'
loop_
_space_group_symop_operation_xyz
x,y,z
1/2-x,-y,1/2+z
x,-y,-z
1/2-x,y,1/2-z
-x,-y,-z
1/2+x,y,1/2-z
-x,y,z
1/2+x,-y,1/2+z
loop_
_atom_site_type_symbol
_atom_site_label
_atom_site_fract_x
_atom_site_fract_y
_atom_site_fract_z
Si Si1 0.843377 0.116706 0.693649
Si Si2 0.340009 0.196678 0.446785
Si Si3 0.659094 0.536050 0.069051
Si Si4 0.250000 0.265619 0.250000
Si Si5 0.847435 0.893348 0.655618
Si Si6 0.847707 0.388810 0.134645
Si Si7 0.659102 0.231110 0.934101
O O1 0.750000 0.160479 0.750000
O O2 0.801891 0.171458 0.628951
O O3 0.000000 0.140911 0.711312
O O4 0.817032 0.998682 0.688338
O O5 0.500000 0.166966 0.455024
O O6 0.269492 0.120974 0.397286
O O7 0.322814 0.308795 0.421160
O O8 0.259863 0.187182 0.512768
O O9 0.500000 0.508422 0.077663
O O10 0.739866 0.478163 0.124808
O O11 0.688155 0.652587 0.077832
O O12 0.711636 0.500000 0.000000
O O13 0.151518 0.194312 0.291566
O O14 0.336254 0.336922 0.296592
O O15 0.000000 0.893516 0.624254
O O16 0.000000 0.434501 0.129213
O O17 0.500000 0.214243 0.954341
#
# Coordination Sequence:
#
# PCOD8220617 Si02
#       7
#     8   8   8   4   8   8   8
#     4  10  22  40  61  84 112 151 193 236 280 335
#     4  10  21  35  56  88 119 147 184 234 287 334
#     4  10  20  36  59  83 108 148 190 230 281 341
#     4  10  20  36  58  86 112 148 186 232 278 344
#     4  10  20  36  60  85 114 151 188 228 282 341
#     4  10  21  35  55  85 116 144 183 235 285 336
#     4  10  21  39  60  82 113 150 194 235 280 340
#
# _framework density 19.055091000000001
#
# number of rings (size 3 to 8) (size 9 to 14) (size 15 to 20)
#    0.000    2.000    2.308    0.923    0.000    6.462 
#    1.385    3.077    0.000    0.000    0.000    0.000 
#    0.000    0.000    0.000    0.000    0.000    0.000 
#
# Total GULP energy -644875.261040 kJ/mol
# GULP energy per Si atom -12401.447328 kJ/mol
# Density = 1.901172 g / cm^3
# Si number density = 19.055091 Si / 1000 Ang^3
#
#
#
# Elastic Constant Matrix: (Units=GPa)
#
#
# Indices 1 2 3 4 5 6 
#
# 1 113.7942 29.6385 71.6360 0.0000 0.0000 0.0000
# 2 29.6385 49.8653 41.0872 0.0000 0.0000 0.0000
# 3 71.6360 41.0872 131.9893 0.0000 0.0000 0.0000
# 4 0.0000 0.0000 0.0000 23.0708 0.0000 0.0000
# 5 0.0000 0.0000 0.0000 0.0000 33.1537 0.0000
# 6 0.0000 0.0000 0.0000 0.0000 0.0000 25.7244
#
#
#
# Elastic Compliance Matrix: (Units=1/GPa)
#
#
# Indices 1 2 3 4 5 6 
#
# 1 0.013613 -0.002694 -0.006549 0.000000 0.000000 0.000000
# 2 -0.002694 0.027506 -0.007100 0.000000 0.000000 0.000000
# 3 -0.006549 -0.007100 0.013341 0.000000 0.000000 0.000000
# 4 0.000000 0.000000 0.000000 0.043345 0.000000 0.000000
# 5 0.000000 0.000000 0.000000 0.000000 0.030163 0.000000
# 6 0.000000 0.000000 0.000000 0.000000 0.000000 0.038874
#
#
# Mechanical properties :
#
#
# Convention : Reuss Voigt Hill
#
# Bulk Modulus (GPa) = 45.93080 64.48581 55.20830
# Shear Modulus (GPa) = 24.17971 26.60890 25.39431
#
# Velocity S-wave (km/s) = 3.56608 3.74092 3.65455
# Velocity P-wave (km/s) = 6.41190 7.25083 6.84423
#
# Compressibility (1/GPa) = 0.02177188
#
# Stress axis : x y z
#
# Youngs Moduli (GPa) = 73.46168 36.35622 74.95640
#
# Poissons Ratio (x) = 0.09796 0.49091
# Poissons Ratio (y) = 0.19794 0.53218
# Poissons Ratio (z) = 0.48112 0.25812
#
# Static dielectric constant tensor:
#      x y z
#    x 3.486680 0.000000 0.000000 
#    y 0.000000 3.352250 0.000000 
#    z 0.000000 0.000000 3.371890 
# 
# 
# High freq. dielectric constant tensor:
#      x y z
#    x 1.743840 0.000000 0.000000 
#    y 0.000000 1.731260 0.000000 
#    z 0.000000 0.000000 1.735180 
# 
# From -- ./inp_files/30646.got.cif
#   From: 2010.03.12/outbox.cif.g09.slc.cpg/sg53_16_cif.got.tgz:30646.got - 2010.04.16 14:36:59.
