data_PCOD8220242
_publ_section_title
;
Structure prediction by ZEFSAII (Michael W. Deem and Ramdas Pophale) SiO2 
 PCOD8220242
Probable space group: P M N A
;
_chemical_formula_sum "Si O2"
_cell_formula_units_Z 48
_cell_length_a 8.642807
_cell_length_b 30.550352
_cell_length_c 9.340944
_cell_angle_alpha 90.000000
_cell_angle_beta 90.000000
_cell_angle_gamma 90.000000
_cell_volume 2466.390290
_symmetry_space_group_name_H-M "P M N A"
_symmetry_group_IT_number 53
_symmetry_cell_setting 'orthorhombic'
loop_
_space_group_symop_operation_xyz
x,y,z
1/2-x,-y,1/2+z
x,-y,-z
1/2-x,y,1/2-z
-x,-y,-z
1/2+x,y,1/2-z
-x,y,z
1/2+x,-y,1/2+z
loop_
_atom_site_type_symbol
_atom_site_label
_atom_site_fract_x
_atom_site_fract_y
_atom_site_fract_z
Si Si1 0.316484 0.193085 0.096506
Si Si2 0.817922 0.707911 0.601104
Si Si3 0.183402 0.369973 0.593620
Si Si4 0.317059 0.541035 0.406730
Si Si5 0.817021 0.880464 0.093042
Si Si6 0.319830 0.957138 0.906288
O O1 0.250000 0.177558 0.250000
O O2 0.500000 0.187263 0.099770
O O3 0.263875 0.242853 0.063583
O O4 0.245547 0.165328 0.967287
O O5 0.750000 0.692180 0.750000
O O6 0.755453 0.673237 0.486422
O O7 0.000000 0.706471 0.612149
O O8 0.250000 0.366016 0.750000
O O9 0.248973 0.414523 0.522208
O O10 0.000000 0.372388 0.595952
O O11 0.262578 0.500000 0.500000
O O12 0.250000 0.534039 0.250000
O O13 0.500000 0.545080 0.398301
O O14 0.750000 0.889912 0.250000
O O15 0.000000 0.878912 0.104976
O O16 0.767535 0.917782 0.982902
O O17 0.250000 0.965283 0.750000
O O18 0.500000 0.945303 0.892599
O O19 0.292446 0.000000 0.000000
#
# Coordination Sequence:
#
# PCOD8220242 Si02
#       6
#     8   8   8   8   8   8
#     4  10  20  38  60  84 115 150 190 233 281 334
#     4   9  20  36  56  82 111 144 183 227 273 326
#     4  10  20  35  54  78 107 140 178 220 270 324
#     4  10  21  36  54  77 104 137 177 219 267 322
#     4  12  25  41  61  87 119 154 194 239 287 338
#     4  11  24  42  65  92 122 157 196 238 286 339
#
# _framework density 19.461642000000001
#
# number of rings (size 3 to 8) (size 9 to 14) (size 15 to 20)
#    0.000    1.667    0.000    5.500    0.000    7.333 
#    0.000    5.000    0.000    0.000    0.000    0.000 
#    0.000    0.000    0.000    0.000    0.000    0.000 
#
# Total GULP energy -595296.068596 kJ/mol
# GULP energy per Si atom -12402.001429 kJ/mol
# Density = 1.941735 g / cm^3
# Si number density = 19.461642 Si / 1000 Ang^3
#
#
#
# Elastic Constant Matrix: (Units=GPa)
#
#
# Indices 1 2 3 4 5 6 
#
# 1 99.4889 45.1593 42.5956 0.0000 0.0000 0.0000
# 2 45.1593 123.5054 60.5428 0.0000 0.0000 0.0000
# 3 42.5956 60.5428 105.6123 0.0000 0.0000 0.0000
# 4 0.0000 0.0000 0.0000 39.2863 0.0000 0.0000
# 5 0.0000 0.0000 0.0000 0.0000 31.0381 0.0000
# 6 0.0000 0.0000 0.0000 0.0000 0.0000 15.3958
#
#
#
# Elastic Compliance Matrix: (Units=1/GPa)
#
#
# Indices 1 2 3 4 5 6 
#
# 1 0.012909 -0.003015 -0.003478 0.000000 0.000000 0.000000
# 2 -0.003015 0.011966 -0.005643 0.000000 0.000000 0.000000
# 3 -0.003478 -0.005643 0.014106 0.000000 0.000000 0.000000
# 4 0.000000 0.000000 0.000000 0.025454 0.000000 0.000000
# 5 0.000000 0.000000 0.000000 0.000000 0.032218 0.000000
# 6 0.000000 0.000000 0.000000 0.000000 0.000000 0.064953
#
#
# Mechanical properties :
#
#
# Convention : Reuss Voigt Hill
#
# Bulk Modulus (GPa) = 67.98964 69.46690 68.72827
# Shear Modulus (GPa) = 26.20789 29.16464 27.68626
#
# Velocity S-wave (km/s) = 3.67365 3.87534 3.77584
# Velocity P-wave (km/s) = 7.28047 7.46968 7.37568
#
# Compressibility (1/GPa) = 0.01470812
#
# Stress axis : x y z
#
# Youngs Moduli (GPa) = 77.46454 83.57235 70.88990
#
# Poissons Ratio (x) = 0.25199 0.24656
# Poissons Ratio (y) = 0.23357 0.40005
# Poissons Ratio (z) = 0.26942 0.47162
#
# Static dielectric constant tensor:
#      x y z
#    x 3.671490 0.000000 0.000000 
#    y 0.000000 4.065660 0.000000 
#    z 0.000000 0.000000 3.609030 
# 
# 
# High freq. dielectric constant tensor:
#      x y z
#    x 1.770380 0.000000 0.000000 
#    y 0.000000 1.775940 0.000000 
#    z 0.000000 0.000000 1.755410 
# 
# From -- ./inp_files/6609.got.cif
#   From: 2010.03.12/outbox.cif.g09.slc.cpg/sg53_4_cif.got.tgz:6609.got - 2010.04.16 14:36:59.
