data_PCOD8220994
_publ_section_title
;
Structure prediction by ZEFSAII (Michael W. Deem and Ramdas Pophale) SiO2 
 PCOD8220994
Probable space group: P M N A
;
_chemical_formula_sum "Si O2"
_cell_formula_units_Z 40
_cell_length_a 22.165166
_cell_length_b 9.583931
_cell_length_c 9.609720
_cell_angle_alpha 90.000000
_cell_angle_beta 90.000000
_cell_angle_gamma 90.000000
_cell_volume 2041.387261
_symmetry_space_group_name_H-M "P M N A"
_symmetry_group_IT_number 53
_symmetry_cell_setting 'orthorhombic'
loop_
_space_group_symop_operation_xyz
x,y,z
1/2-x,-y,1/2+z
x,-y,-z
1/2-x,y,1/2-z
-x,-y,-z
1/2+x,y,1/2-z
-x,y,z
1/2+x,-y,1/2+z
loop_
_atom_site_type_symbol
_atom_site_label
_atom_site_fract_x
_atom_site_fract_y
_atom_site_fract_z
Si Si1 0.239883 0.867694 0.584711
Si Si2 0.929373 0.656896 0.222634
Si Si3 0.638164 0.343276 0.999649
Si Si4 0.873600 0.160070 0.016721
Si Si5 0.068134 0.339411 0.235836
O O1 0.250000 0.897724 0.750000
O O2 0.192632 0.745953 0.560252
O O3 0.301638 0.825539 0.506365
O O4 0.213890 0.000000 0.500000
O O5 0.886652 0.703897 0.350082
O O6 0.909399 0.750821 0.095358
O O7 0.917957 0.495751 0.181071
O O8 0.000000 0.680610 0.257780
O O9 0.580285 0.334501 0.100025
O O10 0.663686 0.500000 0.000000
O O11 0.890735 0.221603 0.166339
O O12 0.893905 0.000000 0.000000
O O13 0.000000 0.297997 0.204638
#
# Coordination Sequence:
#
# PCOD8220994 Si02
#       5
#     8   8   8   8   8
#     4  11  25  44  64  88 121 162 203 248 303 358
#     4  10  22  39  62  92 123 158 198 242 304 364
#     4  10  22  40  64  92 120 155 202 252 296 357
#     4  11  24  39  59  88 122 159 203 252 295 353
#     4  10  20  39  63  88 122 160 196 248 306 358
#
# _framework density 19.594517
#
# number of rings (size 3 to 8) (size 9 to 14) (size 15 to 20)
#    0.000    1.600    2.000    1.800    5.600    7.200 
#    0.000    0.000    0.000    3.600    0.000    0.000 
#    0.000    0.000    0.000    0.000    0.000    0.000 
#
# Total GULP energy -495968.261485 kJ/mol
# GULP energy per Si atom -12399.206537 kJ/mol
# Density = 1.954992 g / cm^3
# Si number density = 19.594517 Si / 1000 Ang^3
#
#
#
# Elastic Constant Matrix: (Units=GPa)
#
#
# Indices 1 2 3 4 5 6 
#
# 1 71.7002 48.5623 21.7739 0.0000 0.0000 0.0000
# 2 48.5623 104.7480 42.0012 0.0000 0.0000 0.0000
# 3 21.7739 42.0012 84.1991 0.0000 0.0000 0.0000
# 4 0.0000 0.0000 0.0000 27.5790 0.0000 0.0000
# 5 0.0000 0.0000 0.0000 0.0000 30.2650 0.0000
# 6 0.0000 0.0000 0.0000 0.0000 0.0000 22.2379
#
#
#
# Elastic Compliance Matrix: (Units=1/GPa)
#
#
# Indices 1 2 3 4 5 6 
#
# 1 0.020363 -0.009162 -0.000696 0.000000 0.000000 0.000000
# 2 -0.009162 0.016056 -0.005640 0.000000 0.000000 0.000000
# 3 -0.000696 -0.005640 0.014870 0.000000 0.000000 0.000000
# 4 0.000000 0.000000 0.000000 0.036259 0.000000 0.000000
# 5 0.000000 0.000000 0.000000 0.000000 0.033041 0.000000
# 6 0.000000 0.000000 0.000000 0.000000 0.000000 0.044968
#
#
# Mechanical properties :
#
#
# Convention : Reuss Voigt Hill
#
# Bulk Modulus (GPa) = 49.27514 53.92465 51.59990
# Shear Modulus (GPa) = 24.59207 25.90372 25.24789
#
# Velocity S-wave (km/s) = 3.54651 3.63986 3.59349
# Velocity P-wave (km/s) = 6.47860 6.72643 6.60368
#
# Compressibility (1/GPa) = 0.02029421
#
# Stress axis : x y z
#
# Youngs Moduli (GPa) = 49.10756 62.28348 67.24995
#
# Poissons Ratio (x) = 0.57062 0.04679
# Poissons Ratio (y) = 0.44991 0.37928
# Poissons Ratio (z) = 0.03417 0.35127
#
# Static dielectric constant tensor:
#      x y z
#    x 3.483980 0.000000 0.000000 
#    y 0.000000 3.658470 0.000000 
#    z 0.000000 0.000000 3.654300 
# 
# 
# High freq. dielectric constant tensor:
#      x y z
#    x 1.766540 0.000000 0.000000 
#    y 0.000000 1.761890 0.000000 
#    z 0.000000 0.000000 1.774080 
# 
# From -- ./inp_files/11517.got.cif
#   From: 2010.03.12/outbox.cif.g09.slc.cpg/sg53_6_cif.got.tgz:11517.got - 2010.04.16 14:36:59.
