data_PCOD8220588
_publ_section_title
;
Structure prediction by ZEFSAII (Michael W. Deem and Ramdas Pophale) SiO2 
 PCOD8220588
Probable space group: P M N A
;
_chemical_formula_sum "Si O2"
_cell_formula_units_Z 48
_cell_length_a 9.503470
_cell_length_b 28.677002
_cell_length_c 9.184405
_cell_angle_alpha 90.000000
_cell_angle_beta 90.000000
_cell_angle_gamma 90.000000
_cell_volume 2503.035338
_symmetry_space_group_name_H-M "P M N A"
_symmetry_group_IT_number 53
_symmetry_cell_setting 'orthorhombic'
loop_
_space_group_symop_operation_xyz
x,y,z
1/2-x,-y,1/2+z
x,-y,-z
1/2-x,y,1/2-z
-x,-y,-z
1/2+x,y,1/2-z
-x,y,z
1/2+x,-y,1/2+z
loop_
_atom_site_type_symbol
_atom_site_label
_atom_site_fract_x
_atom_site_fract_y
_atom_site_fract_z
Si Si1 0.500000 0.450230 0.075466
Si Si2 0.000000 0.452443 0.084802
Si Si3 0.667402 0.110019 0.396627
Si Si4 0.164974 0.044204 0.603845
Si Si5 0.841046 0.782028 0.885642
Si Si6 0.334608 0.701480 0.397797
Si Si7 0.746873 0.613427 0.579716
O O1 0.500000 0.462678 0.244697
O O2 0.623731 0.416772 0.026072
O O3 0.500000 0.500000 0.000000
O O4 0.127287 0.421561 0.033908
O O5 0.000000 0.500000 0.000000
O O6 0.750000 0.095206 0.250000
O O7 0.500000 0.096625 0.386472
O O8 0.747055 0.085849 0.530328
O O9 0.687673 0.164581 0.427081
O O10 0.250000 0.031435 0.750000
O O11 0.000000 0.057846 0.633668
O O12 0.170724 0.000000 0.500000
O O13 0.750000 0.765018 0.750000
O O14 0.000000 0.774610 0.834203
O O15 0.807055 0.751051 0.026031
O O16 0.250000 0.702457 0.250000
O O17 0.500000 0.692526 0.371199
O O18 0.266934 0.661792 0.497175
O O19 0.750000 0.625650 0.750000
#
# Coordination Sequence:
#
# PCOD8220588 Si02
#       7
#     4   4   8   8   8   8   8
#     4  10  22  36  58  88 112 142 188 230 277 340
#     4  10  20  36  58  82 114 150 182 226 279 330
#     4  10  20  37  62  90 122 158 200 248 298 357
#     4  11  24  40  60  87 121 162 206 254 307 361
#     4   9  20  39  62  89 119 155 196 239 291 350
#     4  11  24  40  58  85 118 151 190 239 290 340
#     4  10  21  39  60  82 112 150 188 230 279 338
#
# _framework density 19.176715999999999
#
# number of rings (size 3 to 8) (size 9 to 14) (size 15 to 20)
#    0.000    1.833    0.833    2.500    1.167    6.000 
#    0.000    1.667    0.000    0.000    0.000    0.000 
#    0.000    0.000    0.000    0.000    0.000    0.000 
#
# Total GULP energy -595016.018737 kJ/mol
# GULP energy per Si atom -12396.167057 kJ/mol
# Density = 1.913307 g / cm^3
# Si number density = 19.176716 Si / 1000 Ang^3
#
#
#
# Elastic Constant Matrix: (Units=GPa)
#
#
# Indices 1 2 3 4 5 6 
#
# 1 161.0707 60.7394 65.5496 0.0000 0.0000 0.0000
# 2 60.7394 100.3305 56.0876 0.0000 0.0000 0.0000
# 3 65.5496 56.0876 102.4340 0.0000 0.0000 0.0000
# 4 0.0000 0.0000 0.0000 37.2987 0.0000 0.0000
# 5 0.0000 0.0000 0.0000 0.0000 38.0506 0.0000
# 6 0.0000 0.0000 0.0000 0.0000 0.0000 34.5374
#
#
#
# Elastic Compliance Matrix: (Units=1/GPa)
#
#
# Indices 1 2 3 4 5 6 
#
# 1 0.009070 -0.003237 -0.004031 0.000000 0.000000 0.000000
# 2 -0.003237 0.015519 -0.006426 0.000000 0.000000 0.000000
# 3 -0.004031 -0.006426 0.015861 0.000000 0.000000 0.000000
# 4 0.000000 0.000000 0.000000 0.026811 0.000000 0.000000
# 5 0.000000 0.000000 0.000000 0.000000 0.026281 0.000000
# 6 0.000000 0.000000 0.000000 0.000000 0.000000 0.028954
#
#
# Mechanical properties :
#
#
# Convention : Reuss Voigt Hill
#
# Bulk Modulus (GPa) = 76.56655 80.95427 78.76041
# Shear Modulus (GPa) = 32.41750 34.07459 33.24604
#
# Velocity S-wave (km/s) = 4.11598 4.21987 4.16825
# Velocity P-wave (km/s) = 7.91214 8.12709 8.02033
#
# Compressibility (1/GPa) = 0.01306053
#
# Stress axis : x y z
#
# Youngs Moduli (GPa) = 110.25582 64.43684 63.04878
#
# Poissons Ratio (x) = 0.20859 0.25418
# Poissons Ratio (y) = 0.35691 0.40515
# Poissons Ratio (z) = 0.44450 0.41407
#
# Static dielectric constant tensor:
#      x y z
#    x 3.859370 0.000000 0.000000 
#    y 0.000000 -7.573840 0.000000 
#    z 0.000000 0.000000 3.411500 
# 
# 
# High freq. dielectric constant tensor:
#      x y z
#    x 1.765890 0.000000 0.000000 
#    y 0.000000 1.757460 0.000000 
#    z 0.000000 0.000000 1.739280 
# 
# From -- ./inp_files/6843.got.cif
#   From: 2010.03.12/outbox.cif.g09.slc.cpg/sg53_4_cif.got.tgz:6843.got - 2010.04.16 14:36:59.
