data_PCOD8220489
_publ_section_title
;
Structure prediction by ZEFSAII (Michael W. Deem and Ramdas Pophale) SiO2 
 PCOD8220489
Probable space group: P M N A
;
_chemical_formula_sum "Si O2"
_cell_formula_units_Z 32
_cell_length_a 27.332950
_cell_length_b 12.554442
_cell_length_c 4.956993
_cell_angle_alpha 90.000000
_cell_angle_beta 90.000000
_cell_angle_gamma 90.000000
_cell_volume 1700.991828
_symmetry_space_group_name_H-M "P M N A"
_symmetry_group_IT_number 53
_symmetry_cell_setting 'orthorhombic'
loop_
_space_group_symop_operation_xyz
x,y,z
1/2-x,-y,1/2+z
x,-y,-z
1/2-x,y,1/2-z
-x,-y,-z
1/2+x,y,1/2-z
-x,y,z
1/2+x,-y,1/2+z
loop_
_atom_site_type_symbol
_atom_site_label
_atom_site_fract_x
_atom_site_fract_y
_atom_site_fract_z
Si Si1 0.853651 0.121184 0.401706
Si Si2 0.095278 0.207640 0.873538
Si Si3 0.446165 0.570590 0.243408
Si Si4 0.250000 0.072396 0.250000
Si Si5 0.000000 0.923580 0.247429
O O1 0.860036 0.189786 0.669885
O O2 0.797898 0.142516 0.310495
O O3 0.863371 0.000000 0.500000
O O4 0.891063 0.161543 0.169255
O O5 0.087009 0.333562 0.855027
O O6 0.047787 0.149405 0.755864
O O7 0.454048 0.500000 0.500000
O O8 0.500000 0.611347 0.143855
O O9 0.422139 0.500000 0.000000
O O10 0.265225 0.000000 0.500000
O O11 0.000000 0.000000 0.500000
O O12 0.000000 0.000000 0.000000
#
# Coordination Sequence:
#
# PCOD8220489 Si02
#       5
#     8   8   8   4   4
#     4  11  22  36  57  82 116 148 186 227 271 333
#     4  12  22  37  55  83 111 151 185 224 278 332
#     4  10  21  38  58  78 106 143 191 242 276 314
#     4  10  20  36  56  80 110 148 190 232 270 310
#     4  12  24  34  48  76 118 152 176 204 259 336
#
# _framework density 18.812555
#
# number of rings (size 3 to 8) (size 9 to 14) (size 15 to 20)
#    0.000    1.000    1.250    9.000    0.000    0.000 
#    0.000    0.000    0.000    0.000    0.000   17.500 
#    0.000    0.000    0.000    0.000    0.000    0.000 
#
# Total GULP energy -396574.007299 kJ/mol
# GULP energy per Si atom -12392.937728 kJ/mol
# Density = 1.876974 g / cm^3
# Si number density = 18.812555 Si / 1000 Ang^3
#
#
#
# Elastic Constant Matrix: (Units=GPa)
#
#
# Indices 1 2 3 4 5 6 
#
# 1 77.1592 40.5515 18.6158 0.0000 0.0000 0.0000
# 2 40.5515 109.3321 41.1843 0.0000 0.0000 0.0000
# 3 18.6158 41.1843 121.2796 0.0000 0.0000 0.0000
# 4 0.0000 0.0000 0.0000 32.5196 0.0000 0.0000
# 5 0.0000 0.0000 0.0000 0.0000 37.1955 0.0000
# 6 0.0000 0.0000 0.0000 0.0000 0.0000 15.0961
#
#
#
# Elastic Compliance Matrix: (Units=1/GPa)
#
#
# Indices 1 2 3 4 5 6 
#
# 1 0.016126 -0.005789 -0.000509 0.000000 0.000000 0.000000
# 2 -0.005789 0.012566 -0.003379 0.000000 0.000000 0.000000
# 3 -0.000509 -0.003379 0.009471 0.000000 0.000000 0.000000
# 4 0.000000 0.000000 0.000000 0.030751 0.000000 0.000000
# 5 0.000000 0.000000 0.000000 0.000000 0.026885 0.000000
# 6 0.000000 0.000000 0.000000 0.000000 0.000000 0.066242
#
#
# Mechanical properties :
#
#
# Convention : Reuss Voigt Hill
#
# Bulk Modulus (GPa) = 53.16725 56.49715 54.83220
# Shear Modulus (GPa) = 26.64324 30.79019 28.71672
#
# Velocity S-wave (km/s) = 3.76739 4.04998 3.91124
# Velocity P-wave (km/s) = 6.87366 7.20879 7.04322
#
# Compressibility (1/GPa) = 0.01880857
#
# Stress axis : x y z
#
# Youngs Moduli (GPa) = 62.01302 79.57738 105.58628
#
# Poissons Ratio (x) = 0.46069 0.05378
# Poissons Ratio (y) = 0.35900 0.35674
# Poissons Ratio (z) = 0.03158 0.26887
#
# Static dielectric constant tensor:
#      x y z
#    x 3.468740 0.000000 0.000000 
#    y 0.000000 3.146730 0.000000 
#    z 0.000000 0.000000 3.590090 
# 
# 
# High freq. dielectric constant tensor:
#      x y z
#    x 1.716130 0.000000 0.000000 
#    y 0.000000 1.708120 0.000000 
#    z 0.000000 0.000000 1.758530 
# 
# From -- ./inp_files/3430.got.cif
#   From: 2010.03.12/outbox.cif.g09.slc.cpg/sg53_2_cif.got.tgz:3430.got - 2010.04.16 14:36:59.
