data_PCOD8220938
_publ_section_title
;
Structure prediction by ZEFSAII (Michael W. Deem and Ramdas Pophale) SiO2 
 PCOD8220938
Probable space group: P M N A
;
_chemical_formula_sum "Si O2"
_cell_formula_units_Z 48
_cell_length_a 16.666510
_cell_length_b 9.803701
_cell_length_c 14.605722
_cell_angle_alpha 90.000000
_cell_angle_beta 90.000000
_cell_angle_gamma 90.000000
_cell_volume 2386.479756
_symmetry_space_group_name_H-M "P M N A"
_symmetry_group_IT_number 53
_symmetry_cell_setting 'orthorhombic'
loop_
_space_group_symop_operation_xyz
x,y,z
1/2-x,-y,1/2+z
x,-y,-z
1/2-x,y,1/2-z
-x,-y,-z
1/2+x,y,1/2-z
-x,y,z
1/2+x,-y,1/2+z
loop_
_atom_site_type_symbol
_atom_site_label
_atom_site_fract_x
_atom_site_fract_y
_atom_site_fract_z
Si Si1 0.595076 0.709306 0.751405
Si Si2 0.594168 0.981547 0.246534
Si Si3 0.093399 0.371692 0.446864
Si Si4 0.803543 0.764997 0.163029
Si Si5 0.405621 0.511322 0.394454
Si Si6 0.660608 0.869451 0.058794
O O1 0.500000 0.715144 0.759584
O O2 0.630645 0.640952 0.844433
O O3 0.621595 0.623493 0.661935
O O4 0.627132 0.863940 0.745294
O O5 0.500000 0.972750 0.266529
O O6 0.641860 0.898570 0.323438
O O7 0.612528 0.915948 0.148350
O O8 0.134005 0.500000 0.500000
O O9 0.104415 0.232470 0.502445
O O10 0.000000 0.401339 0.436385
O O11 0.750000 0.729602 0.250000
O O12 0.861692 0.639763 0.147188
O O13 0.744404 0.793517 0.078667
O O14 0.380719 0.500000 0.500000
O O15 0.500000 0.535372 0.383123
O O16 0.682054 0.000000 0.000000
#
# Coordination Sequence:
#
# PCOD8220938 Si02
#       6
#     8   8   8   8   8   8
#     4   9  19  36  61  92 118 147 198 255 304 352
#     4  10  20  38  63  88 117 158 206 251 300 359
#     4  10  21  35  58  94 127 156 197 248 306 372
#     4  10  24  40  56  87 122 160 200 240 301 367
#     4  10  22  43  66  86 114 157 209 259 300 349
#     4  11  22  38  59  87 130 164 194 245 311 381
#
# _framework density 20.113306000000001
#
# number of rings (size 3 to 8) (size 9 to 14) (size 15 to 20)
#    0.000    2.000    1.667    1.000    4.667    2.667 
#    0.000    2.500    0.000    5.000    0.000    0.000 
#    0.000    0.000    0.000    0.000    0.000    0.000 
#
# Total GULP energy -595207.036594 kJ/mol
# GULP energy per Si atom -12400.146596 kJ/mol
# Density = 2.006753 g / cm^3
# Si number density = 20.113306 Si / 1000 Ang^3
#
#
#
# Elastic Constant Matrix: (Units=GPa)
#
#
# Indices 1 2 3 4 5 6 
#
# 1 41.6816 24.2554 28.7030 0.0000 0.0000 0.0000
# 2 24.2554 151.8615 69.1010 0.0000 0.0000 0.0000
# 3 28.7030 69.1010 96.8019 0.0000 0.0000 0.0000
# 4 0.0000 0.0000 0.0000 32.1452 0.0000 0.0000
# 5 0.0000 0.0000 0.0000 0.0000 11.1844 0.0000
# 6 0.0000 0.0000 0.0000 0.0000 0.0000 8.6506
#
#
#
# Elastic Compliance Matrix: (Units=1/GPa)
#
#
# Indices 1 2 3 4 5 6 
#
# 1 0.030273 -0.001112 -0.008183 0.000000 0.000000 0.000000
# 2 -0.001112 0.009794 -0.006661 0.000000 0.000000 0.000000
# 3 -0.008183 -0.006661 0.017512 0.000000 0.000000 0.000000
# 4 0.000000 0.000000 0.000000 0.031109 0.000000 0.000000
# 5 0.000000 0.000000 0.000000 0.000000 0.089411 0.000000
# 6 0.000000 0.000000 0.000000 0.000000 0.000000 0.115599
#
#
# Mechanical properties :
#
#
# Convention : Reuss Voigt Hill
#
# Bulk Modulus (GPa) = 38.96097 59.38487 49.17292
# Shear Modulus (GPa) = 14.96268 21.61507 18.28888
#
# Velocity S-wave (km/s) = 2.73045 3.28177 3.01872
# Velocity P-wave (km/s) = 5.41786 6.62942 6.05403
#
# Compressibility (1/GPa) = 0.02566671
#
# Stress axis : x y z
#
# Youngs Moduli (GPa) = 33.03250 102.10689 57.10437
#
# Poissons Ratio (x) = 0.11354 0.46726
# Poissons Ratio (y) = 0.03673 0.38039
# Poissons Ratio (z) = 0.27029 0.68017
#
# Static dielectric constant tensor:
#      x y z
#    x 3.463170 0.000000 0.000000 
#    y 0.000000 3.831750 0.000000 
#    z 0.000000 0.000000 3.920890 
# 
# 
# High freq. dielectric constant tensor:
#      x y z
#    x 1.768940 0.000000 0.000000 
#    y 0.000000 1.798390 0.000000 
#    z 0.000000 0.000000 1.785580 
# 
# From -- ./inp_files/23603.got.cif
#   From: 2010.03.12/outbox.cif.g09.slc.cpg/sg53_12_cif.got.tgz:23603.got - 2010.04.16 14:36:59.
