data_PCOD8220502
_publ_section_title
;
Structure prediction by ZEFSAII (Michael W. Deem and Ramdas Pophale) SiO2 
 PCOD8220502
Probable space group: P M N A
;
_chemical_formula_sum "Si O2"
_cell_formula_units_Z 56
_cell_length_a 9.069179
_cell_length_b 15.325081
_cell_length_c 20.790151
_cell_angle_alpha 90.000000
_cell_angle_beta 90.000000
_cell_angle_gamma 90.000000
_cell_volume 2889.537906
_symmetry_space_group_name_H-M "P M N A"
_symmetry_group_IT_number 53
_symmetry_cell_setting 'orthorhombic'
loop_
_space_group_symop_operation_xyz
x,y,z
1/2-x,-y,1/2+z
x,-y,-z
1/2-x,y,1/2-z
-x,-y,-z
1/2+x,y,1/2-z
-x,y,z
1/2+x,-y,1/2+z
loop_
_atom_site_type_symbol
_atom_site_label
_atom_site_fract_x
_atom_site_fract_y
_atom_site_fract_z
Si Si1 0.663832 0.146566 0.808034
Si Si2 0.825597 0.920239 0.951527
Si Si3 0.823305 0.952186 0.682967
Si Si4 0.667082 0.313205 0.880492
Si Si5 0.330735 0.446928 0.439783
Si Si6 0.167667 0.728800 0.997899
Si Si7 0.324859 0.460370 0.685637
O O1 0.750000 0.191599 0.750000
O O2 0.500000 0.132902 0.782684
O O3 0.673651 0.209391 0.868674
O O4 0.728166 0.052225 0.825123
O O5 0.742885 0.913435 0.882919
O O6 0.781414 0.826998 0.982503
O O7 0.000000 0.927082 0.938774
O O8 0.775996 0.000000 0.000000
O O9 0.750000 0.915326 0.750000
O O10 0.000000 0.937153 0.685019
O O11 0.500000 0.348498 0.877120
O O12 0.766712 0.362776 0.828337
O O13 0.732076 0.321433 0.950964
O O14 0.257244 0.500000 0.500000
O O15 0.500000 0.476075 0.438719
O O16 0.316204 0.341025 0.439793
O O17 0.263166 0.479563 0.372447
O O18 0.000000 0.731732 0.023223
O O19 0.250000 0.496999 0.750000
O O20 0.500000 0.460046 0.694067
#
# Coordination Sequence:
#
# PCOD8220502 Si02
#       7
#     8   8   8   8   8   8   8
#     4   9  19  32  47  71 103 141 181 222 272 335
#     4  10  21  36  56  86 120 151 190 239 289 343
#     4  10  20  36  57  78 107 149 194 239 290 342
#     4  11  21  33  51  80 114 144 181 227 282 340
#     4   9  17  35  60  81 104 144 191 226 269 330
#     4  10  20  36  58  81 107 147 191 230 279 335
#     4  11  22  37  57  81 112 145 185 231 282 338
#
# _framework density 19.380262999999999
#
# number of rings (size 3 to 8) (size 9 to 14) (size 15 to 20)
#    0.000    2.000    1.429    2.571    0.000    3.714 
#    0.000    2.857    0.000    1.714    0.000    0.000 
#    0.000    0.000    0.000    0.000    0.000    0.000 
#
# Total GULP energy -693808.273859 kJ/mol
# GULP energy per Si atom -12389.433462 kJ/mol
# Density = 1.933615 g / cm^3
# Si number density = 19.380263 Si / 1000 Ang^3
#
#
#
# Elastic Constant Matrix: (Units=GPa)
#
#
# Indices 1 2 3 4 5 6 
#
# 1 67.0759 19.2964 43.8606 0.0000 0.0000 0.0000
# 2 19.2964 95.0726 37.1484 0.0000 0.0000 0.0000
# 3 43.8606 37.1484 138.0734 0.0000 0.0000 0.0000
# 4 0.0000 0.0000 0.0000 26.4958 0.0000 0.0000
# 5 0.0000 0.0000 0.0000 0.0000 35.4064 0.0000
# 6 0.0000 0.0000 0.0000 0.0000 0.0000 17.3802
#
#
#
# Elastic Compliance Matrix: (Units=1/GPa)
#
#
# Indices 1 2 3 4 5 6 
#
# 1 0.019054 -0.001679 -0.005601 0.000000 0.000000 0.000000
# 2 -0.001679 0.011902 -0.002669 0.000000 0.000000 0.000000
# 3 -0.005601 -0.002669 0.009740 0.000000 0.000000 0.000000
# 4 0.000000 0.000000 0.000000 0.037742 0.000000 0.000000
# 5 0.000000 0.000000 0.000000 0.000000 0.028243 0.000000
# 6 0.000000 0.000000 0.000000 0.000000 0.000000 0.057537
#
#
# Mechanical properties :
#
#
# Convention : Reuss Voigt Hill
#
# Bulk Modulus (GPa) = 48.08104 55.64808 51.86456
# Shear Modulus (GPa) = 26.17148 29.18425 27.67787
#
# Velocity S-wave (km/s) = 3.67879 3.88477 3.78318
# Velocity P-wave (km/s) = 6.55041 6.99271 6.77517
#
# Compressibility (1/GPa) = 0.02079822
#
# Stress axis : x y z
#
# Youngs Moduli (GPa) = 52.48269 84.02062 102.67137
#
# Poissons Ratio (x) = 0.14105 0.57507
# Poissons Ratio (y) = 0.08811 0.27402
# Poissons Ratio (z) = 0.29396 0.22424
#
# Static dielectric constant tensor:
#      x y z
#    x 3.462450 0.000000 0.000000 
#    y 0.000000 3.471310 0.000000 
#    z 0.000000 0.000000 3.603100 
# 
# 
# High freq. dielectric constant tensor:
#      x y z
#    x 1.741860 0.000000 0.000000 
#    y 0.000000 1.744740 0.000000 
#    z 0.000000 0.000000 1.752470 
# 
# From -- ./inp_files/30871.got.cif
#   From: 2010.03.12/outbox.cif.g09.slc.cpg/sg53_16_cif.got.tgz:30871.got - 2010.04.16 14:36:59.
