data_PCOD8220840
_publ_section_title
;
Structure prediction by ZEFSAII (Michael W. Deem and Ramdas Pophale) SiO2 
 PCOD8220840
Probable space group: P M N A
;
_chemical_formula_sum "Si O2"
_cell_formula_units_Z 48
_cell_length_a 8.758648
_cell_length_b 16.806621
_cell_length_c 15.839764
_cell_angle_alpha 90.000000
_cell_angle_beta 90.000000
_cell_angle_gamma 90.000000
_cell_volume 2331.665174
_symmetry_space_group_name_H-M "P M N A"
_symmetry_group_IT_number 53
_symmetry_cell_setting 'orthorhombic'
loop_
_space_group_symop_operation_xyz
x,y,z
1/2-x,-y,1/2+z
x,-y,-z
1/2-x,y,1/2-z
-x,-y,-z
1/2+x,y,1/2-z
-x,y,z
1/2+x,-y,1/2+z
loop_
_atom_site_type_symbol
_atom_site_label
_atom_site_fract_x
_atom_site_fract_y
_atom_site_fract_z
Si Si1 0.674327 0.825753 0.335509
Si Si2 0.318352 0.191524 0.338067
Si Si3 0.181749 0.090140 0.002171
Si Si4 0.824701 0.660209 0.091740
Si Si5 0.679467 0.658379 0.918311
Si Si6 0.180529 0.509767 0.839664
O O1 0.750000 0.857764 0.250000
O O2 0.500000 0.851920 0.330305
O O3 0.747812 0.866179 0.418807
O O4 0.693254 0.730443 0.340359
O O5 0.250000 0.159280 0.250000
O O6 0.500000 0.193520 0.332796
O O7 0.259207 0.133877 0.413153
O O8 0.256479 0.280359 0.353536
O O9 0.000000 0.094124 0.001783
O O10 0.242254 0.000000 0.000000
O O11 0.769097 0.578828 0.134438
O O12 0.000000 0.653943 0.060158
O O13 0.717940 0.683374 0.013537
O O14 0.500000 0.657436 0.902371
O O15 0.749810 0.570727 0.906784
O O16 0.250000 0.531638 0.750000
O O17 0.000000 0.518692 0.836753
#
# Coordination Sequence:
#
# PCOD8220840 Si02
#       6
#     8   8   8   8   8   8
#     4  10  20  37  61  90 122 158 200 242 296 356
#     4  11  22  40  64  90 124 161 205 250 301 363
#     4   9  19  38  64  90 121 161 199 242 301 368
#     4  10  21  39  60  84 116 159 201 246 302 360
#     4  12  24  38  59  86 118 156 205 253 302 354
#     4  11  23  38  57  82 118 157 202 249 301 357
#
# _framework density 20.586145999999999
#
# number of rings (size 3 to 8) (size 9 to 14) (size 15 to 20)
#    0.000    1.500    1.667    4.000    0.000    4.667 
#    0.000    0.000    0.000    3.500    0.000    0.000 
#    0.000    0.000    0.000    0.000    0.000    0.000 
#
# Total GULP energy -595388.409744 kJ/mol
# GULP energy per Si atom -12403.925203 kJ/mol
# Density = 2.053929 g / cm^3
# Si number density = 20.586146 Si / 1000 Ang^3
#
#
#
# Elastic Constant Matrix: (Units=GPa)
#
#
# Indices 1 2 3 4 5 6 
#
# 1 76.5769 29.4039 41.9934 0.0000 0.0000 0.0000
# 2 29.4039 119.9850 46.2378 0.0000 0.0000 0.0000
# 3 41.9934 46.2378 151.0404 0.0000 0.0000 0.0000
# 4 0.0000 0.0000 0.0000 25.6622 0.0000 0.0000
# 5 0.0000 0.0000 0.0000 0.0000 37.6260 0.0000
# 6 0.0000 0.0000 0.0000 0.0000 0.0000 13.4328
#
#
#
# Elastic Compliance Matrix: (Units=1/GPa)
#
#
# Indices 1 2 3 4 5 6 
#
# 1 0.016048 -0.002509 -0.003694 0.000000 0.000000 0.000000
# 2 -0.002509 0.009841 -0.002315 0.000000 0.000000 0.000000
# 3 -0.003694 -0.002315 0.008356 0.000000 0.000000 0.000000
# 4 0.000000 0.000000 0.000000 0.038968 0.000000 0.000000
# 5 0.000000 0.000000 0.000000 0.000000 0.026577 0.000000
# 6 0.000000 0.000000 0.000000 0.000000 0.000000 0.074445
#
#
# Mechanical properties :
#
#
# Convention : Reuss Voigt Hill
#
# Bulk Modulus (GPa) = 58.10695 64.76362 61.43528
# Shear Modulus (GPa) = 25.37969 30.67535 28.02752
#
# Velocity S-wave (km/s) = 3.51501 3.86437 3.69382
# Velocity P-wave (km/s) = 6.69038 7.17211 6.93543
#
# Compressibility (1/GPa) = 0.01720965
#
# Stress axis : x y z
#
# Youngs Moduli (GPa) = 62.31390 101.61072 119.66923
#
# Poissons Ratio (x) = 0.25498 0.44200
# Poissons Ratio (y) = 0.15637 0.27705
# Poissons Ratio (z) = 0.23016 0.23524
#
# Static dielectric constant tensor:
#      x y z
#    x 3.470510 0.000000 0.000000 
#    y 0.000000 3.804240 0.000000 
#    z 0.000000 0.000000 3.800710 
# 
# 
# High freq. dielectric constant tensor:
#      x y z
#    x 1.782220 0.000000 0.000000 
#    y 0.000000 1.805980 0.000000 
#    z 0.000000 0.000000 1.815530 
# 
# From -- ./inp_files/20126.got.cif
#   From: 2010.03.12/outbox.cif.g09.slc.cpg/sg53_11_cif.got.tgz:20126.got - 2010.04.16 14:36:59.
