data_PCOD8220795
_publ_section_title
;
Structure prediction by ZEFSAII (Michael W. Deem and Ramdas Pophale) SiO2 
 PCOD8220795
Probable space group: P M N A
;
_chemical_formula_sum "Si O2"
_cell_formula_units_Z 40
_cell_length_a 8.880003
_cell_length_b 12.352868
_cell_length_c 18.149766
_cell_angle_alpha 90.000000
_cell_angle_beta 90.000000
_cell_angle_gamma 90.000000
_cell_volume 1990.911446
_symmetry_space_group_name_H-M "P M N A"
_symmetry_group_IT_number 53
_symmetry_cell_setting 'orthorhombic'
loop_
_space_group_symop_operation_xyz
x,y,z
1/2-x,-y,1/2+z
x,-y,-z
1/2-x,y,1/2-z
-x,-y,-z
1/2+x,y,1/2-z
-x,y,z
1/2+x,-y,1/2+z
loop_
_atom_site_type_symbol
_atom_site_label
_atom_site_fract_x
_atom_site_fract_y
_atom_site_fract_z
Si Si1 0.175699 0.857238 0.325221
Si Si2 0.177810 0.896865 0.673250
Si Si3 0.826935 0.284559 0.084558
Si Si4 0.178269 0.331111 0.567610
Si Si5 0.326261 0.497044 0.328138
O O1 0.250000 0.815584 0.250000
O O2 0.225761 0.780036 0.391743
O O3 0.000000 0.850495 0.311337
O O4 0.224914 0.979617 0.344450
O O5 0.250000 0.858964 0.750000
O O6 0.241611 0.824650 0.607360
O O7 0.000000 0.881734 0.678489
O O8 0.811501 0.371648 0.149825
O O9 0.000000 0.257042 0.068205
O O10 0.751733 0.333079 0.012152
O O11 0.240538 0.433022 0.611436
O O12 0.000000 0.341953 0.559916
O O13 0.250000 0.516524 0.250000
O O14 0.500000 0.533160 0.324041
#
# Coordination Sequence:
#
# PCOD8220795 Si02
#       5
#     8   8   8   8   8
#     4   9  20  37  58  85 115 149 189 235 283 335
#     4  10  20  37  60  85 115 150 191 236 283 336
#     4  11  24  40  58  84 118 153 191 236 286 338
#     4  11  23  39  60  86 117 152 190 234 287 342
#     4  11  24  41  61  85 114 148 189 236 284 338
#
# _framework density 20.0913
#
# number of rings (size 3 to 8) (size 9 to 14) (size 15 to 20)
#    0.000    1.600    0.000    4.200    0.000   12.000 
#    0.000    4.000    0.000    0.000    0.000    0.000 
#    0.000    0.000    0.000    0.000    0.000    0.000 
#
# Total GULP energy -496244.671651 kJ/mol
# GULP energy per Si atom -12406.116791 kJ/mol
# Density = 2.004557 g / cm^3
# Si number density = 20.091300 Si / 1000 Ang^3
#
#
#
# Elastic Constant Matrix: (Units=GPa)
#
#
# Indices 1 2 3 4 5 6 
#
# 1 99.1274 32.8934 33.7777 0.0000 0.0000 0.0000
# 2 32.8934 71.7848 18.0857 0.0000 0.0000 0.0000
# 3 33.7777 18.0857 82.5248 0.0000 0.0000 0.0000
# 4 0.0000 0.0000 0.0000 44.7732 0.0000 0.0000
# 5 0.0000 0.0000 0.0000 0.0000 41.0714 0.0000
# 6 0.0000 0.0000 0.0000 0.0000 0.0000 32.6809
#
#
#
# Elastic Compliance Matrix: (Units=1/GPa)
#
#
# Indices 1 2 3 4 5 6 
#
# 1 0.013206 -0.004964 -0.004318 0.000000 0.000000 0.000000
# 2 -0.004964 0.016610 -0.001609 0.000000 0.000000 0.000000
# 3 -0.004318 -0.001609 0.014237 0.000000 0.000000 0.000000
# 4 0.000000 0.000000 0.000000 0.022335 0.000000 0.000000
# 5 0.000000 0.000000 0.000000 0.000000 0.024348 0.000000
# 6 0.000000 0.000000 0.000000 0.000000 0.000000 0.030599
#
#
# Mechanical properties :
#
#
# Convention : Reuss Voigt Hill
#
# Bulk Modulus (GPa) = 44.89488 46.99450 45.94469
# Shear Modulus (GPa) = 33.21382 34.95046 34.08214
#
# Velocity S-wave (km/s) = 4.07030 4.17535 4.12316
# Velocity P-wave (km/s) = 6.66961 6.83272 6.75166
#
# Compressibility (1/GPa) = 0.02227426
#
# Stress axis : x y z
#
# Youngs Moduli (GPa) = 75.72128 60.20379 70.23802
#
# Poissons Ratio (x) = 0.29883 0.30326
# Poissons Ratio (y) = 0.37585 0.11298
# Poissons Ratio (z) = 0.32693 0.09684
#
# Static dielectric constant tensor:
#      x y z
#    x 3.778520 0.000000 0.000000 
#    y 0.000000 3.816440 0.000000 
#    z 0.000000 0.000000 3.576520 
# 
# 
# High freq. dielectric constant tensor:
#      x y z
#    x 1.795870 0.000000 0.000000 
#    y 0.000000 1.795010 0.000000 
#    z 0.000000 0.000000 1.785000 
# 
# From -- ./inp_files/19843.got.cif
#   From: 2010.03.12/outbox.cif.g09.slc.cpg/sg53_10_cif.got.tgz:19843.got - 2010.04.16 14:36:59.
