data_PCOD8220970
_publ_section_title
;
Structure prediction by ZEFSAII (Michael W. Deem and Ramdas Pophale) SiO2 
 PCOD8220970
Probable space group: P M N A
;
_chemical_formula_sum "Si O2"
_cell_formula_units_Z 56
_cell_length_a 13.501837
_cell_length_b 9.535468
_cell_length_c 20.900632
_cell_angle_alpha 90.000000
_cell_angle_beta 90.000000
_cell_angle_gamma 90.000000
_cell_volume 2690.879762
_symmetry_space_group_name_H-M "P M N A"
_symmetry_group_IT_number 53
_symmetry_cell_setting 'orthorhombic'
loop_
_space_group_symop_operation_xyz
x,y,z
1/2-x,-y,1/2+z
x,-y,-z
1/2-x,y,1/2-z
-x,-y,-z
1/2+x,y,1/2-z
-x,y,z
1/2+x,-y,1/2+z
loop_
_atom_site_type_symbol
_atom_site_label
_atom_site_fract_x
_atom_site_fract_y
_atom_site_fract_z
Si Si1 0.114928 0.084844 0.240067
Si Si2 0.884218 0.832921 0.324225
Si Si3 0.312123 0.039273 0.067796
Si Si4 0.112814 0.136271 0.097846
Si Si5 0.113565 0.536332 0.928289
Si Si6 0.883151 0.722872 0.648835
Si Si7 0.768694 0.454885 0.676016
O O1 0.153678 0.117980 0.169921
O O2 0.162777 0.193984 0.290143
O O3 0.000000 0.113492 0.241967
O O4 0.139142 0.924359 0.260308
O O5 0.816643 0.697283 0.325074
O O6 0.000000 0.791659 0.326440
O O7 0.856514 0.926323 0.384469
O O8 0.191540 0.040577 0.060063
O O9 0.346869 0.196158 0.085609
O O10 0.358426 0.000000 0.000000
O O11 0.121227 0.297619 0.079381
O O12 0.000000 0.080492 0.088096
O O13 0.172397 0.458081 0.870640
O O14 0.000000 0.485471 0.921366
O O15 0.153288 0.500000 0.000000
O O16 0.845026 0.565037 0.646351
O O17 0.000000 0.719201 0.650610
O O18 0.750000 0.495136 0.750000
#
# Coordination Sequence:
#
# PCOD8220970 Si02
#       7
#     8   8   8   8   8   8   8
#     4   8  17  36  63  90 122 162 207 261 323 388
#     4  10  24  42  61  93 137 172 209 272 336 392
#     4  11  24  40  64  93 124 171 222 270 324 396
#     4  10  20  38  67  95 122 166 222 274 325 394
#     4  10  23  44  67  95 136 180 225 280 339 402
#     4  10  21  39  64  93 124 164 215 266 322 391
#     4  12  25  39  67 102 133 175 219 278 336 401
#
# _framework density 20.811036999999999
#
# number of rings (size 3 to 8) (size 9 to 14) (size 15 to 20)
#    0.000    1.857    1.429    2.571    4.000    4.857 
#    0.000    0.714    0.000    2.571    0.000    0.000 
#    0.000    0.000    0.000    0.000    0.000    0.000 
#
# Total GULP energy -694114.163975 kJ/mol
# GULP energy per Si atom -12394.895785 kJ/mol
# Density = 2.076367 g / cm^3
# Si number density = 20.811037 Si / 1000 Ang^3
#
#
#
# Elastic Constant Matrix: (Units=GPa)
#
#
# Indices 1 2 3 4 5 6 
#
# 1 89.9587 16.2434 31.8480 0.0000 0.0000 0.0000
# 2 16.2434 50.8193 44.3115 0.0000 0.0000 0.0000
# 3 31.8480 44.3115 143.9402 0.0000 0.0000 0.0000
# 4 0.0000 0.0000 0.0000 33.2669 0.0000 0.0000
# 5 0.0000 0.0000 0.0000 0.0000 25.6148 0.0000
# 6 0.0000 0.0000 0.0000 0.0000 0.0000 17.0794
#
#
#
# Elastic Compliance Matrix: (Units=1/GPa)
#
#
# Indices 1 2 3 4 5 6 
#
# 1 0.012225 -0.002117 -0.002053 0.000000 0.000000 0.000000
# 2 -0.002117 0.027264 -0.007925 0.000000 0.000000 0.000000
# 3 -0.002053 -0.007925 0.009841 0.000000 0.000000 0.000000
# 4 0.000000 0.000000 0.000000 0.030060 0.000000 0.000000
# 5 0.000000 0.000000 0.000000 0.000000 0.039040 0.000000
# 6 0.000000 0.000000 0.000000 0.000000 0.000000 0.058550
#
#
# Mechanical properties :
#
#
# Convention : Reuss Voigt Hill
#
# Bulk Modulus (GPa) = 39.77667 52.16932 45.97299
# Shear Modulus (GPa) = 23.86053 28.01327 25.93690
#
# Velocity S-wave (km/s) = 3.38972 3.67287 3.53413
# Velocity P-wave (km/s) = 5.87154 6.56576 6.22833
#
# Compressibility (1/GPa) = 0.02514036
#
# Stress axis : x y z
#
# Youngs Moduli (GPa) = 81.79687 36.67811 101.61368
#
# Poissons Ratio (x) = 0.07766 0.20863
# Poissons Ratio (y) = 0.17320 0.80526
# Poissons Ratio (z) = 0.16794 0.29066
#
# Static dielectric constant tensor:
#      x y z
#    x 3.991800 0.000000 0.000000 
#    y 0.000000 3.875740 0.000000 
#    z 0.000000 0.000000 4.245610 
# 
# 
# High freq. dielectric constant tensor:
#      x y z
#    x 1.831920 0.000000 0.000000 
#    y 0.000000 1.804960 0.000000 
#    z 0.000000 0.000000 1.811750 
# 
# From -- ./inp_files/32480.got.cif
#   From: 2010.03.12/outbox.cif.g09.slc.cpg/sg53_17_cif.got.tgz:32480.got - 2010.04.16 14:36:59.
