data_PCOD8220960
_publ_section_title
;
Structure prediction by ZEFSAII (Michael W. Deem and Ramdas Pophale) SiO2 
 PCOD8220960
Probable space group: P M N A
;
_chemical_formula_sum "Si O2"
_cell_formula_units_Z 40
_cell_length_a 9.075892
_cell_length_b 9.842403
_cell_length_c 22.541107
_cell_angle_alpha 90.000000
_cell_angle_beta 90.000000
_cell_angle_gamma 90.000000
_cell_volume 2013.565230
_symmetry_space_group_name_H-M "P M N A"
_symmetry_group_IT_number 53
_symmetry_cell_setting 'orthorhombic'
loop_
_space_group_symop_operation_xyz
x,y,z
1/2-x,-y,1/2+z
x,-y,-z
1/2-x,y,1/2-z
-x,-y,-z
1/2+x,y,1/2-z
-x,y,z
1/2+x,-y,1/2+z
loop_
_atom_site_type_symbol
_atom_site_label
_atom_site_fract_x
_atom_site_fract_y
_atom_site_fract_z
Si Si1 0.172482 0.842840 0.999320
Si Si2 0.828771 0.535580 0.811491
Si Si3 0.831372 0.745664 0.128365
Si Si4 0.668419 0.976688 0.192072
Si Si5 0.330011 0.764387 0.884477
O O1 0.216900 0.772162 0.060875
O O2 0.000000 0.829381 0.985244
O O3 0.260932 0.759658 0.949751
O O4 0.221112 0.000000 0.000000
O O5 0.750000 0.499778 0.750000
O O6 0.807711 0.411847 0.857118
O O7 0.756354 0.666930 0.840304
O O8 0.000000 0.565207 0.799002
O O9 0.733493 0.832495 0.173041
O O10 0.000000 0.791034 0.137394
O O11 0.750000 0.033564 0.250000
O O12 0.500000 0.954073 0.209183
O O13 0.688326 0.082853 0.139071
O O14 0.500000 0.719573 0.887192
#
# Coordination Sequence:
#
# PCOD8220960 Si02
#       5
#     8   8   8   8   8
#     4  10  20  38  65  92 123 162 203 252 305 361
#     4  11  24  42  63  88 123 161 203 252 304 366
#     4  10  22  40  63  91 121 159 203 249 305 363
#     4  11  23  37  58  87 118 155 201 252 302 359
#     4  11  24  40  61  90 123 162 205 251 305 360
#
# _framework density 19.865262000000001
#
# number of rings (size 3 to 8) (size 9 to 14) (size 15 to 20)
#    0.000    1.400    2.000    3.000    0.000    9.200 
#    0.000    4.000    0.000    0.000    0.000    0.000 
#    0.000    0.000    0.000    0.000    0.000    0.000 
#
# Total GULP energy -496286.206819 kJ/mol
# GULP energy per Si atom -12407.155170 kJ/mol
# Density = 1.982005 g / cm^3
# Si number density = 19.865262 Si / 1000 Ang^3
#
#
#
# Elastic Constant Matrix: (Units=GPa)
#
#
# Indices 1 2 3 4 5 6 
#
# 1 116.0850 37.2224 54.3169 0.0000 0.0000 0.0000
# 2 37.2224 62.7492 19.9262 0.0000 0.0000 0.0000
# 3 54.3169 19.9262 121.0134 0.0000 0.0000 0.0000
# 4 0.0000 0.0000 0.0000 38.2746 0.0000 0.0000
# 5 0.0000 0.0000 0.0000 0.0000 39.1830 0.0000
# 6 0.0000 0.0000 0.0000 0.0000 0.0000 24.8049
#
#
#
# Elastic Compliance Matrix: (Units=1/GPa)
#
#
# Indices 1 2 3 4 5 6 
#
# 1 0.012778 -0.006076 -0.004735 0.000000 0.000000 0.000000
# 2 -0.006076 0.019705 -0.000517 0.000000 0.000000 0.000000
# 3 -0.004735 -0.000517 0.010474 0.000000 0.000000 0.000000
# 4 0.000000 0.000000 0.000000 0.026127 0.000000 0.000000
# 5 0.000000 0.000000 0.000000 0.000000 0.025521 0.000000
# 6 0.000000 0.000000 0.000000 0.000000 0.000000 0.040315
#
#
# Mechanical properties :
#
#
# Convention : Reuss Voigt Hill
#
# Bulk Modulus (GPa) = 49.26065 58.08650 53.67358
# Shear Modulus (GPa) = 30.42389 33.01130 31.71760
#
# Velocity S-wave (km/s) = 3.91770 4.08089 4.00013
# Velocity P-wave (km/s) = 6.73169 7.17695 6.95789
#
# Compressibility (1/GPa) = 0.02030018
#
# Stress axis : x y z
#
# Youngs Moduli (GPa) = 78.25768 50.74799 95.47421
#
# Poissons Ratio (x) = 0.30836 0.45207
# Poissons Ratio (y) = 0.47552 0.04939
# Poissons Ratio (z) = 0.37055 0.02625
#
# Static dielectric constant tensor:
#      x y z
#    x 3.684460 0.000000 0.000000 
#    y 0.000000 3.443180 0.000000 
#    z 0.000000 0.000000 3.693040 
# 
# 
# High freq. dielectric constant tensor:
#      x y z
#    x 1.780850 0.000000 0.000000 
#    y 0.000000 1.770670 0.000000 
#    z 0.000000 0.000000 1.787040 
# 
# From -- ./inp_files/33628.got.cif
#   From: 2010.03.12/outbox.cif.g09.slc.cpg/sg53_17_cif.got.tgz:33628.got - 2010.04.16 14:36:59.
