data_PCOD8220957
_publ_section_title
;
Structure prediction by ZEFSAII (Michael W. Deem and Ramdas Pophale) SiO2 
 PCOD8220957
Probable space group: P M N A
;
_chemical_formula_sum "Si O2"
_cell_formula_units_Z 40
_cell_length_a 18.345113
_cell_length_b 11.688484
_cell_length_c 8.892889
_cell_angle_alpha 90.000000
_cell_angle_beta 90.000000
_cell_angle_gamma 90.000000
_cell_volume 1906.871595
_symmetry_space_group_name_H-M "P M N A"
_symmetry_group_IT_number 53
_symmetry_cell_setting 'orthorhombic'
loop_
_space_group_symop_operation_xyz
x,y,z
1/2-x,-y,1/2+z
x,-y,-z
1/2-x,y,1/2-z
-x,-y,-z
1/2+x,y,1/2-z
-x,y,z
1/2+x,-y,1/2+z
loop_
_atom_site_type_symbol
_atom_site_label
_atom_site_fract_x
_atom_site_fract_y
_atom_site_fract_z
Si Si1 0.417576 0.264100 0.412605
Si Si2 0.175261 0.527974 0.827531
Si Si3 0.583486 0.918589 0.141019
Si Si4 0.817700 0.947470 0.846878
Si Si5 0.418720 0.323331 0.758922
O O1 0.500000 0.250571 0.354390
O O2 0.384089 0.372027 0.325252
O O3 0.373320 0.154419 0.364872
O O4 0.415193 0.274334 0.591033
O O5 0.250000 0.567242 0.750000
O O6 0.141850 0.422592 0.730085
O O7 0.192805 0.500000 0.000000
O O8 0.500000 0.938891 0.190699
O O9 0.596278 0.780673 0.121392
O O10 0.638404 0.949574 0.272323
O O11 0.602271 0.000000 0.000000
O O12 0.750000 0.903385 0.750000
O O13 0.785907 0.000000 0.000000
O O14 0.500000 0.373627 0.787941
#
# Coordination Sequence:
#
# PCOD8220957 Si02
#       5
#     8   8   8   8   8
#     4  10  20  38  65  90 116 156 214 266 308 372
#     4  10  21  39  60  91 123 162 204 257 318 379
#     4  10  21  39  61  89 122 161 209 257 309 371
#     4  12  24  39  58  89 124 164 203 256 323 388
#     4   9  18  36  63  89 117 160 212 258 305 367
#
# _framework density 20.976766000000001
#
# number of rings (size 3 to 8) (size 9 to 14) (size 15 to 20)
#    0.000    1.800    2.000    2.400    0.000    4.000 
#   10.800    0.000    0.000    1.200    0.000    0.000 
#    0.000    0.000    0.000    0.000    0.000    0.000 
#
# Total GULP energy -495847.381706 kJ/mol
# GULP energy per Si atom -12396.184543 kJ/mol
# Density = 2.092902 g / cm^3
# Si number density = 20.976766 Si / 1000 Ang^3
#
#
#
# Elastic Constant Matrix: (Units=GPa)
#
#
# Indices 1 2 3 4 5 6 
#
# 1 135.5315 55.6975 43.7335 0.0000 0.0000 0.0000
# 2 55.6975 112.9288 33.8490 0.0000 0.0000 0.0000
# 3 43.7335 33.8490 58.9353 0.0000 0.0000 0.0000
# 4 0.0000 0.0000 0.0000 35.6295 0.0000 0.0000
# 5 0.0000 0.0000 0.0000 0.0000 24.8198 0.0000
# 6 0.0000 0.0000 0.0000 0.0000 0.0000 83.6051
#
#
#
# Elastic Compliance Matrix: (Units=1/GPa)
#
#
# Indices 1 2 3 4 5 6 
#
# 1 0.010744 -0.003514 -0.005954 0.000000 0.000000 0.000000
# 2 -0.003514 0.011846 -0.004196 0.000000 0.000000 0.000000
# 3 -0.005954 -0.004196 0.023796 0.000000 0.000000 0.000000
# 4 0.000000 0.000000 0.000000 0.028067 0.000000 0.000000
# 5 0.000000 0.000000 0.000000 0.000000 0.040290 0.000000
# 6 0.000000 0.000000 0.000000 0.000000 0.000000 0.011961
#
#
# Mechanical properties :
#
#
# Convention : Reuss Voigt Hill
#
# Bulk Modulus (GPa) = 52.47357 63.77285 58.12321
# Shear Modulus (GPa) = 31.17498 40.41861 35.79679
#
# Velocity S-wave (km/s) = 3.85927 4.39433 4.13546
# Velocity P-wave (km/s) = 6.70283 7.49763 7.11134
#
# Compressibility (1/GPa) = 0.01905721
#
# Stress axis : x y z
#
# Youngs Moduli (GPa) = 93.07618 84.41616 42.02390
#
# Poissons Ratio (x) = 0.29666 0.25022
# Poissons Ratio (y) = 0.32710 0.17633
# Poissons Ratio (z) = 0.55419 0.35420
#
# Static dielectric constant tensor:
#      x y z
#    x 3.855960 0.000000 0.000000 
#    y 0.000000 3.850100 0.000000 
#    z 0.000000 0.000000 3.687470 
# 
# 
# High freq. dielectric constant tensor:
#      x y z
#    x 1.832830 0.000000 0.000000 
#    y 0.000000 1.826180 0.000000 
#    z 0.000000 0.000000 1.796410 
# 
# From -- ./inp_files/9600.got.cif
#   From: 2010.03.12/outbox.cif.g09.slc.cpg/sg53_5_cif.got.tgz:9600.got - 2010.04.16 14:36:59.
