data_PCOD8220174
_publ_section_title
;
Structure prediction by ZEFSAII (Michael W. Deem and Ramdas Pophale) SiO2 
 PCOD8220174
Probable space group: P M N A
;
_chemical_formula_sum "Si O2"
_cell_formula_units_Z 64
_cell_length_a 14.615321
_cell_length_b 12.876498
_cell_length_c 17.505375
_cell_angle_alpha 90.000000
_cell_angle_beta 90.000000
_cell_angle_gamma 90.000000
_cell_volume 3294.409197
_symmetry_space_group_name_H-M "P M N A"
_symmetry_group_IT_number 53
_symmetry_cell_setting 'orthorhombic'
loop_
_space_group_symop_operation_xyz
x,y,z
1/2-x,-y,1/2+z
x,-y,-z
1/2-x,y,1/2-z
-x,-y,-z
1/2+x,y,1/2-z
-x,y,z
1/2+x,-y,1/2+z
loop_
_atom_site_type_symbol
_atom_site_label
_atom_site_fract_x
_atom_site_fract_y
_atom_site_fract_z
Si Si1 0.706228 0.569587 0.068151
Si Si2 0.774759 0.074145 0.569102
Si Si3 0.606172 0.018549 0.201655
Si Si4 0.602377 0.134705 0.660507
Si Si5 0.892666 0.751359 0.506005
Si Si6 0.606559 0.754122 0.822435
Si Si7 0.605785 0.531059 0.791568
Si Si8 0.671682 0.350225 0.691158
O O1 0.662493 0.501725 0.134876
O O2 0.789455 0.634370 0.105551
O O3 0.747625 0.500000 0.000000
O O4 0.627186 0.640632 0.032177
O O5 0.827048 0.010059 0.633442
O O6 0.678042 0.121458 0.595630
O O7 0.842321 0.164485 0.545052
O O8 0.749703 0.000000 0.500000
O O9 0.500000 0.007897 0.176095
O O10 0.627911 0.945700 0.272816
O O11 0.629722 0.139278 0.222761
O O12 0.500000 0.111003 0.629558
O O13 0.602011 0.253561 0.690953
O O14 0.851524 0.754715 0.591861
O O15 0.000000 0.774882 0.502617
O O16 0.500000 0.745519 0.836600
O O17 0.636418 0.651087 0.774427
O O18 0.500000 0.523709 0.812745
O O19 0.625614 0.457949 0.718887
O O20 0.750000 0.316628 0.750000
#
# Coordination Sequence:
#
# PCOD8220174 Si02
#       8
#     8   8   8   8   8   8   8   8
#     4  11  21  35  57  87 122 152 192 236 292 356
#     4  12  23  38  60  89 119 152 196 242 296 354
#     4  10  21  37  60  89 122 157 192 241 297 356
#     4  11  24  42  62  83 114 158 205 248 289 336
#     4  11  21  34  56  90 127 154 182 233 300 363
#     4   9  18  34  55  86 123 152 184 228 296 368
#     4  10  20  34  56  86 119 157 194 238 290 347
#     4  10  21  38  58  85 118 152 199 246 290 342
#
# _framework density 19.426852
#
# number of rings (size 3 to 8) (size 9 to 14) (size 15 to 20)
#    0.000    1.500    3.750    2.250    1.750    1.250 
#    0.000    5.000    0.000    1.500    0.000    0.000 
#    0.000    0.000    0.000    0.000    0.000    0.000 
#
# Total GULP energy -793378.480726 kJ/mol
# GULP energy per Si atom -12396.538761 kJ/mol
# Density = 1.938264 g / cm^3
# Si number density = 19.426852 Si / 1000 Ang^3
#
#
#
# Elastic Constant Matrix: (Units=GPa)
#
#
# Indices 1 2 3 4 5 6 
#
# 1 63.1183 46.6956 34.7629 0.0000 0.0000 0.0000
# 2 46.6956 153.0209 49.8570 0.0000 0.0000 0.0000
# 3 34.7629 49.8570 76.4454 0.0000 0.0000 0.0000
# 4 0.0000 0.0000 0.0000 32.7730 0.0000 0.0000
# 5 0.0000 0.0000 0.0000 0.0000 21.2982 0.0000
# 6 0.0000 0.0000 0.0000 0.0000 0.0000 20.0157
#
#
#
# Elastic Compliance Matrix: (Units=1/GPa)
#
#
# Indices 1 2 3 4 5 6 
#
# 1 0.023518 -0.004688 -0.007637 0.000000 0.000000 0.000000
# 2 -0.004688 0.009233 -0.003890 0.000000 0.000000 0.000000
# 3 -0.007637 -0.003890 0.019091 0.000000 0.000000 0.000000
# 4 0.000000 0.000000 0.000000 0.030513 0.000000 0.000000
# 5 0.000000 0.000000 0.000000 0.000000 0.046952 0.000000
# 6 0.000000 0.000000 0.000000 0.000000 0.000000 0.049961
#
#
# Mechanical properties :
#
#
# Convention : Reuss Voigt Hill
#
# Bulk Modulus (GPa) = 51.51480 61.69060 56.60270
# Shear Modulus (GPa) = 22.91807 25.56864 24.24336
#
# Velocity S-wave (km/s) = 3.43842 3.63181 3.53644
# Velocity P-wave (km/s) = 6.50681 7.02930 6.77309
#
# Compressibility (1/GPa) = 0.01941190
#
# Stress axis : x y z
#
# Youngs Moduli (GPa) = 42.52092 108.30575 52.38116
#
# Poissons Ratio (x) = 0.50779 0.40002
# Poissons Ratio (y) = 0.19936 0.20375
# Poissons Ratio (z) = 0.32472 0.42128
#
# Static dielectric constant tensor:
#      x y z
#    x 3.461440 0.000000 0.000000 
#    y 0.000000 3.903660 0.000000 
#    z 0.000000 0.000000 3.445500 
# 
# 
# High freq. dielectric constant tensor:
#      x y z
#    x 1.741190 0.000000 0.000000 
#    y 0.000000 1.779490 0.000000 
#    z 0.000000 0.000000 1.734680 
# 
# From -- ./inp_files/28527.got.cif
#   From: 2010.03.12/outbox.cif.g09.slc.cpg/sg53_15_cif.got.tgz:28527.got - 2010.04.16 14:36:59.
