data_PCOD8220161
_publ_section_title
;
Structure prediction by ZEFSAII (Michael W. Deem and Ramdas Pophale) SiO2 
 PCOD8220161
Probable space group: P M N A
;
_chemical_formula_sum "Si O2"
_cell_formula_units_Z 56
_cell_length_a 20.282450
_cell_length_b 15.916761
_cell_length_c 8.979483
_cell_angle_alpha 90.000000
_cell_angle_beta 90.000000
_cell_angle_gamma 90.000000
_cell_volume 2898.854661
_symmetry_space_group_name_H-M "P M N A"
_symmetry_group_IT_number 53
_symmetry_cell_setting 'orthorhombic'
loop_
_space_group_symop_operation_xyz
x,y,z
1/2-x,-y,1/2+z
x,-y,-z
1/2-x,y,1/2-z
-x,-y,-z
1/2+x,y,1/2-z
-x,y,z
1/2+x,-y,1/2+z
loop_
_atom_site_type_symbol
_atom_site_label
_atom_site_fract_x
_atom_site_fract_y
_atom_site_fract_z
Si Si1 0.875190 0.320171 0.002169
Si Si2 0.203938 0.921413 0.107494
Si Si3 0.928149 0.381659 0.282929
Si Si4 0.747082 0.236802 0.071217
Si Si5 0.574282 0.827137 0.306300
Si Si6 0.921510 0.433939 0.772581
Si Si7 0.388745 0.293475 0.938245
O O1 0.888473 0.318661 0.178329
O O2 0.797379 0.302780 0.995204
O O3 0.917762 0.247187 0.925495
O O4 0.898642 0.412233 0.941933
O O5 0.250000 0.941284 0.250000
O O6 0.130686 0.896540 0.165502
O O7 0.238542 0.851858 0.005708
O O8 0.195175 0.000000 0.000000
O O9 0.896695 0.475493 0.285298
O O10 0.936251 0.338443 0.443019
O O11 0.000000 0.394852 0.212753
O O12 0.750000 0.228762 0.250000
O O13 0.676921 0.270539 0.024112
O O14 0.500000 0.865174 0.322361
O O15 0.580977 0.789624 0.138558
O O16 0.878051 0.363826 0.687213
O O17 0.000000 0.420580 0.749962
#
# Coordination Sequence:
#
# PCOD8220161 Si02
#       7
#     8   8   8   8   8   8   8
#     4  10  20  34  56  79 117 155 202 252 298 352
#     4  11  23  42  69  96 122 159 191 230 291 362
#     4  11  20  33  54  80 113 155 202 255 308 349
#     4  11  22  40  59  87 115 153 202 248 289 361
#     4  10  21  38  63  94 122 156 198 241 296 352
#     4  10  21  35  52  80 113 154 203 252 307 362
#     4  11  20  36  57  80 119 153 201 249 294 350
#
# _framework density 19.317975000000001
#
# number of rings (size 3 to 8) (size 9 to 14) (size 15 to 20)
#    0.000    1.429    2.857    4.714    0.000    2.571 
#    0.000    4.286    0.000    0.429    0.000    0.000 
#    0.000    0.000    0.000    0.000    0.000    0.000 
#
# Total GULP energy -693930.631625 kJ/mol
# GULP energy per Si atom -12391.618422 kJ/mol
# Density = 1.927401 g / cm^3
# Si number density = 19.317975 Si / 1000 Ang^3
#
#
#
# Elastic Constant Matrix: (Units=GPa)
#
#
# Indices 1 2 3 4 5 6 
#
# 1 107.6879 46.1812 38.4906 0.0000 0.0000 0.0000
# 2 46.1812 97.2177 45.6097 0.0000 0.0000 0.0000
# 3 38.4906 45.6097 103.8675 0.0000 0.0000 0.0000
# 4 0.0000 0.0000 0.0000 32.1903 0.0000 0.0000
# 5 0.0000 0.0000 0.0000 0.0000 30.3069 0.0000
# 6 0.0000 0.0000 0.0000 0.0000 0.0000 20.1624
#
#
#
# Elastic Compliance Matrix: (Units=1/GPa)
#
#
# Indices 1 2 3 4 5 6 
#
# 1 0.012148 -0.004608 -0.002478 0.000000 0.000000 0.000000
# 2 -0.004608 0.014703 -0.004749 0.000000 0.000000 0.000000
# 3 -0.002478 -0.004749 0.012631 0.000000 0.000000 0.000000
# 4 0.000000 0.000000 0.000000 0.031065 0.000000 0.000000
# 5 0.000000 0.000000 0.000000 0.000000 0.032996 0.000000
# 6 0.000000 0.000000 0.000000 0.000000 0.000000 0.049597
#
#
# Mechanical properties :
#
#
# Convention : Reuss Voigt Hill
#
# Bulk Modulus (GPa) = 63.24187 63.25957 63.25072
# Shear Modulus (GPa) = 27.46028 28.43136 27.94582
#
# Velocity S-wave (km/s) = 3.77435 3.84051 3.80758
# Velocity P-wave (km/s) = 7.19741 7.24456 7.22102
#
# Compressibility (1/GPa) = 0.01581231
#
# Stress axis : x y z
#
# Youngs Moduli (GPa) = 82.31807 68.01355 79.16862
#
# Poissons Ratio (x) = 0.31340 0.19620
# Poissons Ratio (y) = 0.37932 0.37595
# Poissons Ratio (z) = 0.20401 0.32298
#
# Static dielectric constant tensor:
#      x y z
#    x 3.415580 0.000000 0.000000 
#    y 0.000000 3.407260 0.000000 
#    z 0.000000 0.000000 3.769500 
# 
# 
# High freq. dielectric constant tensor:
#      x y z
#    x 1.747650 0.000000 0.000000 
#    y 0.000000 1.729150 0.000000 
#    z 0.000000 0.000000 1.770650 
# 
# From -- ./inp_files/11056.got.cif
#   From: 2010.03.12/outbox.cif.g09.slc.cpg/sg53_6_cif.got.tgz:11056.got - 2010.04.16 14:36:59.
