data_PCOD8220687
_publ_section_title
;
Structure prediction by ZEFSAII (Michael W. Deem and Ramdas Pophale) SiO2 
 PCOD8220687
Probable space group: P M N A
;
_chemical_formula_sum "Si O2"
_cell_formula_units_Z 64
_cell_length_a 14.748160
_cell_length_b 12.807606
_cell_length_c 15.174178
_cell_angle_alpha 90.000000
_cell_angle_beta 90.000000
_cell_angle_gamma 90.000000
_cell_volume 2866.229580
_symmetry_space_group_name_H-M "P M N A"
_symmetry_group_IT_number 53
_symmetry_cell_setting 'orthorhombic'
loop_
_space_group_symop_operation_xyz
x,y,z
1/2-x,-y,1/2+z
x,-y,-z
1/2-x,y,1/2-z
-x,-y,-z
1/2+x,y,1/2-z
-x,y,z
1/2+x,-y,1/2+z
loop_
_atom_site_type_symbol
_atom_site_label
_atom_site_fract_x
_atom_site_fract_y
_atom_site_fract_z
Si Si1 0.832757 0.611119 0.476667
Si Si2 0.603966 0.903759 0.566205
Si Si3 0.893812 0.331177 0.335239
Si Si4 0.393452 0.112731 0.234417
Si Si5 0.730257 0.803641 0.442235
Si Si6 0.601458 0.445832 0.796050
Si Si7 0.603293 0.913353 0.127914
Si Si8 0.103169 0.240278 0.790030
O O1 0.788324 0.500000 0.500000
O O2 0.879057 0.668600 0.559603
O O3 0.752806 0.682029 0.439812
O O4 0.903974 0.592690 0.397766
O O5 0.500000 0.865102 0.562735
O O6 0.633559 0.924757 0.667119
O O7 0.672544 0.816757 0.531211
O O8 0.618923 0.000000 0.500000
O O9 0.850686 0.226034 0.291742
O O10 0.851663 0.438301 0.291570
O O11 0.000000 0.332332 0.316912
O O12 0.500000 0.121635 0.227442
O O13 0.361800 0.023929 0.166228
O O14 0.820869 0.876981 0.443066
O O15 0.665974 0.822654 0.357930
O O16 0.500000 0.457295 0.761998
O O17 0.644613 0.355799 0.733256
O O18 0.500000 0.921864 0.088014
O O19 0.602862 0.825429 0.201496
O O20 0.000000 0.246033 0.827171
#
# Coordination Sequence:
#
# PCOD8220687 Si02
#       8
#     8   8   8   8   8   8   8   8
#     4  10  21  36  54  84 126 162 201 247 304 372
#     4  10  22  42  66  90 119 162 214 260 302 365
#     4   9  18  35  61  87 116 162 206 247 304 372
#     4   9  19  39  63  89 123 159 204 257 310 368
#     4  12  23  37  61  91 124 160 207 254 312 364
#     4   9  17  33  59  87 116 156 205 251 302 366
#     4  10  21  37  62  93 127 163 200 252 312 366
#     4  10  20  36  60  91 119 154 207 263 309 354
#
# _framework density 22.328987000000001
#
# number of rings (size 3 to 8) (size 9 to 14) (size 15 to 20)
#    0.000    2.125    1.250    1.875    0.000    5.000 
#    2.250    1.875    0.000    3.375    0.000    0.875 
#    0.000    0.000    0.000    0.000    0.000    0.000 
#
# Total GULP energy -792896.014626 kJ/mol
# GULP energy per Si atom -12389.000229 kJ/mol
# Density = 2.227817 g / cm^3
# Si number density = 22.328987 Si / 1000 Ang^3
#
#
#
# Elastic Constant Matrix: (Units=GPa)
#
#
# Indices 1 2 3 4 5 6 
#
# 1 73.1089 26.6393 18.8865 0.0000 0.0000 0.0000
# 2 26.6393 146.1374 32.0330 0.0000 0.0000 0.0000
# 3 18.8865 32.0330 63.7254 0.0000 0.0000 0.0000
# 4 0.0000 0.0000 0.0000 32.8157 0.0000 0.0000
# 5 0.0000 0.0000 0.0000 0.0000 7.9782 0.0000
# 6 0.0000 0.0000 0.0000 0.0000 0.0000 10.4485
#
#
#
# Elastic Compliance Matrix: (Units=1/GPa)
#
#
# Indices 1 2 3 4 5 6 
#
# 1 0.015326 -0.002021 -0.003526 0.000000 0.000000 0.000000
# 2 -0.002021 0.007957 -0.003401 0.000000 0.000000 0.000000
# 3 -0.003526 -0.003401 0.018447 0.000000 0.000000 0.000000
# 4 0.000000 0.000000 0.000000 0.030473 0.000000 0.000000
# 5 0.000000 0.000000 0.000000 0.000000 0.125341 0.000000
# 6 0.000000 0.000000 0.000000 0.000000 0.000000 0.095708
#
#
# Mechanical properties :
#
#
# Convention : Reuss Voigt Hill
#
# Bulk Modulus (GPa) = 41.95762 48.67657 45.31710
# Shear Modulus (GPa) = 15.66952 23.94269 19.80610
#
# Velocity S-wave (km/s) = 2.65194 3.27810 2.98151
# Velocity P-wave (km/s) = 5.31117 6.01457 5.67378
#
# Compressibility (1/GPa) = 0.02383357
#
# Stress axis : x y z
#
# Youngs Moduli (GPa) = 65.25072 125.68098 54.20978
#
# Poissons Ratio (x) = 0.25397 0.19116
# Poissons Ratio (y) = 0.13185 0.18435
# Poissons Ratio (z) = 0.23009 0.42740
#
# Static dielectric constant tensor:
#      x y z
#    x 3.916720 0.000000 0.000000 
#    y 0.000000 4.602670 0.000000 
#    z 0.000000 0.000000 3.888290 
# 
# 
# High freq. dielectric constant tensor:
#      x y z
#    x 1.857530 0.000000 0.000000 
#    y 0.000000 1.891500 0.000000 
#    z 0.000000 0.000000 1.859050 
# 
# From -- ./inp_files/28582.got.cif
#   From: 2010.03.12/outbox.cif.g09.slc.cpg/sg53_15_cif.got.tgz:28582.got - 2010.04.16 14:36:59.
