data_PCOD8220844
_publ_section_title
;
Structure prediction by ZEFSAII (Michael W. Deem and Ramdas Pophale) SiO2 
 PCOD8220844
Probable space group: P M N A
;
_chemical_formula_sum "Si O2"
_cell_formula_units_Z 40
_cell_length_a 17.356047
_cell_length_b 8.224970
_cell_length_c 12.886839
_cell_angle_alpha 90.000000
_cell_angle_beta 90.000000
_cell_angle_gamma 90.000000
_cell_volume 1839.634488
_symmetry_space_group_name_H-M "P M N A"
_symmetry_group_IT_number 53
_symmetry_cell_setting 'orthorhombic'
loop_
_space_group_symop_operation_xyz
x,y,z
1/2-x,-y,1/2+z
x,-y,-z
1/2-x,y,1/2-z
-x,-y,-z
1/2+x,y,1/2-z
-x,y,z
1/2+x,-y,1/2+z
loop_
_atom_site_type_symbol
_atom_site_label
_atom_site_fract_x
_atom_site_fract_y
_atom_site_fract_z
Si Si1 0.662117 0.307160 0.588574
Si Si2 0.678805 0.818374 0.020281
Si Si3 0.088782 0.346135 0.109759
Si Si4 0.087496 0.339501 0.336692
Si Si5 0.088010 0.718390 0.295889
O O1 0.752622 0.286942 0.569436
O O2 0.615566 0.234586 0.487739
O O3 0.642730 0.496169 0.603403
O O4 0.636743 0.221526 0.695741
O O5 0.611022 0.826793 0.105331
O O6 0.648533 0.736776 0.914936
O O7 0.708348 0.000000 0.000000
O O8 0.100676 0.260340 0.221789
O O9 0.000000 0.400490 0.098555
O O10 0.102086 0.531436 0.327220
O O11 0.000000 0.306150 0.375268
O O12 0.000000 0.750973 0.267732
#
# Coordination Sequence:
#
# PCOD8220844 Si02
#       5
#     8   8   8   8   8
#     4  10  20  37  61  93 124 154 194 249 317 366
#     4  12  26  40  56  88 136 171 201 245 311 376
#     4   9  18  37  69  99 120 148 200 264 308 358
#     4   9  20  39  65  95 120 155 211 260 302 359
#     4  10  21  41  69  90 116 158 213 266 302 357
#
# _framework density 21.743448999999998
#
# number of rings (size 3 to 8) (size 9 to 14) (size 15 to 20)
#    0.000    2.000    0.000    5.400    5.600    4.000 
#    7.200    0.000    0.000    4.200    0.000    0.000 
#    0.000    0.000    0.000    0.000    0.000    0.000 
#
# Total GULP energy -495803.522773 kJ/mol
# GULP energy per Si atom -12395.088069 kJ/mol
# Density = 2.169396 g / cm^3
# Si number density = 21.743449 Si / 1000 Ang^3
#
#
#
# Elastic Constant Matrix: (Units=GPa)
#
#
# Indices 1 2 3 4 5 6 
#
# 1 127.0371 37.4531 66.8848 0.0000 0.0000 0.0000
# 2 37.4531 34.7998 23.7261 0.0000 0.0000 0.0000
# 3 66.8848 23.7261 178.2291 0.0000 0.0000 0.0000
# 4 0.0000 0.0000 0.0000 9.6311 0.0000 0.0000
# 5 0.0000 0.0000 0.0000 0.0000 44.9311 0.0000
# 6 0.0000 0.0000 0.0000 0.0000 0.0000 8.4874
#
#
#
# Elastic Compliance Matrix: (Units=1/GPa)
#
#
# Indices 1 2 3 4 5 6 
#
# 1 0.013127 -0.011844 -0.003350 0.000000 0.000000 0.000000
# 2 -0.011844 0.042291 -0.001185 0.000000 0.000000 0.000000
# 3 -0.003350 -0.001185 0.007026 0.000000 0.000000 0.000000
# 4 0.000000 0.000000 0.000000 0.103830 0.000000 0.000000
# 5 0.000000 0.000000 0.000000 0.000000 0.022256 0.000000
# 6 0.000000 0.000000 0.000000 0.000000 0.000000 0.117821
#
#
# Mechanical properties :
#
#
# Convention : Reuss Voigt Hill
#
# Bulk Modulus (GPa) = 33.68591 66.24379 49.96485
# Shear Modulus (GPa) = 14.32644 26.74341 20.53492
#
# Velocity S-wave (km/s) = 2.56966 3.51087 3.07647
# Velocity P-wave (km/s) = 4.93257 6.85326 5.97066
#
# Compressibility (1/GPa) = 0.02968600
#
# Stress axis : x y z
#
# Youngs Moduli (GPa) = 76.17763 23.64564 142.33855
#
# Poissons Ratio (x) = 0.28007 0.47677
# Poissons Ratio (y) = 0.90228 0.16867
# Poissons Ratio (z) = 0.25516 0.02802
#
# Static dielectric constant tensor:
#      x y z
#    x 3.827120 0.000000 0.000000 
#    y 0.000000 3.311170 0.000000 
#    z 0.000000 0.000000 4.790270 
# 
# 
# High freq. dielectric constant tensor:
#      x y z
#    x 1.856840 0.000000 0.000000 
#    y 0.000000 1.789140 0.000000 
#    z 0.000000 0.000000 1.889070 
# 
# From -- ./inp_files/16675.got.cif
#   From: 2010.03.12/outbox.cif.g09.slc.cpg/sg53_9_cif.got.tgz:16675.got - 2010.04.16 14:36:59.
