data_PCOD8220480
_publ_section_title
;
Structure prediction by ZEFSAII (Michael W. Deem and Ramdas Pophale) SiO2 
 PCOD8220480
Probable space group: P M N A
;
_chemical_formula_sum "Si O2"
_cell_formula_units_Z 64
_cell_length_a 9.328802
_cell_length_b 12.538267
_cell_length_c 28.594354
_cell_angle_alpha 90.000000
_cell_angle_beta 90.000000
_cell_angle_gamma 90.000000
_cell_volume 3344.596098
_symmetry_space_group_name_H-M "P M N A"
_symmetry_group_IT_number 53
_symmetry_cell_setting 'orthorhombic'
loop_
_space_group_symop_operation_xyz
x,y,z
1/2-x,-y,1/2+z
x,-y,-z
1/2-x,y,1/2-z
-x,-y,-z
1/2+x,y,1/2-z
-x,y,z
1/2+x,-y,1/2+z
loop_
_atom_site_type_symbol
_atom_site_label
_atom_site_fract_x
_atom_site_fract_y
_atom_site_fract_z
Si Si1 0.666749 0.497501 0.797096
Si Si2 0.332320 0.101179 0.870105
Si Si3 0.332478 0.923754 0.798017
Si Si4 0.330952 0.341890 0.877074
Si Si5 0.165641 0.290317 0.349891
Si Si6 0.833995 0.735230 0.939727
Si Si7 0.832312 0.381924 0.518239
Si Si8 0.335571 0.982280 0.552053
O O1 0.750000 0.470316 0.750000
O O2 0.500000 0.473285 0.788456
O O3 0.730609 0.423277 0.838476
O O4 0.691947 0.620360 0.810720
O O5 0.500000 0.091550 0.880004
O O6 0.285037 0.222978 0.861738
O O7 0.288886 0.031546 0.825068
O O8 0.255390 0.059207 0.915808
O O9 0.250000 0.922610 0.750000
O O10 0.500000 0.918443 0.786952
O O11 0.285061 0.822433 0.828748
O O12 0.500000 0.355196 0.878428
O O13 0.273464 0.371189 0.928764
O O14 0.259130 0.320111 0.395236
O O15 0.000000 0.287918 0.365752
O O16 0.814525 0.860854 0.932899
O O17 0.000000 0.701638 0.941844
O O18 0.757031 0.700638 0.987275
O O19 0.801782 0.500000 0.500000
O O20 0.000000 0.352534 0.514699
O O21 0.500000 0.018172 0.555920
O O22 0.277791 0.000000 0.500000
#
# Coordination Sequence:
#
# PCOD8220480 Si02
#       8
#     8   8   8   8   8   8   8   8
#     4  10  21  38  60  84 111 144 184 232 285 337
#     4  10  20  36  56  79 108 143 188 233 271 326
#     4  10  21  35  54  80 108 142 184 231 281 332
#     4   9  19  36  57  81 110 146 189 233 275 329
#     4  10  20  37  58  81 112 148 187 231 277 336
#     4  11  22  34  54  84 116 148 184 233 285 336
#     4  10  20  36  58  82 110 151 196 233 278 334
#     4  10  21  36  53  78 113 149 183 224 281 338
#
# _framework density 19.135345000000001
#
# number of rings (size 3 to 8) (size 9 to 14) (size 15 to 20)
#    0.000    2.000    1.250    2.250    0.000    5.000 
#    0.000    1.250    0.000    0.000    0.000    0.000 
#    0.000    0.000    0.000    0.000    0.000    0.000 
#
# Total GULP energy -793825.671260 kJ/mol
# GULP energy per Si atom -12403.526113 kJ/mol
# Density = 1.909179 g / cm^3
# Si number density = 19.135345 Si / 1000 Ang^3
#
#
#
# Elastic Constant Matrix: (Units=GPa)
#
#
# Indices 1 2 3 4 5 6 
#
# 1 53.8426 32.7831 53.2028 0.0000 0.0000 0.0000
# 2 32.7831 104.2855 54.2062 0.0000 0.0000 0.0000
# 3 53.2028 54.2062 157.1285 0.0000 0.0000 0.0000
# 4 0.0000 0.0000 0.0000 30.5833 0.0000 0.0000
# 5 0.0000 0.0000 0.0000 0.0000 34.0675 0.0000
# 6 0.0000 0.0000 0.0000 0.0000 0.0000 93.5053
#
#
#
# Elastic Compliance Matrix: (Units=1/GPa)
#
#
# Indices 1 2 3 4 5 6 
#
# 1 0.029944 -0.005048 -0.008397 0.000000 0.000000 0.000000
# 2 -0.005048 0.012535 -0.002615 0.000000 0.000000 0.000000
# 3 -0.008397 -0.002615 0.010110 0.000000 0.000000 0.000000
# 4 0.000000 0.000000 0.000000 0.032698 0.000000 0.000000
# 5 0.000000 0.000000 0.000000 0.000000 0.029353 0.000000
# 6 0.000000 0.000000 0.000000 0.000000 0.000000 0.010695
#
#
# Mechanical properties :
#
#
# Convention : Reuss Voigt Hill
#
# Bulk Modulus (GPa) = 48.85801 66.18233 57.52017
# Shear Modulus (GPa) = 30.43612 43.30219 36.86915
#
# Velocity S-wave (km/s) = 3.99252 4.76220 4.39425
# Velocity P-wave (km/s) = 6.84412 8.05603 7.47467
#
# Compressibility (1/GPa) = 0.02046747
#
# Stress axis : x y z
#
# Youngs Moduli (GPa) = 33.39573 79.77438 98.91553
#
# Poissons Ratio (x) = 0.40273 0.83062
# Poissons Ratio (y) = 0.16859 0.25867
# Poissons Ratio (z) = 0.28043 0.20862
#
# Static dielectric constant tensor:
#      x y z
#    x 3.301140 0.000000 0.000000 
#    y 0.000000 3.699270 0.000000 
#    z 0.000000 0.000000 3.522260 
# 
# 
# High freq. dielectric constant tensor:
#      x y z
#    x 1.723040 0.000000 0.000000 
#    y 0.000000 1.752700 0.000000 
#    z 0.000000 0.000000 1.752240 
# 
# From -- ./inp_files/38216.got.cif
#   From: 2010.03.12/outbox.cif.g09.slc.cpg/sg53_20_cif.got.tgz:38216.got - 2010.04.16 14:36:59.
