data_PCOD8220488
_publ_section_title
;
Structure prediction by ZEFSAII (Michael W. Deem and Ramdas Pophale) SiO2 
 PCOD8220488
Probable space group: P M N A
;
_chemical_formula_sum "Si O2"
_cell_formula_units_Z 48
_cell_length_a 8.732130
_cell_length_b 30.598711
_cell_length_c 9.436906
_cell_angle_alpha 90.000000
_cell_angle_beta 90.000000
_cell_angle_gamma 90.000000
_cell_volume 2521.465055
_symmetry_space_group_name_H-M "P M N A"
_symmetry_group_IT_number 53
_symmetry_cell_setting 'orthorhombic'
loop_
_space_group_symop_operation_xyz
x,y,z
1/2-x,-y,1/2+z
x,-y,-z
1/2-x,y,1/2-z
-x,-y,-z
1/2+x,y,1/2-z
-x,y,z
1/2+x,-y,1/2+z
loop_
_atom_site_type_symbol
_atom_site_label
_atom_site_fract_x
_atom_site_fract_y
_atom_site_fract_z
Si Si1 0.818519 0.378475 0.404068
Si Si2 0.319231 0.216480 0.900724
Si Si3 0.819502 0.540112 0.405637
Si Si4 0.681020 0.040223 0.095573
Si Si5 0.679001 0.882912 0.100841
Si Si6 0.681588 0.288578 0.403424
O O1 0.750000 0.389562 0.250000
O O2 0.770387 0.415662 0.514865
O O3 0.749329 0.333566 0.467070
O O4 0.000000 0.374212 0.388216
O O5 0.250000 0.228466 0.750000
O O6 0.500000 0.225222 0.901842
O O7 0.278393 0.166607 0.941418
O O8 0.233200 0.246912 0.009749
O O9 0.756612 0.500000 0.500000
O O10 0.750000 0.538695 0.250000
O O11 0.000000 0.536640 0.388931
O O12 0.750000 0.036137 0.250000
O O13 0.500000 0.039777 0.110405
O O14 0.739598 0.085052 0.022283
O O15 0.738725 0.000000 0.000000
O O16 0.750000 0.896811 0.250000
O O17 0.500000 0.888561 0.120929
O O18 0.750000 0.281683 0.250000
O O19 0.500000 0.291709 0.397792
#
# Coordination Sequence:
#
# PCOD8220488 Si02
#       6
#     8   8   8   8   8   8
#     4  10  20  36  57  81 110 143 182 225 270 321
#     4  10  20  36  56  80 110 143 182 225 272 324
#     4  10  22  38  57  83 112 143 180 221 265 317
#     4  10  21  36  54  79 109 140 177 219 264 316
#     4   9  19  35  55  79 107 140 178 221 266 317
#     4  11  22  37  57  81 110 145 184 226 275 325
#
# _framework density 19.036550999999999
#
# number of rings (size 3 to 8) (size 9 to 14) (size 15 to 20)
#    0.000    2.000    0.000    4.500    0.000    4.667 
#    0.000    3.333    0.000    0.000    0.000    0.000 
#    0.000    0.000    0.000    0.000    0.000    0.000 
#
# Total GULP energy -595264.871520 kJ/mol
# GULP energy per Si atom -12401.351490 kJ/mol
# Density = 1.899322 g / cm^3
# Si number density = 19.036551 Si / 1000 Ang^3
#
#
#
# Elastic Constant Matrix: (Units=GPa)
#
#
# Indices 1 2 3 4 5 6 
#
# 1 75.3341 52.1892 48.8124 0.0000 0.0000 0.0000
# 2 52.1892 154.9755 101.5096 0.0000 0.0000 0.0000
# 3 48.8124 101.5096 141.3938 0.0000 0.0000 0.0000
# 4 0.0000 0.0000 0.0000 41.8629 0.0000 0.0000
# 5 0.0000 0.0000 0.0000 0.0000 37.3468 0.0000
# 6 0.0000 0.0000 0.0000 0.0000 0.0000 3.2337
#
#
#
# Elastic Compliance Matrix: (Units=1/GPa)
#
#
# Indices 1 2 3 4 5 6 
#
# 1 0.018214 -0.003804 -0.003557 0.000000 0.000000 0.000000
# 2 -0.003804 0.012975 -0.008002 0.000000 0.000000 0.000000
# 3 -0.003557 -0.008002 0.014045 0.000000 0.000000 0.000000
# 4 0.000000 0.000000 0.000000 0.023887 0.000000 0.000000
# 5 0.000000 0.000000 0.000000 0.000000 0.026776 0.000000
# 6 0.000000 0.000000 0.000000 0.000000 0.000000 0.309240
#
#
# Mechanical properties :
#
#
# Convention : Reuss Voigt Hill
#
# Bulk Modulus (GPa) = 68.92411 86.30287 77.61349
# Shear Modulus (GPa) = 11.34563 27.76818 19.55690
#
# Velocity S-wave (km/s) = 2.44394 3.82341 3.20868
# Velocity P-wave (km/s) = 6.65196 8.05761 7.38829
#
# Compressibility (1/GPa) = 0.01450871
#
# Stress axis : x y z
#
# Youngs Moduli (GPa) = 54.90223 77.07289 71.19974
#
# Poissons Ratio (x) = 0.29317 0.25326
# Poissons Ratio (y) = 0.20884 0.56972
# Poissons Ratio (z) = 0.19529 0.61671
#
# Static dielectric constant tensor:
#      x y z
#    x 3.486500 0.000000 0.000000 
#    y 0.000000 3.905780 0.000000 
#    z 0.000000 0.000000 3.473660 
# 
# 
# High freq. dielectric constant tensor:
#      x y z
#    x 1.742750 0.000000 0.000000 
#    y 0.000000 1.757450 0.000000 
#    z 0.000000 0.000000 1.739400 
# 
# From -- ./inp_files/6702.got.cif
#   From: 2010.03.12/outbox.cif.g09.slc.cpg/sg53_4_cif.got.tgz:6702.got - 2010.04.16 14:36:59.
