data_PCOD8220874
_publ_section_title
;
Structure prediction by ZEFSAII (Michael W. Deem and Ramdas Pophale) SiO2 
 PCOD8220874
Probable space group: P M N A
;
_chemical_formula_sum "Si O2"
_cell_formula_units_Z 56
_cell_length_a 15.672352
_cell_length_b 17.873399
_cell_length_c 10.213566
_cell_angle_alpha 90.000000
_cell_angle_beta 90.000000
_cell_angle_gamma 90.000000
_cell_volume 2861.005729
_symmetry_space_group_name_H-M "P M N A"
_symmetry_group_IT_number 53
_symmetry_cell_setting 'orthorhombic'
loop_
_space_group_symop_operation_xyz
x,y,z
1/2-x,-y,1/2+z
x,-y,-z
1/2-x,y,1/2-z
-x,-y,-z
1/2+x,y,1/2-z
-x,y,z
1/2+x,-y,1/2+z
loop_
_atom_site_type_symbol
_atom_site_label
_atom_site_fract_x
_atom_site_fract_y
_atom_site_fract_z
Si Si1 0.097413 0.098945 0.750000
Si Si2 0.404877 0.676465 0.900016
Si Si3 0.750000 0.569940 0.904369
Si Si4 0.595123 0.323535 0.400017
Si Si5 0.847358 0.170521 0.486346
Si Si6 0.351104 0.931557 0.749999
Si Si7 0.152643 0.170521 0.013653
O O1 0.145532 0.131432 0.625341
O O2 0.145534 0.131433 0.874657
O O3 0.000000 0.125637 0.750001
O O4 0.100817 0.009847 0.750001
O O5 0.500000 0.642454 0.919924
O O6 0.334816 0.615920 0.942276
O O7 0.388484 0.699639 0.750000
O O8 0.398466 0.751648 0.985680
O O9 0.750000 0.547215 0.750000
O O10 0.834816 0.615920 0.942276
O O11 0.750000 0.500000 0.000000
O O12 0.500000 0.357546 0.419925
O O13 0.601534 0.248352 0.485681
O O14 0.882494 0.113548 0.377320
O O15 0.750000 0.190234 0.453828
O O16 0.250000 0.945996 0.750000
O O17 0.382494 0.886453 0.622677
#
# Coordination Sequence:
#
# PCOD8220874 Si02
#       7
#     8   8   8   8   8   8   8
#     4  12  26  38  50  84 128 163 204 262 319 361
#     4  10  20  37  65  94 122 161 206 247 292 360
#     4  10  22  42  66  94 125 157 198 240 299 363
#     4  10  20  37  65  94 122 161 206 247 292 360
#     4  11  21  39  63  86 117 160 212 257 305 366
#     4  10  22  38  62  84 112 157 214 261 308 368
#     4  11  21  39  63  86 117 160 212 257 305 366
#
# _framework density 19.573537000000002
#
# number of rings (size 3 to 8) (size 9 to 14) (size 15 to 20)
#    0.000    1.429    2.857    3.000    0.000    6.286 
#    2.571    0.000    0.000    0.000    0.000    0.000 
#    0.000    0.000    0.000    0.000    0.000    0.000 
#
# Total GULP energy -694631.890975 kJ/mol
# GULP energy per Si atom -12404.140910 kJ/mol
# Density = 1.952899 g / cm^3
# Si number density = 19.573537 Si / 1000 Ang^3
#
#
#
# Elastic Constant Matrix: (Units=GPa)
#
#
# Indices 1 2 3 4 5 6 
#
# 1 112.4096 50.6789 20.6494 0.0000 0.0000 0.0000
# 2 50.6789 137.1210 61.6969 0.0000 0.0000 0.0000
# 3 20.6494 61.6969 121.2462 0.0000 0.0000 0.0000
# 4 0.0000 0.0000 0.0000 41.5050 0.0000 0.0000
# 5 0.0000 0.0000 0.0000 0.0000 20.5853 0.0000
# 6 0.0000 0.0000 0.0000 0.0000 0.0000 19.3326
#
#
#
# Elastic Compliance Matrix: (Units=1/GPa)
#
#
# Indices 1 2 3 4 5 6 
#
# 1 0.010680 -0.004058 0.000246 0.000000 0.000000 0.000000
# 2 -0.004058 0.011000 -0.004906 0.000000 0.000000 0.000000
# 3 0.000246 -0.004906 0.010702 0.000000 0.000000 0.000000
# 4 0.000000 0.000000 0.000000 0.024094 0.000000 0.000000
# 5 0.000000 0.000000 0.000000 0.000000 0.048578 0.000000
# 6 0.000000 0.000000 0.000000 0.000000 0.000000 0.051726
#
#
# Mechanical properties :
#
#
# Convention : Reuss Voigt Hill
#
# Bulk Modulus (GPa) = 66.90703 70.75858 68.83281
# Shear Modulus (GPa) = 27.90175 32.13468 30.01821
#
# Velocity S-wave (km/s) = 3.77965 4.05624 3.92038
# Velocity P-wave (km/s) = 7.30098 7.62666 7.46560
#
# Compressibility (1/GPa) = 0.01494611
#
# Stress axis : x y z
#
# Youngs Moduli (GPa) = 93.62950 90.90662 93.43651
#
# Poissons Ratio (x) = 0.36891 -0.02299
# Poissons Ratio (y) = 0.37996 0.45844
# Poissons Ratio (z) = -0.02303 0.44603
#
# Static dielectric constant tensor:
#      x y z
#    x 3.633980 0.000000 0.000000 
#    y 0.000000 3.346220 0.000000 
#    z 0.000000 0.000000 3.427470 
# 
# 
# High freq. dielectric constant tensor:
#      x y z
#    x 1.775290 0.000000 0.000000 
#    y 0.000000 1.750680 0.000000 
#    z 0.000000 0.000000 1.752240 
# 
# From -- ./inp_files/8864.got.cif
#   From: 2010.03.12/outbox.cif.g09.slc.cpg/sg53_5_cif.got.tgz:8864.got - 2010.04.16 14:36:59.
