data_PCOD8220601
_publ_section_title
;
Structure prediction by ZEFSAII (Michael W. Deem and Ramdas Pophale) SiO2 
 PCOD8220601
Probable space group: P M N A
;
_chemical_formula_sum "Si O2"
_cell_formula_units_Z 56
_cell_length_a 9.459753
_cell_length_b 14.533718
_cell_length_c 19.857618
_cell_angle_alpha 90.000000
_cell_angle_beta 90.000000
_cell_angle_gamma 90.000000
_cell_volume 2730.132205
_symmetry_space_group_name_H-M "P M N A"
_symmetry_group_IT_number 53
_symmetry_cell_setting 'orthorhombic'
loop_
_space_group_symop_operation_xyz
x,y,z
1/2-x,-y,1/2+z
x,-y,-z
1/2-x,y,1/2-z
-x,-y,-z
1/2+x,y,1/2-z
-x,y,z
1/2+x,-y,1/2+z
loop_
_atom_site_type_symbol
_atom_site_label
_atom_site_fract_x
_atom_site_fract_y
_atom_site_fract_z
Si Si1 0.339729 0.329634 0.361905
Si Si2 0.340692 0.527163 0.310980
Si Si3 0.836117 0.986304 0.078570
Si Si4 0.156634 0.399196 0.480505
Si Si5 0.169671 0.857510 0.320362
Si Si6 0.337997 0.136256 0.312209
Si Si7 0.155320 0.660547 0.377989
O O1 0.500000 0.310854 0.384470
O O2 0.329331 0.417389 0.313265
O O3 0.253770 0.347857 0.428339
O O4 0.281316 0.240050 0.323704
O O5 0.250000 0.566991 0.250000
O O6 0.500000 0.561157 0.304193
O O7 0.268651 0.577752 0.373495
O O8 0.816503 0.082231 0.118026
O O9 0.000000 0.953160 0.082086
O O10 0.734628 0.914889 0.117347
O O11 0.790883 0.000000 0.000000
O O12 0.217404 0.500000 0.500000
O O13 0.148930 0.326538 0.541830
O O14 0.000000 0.414105 0.449314
O O15 0.250000 0.881100 0.250000
O O16 0.202238 0.752097 0.339201
O O17 0.000000 0.875973 0.313729
O O18 0.250000 0.092487 0.250000
O O19 0.500000 0.134574 0.289042
O O20 0.000000 0.629673 0.351593
#
# Coordination Sequence:
#
# PCOD8220601 Si02
#       7
#     8   8   8   8   8   8   8
#     4  10  22  37  56  85 118 153 198 246 294 354
#     4  11  22  35  54  81 114 153 197 244 293 348
#     4  10  23  43  67  95 126 160 199 247 307 369
#     4  10  20  36  58  83 116 159 201 246 299 353
#     4  11  24  42  65  92 124 160 204 254 305 365
#     4  10  22  41  63  90 122 158 201 248 302 362
#     4  10  22  39  58  85 120 157 200 246 298 358
#
# _framework density 20.511827
#
# number of rings (size 3 to 8) (size 9 to 14) (size 15 to 20)
#    0.000    1.714    1.429    2.143    2.000    6.286 
#    0.000    0.000    0.000    0.000    0.000    0.000 
#    0.000    0.000    0.000    0.000    0.000    0.000 
#
# Total GULP energy -694115.267389 kJ/mol
# GULP energy per Si atom -12394.915489 kJ/mol
# Density = 2.046514 g / cm^3
# Si number density = 20.511827 Si / 1000 Ang^3
#
#
#
# Elastic Constant Matrix: (Units=GPa)
#
#
# Indices 1 2 3 4 5 6 
#
# 1 109.1872 46.0547 59.6402 0.0000 0.0000 0.0000
# 2 46.0547 82.1607 32.6024 0.0000 0.0000 0.0000
# 3 59.6402 32.6024 129.1067 0.0000 0.0000 0.0000
# 4 0.0000 0.0000 0.0000 33.4033 0.0000 0.0000
# 5 0.0000 0.0000 0.0000 0.0000 38.4592 0.0000
# 6 0.0000 0.0000 0.0000 0.0000 0.0000 28.4408
#
#
#
# Elastic Compliance Matrix: (Units=1/GPa)
#
#
# Indices 1 2 3 4 5 6 
#
# 1 0.014568 -0.006108 -0.005187 0.000000 0.000000 0.000000
# 2 -0.006108 0.016087 -0.001241 0.000000 0.000000 0.000000
# 3 -0.005187 -0.001241 0.010455 0.000000 0.000000 0.000000
# 4 0.000000 0.000000 0.000000 0.029937 0.000000 0.000000
# 5 0.000000 0.000000 0.000000 0.000000 0.026002 0.000000
# 6 0.000000 0.000000 0.000000 0.000000 0.000000 0.035161
#
#
# Mechanical properties :
#
#
# Convention : Reuss Voigt Hill
#
# Bulk Modulus (GPa) = 62.34963 66.33881 64.34422
# Shear Modulus (GPa) = 30.74486 32.20446 31.47466
#
# Velocity S-wave (km/s) = 3.87574 3.96668 3.92147
# Velocity P-wave (km/s) = 7.10573 7.30694 7.20704
#
# Compressibility (1/GPa) = 0.01603859
#
# Stress axis : x y z
#
# Youngs Moduli (GPa) = 68.64238 62.16058 95.64615
#
# Poissons Ratio (x) = 0.37966 0.49615
# Poissons Ratio (y) = 0.41925 0.11870
# Poissons Ratio (z) = 0.35608 0.07714
#
# Static dielectric constant tensor:
#      x y z
#    x 3.812840 0.000000 0.000000 
#    y 0.000000 3.742230 0.000000 
#    z 0.000000 0.000000 3.664220 
# 
# 
# High freq. dielectric constant tensor:
#      x y z
#    x 1.802180 0.000000 0.000000 
#    y 0.000000 1.798890 0.000000 
#    z 0.000000 0.000000 1.804970 
# 
# From -- ./inp_files/30757.got.cif
#   From: 2010.03.12/outbox.cif.g09.slc.cpg/sg53_16_cif.got.tgz:30757.got - 2010.04.16 14:36:59.
