data_PCOD8220257
_publ_section_title
;
Structure prediction by ZEFSAII (Michael W. Deem and Ramdas Pophale) SiO2 
 PCOD8220257
Probable space group: P M N A
;
_chemical_formula_sum "Si O2"
_cell_formula_units_Z 48
_cell_length_a 8.918074
_cell_length_b 30.510510
_cell_length_c 9.465264
_cell_angle_alpha 90.000000
_cell_angle_beta 90.000000
_cell_angle_gamma 90.000000
_cell_volume 2575.450875
_symmetry_space_group_name_H-M "P M N A"
_symmetry_group_IT_number 53
_symmetry_cell_setting 'orthorhombic'
loop_
_space_group_symop_operation_xyz
x,y,z
1/2-x,-y,1/2+z
x,-y,-z
1/2-x,y,1/2-z
-x,-y,-z
1/2+x,y,1/2-z
-x,y,z
1/2+x,-y,1/2+z
loop_
_atom_site_type_symbol
_atom_site_label
_atom_site_fract_x
_atom_site_fract_y
_atom_site_fract_z
Si Si1 0.176789 0.960089 0.097931
Si Si2 0.178083 0.629131 0.900749
Si Si3 0.823780 0.540003 0.601880
Si Si4 0.323857 0.116217 0.395739
Si Si5 0.676186 0.708985 0.400988
Si Si6 0.176537 0.215320 0.104252
O O1 0.250000 0.963784 0.250000
O O2 0.000000 0.961579 0.119158
O O3 0.229067 0.914999 0.023100
O O4 0.231714 0.000000 0.000000
O O5 0.250000 0.640494 0.750000
O O6 0.246477 0.583763 0.960128
O O7 0.000000 0.625044 0.884060
O O8 0.224956 0.666877 0.009047
O O9 0.788702 0.500000 0.500000
O O10 0.750000 0.527698 0.750000
O O11 0.000000 0.548403 0.620975
O O12 0.250000 0.100446 0.250000
O O13 0.500000 0.112488 0.372673
O O14 0.274540 0.165745 0.434223
O O15 0.750000 0.706164 0.250000
O O16 0.500000 0.710503 0.379661
O O17 0.733187 0.752852 0.480056
O O18 0.250000 0.230785 0.250000
O O19 0.000000 0.219403 0.124791
#
# Coordination Sequence:
#
# PCOD8220257 Si02
#       6
#     8   8   8   8   8   8
#     4  10  21  35  51  74 103 134 170 212 256 303
#     4  10  20  35  55  77 101 132 170 209 250 298
#     4  10  21  36  55  79 105 135 170 207 250 299
#     4   9  18  33  53  76 102 132 168 210 253 301
#     4  10  22  36  51  75 105 135 168 209 254 299
#     4   9  18  34  54  76 102 133 170 209 251 301
#
# _framework density 18.637512999999998
#
# number of rings (size 3 to 8) (size 9 to 14) (size 15 to 20)
#    0.000    2.333    0.000    3.000    0.000    5.667 
#    0.000    3.333    0.000    0.000    0.000    0.000 
#    0.000    0.000    0.000    0.000    0.000    0.000 
#
# Total GULP energy -595256.293952 kJ/mol
# GULP energy per Si atom -12401.172791 kJ/mol
# Density = 1.859509 g / cm^3
# Si number density = 18.637513 Si / 1000 Ang^3
#
#
#
# Elastic Constant Matrix: (Units=GPa)
#
#
# Indices 1 2 3 4 5 6 
#
# 1 53.8742 49.3353 50.4769 0.0000 0.0000 0.0000
# 2 49.3353 152.6348 107.5179 0.0000 0.0000 0.0000
# 3 50.4769 107.5179 158.5748 0.0000 0.0000 0.0000
# 4 0.0000 0.0000 0.0000 42.4452 0.0000 0.0000
# 5 0.0000 0.0000 0.0000 0.0000 36.0546 0.0000
# 6 0.0000 0.0000 0.0000 0.0000 0.0000 11.6654
#
#
#
# Elastic Compliance Matrix: (Units=1/GPa)
#
#
# Indices 1 2 3 4 5 6 
#
# 1 0.028618 -0.005423 -0.005432 0.000000 0.000000 0.000000
# 2 -0.005423 0.013569 -0.007474 0.000000 0.000000 0.000000
# 3 -0.005432 -0.007474 0.013103 0.000000 0.000000 0.000000
# 4 0.000000 0.000000 0.000000 0.023560 0.000000 0.000000
# 5 0.000000 0.000000 0.000000 0.000000 0.027736 0.000000
# 6 0.000000 0.000000 0.000000 0.000000 0.000000 0.085724
#
#
# Mechanical properties :
#
#
# Convention : Reuss Voigt Hill
#
# Bulk Modulus (GPa) = 53.67463 86.63822 70.15643
# Shear Modulus (GPa) = 21.26037 28.54997 24.90517
#
# Velocity S-wave (km/s) = 3.38113 3.91814 3.65950
# Velocity P-wave (km/s) = 6.64112 8.18877 7.45521
#
# Compressibility (1/GPa) = 0.01863077
#
# Stress axis : x y z
#
# Youngs Moduli (GPa) = 34.94295 73.69537 76.31858
#
# Poissons Ratio (x) = 0.39968 0.41459
# Poissons Ratio (y) = 0.18951 0.57041
# Poissons Ratio (z) = 0.18982 0.55080
#
# Static dielectric constant tensor:
#      x y z
#    x 3.373310 0.000000 0.000000 
#    y 0.000000 3.776670 0.000000 
#    z 0.000000 0.000000 3.473910 
# 
# 
# High freq. dielectric constant tensor:
#      x y z
#    x 1.720760 0.000000 0.000000 
#    y 0.000000 1.740390 0.000000 
#    z 0.000000 0.000000 1.719180 
# 
# From -- ./inp_files/6673.got.cif
#   From: 2010.03.12/outbox.cif.g09.slc.cpg/sg53_4_cif.got.tgz:6673.got - 2010.04.16 14:36:59.
