data_PCOD8220171
_publ_section_title
;
Structure prediction by ZEFSAII (Michael W. Deem and Ramdas Pophale) SiO2 
 PCOD8220171
Probable space group: P M N A
;
_chemical_formula_sum "Si O2"
_cell_formula_units_Z 64
_cell_length_a 9.119126
_cell_length_b 23.607665
_cell_length_c 14.724601
_cell_angle_alpha 90.000000
_cell_angle_beta 90.000000
_cell_angle_gamma 90.000000
_cell_volume 3169.930829
_symmetry_space_group_name_H-M "P M N A"
_symmetry_group_IT_number 53
_symmetry_cell_setting 'orthorhombic'
loop_
_space_group_symop_operation_xyz
x,y,z
1/2-x,-y,1/2+z
x,-y,-z
1/2-x,y,1/2-z
-x,-y,-z
1/2+x,y,1/2-z
-x,y,z
1/2+x,-y,1/2+z
loop_
_atom_site_type_symbol
_atom_site_label
_atom_site_fract_x
_atom_site_fract_y
_atom_site_fract_z
Si Si1 0.330085 0.545517 0.843120
Si Si2 0.667512 0.248532 0.480508
Si Si3 0.329548 0.414237 0.843462
Si Si4 0.839372 0.104551 0.667270
Si Si5 0.338717 0.764286 0.166204
Si Si6 0.169072 0.376063 0.015428
Si Si7 0.670473 0.064483 0.497578
Si Si8 0.170557 0.848300 0.845585
O O1 0.250000 0.560433 0.750000
O O2 0.500000 0.562451 0.834259
O O3 0.311613 0.480051 0.869210
O O4 0.255283 0.581247 0.921210
O O5 0.500000 0.231938 0.503627
O O6 0.758630 0.243690 0.571611
O O7 0.678571 0.312738 0.443538
O O8 0.728478 0.205639 0.403748
O O9 0.250000 0.400413 0.750000
O O10 0.500000 0.397490 0.837341
O O11 0.247963 0.376250 0.917925
O O12 0.750000 0.075195 0.750000
O O13 0.858200 0.170120 0.688837
O O14 0.756004 0.099263 0.572876
O O15 0.000000 0.075652 0.661386
O O16 0.250000 0.735575 0.250000
O O17 0.500000 0.735757 0.160810
O O18 0.000000 0.395409 0.005634
O O19 0.500000 0.067884 0.522134
O O20 0.702664 0.093568 0.400493
O O21 0.726649 0.000000 0.500000
O O22 0.250000 0.851401 0.750000
O O23 0.000000 0.840951 0.825305
#
# Coordination Sequence:
#
# PCOD8220171 Si02
#       8
#     8   8   8   8   8   8   8   8
#     4  10  21  38  60  85 115 152 195 243 295 350
#     4  10  22  40  59  82 114 154 196 242 291 341
#     4  10  21  38  60  86 117 155 196 239 294 353
#     4  10  20  34  56  85 115 148 185 229 282 340
#     4  10  20  34  57  85 111 145 187 231 283 344
#     4  11  23  37  57  86 118 152 195 243 296 351
#     4  10  21  38  61  88 118 153 193 239 292 344
#     4  10  22  41  63  84 114 153 194 241 287 340
#
# _framework density 20.189713999999999
#
# number of rings (size 3 to 8) (size 9 to 14) (size 15 to 20)
#    0.000    1.875    1.250    2.250    0.000    7.750 
#    0.000    2.500    0.000    0.000    0.000    0.000 
#    0.000    0.000    0.000    0.000    0.000    0.000 
#
# Total GULP energy -793689.777656 kJ/mol
# GULP energy per Si atom -12401.402776 kJ/mol
# Density = 2.014376 g / cm^3
# Si number density = 20.189714 Si / 1000 Ang^3
#
#
#
# Elastic Constant Matrix: (Units=GPa)
#
#
# Indices 1 2 3 4 5 6 
#
# 1 123.6748 31.4061 64.4685 0.0000 0.0000 0.0000
# 2 31.4061 84.4140 38.0737 0.0000 0.0000 0.0000
# 3 64.4685 38.0737 133.7640 0.0000 0.0000 0.0000
# 4 0.0000 0.0000 0.0000 7.1778 0.0000 0.0000
# 5 0.0000 0.0000 0.0000 0.0000 42.5010 0.0000
# 6 0.0000 0.0000 0.0000 0.0000 0.0000 3.3688
#
#
#
# Elastic Compliance Matrix: (Units=1/GPa)
#
#
# Indices 1 2 3 4 5 6 
#
# 1 0.011076 -0.001965 -0.004779 0.000000 0.000000 0.000000
# 2 -0.001965 0.013940 -0.003021 0.000000 0.000000 0.000000
# 3 -0.004779 -0.003021 0.010639 0.000000 0.000000 0.000000
# 4 0.000000 0.000000 0.000000 0.139318 0.000000 0.000000
# 5 0.000000 0.000000 0.000000 0.000000 0.023529 0.000000
# 6 0.000000 0.000000 0.000000 0.000000 0.000000 0.296841
#
#
# Mechanical properties :
#
#
# Convention : Reuss Voigt Hill
#
# Bulk Modulus (GPa) = 62.01434 67.74994 64.88214
# Shear Modulus (GPa) = 9.61082 24.46983 17.04033
#
# Velocity S-wave (km/s) = 2.18417 3.48515 2.90834
# Velocity P-wave (km/s) = 6.09453 7.05865 6.59423
#
# Compressibility (1/GPa) = 0.01612530
#
# Stress axis : x y z
#
# Youngs Moduli (GPa) = 90.28692 71.73617 93.99645
#
# Poissons Ratio (x) = 0.14099 0.44918
# Poissons Ratio (y) = 0.17745 0.28392
# Poissons Ratio (z) = 0.43145 0.21668
#
# Static dielectric constant tensor:
#      x y z
#    x 3.911310 0.000000 0.000000 
#    y 0.000000 3.721030 0.000000 
#    z 0.000000 0.000000 3.485550 
# 
# 
# High freq. dielectric constant tensor:
#      x y z
#    x 1.798060 0.000000 0.000000 
#    y 0.000000 1.782530 0.000000 
#    z 0.000000 0.000000 1.787560 
# 
# From -- ./inp_files/20904.got.cif
#   From: 2010.03.12/outbox.cif.g09.slc.cpg/sg53_11_cif.got.tgz:20904.got - 2010.04.16 14:36:59.
