data_PCOD8220656
_publ_section_title
;
Structure prediction by ZEFSAII (Michael W. Deem and Ramdas Pophale) SiO2 
 PCOD8220656
Probable space group: P M N A
;
_chemical_formula_sum "Si O2"
_cell_formula_units_Z 64
_cell_length_a 8.773291
_cell_length_b 21.451765
_cell_length_c 17.587241
_cell_angle_alpha 90.000000
_cell_angle_beta 90.000000
_cell_angle_gamma 90.000000
_cell_volume 3309.964075
_symmetry_space_group_name_H-M "P M N A"
_symmetry_group_IT_number 53
_symmetry_cell_setting 'orthorhombic'
loop_
_space_group_symop_operation_xyz
x,y,z
1/2-x,-y,1/2+z
x,-y,-z
1/2-x,y,1/2-z
-x,-y,-z
1/2+x,y,1/2-z
-x,y,z
1/2+x,-y,1/2+z
loop_
_atom_site_type_symbol
_atom_site_label
_atom_site_fract_x
_atom_site_fract_y
_atom_site_fract_z
Si Si1 0.180107 0.373024 0.172620
Si Si2 0.679983 0.002046 0.170474
Si Si3 0.179473 0.895833 0.074414
Si Si4 0.820677 0.878580 0.899445
Si Si5 0.822333 0.567418 0.530998
Si Si6 0.321590 0.251473 0.107914
Si Si7 0.674635 0.310040 0.947210
Si Si8 0.178487 0.775640 0.167653
O O1 0.250000 0.400989 0.250000
O O2 0.254319 0.305518 0.160253
O O3 0.000000 0.366628 0.178359
O O4 0.222793 0.420561 0.105548
O O5 0.750000 0.978849 0.250000
O O6 0.500000 0.000902 0.177094
O O7 0.736080 0.071253 0.152255
O O8 0.733477 0.956320 0.103911
O O9 0.236758 0.835572 0.120800
O O10 0.000000 0.906435 0.084065
O O11 0.225500 0.887508 0.987042
O O12 0.765400 0.811520 0.870767
O O13 0.000000 0.885156 0.887040
O O14 0.778423 0.500000 0.500000
O O15 0.783410 0.618342 0.466175
O O16 0.000000 0.573040 0.553355
O O17 0.500000 0.244579 0.124692
O O18 0.289811 0.267545 0.020160
O O19 0.500000 0.303879 0.922348
O O20 0.776257 0.287112 0.877050
O O21 0.250000 0.776166 0.250000
O O22 0.000000 0.777260 0.177337
#
# Coordination Sequence:
#
# PCOD8220656 Si02
#       8
#     8   8   8   8   8   8   8   8
#     4  11  22  37  59  88 123 159 201 246 294 346
#     4  12  26  42  59  81 111 150 194 241 295 349
#     4  10  22  40  61  85 113 148 189 237 292 349
#     4  11  22  39  62  88 117 149 189 237 292 351
#     4   9  19  38  63  90 121 158 198 242 293 347
#     4  10  20  36  59  87 117 150 191 235 289 347
#     4   9  18  34  57  84 115 149 185 230 280 339
#     4  11  22  36  56  84 115 150 190 236 290 342
#
# _framework density 19.335559
#
# number of rings (size 3 to 8) (size 9 to 14) (size 15 to 20)
#    0.000    1.625    1.250    4.875    0.000    7.250 
#    0.000    3.125    0.000    0.000    0.000    0.000 
#    0.000    0.000    0.000    0.000    0.000    0.000 
#
# Total GULP energy -793961.458918 kJ/mol
# GULP energy per Si atom -12405.647796 kJ/mol
# Density = 1.929155 g / cm^3
# Si number density = 19.335559 Si / 1000 Ang^3
#
#
#
# Elastic Constant Matrix: (Units=GPa)
#
#
# Indices 1 2 3 4 5 6 
#
# 1 67.9009 18.1975 29.1860 0.0000 0.0000 0.0000
# 2 18.1975 102.0132 16.2170 0.0000 0.0000 0.0000
# 3 29.1860 16.2170 72.5240 0.0000 0.0000 0.0000
# 4 0.0000 0.0000 0.0000 29.3502 0.0000 0.0000
# 5 0.0000 0.0000 0.0000 0.0000 31.3977 0.0000
# 6 0.0000 0.0000 0.0000 0.0000 0.0000 31.0721
#
#
#
# Elastic Compliance Matrix: (Units=1/GPa)
#
#
# Indices 1 2 3 4 5 6 
#
# 1 0.018258 -0.002166 -0.006863 0.000000 0.000000 0.000000
# 2 -0.002166 0.010421 -0.001459 0.000000 0.000000 0.000000
# 3 -0.006863 -0.001459 0.016877 0.000000 0.000000 0.000000
# 4 0.000000 0.000000 0.000000 0.034071 0.000000 0.000000
# 5 0.000000 0.000000 0.000000 0.000000 0.031849 0.000000
# 6 0.000000 0.000000 0.000000 0.000000 0.000000 0.032183
#
#
# Mechanical properties :
#
#
# Convention : Reuss Voigt Hill
#
# Bulk Modulus (GPa) = 40.68343 41.07100 40.87722
# Shear Modulus (GPa) = 28.93049 30.28652 29.60851
#
# Velocity S-wave (km/s) = 3.87231 3.96203 3.91743
# Velocity P-wave (km/s) = 6.40933 6.49750 6.45356
#
# Compressibility (1/GPa) = 0.02458003
#
# Stress axis : x y z
#
# Youngs Moduli (GPa) = 54.77100 95.96119 59.25334
#
# Poissons Ratio (x) = 0.20784 0.40667
# Poissons Ratio (y) = 0.11863 0.08643
# Poissons Ratio (z) = 0.37591 0.13997
#
# Static dielectric constant tensor:
#      x y z
#    x 3.506360 0.000000 0.000000 
#    y 0.000000 3.523360 0.000000 
#    z 0.000000 0.000000 5.875310 
# 
# 
# High freq. dielectric constant tensor:
#      x y z
#    x 1.757340 0.000000 0.000000 
#    y 0.000000 1.750280 0.000000 
#    z 0.000000 0.000000 1.752540 
# 
# From -- ./inp_files/20909.got.cif
#   From: 2010.03.12/outbox.cif.g09.slc.cpg/sg53_11_cif.got.tgz:20909.got - 2010.04.16 14:36:59.
