data_PCOD8220041
_publ_section_title
;
Structure prediction by ZEFSAII (Michael W. Deem and Ramdas Pophale) SiO2 
 PCOD8220041
Probable space group: P M N A
;
_chemical_formula_sum "Si O2"
_cell_formula_units_Z 56
_cell_length_a 8.697717
_cell_length_b 15.053653
_cell_length_c 20.938093
_cell_angle_alpha 90.000000
_cell_angle_beta 90.000000
_cell_angle_gamma 90.000000
_cell_volume 2741.475053
_symmetry_space_group_name_H-M "P M N A"
_symmetry_group_IT_number 53
_symmetry_cell_setting 'orthorhombic'
loop_
_space_group_symop_operation_xyz
x,y,z
1/2-x,-y,1/2+z
x,-y,-z
1/2-x,y,1/2-z
-x,-y,-z
1/2+x,y,1/2-z
-x,y,z
1/2+x,-y,1/2+z
loop_
_atom_site_type_symbol
_atom_site_label
_atom_site_fract_x
_atom_site_fract_y
_atom_site_fract_z
Si Si1 0.677897 0.235903 0.014229
Si Si2 0.672278 0.444739 0.184448
Si Si3 0.817016 0.946966 0.316230
Si Si4 0.319277 0.051716 0.061172
Si Si5 0.819459 0.420903 0.046989
Si Si6 0.679377 0.208346 0.612839
Si Si7 0.827561 0.345854 0.686552
O O1 0.500000 0.264370 0.015898
O O2 0.716534 0.157996 0.065015
O O3 0.779965 0.324042 0.019623
O O4 0.721108 0.184639 0.949147
O O5 0.750000 0.407601 0.250000
O O6 0.500000 0.405468 0.181850
O O7 0.756767 0.419634 0.119145
O O8 0.669864 0.549519 0.186885
O O9 0.750000 0.984627 0.250000
O O10 0.740858 0.851066 0.328838
O O11 0.000000 0.940026 0.312754
O O12 0.757079 0.011229 0.372744
O O13 0.500000 0.037289 0.056860
O O14 0.244376 0.000000 0.000000
O O15 0.000000 0.433180 0.051137
O O16 0.753381 0.500000 0.000000
O O17 0.500000 0.196013 0.600008
O O18 0.720262 0.311025 0.629099
O O19 0.750000 0.308296 0.750000
O O20 0.000000 0.307735 0.680153
#
# Coordination Sequence:
#
# PCOD8220041 Si02
#       7
#     8   8   8   8   8   8   8
#     4  11  22  39  64  90 116 155 206 254 306 367
#     4  10  21  38  61  86 115 157 207 257 313 373
#     4  11  22  39  61  87 121 157 199 247 304 362
#     4   9  18  38  65  89 115 155 201 246 298 358
#     4  11  24  41  61  90 129 167 207 260 314 368
#     4  12  23  35  53  83 120 156 196 244 304 366
#     4  10  20  34  53  79 112 152 197 245 300 365
#
# _framework density 20.426960000000001
#
# number of rings (size 3 to 8) (size 9 to 14) (size 15 to 20)
#    0.000    1.429    1.429    4.714    0.000    5.143 
#    0.000    4.286    0.000    1.714    0.000    0.000 
#    0.000    0.000    0.000    0.000    0.000    0.000 
#
# Total GULP energy -694118.042323 kJ/mol
# GULP energy per Si atom -12394.965041 kJ/mol
# Density = 2.038047 g / cm^3
# Si number density = 20.426960 Si / 1000 Ang^3
#
#
#
# Elastic Constant Matrix: (Units=GPa)
#
#
# Indices 1 2 3 4 5 6 
#
# 1 75.0428 28.6063 26.0315 0.0000 0.0000 0.0000
# 2 28.6063 73.3893 39.7612 0.0000 0.0000 0.0000
# 3 26.0315 39.7612 136.9011 0.0000 0.0000 0.0000
# 4 0.0000 0.0000 0.0000 23.7374 0.0000 0.0000
# 5 0.0000 0.0000 0.0000 0.0000 37.0102 0.0000
# 6 0.0000 0.0000 0.0000 0.0000 0.0000 13.1663
#
#
#
# Elastic Compliance Matrix: (Units=1/GPa)
#
#
# Indices 1 2 3 4 5 6 
#
# 1 0.015891 -0.005408 -0.001451 0.000000 0.000000 0.000000
# 2 -0.005408 0.018011 -0.004203 0.000000 0.000000 0.000000
# 3 -0.001451 -0.004203 0.008801 0.000000 0.000000 0.000000
# 4 0.000000 0.000000 0.000000 0.042128 0.000000 0.000000
# 5 0.000000 0.000000 0.000000 0.000000 0.027020 0.000000
# 6 0.000000 0.000000 0.000000 0.000000 0.000000 0.075952
#
#
# Mechanical properties :
#
#
# Convention : Reuss Voigt Hill
#
# Bulk Modulus (GPa) = 48.59219 52.68123 50.63671
# Shear Modulus (GPa) = 23.06443 27.51173 25.28808
#
# Velocity S-wave (km/s) = 3.36388 3.67391 3.52230
# Velocity P-wave (km/s) = 6.23919 6.62139 6.43313
#
# Compressibility (1/GPa) = 0.02057944
#
# Stress axis : x y z
#
# Youngs Moduli (GPa) = 62.93065 55.52206 113.62263
#
# Poissons Ratio (x) = 0.30025 0.16486
# Poissons Ratio (y) = 0.34032 0.47753
# Poissons Ratio (z) = 0.09131 0.23334
#
# Static dielectric constant tensor:
#      x y z
#    x 3.665290 0.000000 0.000000 
#    y 0.000000 3.598170 0.000000 
#    z 0.000000 0.000000 4.045930 
# 
# 
# High freq. dielectric constant tensor:
#      x y z
#    x 1.791980 0.000000 0.000000 
#    y 0.000000 1.785610 0.000000 
#    z 0.000000 0.000000 1.804770 
# 
# From -- ./inp_files/30825.got.cif
#   From: 2010.03.12/outbox.cif.g09.slc.cpg/sg53_16_cif.got.tgz:30825.got - 2010.04.16 14:36:59.
