data_PCOD8220386
_publ_section_title
;
Structure prediction by ZEFSAII (Michael W. Deem and Ramdas Pophale) SiO2 
 PCOD8220386
Probable space group: P M N A
;
_chemical_formula_sum "Si O2"
_cell_formula_units_Z 56
_cell_length_a 8.869094
_cell_length_b 14.209040
_cell_length_c 20.647787
_cell_angle_alpha 90.000000
_cell_angle_beta 90.000000
_cell_angle_gamma 90.000000
_cell_volume 2602.061195
_symmetry_space_group_name_H-M "P M N A"
_symmetry_group_IT_number 53
_symmetry_cell_setting 'orthorhombic'
loop_
_space_group_symop_operation_xyz
x,y,z
1/2-x,-y,1/2+z
x,-y,-z
1/2-x,y,1/2-z
-x,-y,-z
1/2+x,y,1/2-z
-x,y,z
1/2+x,-y,1/2+z
loop_
_atom_site_type_symbol
_atom_site_label
_atom_site_fract_x
_atom_site_fract_y
_atom_site_fract_z
Si Si1 0.324901 0.854525 0.880788
Si Si2 0.834970 0.333956 0.576428
Si Si3 0.177510 0.484920 0.075827
Si Si4 0.336607 0.201900 0.804673
Si Si5 0.324317 0.171650 0.513785
Si Si6 0.824034 0.958592 0.132628
Si Si7 0.677666 0.655573 0.820363
O O1 0.500000 0.854110 0.900889
O O2 0.217989 0.861228 0.942961
O O3 0.288571 0.765196 0.835271
O O4 0.277441 0.951545 0.846823
O O5 0.730998 0.416475 0.605681
O O6 0.860594 0.262096 0.632949
O O7 0.753984 0.274288 0.520335
O O8 0.000000 0.370457 0.552467
O O9 0.255804 0.403117 0.118380
O O10 0.000000 0.468930 0.080661
O O11 0.229407 0.500000 0.000000
O O12 0.250000 0.263567 0.750000
O O13 0.500000 0.165166 0.781956
O O14 0.218603 0.116865 0.813488
O O15 0.500000 0.190889 0.521005
O O16 0.275901 0.089407 0.563751
O O17 0.000000 0.984817 0.133667
O O18 0.750000 0.629769 0.750000
O O19 0.500000 0.634714 0.815937
#
# Coordination Sequence:
#
# PCOD8220386 Si02
#       7
#     8   8   8   8   8   8   8
#     4  11  23  38  59  86 117 157 202 249 303 362
#     4  10  21  37  59  87 118 152 190 237 294 354
#     4  11  24  42  67  97 127 162 204 253 311 376
#     4  10  21  37  57  82 113 150 192 237 288 346
#     4  10  20  35  57  88 123 157 197 246 302 363
#     4  10  21  36  56  84 119 158 200 249 301 356
#     4  11  26  46  66  90 123 164 211 264 319 379
#
# _framework density 21.521401000000001
#
# number of rings (size 3 to 8) (size 9 to 14) (size 15 to 20)
#    0.000    1.571    0.000    4.286    0.000   12.000 
#    0.000    2.857    0.000    0.000    0.000    0.000 
#    0.000    0.000    0.000    0.000    0.000    0.000 
#
# Total GULP energy -693859.016533 kJ/mol
# GULP energy per Si atom -12390.339581 kJ/mol
# Density = 2.147242 g / cm^3
# Si number density = 21.521401 Si / 1000 Ang^3
#
#
#
# Elastic Constant Matrix: (Units=GPa)
#
#
# Indices 1 2 3 4 5 6 
#
# 1 107.1557 47.2437 52.4472 0.0000 0.0000 0.0000
# 2 47.2437 103.0528 17.0303 0.0000 0.0000 0.0000
# 3 52.4472 17.0303 83.1391 0.0000 0.0000 0.0000
# 4 0.0000 0.0000 0.0000 7.3180 0.0000 0.0000
# 5 0.0000 0.0000 0.0000 0.0000 29.8106 0.0000
# 6 0.0000 0.0000 0.0000 0.0000 0.0000 40.5867
#
#
#
# Elastic Compliance Matrix: (Units=1/GPa)
#
#
# Indices 1 2 3 4 5 6 
#
# 1 0.016477 -0.006041 -0.009157 0.000000 0.000000 0.000000
# 2 -0.006041 0.012258 0.001300 0.000000 0.000000 0.000000
# 3 -0.009157 0.001300 0.017539 0.000000 0.000000 0.000000
# 4 0.000000 0.000000 0.000000 0.136650 0.000000 0.000000
# 5 0.000000 0.000000 0.000000 0.000000 0.033545 0.000000
# 6 0.000000 0.000000 0.000000 0.000000 0.000000 0.024639
#
#
# Mechanical properties :
#
#
# Convention : Reuss Voigt Hill
#
# Bulk Modulus (GPa) = 54.11887 58.53224 56.32556
# Shear Modulus (GPa) = 18.17760 27.31815 22.74787
#
# Velocity S-wave (km/s) = 2.90940 3.56666 3.25466
# Velocity P-wave (km/s) = 6.04047 6.64964 6.35236
#
# Compressibility (1/GPa) = 0.01847784
#
# Stress axis : x y z
#
# Youngs Moduli (GPa) = 60.68904 81.57762 57.01737
#
# Poissons Ratio (x) = 0.49278 0.52212
# Poissons Ratio (y) = 0.36660 -0.07410
# Poissons Ratio (z) = 0.55574 -0.10602
#
# Static dielectric constant tensor:
#      x y z
#    x 6.206380 0.000000 0.000000 
#    y 0.000000 4.047360 0.000000 
#    z 0.000000 0.000000 3.718240 
# 
# 
# High freq. dielectric constant tensor:
#      x y z
#    x 1.860090 0.000000 0.000000 
#    y 0.000000 1.844070 0.000000 
#    z 0.000000 0.000000 1.840330 
# 
# From -- ./inp_files/30784.got.cif
#   From: 2010.03.12/outbox.cif.g09.slc.cpg/sg53_16_cif.got.tgz:30784.got - 2010.04.16 14:36:59.
