data_PCOD8220893
_publ_section_title
;
Structure prediction by ZEFSAII (Michael W. Deem and Ramdas Pophale) SiO2 
 PCOD8220893
Probable space group: P M N A
;
_chemical_formula_sum "Si O2"
_cell_formula_units_Z 32
_cell_length_a 32.981858
_cell_length_b 5.353673
_cell_length_c 8.564865
_cell_angle_alpha 90.000000
_cell_angle_beta 90.000000
_cell_angle_gamma 90.000000
_cell_volume 1512.333181
_symmetry_space_group_name_H-M "P M N A"
_symmetry_group_IT_number 53
_symmetry_cell_setting 'orthorhombic'
loop_
_space_group_symop_operation_xyz
x,y,z
1/2-x,-y,1/2+z
x,-y,-z
1/2-x,y,1/2-z
-x,-y,-z
1/2+x,y,1/2-z
-x,y,z
1/2+x,-y,1/2+z
loop_
_atom_site_type_symbol
_atom_site_label
_atom_site_fract_x
_atom_site_fract_y
_atom_site_fract_z
Si Si1 0.452798 0.033612 0.319989
Si Si2 0.717680 0.000000 0.000000
Si Si3 0.325553 0.617973 0.170357
Si Si4 0.415491 0.462704 0.815666
Si Si5 0.750000 0.339080 0.250000
O O1 0.500000 0.085006 0.294947
O O2 0.441945 0.779326 0.228503
O O3 0.441506 0.000000 0.500000
O O4 0.429791 0.280119 0.261824
O O5 0.747006 0.806283 0.913886
O O6 0.688269 0.097751 0.860876
O O7 0.369918 0.594520 0.245858
O O8 0.290859 0.498141 0.278009
O O9 0.325961 0.500000 0.000000
O O10 0.417619 0.500000 0.000000
#
# Coordination Sequence:
#
# PCOD8220893 Si02
#       5
#     8   4   8   8   4
#     4  11  25  46  67  95 137 176 209 266 343 401
#     4  10  20  38  64  82 125 172 203 264 318 374
#     4   9  21  37  60  89 124 166 210 263 321 366
#     4  11  24  41  71 101 129 170 225 276 319 388
#     4  10  20  38  58  92 120 168 210 252 314 380
#
# _framework density 21.159358999999998
#
# number of rings (size 3 to 8) (size 9 to 14) (size 15 to 20)
#    0.000    1.750    0.000    3.000   10.500    5.000 
#    2.250    7.500    0.000    0.000    0.000    0.000 
#    0.000    0.000    0.000    0.000    0.000    0.000 
#
# Total GULP energy -396581.597202 kJ/mol
# GULP energy per Si atom -12393.174913 kJ/mol
# Density = 2.111120 g / cm^3
# Si number density = 21.159359 Si / 1000 Ang^3
#
#
#
# Elastic Constant Matrix: (Units=GPa)
#
#
# Indices 1 2 3 4 5 6 
#
# 1 134.2487 60.0381 67.4989 0.0000 0.0000 0.0000
# 2 60.0381 154.1608 53.1005 0.0000 0.0000 0.0000
# 3 67.4989 53.1005 79.0378 0.0000 0.0000 0.0000
# 4 0.0000 0.0000 0.0000 36.7604 0.0000 0.0000
# 5 0.0000 0.0000 0.0000 0.0000 32.1425 0.0000
# 6 0.0000 0.0000 0.0000 0.0000 0.0000 4.2313
#
#
#
# Elastic Compliance Matrix: (Units=1/GPa)
#
#
# Indices 1 2 3 4 5 6 
#
# 1 0.013372 -0.001658 -0.010306 0.000000 0.000000 0.000000
# 2 -0.001658 0.008645 -0.004392 0.000000 0.000000 0.000000
# 3 -0.010306 -0.004392 0.024405 0.000000 0.000000 0.000000
# 4 0.000000 0.000000 0.000000 0.027203 0.000000 0.000000
# 5 0.000000 0.000000 0.000000 0.000000 0.031111 0.000000
# 6 0.000000 0.000000 0.000000 0.000000 0.000000 0.236335
#
#
# Mechanical properties :
#
#
# Convention : Reuss Voigt Hill
#
# Bulk Modulus (GPa) = 72.94287 80.96915 76.95601
# Shear Modulus (GPa) = 13.21512 27.08081 20.14796
#
# Velocity S-wave (km/s) = 2.50181 3.58138 3.08912
# Velocity P-wave (km/s) = 6.54930 7.44655 7.01229
#
# Compressibility (1/GPa) = 0.01370936
#
# Stress axis : x y z
#
# Youngs Moduli (GPa) = 74.78279 115.66892 40.97583
#
# Poissons Ratio (x) = 0.19176 0.42230
# Poissons Ratio (y) = 0.12398 0.17998
# Poissons Ratio (z) = 0.77071 0.50807
#
# Static dielectric constant tensor:
#      x y z
#    x 4.221540 0.000000 0.000000 
#    y 0.000000 4.534270 0.000000 
#    z 0.000000 0.000000 3.535360 
# 
# 
# High freq. dielectric constant tensor:
#      x y z
#    x 1.837850 0.000000 0.000000 
#    y 0.000000 1.846810 0.000000 
#    z 0.000000 0.000000 1.815500 
# 
# From -- ./inp_files/12707.got.cif
#   From: 2010.03.12/outbox.cif.g09.slc.cpg/sg53_7_cif.got.tgz:12707.got - 2010.04.16 14:36:59.
