data_PCOD8220431
_publ_section_title
;
Structure prediction by ZEFSAII (Michael W. Deem and Ramdas Pophale) SiO2 
 PCOD8220431
Probable space group: P M N A
;
_chemical_formula_sum "Si O2"
_cell_formula_units_Z 64
_cell_length_a 19.052910
_cell_length_b 12.699272
_cell_length_c 13.925974
_cell_angle_alpha 90.000000
_cell_angle_beta 90.000000
_cell_angle_gamma 90.000000
_cell_volume 3369.502021
_symmetry_space_group_name_H-M "P M N A"
_symmetry_group_IT_number 53
_symmetry_cell_setting 'orthorhombic'
loop_
_space_group_symop_operation_xyz
x,y,z
1/2-x,-y,1/2+z
x,-y,-z
1/2-x,y,1/2-z
-x,-y,-z
1/2+x,y,1/2-z
-x,y,z
1/2+x,-y,1/2+z
loop_
_atom_site_type_symbol
_atom_site_label
_atom_site_fract_x
_atom_site_fract_y
_atom_site_fract_z
Si Si1 0.172368 0.877489 0.788854
Si Si2 0.256007 0.444898 0.596160
Si Si3 0.840605 0.271411 0.504118
Si Si4 0.358502 0.515268 0.239520
Si Si5 0.323201 0.120923 0.700490
Si Si6 0.721615 0.120133 0.491572
Si Si7 0.083637 0.301639 0.309827
Si Si8 0.079111 0.729092 0.312840
O O1 0.250000 0.851720 0.750000
O O2 0.170238 0.853590 0.902831
O O3 0.114676 0.804066 0.738201
O O4 0.154121 0.001011 0.774897
O O5 0.281978 0.500000 0.500000
O O6 0.217918 0.338978 0.561908
O O7 0.200002 0.510912 0.658536
O O8 0.324527 0.434970 0.663614
O O9 0.797109 0.171158 0.469767
O O10 0.880684 0.322799 0.413761
O O11 0.899893 0.238435 0.579487
O O12 0.398992 0.404500 0.255798
O O13 0.411385 0.603803 0.201282
O O14 0.250000 0.147755 0.750000
O O15 0.317909 0.151067 0.588676
O O16 0.379686 0.202020 0.737002
O O17 0.742766 0.000000 0.500000
O O18 0.000000 0.288285 0.320197
O O19 0.000000 0.760267 0.296495
#
# Coordination Sequence:
#
# PCOD8220431 Si02
#       8
#     8   8   8   8   8   8   8   8
#     4  10  22  38  62  90 119 158 203 253 302 360
#     4  10  20  35  60  91 109 144 197 254 286 334
#     4  11  21  36  60  92 123 150 195 248 306 361
#     4  10  23  38  59  86 121 158 198 240 299 350
#     4  10  20  39  63  90 119 153 202 260 308 346
#     4  10  20  36  63  91 116 149 199 259 305 347
#     4  12  25  40  59  89 133 167 194 242 309 376
#     4  11  23  39  60  86 121 162 199 239 297 370
#
# _framework density 18.993905000000002
#
# number of rings (size 3 to 8) (size 9 to 14) (size 15 to 20)
#    0.000    1.500    3.750    1.500    5.250    0.500 
#    0.000    2.500    0.000    5.250    0.000    0.000 
#    0.000    0.000    0.000    0.000    0.000    0.000 
#
# Total GULP energy -793260.615877 kJ/mol
# GULP energy per Si atom -12394.697123 kJ/mol
# Density = 1.895067 g / cm^3
# Si number density = 18.993905 Si / 1000 Ang^3
#
#
#
# Elastic Constant Matrix: (Units=GPa)
#
#
# Indices 1 2 3 4 5 6 
#
# 1 102.4046 46.9004 37.6485 0.0000 0.0000 0.0000
# 2 46.9004 74.4193 25.4049 0.0000 0.0000 0.0000
# 3 37.6485 25.4049 113.9696 0.0000 0.0000 0.0000
# 4 0.0000 0.0000 0.0000 27.4502 0.0000 0.0000
# 5 0.0000 0.0000 0.0000 0.0000 11.5782 0.0000
# 6 0.0000 0.0000 0.0000 0.0000 0.0000 22.7541
#
#
#
# Elastic Compliance Matrix: (Units=1/GPa)
#
#
# Indices 1 2 3 4 5 6 
#
# 1 0.014620 -0.008188 -0.003004 0.000000 0.000000 0.000000
# 2 -0.008188 0.019130 -0.001559 0.000000 0.000000 0.000000
# 3 -0.003004 -0.001559 0.010114 0.000000 0.000000 0.000000
# 4 0.000000 0.000000 0.000000 0.036430 0.000000 0.000000
# 5 0.000000 0.000000 0.000000 0.000000 0.086370 0.000000
# 6 0.000000 0.000000 0.000000 0.000000 0.000000 0.043948
#
#
# Mechanical properties :
#
#
# Convention : Reuss Voigt Hill
#
# Bulk Modulus (GPa) = 54.46460 56.74456 55.60458
# Shear Modulus (GPa) = 20.64113 24.41249 22.52681
#
# Velocity S-wave (km/s) = 3.30013 3.58897 3.44757
# Velocity P-wave (km/s) = 6.57709 6.86398 6.72207
#
# Compressibility (1/GPa) = 0.01836055
#
# Stress axis : x y z
#
# Youngs Moduli (GPa) = 68.40067 52.27395 98.86988
#
# Poissons Ratio (x) = 0.42802 0.29703
# Poissons Ratio (y) = 0.56007 0.15418
# Poissons Ratio (z) = 0.20549 0.08152
#
# Static dielectric constant tensor:
#      x y z
#    x 3.248750 0.000000 0.000000 
#    y 0.000000 3.511980 0.000000 
#    z 0.000000 0.000000 4.131020 
# 
# 
# High freq. dielectric constant tensor:
#      x y z
#    x 1.708950 0.000000 0.000000 
#    y 0.000000 1.742070 0.000000 
#    z 0.000000 0.000000 1.750510 
# 
# From -- ./inp_files/23869.got.cif
#   From: 2010.03.12/outbox.cif.g09.slc.cpg/sg53_12_cif.got.tgz:23869.got - 2010.04.16 14:36:59.
