data_PCOD8220332
_publ_section_title
;
Structure prediction by ZEFSAII (Michael W. Deem and Ramdas Pophale) SiO2 
 PCOD8220332
Probable space group: P M N A
;
_chemical_formula_sum "Si O2"
_cell_formula_units_Z 48
_cell_length_a 9.300231
_cell_length_b 14.857882
_cell_length_c 18.641932
_cell_angle_alpha 90.000000
_cell_angle_beta 90.000000
_cell_angle_gamma 90.000000
_cell_volume 2575.974503
_symmetry_space_group_name_H-M "P M N A"
_symmetry_group_IT_number 53
_symmetry_cell_setting 'orthorhombic'
loop_
_space_group_symop_operation_xyz
x,y,z
1/2-x,-y,1/2+z
x,-y,-z
1/2-x,y,1/2-z
-x,-y,-z
1/2+x,y,1/2-z
-x,y,z
1/2+x,-y,1/2+z
loop_
_atom_site_type_symbol
_atom_site_label
_atom_site_fract_x
_atom_site_fract_y
_atom_site_fract_z
Si Si1 0.165322 0.643480 0.417422
Si Si2 0.168210 0.774185 0.179212
Si Si3 0.332514 0.471855 0.176380
Si Si4 0.666254 0.689582 0.922139
Si Si5 0.329974 0.131063 0.443578
Si Si6 0.167432 0.059963 0.906165
O O1 0.273062 0.718024 0.387250
O O2 0.204151 0.548595 0.381562
O O3 0.193900 0.639109 0.502374
O O4 0.000000 0.670321 0.401064
O O5 0.250000 0.742888 0.250000
O O6 0.201295 0.879798 0.163737
O O7 0.000000 0.755472 0.189029
O O8 0.250000 0.489969 0.250000
O O9 0.500000 0.471721 0.194810
O O10 0.284628 0.377546 0.141123
O O11 0.500000 0.714671 0.914371
O O12 0.754654 0.780938 0.912438
O O13 0.500000 0.148671 0.441165
O O14 0.269032 0.109367 0.523256
O O15 0.282074 0.043470 0.395860
O O16 0.000000 0.056274 0.922744
#
# Coordination Sequence:
#
# PCOD8220332 Si02
#       6
#     8   8   8   8   8   8
#     4  10  20  36  57  80 106 140 179 221 270 323
#     4  11  21  34  52  78 111 145 179 221 270 322
#     4  10  22  39  56  76 107 145 180 218 268 324
#     4  10  20  35  56  83 110 137 175 225 274 317
#     4   9  16  32  56  79 102 136 177 217 261 312
#     4   8  16  31  52  75 104 139 175 213 259 313
#
# _framework density 18.633724999999998
#
# number of rings (size 3 to 8) (size 9 to 14) (size 15 to 20)
#    0.000    2.333    1.667    2.500    0.000    4.667 
#    0.000    4.167    0.000    7.000    0.000    0.000 
#    0.000    0.000    0.000    0.000    0.000    0.000 
#
# Total GULP energy -595007.338447 kJ/mol
# GULP energy per Si atom -12395.986218 kJ/mol
# Density = 1.859131 g / cm^3
# Si number density = 18.633725 Si / 1000 Ang^3
#
#
#
# Elastic Constant Matrix: (Units=GPa)
#
#
# Indices 1 2 3 4 5 6 
#
# 1 61.6490 43.2577 26.1462 0.0000 0.0000 0.0000
# 2 43.2577 119.0607 19.3926 0.0000 0.0000 0.0000
# 3 26.1462 19.3926 49.8917 0.0000 0.0000 0.0000
# 4 0.0000 0.0000 0.0000 20.8275 0.0000 0.0000
# 5 0.0000 0.0000 0.0000 0.0000 16.3562 0.0000
# 6 0.0000 0.0000 0.0000 0.0000 0.0000 31.3210
#
#
#
# Elastic Compliance Matrix: (Units=1/GPa)
#
#
# Indices 1 2 3 4 5 6 
#
# 1 0.026229 -0.007784 -0.010720 0.000000 0.000000 0.000000
# 2 -0.007784 0.011277 -0.000304 0.000000 0.000000 0.000000
# 3 -0.010720 -0.000304 0.025780 0.000000 0.000000 0.000000
# 4 0.000000 0.000000 0.000000 0.048013 0.000000 0.000000
# 5 0.000000 0.000000 0.000000 0.000000 0.061139 0.000000
# 6 0.000000 0.000000 0.000000 0.000000 0.000000 0.031927
#
#
# Mechanical properties :
#
#
# Convention : Reuss Voigt Hill
#
# Bulk Modulus (GPa) = 38.95655 45.35493 42.15574
# Shear Modulus (GPa) = 19.95713 23.15460 21.55587
#
# Velocity S-wave (km/s) = 3.27620 3.52890 3.40490
# Velocity P-wave (km/s) = 5.93828 6.40291 6.17497
#
# Compressibility (1/GPa) = 0.02566962
#
# Stress axis : x y z
#
# Youngs Moduli (GPa) = 38.12576 88.67957 38.79031
#
# Poissons Ratio (x) = 0.69024 0.41584
# Poissons Ratio (y) = 0.29675 0.01180
# Poissons Ratio (z) = 0.40871 0.02697
#
# Static dielectric constant tensor:
#      x y z
#    x 3.204480 0.000000 0.000000 
#    y 0.000000 3.674350 0.000000 
#    z 0.000000 0.000000 3.258580 
# 
# 
# High freq. dielectric constant tensor:
#      x y z
#    x 1.702780 0.000000 0.000000 
#    y 0.000000 1.735420 0.000000 
#    z 0.000000 0.000000 1.707350 
# 
# From -- ./inp_files/26275.got.cif
#   From: 2010.03.12/outbox.cif.g09.slc.cpg/sg53_14_cif.got.tgz:26275.got - 2010.04.16 14:36:59.
