data_PCOD8220690
_publ_section_title
;
Structure prediction by ZEFSAII (Michael W. Deem and Ramdas Pophale) SiO2 
 PCOD8220690
Probable space group: P M N A
;
_chemical_formula_sum "Si O2"
_cell_formula_units_Z 56
_cell_length_a 14.924110
_cell_length_b 7.989088
_cell_length_c 21.660432
_cell_angle_alpha 90.000000
_cell_angle_beta 90.000000
_cell_angle_gamma 90.000000
_cell_volume 2582.573916
_symmetry_space_group_name_H-M "P M N A"
_symmetry_group_IT_number 53
_symmetry_cell_setting 'orthorhombic'
loop_
_space_group_symop_operation_xyz
x,y,z
1/2-x,-y,1/2+z
x,-y,-z
1/2-x,y,1/2-z
-x,-y,-z
1/2+x,y,1/2-z
-x,y,z
1/2+x,-y,1/2+z
loop_
_atom_site_type_symbol
_atom_site_label
_atom_site_fract_x
_atom_site_fract_y
_atom_site_fract_z
Si Si1 0.600680 0.231843 0.630218
Si Si2 0.394212 0.086930 0.145990
Si Si3 0.238861 0.109564 0.555280
Si Si4 0.151672 0.551453 0.666026
Si Si5 0.102645 0.067185 0.216248
Si Si6 0.641177 0.435978 0.304412
Si Si7 0.597240 0.357076 0.950419
O O1 0.500000 0.183843 0.607066
O O2 0.675427 0.215808 0.577699
O O3 0.592949 0.421842 0.655090
O O4 0.637203 0.094261 0.679163
O O5 0.500000 0.035139 0.136789
O O6 0.384458 0.283484 0.131304
O O7 0.353995 0.067449 0.215602
O O8 0.323220 0.984732 0.105389
O O9 0.170449 0.233986 0.521729
O O10 0.278311 0.000000 0.500000
O O11 0.255618 0.546930 0.680577
O O12 0.108120 0.530297 0.733979
O O13 0.125545 0.403310 0.619825
O O14 0.117168 0.242500 0.179112
O O15 0.000000 0.040663 0.229555
O O16 0.500000 0.270160 0.945346
O O17 0.592090 0.500000 0.000000
#
# Coordination Sequence:
#
# PCOD8220690 Si02
#       7
#     8   8   8   8   8   8   8
#     4  11  24  42  67  94 126 167 217 274 330 385
#     4  10  21  38  63  96 134 169 205 257 325 392
#     4  12  26  43  63  88 123 173 222 272 319 383
#     4  10  20  36  60  94 129 169 209 259 322 384
#     4   9  20  37  61  97 134 168 205 261 328 390
#     4  10  20  37  63  95 131 170 212 264 324 385
#     4  11  24  41  62  90 127 169 214 261 317 388
#
# _framework density 21.683793000000001
#
# number of rings (size 3 to 8) (size 9 to 14) (size 15 to 20)
#    0.000    1.571    1.429    3.000    2.000    6.000 
#    0.000    0.000    0.000    0.429    0.000    0.000 
#    0.000    0.000    0.000    0.000    0.000    0.000 
#
# Total GULP energy -693773.487964 kJ/mol
# GULP energy per Si atom -12388.812285 kJ/mol
# Density = 2.163444 g / cm^3
# Si number density = 21.683793 Si / 1000 Ang^3
#
#
#
# Elastic Constant Matrix: (Units=GPa)
#
#
# Indices 1 2 3 4 5 6 
#
# 1 100.5989 23.8155 35.2760 0.0000 0.0000 0.0000
# 2 23.8155 90.7309 21.8606 0.0000 0.0000 0.0000
# 3 35.2760 21.8606 60.5564 0.0000 0.0000 0.0000
# 4 0.0000 0.0000 0.0000 28.9964 0.0000 0.0000
# 5 0.0000 0.0000 0.0000 0.0000 52.3888 0.0000
# 6 0.0000 0.0000 0.0000 0.0000 0.0000 21.4686
#
#
#
# Elastic Compliance Matrix: (Units=1/GPa)
#
#
# Indices 1 2 3 4 5 6 
#
# 1 0.012728 -0.001703 -0.006800 0.000000 0.000000 0.000000
# 2 -0.001703 0.012299 -0.003448 0.000000 0.000000 0.000000
# 3 -0.006800 -0.003448 0.021719 0.000000 0.000000 0.000000
# 4 0.000000 0.000000 0.000000 0.034487 0.000000 0.000000
# 5 0.000000 0.000000 0.000000 0.000000 0.019088 0.000000
# 6 0.000000 0.000000 0.000000 0.000000 0.000000 0.046580
#
#
# Mechanical properties :
#
#
# Convention : Reuss Voigt Hill
#
# Bulk Modulus (GPa) = 43.77224 45.97671 44.87448
# Shear Modulus (GPa) = 28.02413 31.96637 29.99525
#
# Velocity S-wave (km/s) = 3.59890 3.84370 3.72331
# Velocity P-wave (km/s) = 6.12371 6.39907 6.26290
#
# Compressibility (1/GPa) = 0.02284553
#
# Stress axis : x y z
#
# Youngs Moduli (GPa) = 78.56720 81.30537 46.04172
#
# Poissons Ratio (x) = 0.13843 0.31308
# Poissons Ratio (y) = 0.13377 0.15876
# Poissons Ratio (z) = 0.53424 0.28036
#
# Static dielectric constant tensor:
#      x y z
#    x 4.063390 0.000000 0.000000 
#    y 0.000000 4.014270 0.000000 
#    z 0.000000 0.000000 3.955490 
# 
# 
# High freq. dielectric constant tensor:
#      x y z
#    x 1.861620 0.000000 0.000000 
#    y 0.000000 1.853960 0.000000 
#    z 0.000000 0.000000 1.829310 
# 
# From -- ./inp_files/32500.got.cif
#   From: 2010.03.12/outbox.cif.g09.slc.cpg/sg53_17_cif.got.tgz:32500.got - 2010.04.16 14:36:59.
