data_PCOD8220915
_publ_section_title
;
Structure prediction by ZEFSAII (Michael W. Deem and Ramdas Pophale) SiO2 
 PCOD8220915
Probable space group: P M N A
;
_chemical_formula_sum "Si O2"
_cell_formula_units_Z 48
_cell_length_a 27.490639
_cell_length_b 9.658887
_cell_length_c 9.194616
_cell_angle_alpha 90.000000
_cell_angle_beta 90.000000
_cell_angle_gamma 90.000000
_cell_volume 2441.436968
_symmetry_space_group_name_H-M "P M N A"
_symmetry_group_IT_number 53
_symmetry_cell_setting 'orthorhombic'
loop_
_space_group_symop_operation_xyz
x,y,z
1/2-x,-y,1/2+z
x,-y,-z
1/2-x,y,1/2-z
-x,-y,-z
1/2+x,y,1/2-z
-x,y,z
1/2+x,-y,1/2+z
loop_
_atom_site_type_symbol
_atom_site_label
_atom_site_fract_x
_atom_site_fract_y
_atom_site_fract_z
Si Si1 0.794095 0.091791 0.139473
Si Si2 0.555606 0.252568 0.815756
Si Si3 0.294578 0.412388 0.358275
Si Si4 0.117295 0.480513 0.336243
Si Si5 0.554392 0.781176 0.853829
Si Si6 0.897938 0.990606 0.170499
O O1 0.750000 0.076798 0.250000
O O2 0.804073 0.252175 0.097878
O O3 0.842862 0.031048 0.213280
O O4 0.780493 0.000000 0.000000
O O5 0.500000 0.252607 0.759759
O O6 0.575151 0.408268 0.810343
O O7 0.591093 0.167284 0.711153
O O8 0.559126 0.185587 0.975588
O O9 0.281713 0.500000 0.500000
O O10 0.250000 0.419401 0.250000
O O11 0.339715 0.488072 0.280229
O O12 0.138221 0.500000 0.500000
O O13 0.093273 0.332692 0.309558
O O14 0.500000 0.728031 0.819999
O O15 0.564006 0.917139 0.759413
O O16 0.906709 0.000000 0.000000
#
# Coordination Sequence:
#
# PCOD8220915 Si02
#       6
#     8   8   8   8   8   8
#     4  10  24  44  63  91 122 159 200 247 301 360
#     4  10  22  38  61  90 121 161 209 251 297 357
#     4  11  24  43  66  93 125 157 201 249 303 365
#     4  10  21  39  62  91 121 160 201 252 306 354
#     4  10  20  38  61  86 120 159 205 252 300 356
#     4  11  23  39  58  89 123 160 200 251 303 357
#
# _framework density 19.660551999999999
#
# number of rings (size 3 to 8) (size 9 to 14) (size 15 to 20)
#    0.000    1.667    1.667    2.000    4.667    6.667 
#    3.000    0.000    0.000    3.000    0.000    0.000 
#    0.000    0.000    0.000    0.000    0.000    0.000 
#
# Total GULP energy -595288.389335 kJ/mol
# GULP energy per Si atom -12401.841444 kJ/mol
# Density = 1.961580 g / cm^3
# Si number density = 19.660552 Si / 1000 Ang^3
#
#
#
# Elastic Constant Matrix: (Units=GPa)
#
#
# Indices 1 2 3 4 5 6 
#
# 1 101.0649 32.4688 41.1836 0.0000 0.0000 0.0000
# 2 32.4688 89.7568 42.5270 0.0000 0.0000 0.0000
# 3 41.1836 42.5270 83.8273 0.0000 0.0000 0.0000
# 4 0.0000 0.0000 0.0000 32.8832 0.0000 0.0000
# 5 0.0000 0.0000 0.0000 0.0000 31.1232 0.0000
# 6 0.0000 0.0000 0.0000 0.0000 0.0000 26.2998
#
#
#
# Elastic Compliance Matrix: (Units=1/GPa)
#
#
# Indices 1 2 3 4 5 6 
#
# 1 0.012680 -0.002153 -0.005137 0.000000 0.000000 0.000000
# 2 -0.002153 0.015032 -0.006568 0.000000 0.000000 0.000000
# 3 -0.005137 -0.006568 0.017785 0.000000 0.000000 0.000000
# 4 0.000000 0.000000 0.000000 0.030411 0.000000 0.000000
# 5 0.000000 0.000000 0.000000 0.000000 0.032130 0.000000
# 6 0.000000 0.000000 0.000000 0.000000 0.000000 0.038023
#
#
# Mechanical properties :
#
#
# Convention : Reuss Voigt Hill
#
# Bulk Modulus (GPa) = 56.24186 56.33421 56.28803
# Shear Modulus (GPa) = 27.82338 28.62588 28.22463
#
# Velocity S-wave (km/s) = 3.76598 3.81990 3.79304
# Velocity P-wave (km/s) = 6.89773 6.94055 6.91917
#
# Compressibility (1/GPa) = 0.01778035
#
# Stress axis : x y z
#
# Youngs Moduli (GPa) = 78.86647 66.52449 56.22574
#
# Poissons Ratio (x) = 0.14321 0.28885
# Poissons Ratio (y) = 0.16978 0.36931
# Poissons Ratio (z) = 0.40516 0.43696
#
# Static dielectric constant tensor:
#      x y z
#    x 3.630490 0.000000 0.000000 
#    y 0.000000 3.609990 0.000000 
#    z 0.000000 0.000000 3.562700 
# 
# 
# High freq. dielectric constant tensor:
#      x y z
#    x 1.776400 0.000000 0.000000 
#    y 0.000000 1.775250 0.000000 
#    z 0.000000 0.000000 1.759230 
# 
# From -- ./inp_files/12987.got.cif
#   From: 2010.03.12/outbox.cif.g09.slc.cpg/sg53_7_cif.got.tgz:12987.got - 2010.04.16 14:36:59.
