data_PCOD8220224
_publ_section_title
;
Structure prediction by ZEFSAII (Michael W. Deem and Ramdas Pophale) SiO2 
 PCOD8220224
Probable space group: P M N A
;
_chemical_formula_sum "Si O2"
_cell_formula_units_Z 48
_cell_length_a 8.991272
_cell_length_b 20.904069
_cell_length_c 13.753879
_cell_angle_alpha 90.000000
_cell_angle_beta 90.000000
_cell_angle_gamma 90.000000
_cell_volume 2585.098916
_symmetry_space_group_name_H-M "P M N A"
_symmetry_group_IT_number 53
_symmetry_cell_setting 'orthorhombic'
loop_
_space_group_symop_operation_xyz
x,y,z
1/2-x,-y,1/2+z
x,-y,-z
1/2-x,y,1/2-z
-x,-y,-z
1/2+x,y,1/2-z
-x,y,z
1/2+x,-y,1/2+z
loop_
_atom_site_type_symbol
_atom_site_label
_atom_site_fract_x
_atom_site_fract_y
_atom_site_fract_z
Si Si1 0.174853 0.351265 0.039571
Si Si2 0.337611 0.483185 0.388481
Si Si3 0.323836 0.905616 0.546543
Si Si4 0.825246 0.605584 0.345052
Si Si5 0.176305 0.222705 0.145753
Si Si6 0.676025 0.967205 0.350660
O O1 0.213335 0.408780 0.115578
O O2 0.227198 0.285787 0.088556
O O3 0.000000 0.351822 0.015059
O O4 0.263305 0.358986 0.939497
O O5 0.356792 0.500000 0.500000
O O6 0.500000 0.493112 0.337723
O O7 0.214865 0.529665 0.342313
O O8 0.500000 0.906533 0.547348
O O9 0.262846 0.837861 0.584543
O O10 0.271327 0.918203 0.435561
O O11 0.268243 0.961956 0.618306
O O12 0.750000 0.637618 0.250000
O O13 0.000000 0.614590 0.340853
O O14 0.250000 0.222103 0.250000
O O15 0.000000 0.220374 0.158802
O O16 0.750000 0.946050 0.250000
O O17 0.500000 0.965413 0.337214
#
# Coordination Sequence:
#
# PCOD8220224 Si02
#       6
#     8   8   8   8   8   8
#     4   9  19  35  52  72 101 133 164 203 250 298
#     4   8  15  30  49  69  95 124 156 198 246 293
#     4   8  16  31  50  72 102 138 168 198 244 299
#     4  11  21  33  52  75  99 129 166 207 251 300
#     4  10  20  35  54  74  99 132 167 204 248 298
#     4   9  16  29  50  75 102 133 169 206 246 289
#
# _framework density 18.567955999999999
#
# number of rings (size 3 to 8) (size 9 to 14) (size 15 to 20)
#    0.000    2.833    0.000    4.000    0.000    4.333 
#    0.000    5.000    0.000    2.000    0.000    0.000 
#    0.000    0.000    0.000    0.000    0.000    0.000 
#
# Total GULP energy -594932.387666 kJ/mol
# GULP energy per Si atom -12394.424743 kJ/mol
# Density = 1.852569 g / cm^3
# Si number density = 18.567956 Si / 1000 Ang^3
#
#
#
# Elastic Constant Matrix: (Units=GPa)
#
#
# Indices 1 2 3 4 5 6 
#
# 1 61.6825 31.6538 47.9394 0.0000 0.0000 0.0000
# 2 31.6538 142.7695 68.7060 0.0000 0.0000 0.0000
# 3 47.9394 68.7060 139.8853 0.0000 0.0000 0.0000
# 4 0.0000 0.0000 0.0000 20.4943 0.0000 0.0000
# 5 0.0000 0.0000 0.0000 0.0000 33.2081 0.0000
# 6 0.0000 0.0000 0.0000 0.0000 0.0000 26.3210
#
#
#
# Elastic Compliance Matrix: (Units=1/GPa)
#
#
# Indices 1 2 3 4 5 6 
#
# 1 0.022396 -0.001666 -0.006857 0.000000 0.000000 0.000000
# 2 -0.001666 0.009296 -0.003995 0.000000 0.000000 0.000000
# 3 -0.006857 -0.003995 0.011461 0.000000 0.000000 0.000000
# 4 0.000000 0.000000 0.000000 0.048794 0.000000 0.000000
# 5 0.000000 0.000000 0.000000 0.000000 0.030113 0.000000
# 6 0.000000 0.000000 0.000000 0.000000 0.000000 0.037993
#
#
# Mechanical properties :
#
#
# Convention : Reuss Voigt Hill
#
# Bulk Modulus (GPa) = 55.19518 71.21508 63.20513
# Shear Modulus (GPa) = 26.16049 29.07388 27.61719
#
# Velocity S-wave (km/s) = 3.75761 3.96132 3.86081
# Velocity P-wave (km/s) = 6.97257 7.70453 7.34767
#
# Compressibility (1/GPa) = 0.01811752
#
# Stress axis : x y z
#
# Youngs Moduli (GPa) = 44.65046 107.57125 87.25279
#
# Poissons Ratio (x) = 0.17917 0.59831
# Poissons Ratio (y) = 0.07437 0.34858
# Poissons Ratio (z) = 0.30618 0.42976
#
# Static dielectric constant tensor:
#      x y z
#    x 3.126310 0.000000 0.000000 
#    y 0.000000 3.807490 0.000000 
#    z 0.000000 0.000000 3.539500 
# 
# 
# High freq. dielectric constant tensor:
#      x y z
#    x 1.696460 0.000000 0.000000 
#    y 0.000000 1.708890 0.000000 
#    z 0.000000 0.000000 1.725210 
# 
# From -- ./inp_files/20324.got.cif
#   From: 2010.03.12/outbox.cif.g09.slc.cpg/sg53_11_cif.got.tgz:20324.got - 2010.04.16 14:36:59.
