data_PCOD8220830
_publ_section_title
;
Structure prediction by ZEFSAII (Michael W. Deem and Ramdas Pophale) SiO2 
 PCOD8220830
Probable space group: P M N A
;
_chemical_formula_sum "Si O2"
_cell_formula_units_Z 48
_cell_length_a 8.667487
_cell_length_b 10.267413
_cell_length_c 28.005370
_cell_angle_alpha 90.000000
_cell_angle_beta 90.000000
_cell_angle_gamma 90.000000
_cell_volume 2492.272614
_symmetry_space_group_name_H-M "P M N A"
_symmetry_group_IT_number 53
_symmetry_cell_setting 'orthorhombic'
loop_
_space_group_symop_operation_xyz
x,y,z
1/2-x,-y,1/2+z
x,-y,-z
1/2-x,y,1/2-z
-x,-y,-z
1/2+x,y,1/2-z
-x,y,z
1/2+x,-y,1/2+z
loop_
_atom_site_type_symbol
_atom_site_label
_atom_site_fract_x
_atom_site_fract_y
_atom_site_fract_z
Si Si1 0.320149 0.512908 0.891158
Si Si2 0.320820 0.000415 0.608705
Si Si3 0.678941 0.243521 0.940466
Si Si4 0.679638 0.768371 0.948546
Si Si5 0.181519 0.611347 0.799643
Si Si6 0.318228 0.893093 0.799748
O O1 0.500000 0.519036 0.878812
O O2 0.277098 0.383871 0.919871
O O3 0.269769 0.634998 0.923331
O O4 0.225670 0.512093 0.841710
O O5 0.500000 0.990731 0.620737
O O6 0.276732 0.887021 0.572115
O O7 0.226800 0.990882 0.658079
O O8 0.284137 0.138452 0.585461
O O9 0.500000 0.209548 0.931884
O O10 0.718804 0.244998 0.996075
O O11 0.500000 0.798115 0.939798
O O12 0.250000 0.557668 0.750000
O O13 0.252106 0.751476 0.812516
O O14 0.000000 0.625090 0.794441
O O15 0.250000 0.946042 0.750000
O O16 0.500000 0.882397 0.794971
#
# Coordination Sequence:
#
# PCOD8220830 Si02
#       6
#     8   8   8   8   8   8
#     4  10  20  37  61  88 118 153 195 243 292 346
#     4  12  24  38  57  86 121 158 196 240 292 346
#     4  10  22  39  59  85 118 158 200 242 293 348
#     4  10  20  37  62  87 114 153 201 247 290 345
#     4  11  21  35  58  88 119 151 190 237 287 343
#     4  11  21  37  61  88 116 148 190 241 290 344
#
# _framework density 19.259529000000001
#
# number of rings (size 3 to 8) (size 9 to 14) (size 15 to 20)
#    0.000    1.333    1.667    6.500    0.000    5.333 
#    0.000    0.833    0.000    7.000    0.000    0.000 
#    0.000    0.000    0.000    0.000    0.000    0.000 
#
# Total GULP energy -595487.852022 kJ/mol
# GULP energy per Si atom -12405.996917 kJ/mol
# Density = 1.921569 g / cm^3
# Si number density = 19.259529 Si / 1000 Ang^3
#
#
#
# Elastic Constant Matrix: (Units=GPa)
#
#
# Indices 1 2 3 4 5 6 
#
# 1 105.9319 17.3553 43.6989 0.0000 0.0000 0.0000
# 2 17.3553 69.4507 38.0276 0.0000 0.0000 0.0000
# 3 43.6989 38.0276 141.5056 0.0000 0.0000 0.0000
# 4 0.0000 0.0000 0.0000 -21.5172 0.0000 0.0000
# 5 0.0000 0.0000 0.0000 0.0000 31.7428 0.0000
# 6 0.0000 0.0000 0.0000 0.0000 0.0000 -3.6546
#
#
#
# Elastic Compliance Matrix: (Units=1/GPa)
#
#
# Indices 1 2 3 4 5 6 
#
# 1 0.010881 -0.001031 -0.003083 0.000000 0.000000 0.000000
# 2 -0.001031 0.016981 -0.004245 0.000000 0.000000 0.000000
# 3 -0.003083 -0.004245 0.009160 0.000000 0.000000 0.000000
# 4 0.000000 0.000000 0.000000 -0.046474 0.000000 0.000000
# 5 0.000000 0.000000 0.000000 0.000000 0.031503 0.000000
# 6 0.000000 0.000000 0.000000 0.000000 0.000000 -0.273631
#
#
# Mechanical properties :
#
#
# Convention : Reuss Voigt Hill
#
# Bulk Modulus (GPa) = 49.25317 57.22797 53.24057
# Shear Modulus (GPa) = -21.92063 15.83465 -3.04299
#
# Velocity S-wave (km/s) = -3.37734 2.87046 -1.25834
# Velocity P-wave (km/s) = 3.22806 6.38472 5.05891
#
# Compressibility (1/GPa) = 0.02030326
#
# Stress axis : x y z
#
# Youngs Moduli (GPa) = 91.90534 58.89062 109.17353
#
# Poissons Ratio (x) = 0.06071 0.33659
# Poissons Ratio (y) = 0.09474 0.46344
# Poissons Ratio (z) = 0.28335 0.24999
#
# Static dielectric constant tensor:
#      x y z
#    x 3.494230 0.000000 0.000000 
#    y 0.000000 3.385790 0.000000 
#    z 0.000000 0.000000 3.733570 
# 
# 
# High freq. dielectric constant tensor:
#      x y z
#    x 1.749710 0.000000 0.000000 
#    y 0.000000 1.731940 0.000000 
#    z 0.000000 0.000000 1.769020 
# 
# From -- ./inp_files/37706.got.cif
#   From: 2010.03.12/outbox.cif.g09.slc.cpg/sg53_19_cif.got.tgz:37706.got - 2010.04.16 14:36:59.
