data_PCOD8220076
_publ_section_title
;
Structure prediction by ZEFSAII (Michael W. Deem and Ramdas Pophale) SiO2 
 PCOD8220076
Probable space group: P M N A
;
_chemical_formula_sum "Si O2"
_cell_formula_units_Z 64
_cell_length_a 9.250774
_cell_length_b 22.831456
_cell_length_c 15.810061
_cell_angle_alpha 90.000000
_cell_angle_beta 90.000000
_cell_angle_gamma 90.000000
_cell_volume 3339.221475
_symmetry_space_group_name_H-M "P M N A"
_symmetry_group_IT_number 53
_symmetry_cell_setting 'orthorhombic'
loop_
_space_group_symop_operation_xyz
x,y,z
1/2-x,-y,1/2+z
x,-y,-z
1/2-x,y,1/2-z
-x,-y,-z
1/2+x,y,1/2-z
-x,y,z
1/2+x,-y,1/2+z
loop_
_atom_site_type_symbol
_atom_site_label
_atom_site_fract_x
_atom_site_fract_y
_atom_site_fract_z
Si Si1 0.661298 0.431710 0.407438
Si Si2 0.330214 0.253120 0.504916
Si Si3 0.170851 0.530705 0.333597
Si Si4 0.328920 0.134888 0.990138
Si Si5 0.831505 0.943823 0.333144
Si Si6 0.330886 0.079453 0.166293
Si Si7 0.838935 0.628282 0.087664
Si Si8 0.668997 0.689195 0.667906
O O1 0.500000 0.455183 0.385139
O O2 0.775997 0.484721 0.404593
O O3 0.659840 0.405965 0.500344
O O4 0.706742 0.379286 0.344556
O O5 0.500000 0.239749 0.504576
O O6 0.242985 0.196383 0.532812
O O7 0.294352 0.304336 0.572482
O O8 0.277835 0.273154 0.412137
O O9 0.250000 0.507577 0.250000
O O10 0.222837 0.597088 0.351827
O O11 0.000000 0.529339 0.324690
O O12 0.500000 0.142043 0.990163
O O13 0.275679 0.112938 0.082328
O O14 0.279552 0.089793 0.917306
O O15 0.750000 0.919616 0.250000
O O16 0.000000 0.934102 0.317066
O O17 0.793578 0.011563 0.348059
O O18 0.250000 0.103656 0.250000
O O19 0.500000 0.089424 0.180591
O O20 0.000000 0.624984 0.128113
O O21 0.750000 0.713640 0.750000
O O22 0.500000 0.697705 0.681161
#
# Coordination Sequence:
#
# PCOD8220076 Si02
#       8
#     8   8   8   8   8   8   8   8
#     4   9  18  34  55  77 102 131 163 202 252 309
#     4   9  20  37  54  73 100 135 175 215 254 301
#     4  12  24  35  51  77 105 130 162 206 255 307
#     4  10  20  34  54  79 107 141 179 219 263 309
#     4   9  18  34  55  79 107 139 177 219 265 315
#     4   9  18  33  53  79 112 146 177 213 258 310
#     4   9  19  38  58  73  97 134 169 205 254 304
#     4   9  18  32  50  73 101 135 171 207 251 302
#
# _framework density 19.166145
#
# number of rings (size 3 to 8) (size 9 to 14) (size 15 to 20)
#    0.000    2.500    0.000    3.750    0.000    7.500 
#    0.000    5.625    0.000    5.250    0.000    0.000 
#    0.000    0.000    0.000    0.000    0.000    0.000 
#
# Total GULP energy -793540.982861 kJ/mol
# GULP energy per Si atom -12399.077857 kJ/mol
# Density = 1.912252 g / cm^3
# Si number density = 19.166145 Si / 1000 Ang^3
#
#
#
# Elastic Constant Matrix: (Units=GPa)
#
#
# Indices 1 2 3 4 5 6 
#
# 1 72.2238 39.6802 30.5155 0.0000 0.0000 0.0000
# 2 39.6802 92.5759 29.7029 0.0000 0.0000 0.0000
# 3 30.5155 29.7029 66.2899 0.0000 0.0000 0.0000
# 4 0.0000 0.0000 0.0000 18.2258 0.0000 0.0000
# 5 0.0000 0.0000 0.0000 0.0000 31.7294 0.0000
# 6 0.0000 0.0000 0.0000 0.0000 0.0000 30.2948
#
#
#
# Elastic Compliance Matrix: (Units=1/GPa)
#
#
# Indices 1 2 3 4 5 6 
#
# 1 0.020143 -0.006609 -0.006311 0.000000 0.000000 0.000000
# 2 -0.006609 0.014784 -0.003582 0.000000 0.000000 0.000000
# 3 -0.006311 -0.003582 0.019596 0.000000 0.000000 0.000000
# 4 0.000000 0.000000 0.000000 0.054867 0.000000 0.000000
# 5 0.000000 0.000000 0.000000 0.000000 0.031517 0.000000
# 6 0.000000 0.000000 0.000000 0.000000 0.000000 0.033009
#
#
# Mechanical properties :
#
#
# Convention : Reuss Voigt Hill
#
# Bulk Modulus (GPa) = 46.47202 47.87630 47.17416
# Shear Modulus (GPa) = 23.35429 24.79607 24.07518
#
# Velocity S-wave (km/s) = 3.49451 3.60077 3.54804
# Velocity P-wave (km/s) = 6.37038 6.50547 6.43828
#
# Compressibility (1/GPa) = 0.02151833
#
# Stress axis : x y z
#
# Youngs Moduli (GPa) = 49.64386 67.64075 51.03178
#
# Poissons Ratio (x) = 0.44703 0.32208
# Poissons Ratio (y) = 0.32809 0.18280
# Poissons Ratio (z) = 0.31332 0.24229
#
# Static dielectric constant tensor:
#      x y z
#    x 3.448310 0.000000 0.000000 
#    y 0.000000 3.502590 0.000000 
#    z 0.000000 0.000000 3.577290 
# 
# 
# High freq. dielectric constant tensor:
#      x y z
#    x 1.731770 0.000000 0.000000 
#    y 0.000000 1.739320 0.000000 
#    z 0.000000 0.000000 1.742460 
# 
# From -- ./inp_files/26825.got.cif
#   From: 2010.03.12/outbox.cif.g09.slc.cpg/sg53_14_cif.got.tgz:26825.got - 2010.04.16 14:36:59.
