data_PCOD8220233
_publ_section_title
;
Structure prediction by ZEFSAII (Michael W. Deem and Ramdas Pophale) SiO2 
 PCOD8220233
Probable space group: P M N A
;
_chemical_formula_sum "Si O2"
_cell_formula_units_Z 48
_cell_length_a 9.123251
_cell_length_b 16.966891
_cell_length_c 15.897198
_cell_angle_alpha 90.000000
_cell_angle_beta 90.000000
_cell_angle_gamma 90.000000
_cell_volume 2460.778233
_symmetry_space_group_name_H-M "P M N A"
_symmetry_group_IT_number 53
_symmetry_cell_setting 'orthorhombic'
loop_
_space_group_symop_operation_xyz
x,y,z
1/2-x,-y,1/2+z
x,-y,-z
1/2-x,y,1/2-z
-x,-y,-z
1/2+x,y,1/2-z
-x,y,z
1/2+x,-y,1/2+z
loop_
_atom_site_type_symbol
_atom_site_label
_atom_site_fract_x
_atom_site_fract_y
_atom_site_fract_z
Si Si1 0.672102 0.176161 0.658927
Si Si2 0.328828 0.356047 0.166435
Si Si3 0.327589 0.824018 0.836309
Si Si4 0.830712 0.349568 0.834973
Si Si5 0.331333 0.092739 0.992971
Si Si6 0.841887 0.489687 0.094308
O O1 0.750000 0.163595 0.750000
O O2 0.500000 0.156979 0.671430
O O3 0.692463 0.264774 0.619768
O O4 0.739141 0.119584 0.587912
O O5 0.250000 0.386041 0.250000
O O6 0.500000 0.365276 0.176467
O O7 0.284595 0.266656 0.145363
O O8 0.269524 0.416490 0.097387
O O9 0.250000 0.853542 0.750000
O O10 0.500000 0.835206 0.822113
O O11 0.272568 0.871429 0.918405
O O12 0.750000 0.335877 0.750000
O O13 0.764620 0.427884 0.877928
O O14 0.000000 0.365730 0.819130
O O15 0.500000 0.118485 0.979459
O O16 0.314544 0.000000 0.000000
O O17 0.000000 0.473366 0.140800
O O18 0.884931 0.500000 0.000000
#
# Coordination Sequence:
#
# PCOD8220233 Si02
#       6
#     8   8   8   8   8   8
#     4  10  21  38  61  87 116 152 194 236 284 341
#     4  10  20  35  54  77 105 141 185 228 274 327
#     4   9  20  38  59  84 114 150 190 233 284 339
#     4   9  19  35  53  76 104 142 185 226 273 323
#     4  10  22  40  61  87 119 151 185 234 291 344
#     4  10  21  34  50  76 111 146 182 226 274 322
#
# _framework density 19.506024
#
# number of rings (size 3 to 8) (size 9 to 14) (size 15 to 20)
#    0.000    2.333    0.000    1.500    2.333    5.333 
#    0.000    1.667    0.000    0.000    0.000    0.000 
#    0.000    0.000    0.000    0.000    0.000    0.000 
#
# Total GULP energy -594684.262221 kJ/mol
# GULP energy per Si atom -12389.255463 kJ/mol
# Density = 1.946163 g / cm^3
# Si number density = 19.506024 Si / 1000 Ang^3
#
#
#
# Elastic Constant Matrix: (Units=GPa)
#
#
# Indices 1 2 3 4 5 6 
#
# 1 70.0780 42.9208 43.8650 0.0000 0.0000 0.0000
# 2 42.9208 98.5122 51.8345 0.0000 0.0000 0.0000
# 3 43.8650 51.8345 108.9583 0.0000 0.0000 0.0000
# 4 0.0000 0.0000 0.0000 34.1783 0.0000 0.0000
# 5 0.0000 0.0000 0.0000 0.0000 30.3489 0.0000
# 6 0.0000 0.0000 0.0000 0.0000 0.0000 26.0832
#
#
#
# Elastic Compliance Matrix: (Units=1/GPa)
#
#
# Indices 1 2 3 4 5 6 
#
# 1 0.021818 -0.006515 -0.005684 0.000000 0.000000 0.000000
# 2 -0.006515 0.015486 -0.004744 0.000000 0.000000 0.000000
# 3 -0.005684 -0.004744 0.013723 0.000000 0.000000 0.000000
# 4 0.000000 0.000000 0.000000 0.029258 0.000000 0.000000
# 5 0.000000 0.000000 0.000000 0.000000 0.032950 0.000000
# 6 0.000000 0.000000 0.000000 0.000000 0.000000 0.038339
#
#
# Mechanical properties :
#
#
# Convention : Reuss Voigt Hill
#
# Bulk Modulus (GPa) = 58.34256 61.64323 59.99289
# Shear Modulus (GPa) = 26.15407 27.38395 26.76901
#
# Velocity S-wave (km/s) = 3.66569 3.75089 3.70854
# Velocity P-wave (km/s) = 6.92036 7.10139 7.01146
#
# Compressibility (1/GPa) = 0.01714015
#
# Stress axis : x y z
#
# Youngs Moduli (GPa) = 45.83350 64.57522 72.86944
#
# Poissons Ratio (x) = 0.42071 0.41421
# Poissons Ratio (y) = 0.29861 0.34571
# Poissons Ratio (z) = 0.26053 0.30636
#
# Static dielectric constant tensor:
#      x y z
#    x 3.547440 0.000000 0.000000 
#    y 0.000000 0.037130 0.000000 
#    z 0.000000 0.000000 3.452700 
# 
# 
# High freq. dielectric constant tensor:
#      x y z
#    x 1.756230 0.000000 0.000000 
#    y 0.000000 1.767720 0.000000 
#    z 0.000000 0.000000 1.749640 
# 
# From -- ./inp_files/20225.got.cif
#   From: 2010.03.12/outbox.cif.g09.slc.cpg/sg53_11_cif.got.tgz:20225.got - 2010.04.16 14:36:59.
