data_PCOD8220401
_publ_section_title
;
Structure prediction by ZEFSAII (Michael W. Deem and Ramdas Pophale) SiO2 
 PCOD8220401
Probable space group: P M N A
;
_chemical_formula_sum "Si O2"
_cell_formula_units_Z 48
_cell_length_a 8.718066
_cell_length_b 31.013773
_cell_length_c 9.132782
_cell_angle_alpha 90.000000
_cell_angle_beta 90.000000
_cell_angle_gamma 90.000000
_cell_volume 2469.322692
_symmetry_space_group_name_H-M "P M N A"
_symmetry_group_IT_number 53
_symmetry_cell_setting 'orthorhombic'
loop_
_space_group_symop_operation_xyz
x,y,z
1/2-x,-y,1/2+z
x,-y,-z
1/2-x,y,1/2-z
-x,-y,-z
1/2+x,y,1/2-z
-x,y,z
1/2+x,-y,1/2+z
loop_
_atom_site_type_symbol
_atom_site_label
_atom_site_fract_x
_atom_site_fract_y
_atom_site_fract_z
Si Si1 0.677609 0.288198 0.092627
Si Si2 0.677970 0.616625 0.909911
Si Si3 0.319253 0.541222 0.408081
Si Si4 0.319289 0.959197 0.909917
Si Si5 0.181512 0.202628 0.087308
Si Si6 0.318343 0.875361 0.090597
O O1 0.750000 0.293598 0.250000
O O2 0.500000 0.275188 0.104825
O O3 0.698727 0.335296 0.019377
O O4 0.767770 0.248694 0.015301
O O5 0.750000 0.612062 0.750000
O O6 0.500000 0.604874 0.895054
O O7 0.758870 0.584836 0.021018
O O8 0.265026 0.500000 0.500000
O O9 0.250000 0.535199 0.250000
O O10 0.500000 0.544182 0.396455
O O11 0.250000 0.958796 0.750000
O O12 0.500000 0.962539 0.894031
O O13 0.269295 0.916044 0.993198
O O14 0.254470 0.000000 0.000000
O O15 0.250000 0.197384 0.250000
O O16 0.000000 0.199156 0.096015
O O17 0.245779 0.166603 0.980953
O O18 0.250000 0.882624 0.250000
O O19 0.500000 0.870003 0.100551
#
# Coordination Sequence:
#
# PCOD8220401 Si02
#       6
#     8   8   8   8   8   8
#     4   9  17  31  53  82 113 146 186 230 278 331
#     4  10  20  35  58  86 116 149 186 230 278 332
#     4  11  24  40  59  83 112 147 186 230 279 332
#     4  10  22  39  60  87 116 148 187 230 278 333
#     4  11  21  35  57  84 114 149 190 235 281 331
#     4  11  23  39  58  82 114 150 190 235 284 337
#
# _framework density 19.438528000000002
#
# number of rings (size 3 to 8) (size 9 to 14) (size 15 to 20)
#    0.000    1.667    0.000    6.000    0.000    7.667 
#    0.000    0.833    0.000    4.000    0.000    0.000 
#    0.000    0.000    0.000    0.000    0.000    0.000 
#
# Total GULP energy -595155.441500 kJ/mol
# GULP energy per Si atom -12399.071698 kJ/mol
# Density = 1.939428 g / cm^3
# Si number density = 19.438528 Si / 1000 Ang^3
#
#
#
# Elastic Constant Matrix: (Units=GPa)
#
#
# Indices 1 2 3 4 5 6 
#
# 1 93.2471 63.3436 54.3652 0.0000 0.0000 0.0000
# 2 63.3436 170.3323 82.0672 0.0000 0.0000 0.0000
# 3 54.3652 82.0672 137.0607 0.0000 0.0000 0.0000
# 4 0.0000 0.0000 0.0000 34.0498 0.0000 0.0000
# 5 0.0000 0.0000 0.0000 0.0000 34.1501 0.0000
# 6 0.0000 0.0000 0.0000 0.0000 0.0000 30.4606
#
#
#
# Elastic Compliance Matrix: (Units=1/GPa)
#
#
# Indices 1 2 3 4 5 6 
#
# 1 0.015659 -0.003979 -0.003829 0.000000 0.000000 0.000000
# 2 -0.003979 0.009262 -0.003968 0.000000 0.000000 0.000000
# 3 -0.003829 -0.003968 0.011191 0.000000 0.000000 0.000000
# 4 0.000000 0.000000 0.000000 0.029369 0.000000 0.000000
# 5 0.000000 0.000000 0.000000 0.000000 0.029282 0.000000
# 6 0.000000 0.000000 0.000000 0.000000 0.000000 0.032829
#
#
# Mechanical properties :
#
#
# Convention : Reuss Voigt Hill
#
# Bulk Modulus (GPa) = 79.60957 88.91024 84.25990
# Shear Modulus (GPa) = 32.18949 33.12306 32.65627
#
# Velocity S-wave (km/s) = 4.07377 4.13242 4.10320
# Velocity P-wave (km/s) = 7.94801 8.28297 8.11722
#
# Compressibility (1/GPa) = 0.01256130
#
# Stress axis : x y z
#
# Youngs Moduli (GPa) = 63.85986 107.96675 89.36099
#
# Poissons Ratio (x) = 0.42955 0.34217
# Poissons Ratio (y) = 0.25407 0.35456
# Poissons Ratio (z) = 0.24452 0.42838
#
# Static dielectric constant tensor:
#      x y z
#    x 3.715750 0.000000 0.000000 
#    y 0.000000 4.269240 0.000000 
#    z 0.000000 0.000000 3.362680 
# 
# 
# High freq. dielectric constant tensor:
#      x y z
#    x 1.771510 0.000000 0.000000 
#    y 0.000000 1.783620 0.000000 
#    z 0.000000 0.000000 1.735490 
# 
# From -- ./inp_files/6708.got.cif
#   From: 2010.03.12/outbox.cif.g09.slc.cpg/sg53_4_cif.got.tgz:6708.got - 2010.04.16 14:36:59.
