data_PCOD8220344
_publ_section_title
;
Structure prediction by ZEFSAII (Michael W. Deem and Ramdas Pophale) SiO2 
 PCOD8220344
Probable space group: P M N A
;
_chemical_formula_sum "Si O2"
_cell_formula_units_Z 64
_cell_length_a 22.921682
_cell_length_b 9.097152
_cell_length_c 15.187994
_cell_angle_alpha 90.000000
_cell_angle_beta 90.000000
_cell_angle_gamma 90.000000
_cell_volume 3167.031268
_symmetry_space_group_name_H-M "P M N A"
_symmetry_group_IT_number 53
_symmetry_cell_setting 'orthorhombic'
loop_
_space_group_symop_operation_xyz
x,y,z
1/2-x,-y,1/2+z
x,-y,-z
1/2-x,y,1/2-z
-x,-y,-z
1/2+x,y,1/2-z
-x,y,z
1/2+x,-y,1/2+z
loop_
_atom_site_type_symbol
_atom_site_label
_atom_site_fract_x
_atom_site_fract_y
_atom_site_fract_z
Si Si1 0.165868 0.151002 0.903789
Si Si2 0.153329 0.185031 0.096860
Si Si3 0.884168 0.670669 0.586330
Si Si4 0.887042 0.170171 0.722159
Si Si5 0.435493 0.638822 0.089833
Si Si6 0.226533 0.709067 0.341627
Si Si7 0.430860 0.846805 0.751299
Si Si8 0.242417 0.406671 0.412665
O O1 0.128853 0.219165 0.822167
O O2 0.229236 0.227661 0.915680
O O3 0.177751 0.978902 0.886304
O O4 0.131944 0.188296 0.994618
O O5 0.098184 0.212467 0.160693
O O6 0.202802 0.306703 0.116809
O O7 0.915387 0.730178 0.497500
O O8 0.890843 0.495598 0.597418
O O9 0.915093 0.739188 0.670455
O O10 0.814383 0.699036 0.579203
O O11 0.939237 0.264653 0.679724
O O12 0.836712 0.215254 0.650747
O O13 0.903630 0.001149 0.720131
O O14 0.500000 0.576249 0.073994
O O15 0.250000 0.771359 0.250000
O O16 0.227804 0.531520 0.339983
O O17 0.500000 0.857666 0.735823
O O18 0.255913 0.500000 0.500000
#
# Coordination Sequence:
#
# PCOD8220344 Si02
#       8
#     8   8   8   8   8   8   8   8
#     4   9  20  40  60  89 125 163 200 260 318 375
#     4  10  23  39  64  90 128 163 209 256 321 373
#     4  11  23  39  60  88 129 160 211 252 318 376
#     4  10  21  39  62  90 121 162 213 261 311 373
#     4  11  21  39  61  85 120 166 209 259 309 373
#     4  10  20  35  56  87 124 153 197 250 312 373
#     4  11  25  44  63  91 128 170 217 263 309 370
#     4  12  21  37  60  96 123 159 204 255 319 385
#
# _framework density 20.208199
#
# number of rings (size 3 to 8) (size 9 to 14) (size 15 to 20)
#    0.000    1.500    3.750    1.875    3.500    0.500 
#    0.000    6.875    0.000    0.375    0.000    0.000 
#    0.000    0.000    0.000    0.000    0.000    0.000 
#
# Total GULP energy -793090.911455 kJ/mol
# GULP energy per Si atom -12392.045491 kJ/mol
# Density = 2.016220 g / cm^3
# Si number density = 20.208199 Si / 1000 Ang^3
#
#
#
# Elastic Constant Matrix: (Units=GPa)
#
#
# Indices 1 2 3 4 5 6 
#
# 1 113.3438 46.3858 53.9002 0.0000 0.0000 0.0000
# 2 46.3858 66.4005 46.9040 0.0000 0.0000 0.0000
# 3 53.9002 46.9040 128.5180 0.0000 0.0000 0.0000
# 4 0.0000 0.0000 0.0000 31.4815 0.0000 0.0000
# 5 0.0000 0.0000 0.0000 0.0000 23.3566 0.0000
# 6 0.0000 0.0000 0.0000 0.0000 0.0000 16.9402
#
#
#
# Elastic Compliance Matrix: (Units=1/GPa)
#
#
# Indices 1 2 3 4 5 6 
#
# 1 0.013114 -0.007108 -0.002905 0.000000 0.000000 0.000000
# 2 -0.007108 0.024144 -0.005831 0.000000 0.000000 0.000000
# 3 -0.002905 -0.005831 0.011127 0.000000 0.000000 0.000000
# 4 0.000000 0.000000 0.000000 0.031765 0.000000 0.000000
# 5 0.000000 0.000000 0.000000 0.000000 0.042814 0.000000
# 6 0.000000 0.000000 0.000000 0.000000 0.000000 0.059031
#
#
# Mechanical properties :
#
#
# Convention : Reuss Voigt Hill
#
# Bulk Modulus (GPa) = 59.89240 66.96026 63.42633
# Shear Modulus (GPa) = 22.80499 25.09380 23.94940
#
# Velocity S-wave (km/s) = 3.36296 3.52769 3.44631
# Velocity P-wave (km/s) = 6.69189 7.05691 6.87682
#
# Compressibility (1/GPa) = 0.01669661
#
# Stress axis : x y z
#
# Youngs Moduli (GPa) = 76.25722 41.41733 89.86750
#
# Poissons Ratio (x) = 0.29441 0.26111
# Poissons Ratio (y) = 0.54207 0.52398
# Poissons Ratio (z) = 0.22156 0.24149
#
# Static dielectric constant tensor:
#      x y z
#    x 3.691900 0.000000 0.000000 
#    y 0.000000 3.548550 0.000000 
#    z 0.000000 0.000000 3.890960 
# 
# 
# High freq. dielectric constant tensor:
#      x y z
#    x 1.780180 0.000000 0.000000 
#    y 0.000000 1.775020 0.000000 
#    z 0.000000 0.000000 1.799830 
# 
# From -- ./inp_files/24720.got.cif
#   From: 2010.03.12/outbox.cif.g09.slc.cpg/sg53_13_cif.got.tgz:24720.got - 2010.04.16 14:36:59.
