data_PCOD8220849
_publ_section_title
;
Structure prediction by ZEFSAII (Michael W. Deem and Ramdas Pophale) SiO2 
 PCOD8220849
Probable space group: P M N A
;
_chemical_formula_sum "Si O2"
_cell_formula_units_Z 56
_cell_length_a 8.578742
_cell_length_b 14.750027
_cell_length_c 22.669826
_cell_angle_alpha 90.000000
_cell_angle_beta 90.000000
_cell_angle_gamma 90.000000
_cell_volume 2868.564430
_symmetry_space_group_name_H-M "P M N A"
_symmetry_group_IT_number 53
_symmetry_cell_setting 'orthorhombic'
loop_
_space_group_symop_operation_xyz
x,y,z
1/2-x,-y,1/2+z
x,-y,-z
1/2-x,y,1/2-z
-x,-y,-z
1/2+x,y,1/2-z
-x,y,z
1/2+x,-y,1/2+z
loop_
_atom_site_type_symbol
_atom_site_label
_atom_site_fract_x
_atom_site_fract_y
_atom_site_fract_z
Si Si1 0.314653 0.188057 0.187542
Si Si2 0.820417 0.104693 0.548058
Si Si3 0.815992 0.427071 0.688194
Si Si4 0.182839 0.619040 0.645778
Si Si5 0.683448 0.918207 0.576336
Si Si6 0.179471 0.698713 0.417848
Si Si7 0.819610 0.402785 0.021589
O O1 0.250000 0.152074 0.250000
O O2 0.500000 0.181607 0.186428
O O3 0.254605 0.291834 0.179398
O O4 0.248428 0.126348 0.135501
O O5 0.763703 0.125717 0.481352
O O6 0.800514 0.193330 0.588937
O O7 0.000000 0.074000 0.545550
O O8 0.719084 0.025526 0.577657
O O9 0.750000 0.393447 0.750000
O O10 0.743688 0.526146 0.672084
O O11 0.762776 0.352129 0.640830
O O12 0.000000 0.432753 0.691587
O O13 0.223335 0.629251 0.577594
O O14 0.000000 0.613492 0.652552
O O15 0.500000 0.901673 0.572545
O O16 0.290874 0.669220 0.470610
O O17 0.000000 0.673261 0.432185
O O18 0.000000 0.406944 0.038800
O O19 0.757285 0.500000 0.000000
#
# Coordination Sequence:
#
# PCOD8220849 Si02
#       7
#     8   8   8   8   8   8   8
#     4  11  23  39  59  86 116 153 195 238 287 342
#     4  10  20  37  62  89 114 146 188 237 287 344
#     4  10  21  37  55  77 106 145 188 227 268 322
#     4  10  21  37  58  80 111 152 190 228 279 337
#     4  11  22  38  60  87 117 150 184 232 291 348
#     4  10  21  37  58  81 111 149 187 227 279 335
#     4  11  22  33  51  83 116 147 186 234 282 325
#
# _framework density 19.52196
#
# number of rings (size 3 to 8) (size 9 to 14) (size 15 to 20)
#    0.000    1.571    1.429    4.714    0.000    7.429 
#    0.000    0.714    0.000    1.714    0.000    0.000 
#    0.000    0.000    0.000    0.000    0.000    0.000 
#
# Total GULP energy -694533.554523 kJ/mol
# GULP energy per Si atom -12402.384902 kJ/mol
# Density = 1.947753 g / cm^3
# Si number density = 19.521960 Si / 1000 Ang^3
#
#
#
# Elastic Constant Matrix: (Units=GPa)
#
#
# Indices 1 2 3 4 5 6 
#
# 1 32.1781 18.7125 13.7561 0.0000 0.0000 0.0000
# 2 18.7125 106.8046 56.8919 0.0000 0.0000 0.0000
# 3 13.7561 56.8919 127.6218 0.0000 0.0000 0.0000
# 4 0.0000 0.0000 0.0000 26.1764 0.0000 0.0000
# 5 0.0000 0.0000 0.0000 0.0000 33.3586 0.0000
# 6 0.0000 0.0000 0.0000 0.0000 0.0000 -1.3201
#
#
#
# Elastic Compliance Matrix: (Units=1/GPa)
#
#
# Indices 1 2 3 4 5 6 
#
# 1 0.034780 -0.005372 -0.001354 0.000000 0.000000 0.000000
# 2 -0.005372 0.013108 -0.005264 0.000000 0.000000 0.000000
# 3 -0.001354 -0.005264 0.010328 0.000000 0.000000 0.000000
# 4 0.000000 0.000000 0.000000 0.038202 0.000000 0.000000
# 5 0.000000 0.000000 0.000000 0.000000 0.029977 0.000000
# 6 0.000000 0.000000 0.000000 0.000000 0.000000 -0.757526
#
#
# Mechanical properties :
#
#
# Convention : Reuss Voigt Hill
#
# Bulk Modulus (GPa) = 29.20961 49.48061 39.34511
# Shear Modulus (GPa) = -8.39297 23.45926 7.53314
#
# Velocity S-wave (km/s) = -2.07571 3.47029 1.96652
# Velocity P-wave (km/s) = 3.04141 6.43882 5.03530
#
# Compressibility (1/GPa) = 0.03423531
#
# Stress axis : x y z
#
# Youngs Moduli (GPa) = 28.75212 76.28722 96.82040
#
# Poissons Ratio (x) = 0.40984 0.13109
# Poissons Ratio (y) = 0.15447 0.50970
# Poissons Ratio (z) = 0.03893 0.40161
#
# Static dielectric constant tensor:
#      x y z
#    x 3.463110 0.000000 0.000000 
#    y 0.000000 3.730290 0.000000 
#    z 0.000000 0.000000 3.579300 
# 
# 
# High freq. dielectric constant tensor:
#      x y z
#    x 1.758160 0.000000 0.000000 
#    y 0.000000 1.763900 0.000000 
#    z 0.000000 0.000000 1.754380 
# 
# From -- ./inp_files/30818.got.cif
#   From: 2010.03.12/outbox.cif.g09.slc.cpg/sg53_16_cif.got.tgz:30818.got - 2010.04.16 14:36:59.
