data_PCOD8220285
_publ_section_title
;
Structure prediction by ZEFSAII (Michael W. Deem and Ramdas Pophale) SiO2 
 PCOD8220285
Probable space group: P M N A
;
_chemical_formula_sum "Si O2"
_cell_formula_units_Z 64
_cell_length_a 9.204266
_cell_length_b 14.908634
_cell_length_c 23.891409
_cell_angle_alpha 90.000000
_cell_angle_beta 90.000000
_cell_angle_gamma 90.000000
_cell_volume 3278.451606
_symmetry_space_group_name_H-M "P M N A"
_symmetry_group_IT_number 53
_symmetry_cell_setting 'orthorhombic'
loop_
_space_group_symop_operation_xyz
x,y,z
1/2-x,-y,1/2+z
x,-y,-z
1/2-x,y,1/2-z
-x,-y,-z
1/2+x,y,1/2-z
-x,y,z
1/2+x,-y,1/2+z
loop_
_atom_site_type_symbol
_atom_site_label
_atom_site_fract_x
_atom_site_fract_y
_atom_site_fract_z
Si Si1 0.670374 0.598985 0.003359
Si Si2 0.671334 0.144923 0.594408
Si Si3 0.171757 0.314774 0.617557
Si Si4 0.665555 0.209801 0.306464
Si Si5 0.664727 0.944557 0.615752
Si Si6 0.668292 0.653529 0.880263
Si Si7 0.668660 0.518928 0.192219
Si Si8 0.338207 0.896179 0.986712
O O1 0.500000 0.586626 0.012904
O O2 0.731327 0.651667 0.057192
O O3 0.741721 0.500000 0.000000
O O4 0.704285 0.652109 0.946305
O O5 0.500000 0.159812 0.590698
O O6 0.744663 0.222244 0.632224
O O7 0.740486 0.153256 0.532634
O O8 0.711593 0.048511 0.621878
O O9 0.214826 0.386529 0.664966
O O10 0.000000 0.296878 0.616815
O O11 0.750000 0.227224 0.250000
O O12 0.500000 0.238128 0.296344
O O13 0.677331 0.105179 0.324530
O O14 0.730472 0.270561 0.355064
O O15 0.500000 0.941114 0.592439
O O16 0.765155 0.887536 0.573801
O O17 0.500000 0.677363 0.869895
O O18 0.706717 0.558145 0.852442
O O19 0.750000 0.501399 0.250000
O O20 0.500000 0.518586 0.206536
O O21 0.500000 0.852570 0.985670
O O22 0.349094 0.000000 0.000000
#
# Coordination Sequence:
#
# PCOD8220285 Si02
#       8
#     8   8   8   8   8   8   8   8
#     4   9  16  32  58  85 115 150 187 229 283 340
#     4  10  20  35  55  79 113 152 184 224 283 340
#     4  10  20  35  56  85 116 148 191 239 277 330
#     4  11  24  41  59  82 112 147 192 241 288 343
#     4   9  20  38  56  76 108 147 185 228 282 338
#     4  10  20  36  60  88 115 149 187 228 285 346
#     4  10  21  37  58  81 111 148 190 234 281 335
#     4   9  17  30  51  79 107 138 180 225 266 320
#
# _framework density 19.521409999999999
#
# number of rings (size 3 to 8) (size 9 to 14) (size 15 to 20)
#    0.000    2.250    1.250    1.500    1.750    5.000 
#    0.000    0.625    0.000    3.750    0.000    0.000 
#    0.000    0.000    0.000    0.000    0.000    0.000 
#
# Total GULP energy -793569.710174 kJ/mol
# GULP energy per Si atom -12399.526721 kJ/mol
# Density = 1.947698 g / cm^3
# Si number density = 19.521410 Si / 1000 Ang^3
#
#
#
# Elastic Constant Matrix: (Units=GPa)
#
#
# Indices 1 2 3 4 5 6 
#
# 1 75.9233 33.6032 27.1469 0.0000 0.0000 0.0000
# 2 33.6032 80.5024 8.3697 0.0000 0.0000 0.0000
# 3 27.1469 8.3697 62.9408 0.0000 0.0000 0.0000
# 4 0.0000 0.0000 0.0000 23.0098 0.0000 0.0000
# 5 0.0000 0.0000 0.0000 0.0000 18.7469 0.0000
# 6 0.0000 0.0000 0.0000 0.0000 0.0000 26.1708
#
#
#
# Elastic Compliance Matrix: (Units=1/GPa)
#
#
# Indices 1 2 3 4 5 6 
#
# 1 0.018910 -0.007144 -0.007206 0.000000 0.000000 0.000000
# 2 -0.007144 0.015295 0.001047 0.000000 0.000000 0.000000
# 3 -0.007206 0.001047 0.018857 0.000000 0.000000 0.000000
# 4 0.000000 0.000000 0.000000 0.043460 0.000000 0.000000
# 5 0.000000 0.000000 0.000000 0.000000 0.053342 0.000000
# 6 0.000000 0.000000 0.000000 0.000000 0.000000 0.038210
#
#
# Mechanical properties :
#
#
# Convention : Reuss Voigt Hill
#
# Bulk Modulus (GPa) = 37.79819 39.73404 38.76612
# Shear Modulus (GPa) = 22.37159 23.60194 22.98676
#
# Velocity S-wave (km/s) = 3.38894 3.48088 3.43522
# Velocity P-wave (km/s) = 5.89217 6.04596 5.96956
#
# Compressibility (1/GPa) = 0.02645629
#
# Stress axis : x y z
#
# Youngs Moduli (GPa) = 52.88315 65.38019 53.03169
#
# Poissons Ratio (x) = 0.46708 0.38214
# Poissons Ratio (y) = 0.37780 -0.05554
# Poissons Ratio (z) = 0.38107 -0.06848
#
# Static dielectric constant tensor:
#      x y z
#    x 3.450450 0.000000 0.000000 
#    y 0.000000 3.683430 0.000000 
#    z 0.000000 0.000000 3.391540 
# 
# 
# High freq. dielectric constant tensor:
#      x y z
#    x 1.744240 0.000000 0.000000 
#    y 0.000000 1.770860 0.000000 
#    z 0.000000 0.000000 1.743710 
# 
# From -- ./inp_files/34286.got.cif
#   From: 2010.03.12/outbox.cif.g09.slc.cpg/sg53_18_cif.got.tgz:34286.got - 2010.04.16 14:36:59.
