data_PCOD8220681
_publ_section_title
;
Structure prediction by ZEFSAII (Michael W. Deem and Ramdas Pophale) SiO2 
 PCOD8220681
Probable space group: P M N A
;
_chemical_formula_sum "Si O2"
_cell_formula_units_Z 64
_cell_length_a 15.765899
_cell_length_b 15.203887
_cell_length_c 11.561418
_cell_angle_alpha 90.000000
_cell_angle_beta 90.000000
_cell_angle_gamma 90.000000
_cell_volume 2771.305964
_symmetry_space_group_name_H-M "P M N A"
_symmetry_group_IT_number 53
_symmetry_cell_setting 'orthorhombic'
loop_
_space_group_symop_operation_xyz
x,y,z
1/2-x,-y,1/2+z
x,-y,-z
1/2-x,y,1/2-z
-x,-y,-z
1/2+x,y,1/2-z
-x,y,z
1/2+x,-y,1/2+z
loop_
_atom_site_type_symbol
_atom_site_label
_atom_site_fract_x
_atom_site_fract_y
_atom_site_fract_z
Si Si1 0.403498 0.590279 0.538463
Si Si2 0.100845 0.186367 0.267707
Si Si3 0.901917 0.991311 0.627774
Si Si4 0.099855 0.662861 0.555549
Si Si5 0.649948 0.471116 0.230399
Si Si6 0.651815 0.153458 0.721065
Si Si7 0.601287 0.781076 0.510928
Si Si8 0.343038 0.664904 0.197805
O O1 0.354382 0.500000 0.500000
O O2 0.500000 0.584646 0.497835
O O3 0.397346 0.591616 0.677435
O O4 0.366173 0.680398 0.484045
O O5 0.131543 0.262537 0.354862
O O6 0.137219 0.197099 0.138119
O O7 0.000000 0.186858 0.262582
O O8 0.139039 0.093792 0.311816
O O9 0.893524 0.075842 0.709994
O O10 0.000000 0.971352 0.609373
O O11 0.859743 0.000000 0.500000
O O12 0.122974 0.567326 0.606843
O O13 0.156071 0.671720 0.440803
O O14 0.000000 0.670509 0.526615
O O15 0.750000 0.468083 0.250000
O O16 0.615570 0.572198 0.238652
O O17 0.750000 0.147639 0.750000
O O18 0.637850 0.149013 0.582044
O O19 0.609079 0.247140 0.757429
O O20 0.500000 0.785130 0.510660
O O21 0.250000 0.670036 0.250000
#
# Coordination Sequence:
#
# PCOD8220681 Si02
#       8
#     8   8   8   8   8   8   8   8
#     4  10  20  36  60  89 124 164 213 266 306 361
#     4   9  19  38  66  98 126 158 204 261 323 388
#     4  10  21  41  67  92 122 163 210 255 312 386
#     4  11  22  41  68  98 130 166 221 282 327 382
#     4  11  23  37  58  91 129 176 215 255 322 391
#     4  11  24  42  61  90 127 165 209 267 318 380
#     4  10  20  38  64  91 125 165 207 256 316 383
#     4  10  24  42  59  84 130 178 215 264 320 390
#
# _framework density 23.093805
#
# number of rings (size 3 to 8) (size 9 to 14) (size 15 to 20)
#    0.000    1.750    1.250    2.625    0.000    8.000 
#    2.250    2.500    0.000    0.000    0.000    0.000 
#    0.000    0.000    0.000    0.000    0.000    0.000 
#
# Total GULP energy -793238.903203 kJ/mol
# GULP energy per Si atom -12394.357863 kJ/mol
# Density = 2.304124 g / cm^3
# Si number density = 23.093805 Si / 1000 Ang^3
#
#
#
# Elastic Constant Matrix: (Units=GPa)
#
#
# Indices 1 2 3 4 5 6 
#
# 1 38.0328 18.2024 31.4167 0.0000 0.0000 0.0000
# 2 18.2024 138.2378 41.0393 0.0000 0.0000 0.0000
# 3 31.4167 41.0393 145.8040 0.0000 0.0000 0.0000
# 4 0.0000 0.0000 0.0000 42.2254 0.0000 0.0000
# 5 0.0000 0.0000 0.0000 0.0000 32.6417 0.0000
# 6 0.0000 0.0000 0.0000 0.0000 0.0000 17.2709
#
#
#
# Elastic Compliance Matrix: (Units=1/GPa)
#
#
# Indices 1 2 3 4 5 6 
#
# 1 0.032710 -0.002417 -0.006368 0.000000 0.000000 0.000000
# 2 -0.002417 0.008072 -0.001751 0.000000 0.000000 0.000000
# 3 -0.006368 -0.001751 0.008724 0.000000 0.000000 0.000000
# 4 0.000000 0.000000 0.000000 0.023682 0.000000 0.000000
# 5 0.000000 0.000000 0.000000 0.000000 0.030636 0.000000
# 6 0.000000 0.000000 0.000000 0.000000 0.000000 0.057901
#
#
# Mechanical properties :
#
#
# Convention : Reuss Voigt Hill
#
# Bulk Modulus (GPa) = 35.16931 55.93236 45.55084
# Shear Modulus (GPa) = 26.00455 33.85533 29.92994
#
# Velocity S-wave (km/s) = 3.35929 3.83298 3.60393
# Velocity P-wave (km/s) = 5.50531 6.62278 6.08973
#
# Compressibility (1/GPa) = 0.02843388
#
# Stress axis : x y z
#
# Youngs Moduli (GPa) = 30.57186 123.88449 114.63212
#
# Poissons Ratio (x) = 0.29938 0.72996
# Poissons Ratio (y) = 0.07388 0.20076
# Poissons Ratio (z) = 0.19468 0.21696
#
# Static dielectric constant tensor:
#      x y z
#    x 3.565740 0.000000 0.000000 
#    y 0.000000 4.613280 0.000000 
#    z 0.000000 0.000000 4.386950 
# 
# 
# High freq. dielectric constant tensor:
#      x y z
#    x 1.869130 0.000000 0.000000 
#    y 0.000000 1.921290 0.000000 
#    z 0.000000 0.000000 1.928260 
# 
# From -- ./inp_files/17126.got.cif
#   From: 2010.03.12/outbox.cif.g09.slc.cpg/sg53_9_cif.got.tgz:17126.got - 2010.04.16 14:36:59.
