data_PCOD8220898
_publ_section_title
;
Structure prediction by ZEFSAII (Michael W. Deem and Ramdas Pophale) SiO2 
 PCOD8220898
Probable space group: P M N A
;
_chemical_formula_sum "Si O2"
_cell_formula_units_Z 48
_cell_length_a 15.225278
_cell_length_b 11.772711
_cell_length_c 14.053882
_cell_angle_alpha 90.000000
_cell_angle_beta 90.000000
_cell_angle_gamma 90.000000
_cell_volume 2519.057129
_symmetry_space_group_name_H-M "P M N A"
_symmetry_group_IT_number 53
_symmetry_cell_setting 'orthorhombic'
loop_
_space_group_symop_operation_xyz
x,y,z
1/2-x,-y,1/2+z
x,-y,-z
1/2-x,y,1/2-z
-x,-y,-z
1/2+x,y,1/2-z
-x,y,z
1/2+x,-y,1/2+z
loop_
_atom_site_type_symbol
_atom_site_label
_atom_site_fract_x
_atom_site_fract_y
_atom_site_fract_z
Si Si1 0.644943 0.804976 0.143314
Si Si2 0.833836 0.373842 0.022841
Si Si3 0.500000 0.700651 0.620856
Si Si4 0.656844 0.211352 0.643267
Si Si5 0.860646 0.634895 0.523745
Si Si6 0.500000 0.253810 0.157481
Si Si7 0.000000 0.882477 0.045412
Si Si8 0.500000 0.011315 0.889420
O O1 0.746260 0.840171 0.124989
O O2 0.640120 0.750267 0.248433
O O3 0.612698 0.707877 0.070227
O O4 0.586884 0.919057 0.140894
O O5 0.862846 0.318734 0.923377
O O6 0.738056 0.329697 0.056138
O O7 0.812664 0.500000 0.000000
O O8 0.909669 0.367798 0.102232
O O9 0.500000 0.733322 0.729878
O O10 0.500000 0.801197 0.545428
O O11 0.585225 0.119441 0.612665
O O12 0.875783 0.500000 0.500000
O O13 0.917236 0.681783 0.611358
O O14 0.500000 0.117337 0.148077
O O15 0.000000 0.000000 0.000000
O O16 0.500000 0.000000 0.000000
#
# Coordination Sequence:
#
# PCOD8220898 Si02
#       8
#     8   8   4   8   8   4   4   4
#     4  10  20  38  59  88 114 149 197 237 289 348
#     4   9  19  39  63  87 118 154 188 236 291 344
#     4  10  23  38  55  85 120 152 197 232 279 348
#     4   9  20  36  59  87 113 145 195 239 285 346
#     4  10  21  39  62  88 120 151 190 242 293 343
#     4  12  25  39  55  86 122 156 199 235 289 344
#     4  10  21  38  56  78 112 149 189 241 288 331
#     4  12  23  39  61  78 116 161 195 240 287 345
#
# _framework density 19.054746999999999
#
# number of rings (size 3 to 8) (size 9 to 14) (size 15 to 20)
#    0.000    2.000    1.667    1.000    2.333    2.667 
#    3.000    3.333    0.000    0.000    0.000    0.000 
#    0.000    0.000    0.000    0.000    0.000    0.000 
#
# Total GULP energy -594643.073088 kJ/mol
# GULP energy per Si atom -12388.397356 kJ/mol
# Density = 1.901138 g / cm^3
# Si number density = 19.054747 Si / 1000 Ang^3
#
#
#
# Elastic Constant Matrix: (Units=GPa)
#
#
# Indices 1 2 3 4 5 6 
#
# 1 135.1313 42.2960 62.3725 0.0000 0.0000 0.0000
# 2 42.2960 84.0167 27.0415 0.0000 0.0000 0.0000
# 3 62.3725 27.0415 129.5517 0.0000 0.0000 0.0000
# 4 0.0000 0.0000 0.0000 14.8658 0.0000 0.0000
# 5 0.0000 0.0000 0.0000 0.0000 23.4390 0.0000
# 6 0.0000 0.0000 0.0000 0.0000 0.0000 21.0232
#
#
#
# Elastic Compliance Matrix: (Units=1/GPa)
#
#
# Indices 1 2 3 4 5 6 
#
# 1 0.010620 -0.003967 -0.004285 0.000000 0.000000 0.000000
# 2 -0.003967 0.014242 -0.001063 0.000000 0.000000 0.000000
# 3 -0.004285 -0.001063 0.010004 0.000000 0.000000 0.000000
# 4 0.000000 0.000000 0.000000 0.067269 0.000000 0.000000
# 5 0.000000 0.000000 0.000000 0.000000 0.042664 0.000000
# 6 0.000000 0.000000 0.000000 0.000000 0.000000 0.047567
#
#
# Mechanical properties :
#
#
# Convention : Reuss Voigt Hill
#
# Bulk Modulus (GPa) = 61.59259 68.01331 64.80295
# Shear Modulus (GPa) = 23.10483 26.33156 24.71820
#
# Velocity S-wave (km/s) = 3.48595 3.72141 3.60560
# Velocity P-wave (km/s) = 6.97113 7.36453 7.17053
#
# Compressibility (1/GPa) = 0.01623572
#
# Stress axis : x y z
#
# Youngs Moduli (GPa) = 94.16542 70.21708 99.96359
#
# Poissons Ratio (x) = 0.27856 0.42832
# Poissons Ratio (y) = 0.37356 0.10623
# Poissons Ratio (z) = 0.40348 0.07462
#
# Static dielectric constant tensor:
#      x y z
#    x 3.893810 0.000000 0.000000 
#    y 0.000000 2.882160 0.000000 
#    z 0.000000 0.000000 3.504290 
# 
# 
# High freq. dielectric constant tensor:
#      x y z
#    x 1.763920 0.000000 0.000000 
#    y 0.000000 1.726130 0.000000 
#    z 0.000000 0.000000 1.741310 
# 
# From -- ./inp_files/22749.got.cif
#   From: 2010.03.12/outbox.cif.g09.slc.cpg/sg53_12_cif.got.tgz:22749.got - 2010.04.16 14:36:59.
