data_PCOD8220582
_publ_section_title
;
Structure prediction by ZEFSAII (Michael W. Deem and Ramdas Pophale) SiO2 
 PCOD8220582
Probable space group: P M N A
;
_chemical_formula_sum "Si O2"
_cell_formula_units_Z 64
_cell_length_a 8.739984
_cell_length_b 18.427839
_cell_length_c 20.458088
_cell_angle_alpha 90.000000
_cell_angle_beta 90.000000
_cell_angle_gamma 90.000000
_cell_volume 3294.959564
_symmetry_space_group_name_H-M "P M N A"
_symmetry_group_IT_number 53
_symmetry_cell_setting 'orthorhombic'
loop_
_space_group_symop_operation_xyz
x,y,z
1/2-x,-y,1/2+z
x,-y,-z
1/2-x,y,1/2-z
-x,-y,-z
1/2+x,y,1/2-z
-x,y,z
1/2+x,-y,1/2+z
loop_
_atom_site_type_symbol
_atom_site_label
_atom_site_fract_x
_atom_site_fract_y
_atom_site_fract_z
Si Si1 0.818725 0.794798 0.438759
Si Si2 0.319382 0.040643 0.933608
Si Si3 0.321754 0.698873 0.941001
Si Si4 0.818808 0.702028 0.317895
Si Si5 0.821422 0.795429 0.682281
Si Si6 0.681103 0.051572 0.319701
Si Si7 0.179875 0.462703 0.682394
Si Si8 0.821182 0.544724 0.936838
O O1 0.759339 0.877040 0.439479
O O2 0.763052 0.755142 0.504402
O O3 0.753140 0.752370 0.375729
O O4 0.000000 0.794518 0.436538
O O5 0.500000 0.035807 0.920526
O O6 0.231079 0.006312 0.873186
O O7 0.274187 0.000000 0.000000
O O8 0.500000 0.679471 0.950977
O O9 0.291622 0.733347 0.870441
O O10 0.220620 0.627818 0.948535
O O11 0.750000 0.730836 0.250000
O O12 0.764760 0.619563 0.331855
O O13 0.000000 0.706845 0.313529
O O14 0.750000 0.767296 0.750000
O O15 0.742449 0.869619 0.659021
O O16 0.000000 0.811600 0.691660
O O17 0.750000 0.028214 0.250000
O O18 0.500000 0.053938 0.314009
O O19 0.250000 0.491397 0.750000
O O20 0.231643 0.515359 0.625304
O O21 0.000000 0.466573 0.688810
O O22 0.000000 0.536111 0.923906
O O23 0.768027 0.500000 0.000000
#
# Coordination Sequence:
#
# PCOD8220582 Si02
#       8
#     8   8   8   8   8   8   8   8
#     4   9  18  34  56  80 106 140 184 229 273 327
#     4  10  20  36  58  82 112 149 187 230 280 333
#     4  10  21  38  60  83 108 144 189 232 277 331
#     4   9  18  33  54  79 106 137 175 220 270 325
#     4  10  20  36  59  85 112 144 183 227 279 336
#     4  11  22  37  58  83 114 150 189 232 278 331
#     4  10  20  36  59  83 110 145 184 229 280 336
#     4  11  24  39  56  82 116 151 188 232 279 328
#
# _framework density 19.423607000000001
#
# number of rings (size 3 to 8) (size 9 to 14) (size 15 to 20)
#    0.000    2.000    0.000    4.500    0.000    6.750 
#    0.000    4.375    0.000    0.000    0.000    0.000 
#    0.000    0.000    0.000    0.000    0.000    0.000 
#
# Total GULP energy -793850.824811 kJ/mol
# GULP energy per Si atom -12403.919138 kJ/mol
# Density = 1.937940 g / cm^3
# Si number density = 19.423607 Si / 1000 Ang^3
#
#
#
# Elastic Constant Matrix: (Units=GPa)
#
#
# Indices 1 2 3 4 5 6 
#
# 1 71.5937 36.7847 43.9848 0.0000 0.0000 0.0000
# 2 36.7847 121.3405 70.2066 0.0000 0.0000 0.0000
# 3 43.9848 70.2066 132.4492 0.0000 0.0000 0.0000
# 4 0.0000 0.0000 0.0000 24.2949 0.0000 0.0000
# 5 0.0000 0.0000 0.0000 0.0000 32.4179 0.0000
# 6 0.0000 0.0000 0.0000 0.0000 0.0000 20.3629
#
#
#
# Elastic Compliance Matrix: (Units=1/GPa)
#
#
# Indices 1 2 3 4 5 6 
#
# 1 0.018238 -0.002920 -0.004509 0.000000 0.000000 0.000000
# 2 -0.002920 0.012354 -0.005579 0.000000 0.000000 0.000000
# 3 -0.004509 -0.005579 0.012005 0.000000 0.000000 0.000000
# 4 0.000000 0.000000 0.000000 0.041161 0.000000 0.000000
# 5 0.000000 0.000000 0.000000 0.000000 0.030847 0.000000
# 6 0.000000 0.000000 0.000000 0.000000 0.000000 0.049109
#
#
# Mechanical properties :
#
#
# Convention : Reuss Voigt Hill
#
# Bulk Modulus (GPa) = 60.30854 69.70396 65.00625
# Shear Modulus (GPa) = 25.60728 27.04229 26.32479
#
# Velocity S-wave (km/s) = 3.63486 3.73532 3.68543
# Velocity P-wave (km/s) = 6.98089 7.38699 7.18681
#
# Compressibility (1/GPa) = 0.01658140
#
# Stress axis : x y z
#
# Youngs Moduli (GPa) = 54.83015 80.94257 83.30179
#
# Poissons Ratio (x) = 0.23637 0.37559
# Poissons Ratio (y) = 0.16012 0.46473
# Poissons Ratio (z) = 0.24722 0.45157
#
# Static dielectric constant tensor:
#      x y z
#    x 3.392800 0.000000 0.000000 
#    y 0.000000 3.612290 0.000000 
#    z 0.000000 0.000000 3.736720 
# 
# 
# High freq. dielectric constant tensor:
#      x y z
#    x 1.744100 0.000000 0.000000 
#    y 0.000000 1.757910 0.000000 
#    z 0.000000 0.000000 1.771310 
# 
# From -- ./inp_files/31118.got.cif
#   From: 2010.03.12/outbox.cif.g09.slc.cpg/sg53_16_cif.got.tgz:31118.got - 2010.04.16 14:36:59.
