data_PCOD8220318
_publ_section_title
;
Structure prediction by ZEFSAII (Michael W. Deem and Ramdas Pophale) SiO2 
 PCOD8220318
Probable space group: P M N A
;
_chemical_formula_sum "Si O2"
_cell_formula_units_Z 48
_cell_length_a 13.217080
_cell_length_b 14.940706
_cell_length_c 12.333506
_cell_angle_alpha 90.000000
_cell_angle_beta 90.000000
_cell_angle_gamma 90.000000
_cell_volume 2435.528343
_symmetry_space_group_name_H-M "P M N A"
_symmetry_group_IT_number 53
_symmetry_cell_setting 'orthorhombic'
loop_
_space_group_symop_operation_xyz
x,y,z
1/2-x,-y,1/2+z
x,-y,-z
1/2-x,y,1/2-z
-x,-y,-z
1/2+x,y,1/2-z
-x,y,z
1/2+x,-y,1/2+z
loop_
_atom_site_type_symbol
_atom_site_label
_atom_site_fract_x
_atom_site_fract_y
_atom_site_fract_z
Si Si1 0.384275 0.995436 0.178398
Si Si2 0.883925 0.812583 0.734971
Si Si3 0.684699 0.933736 0.407875
Si Si4 0.687984 0.580309 0.577201
Si Si5 0.886697 0.613911 0.685485
Si Si6 0.620815 0.767635 0.531278
O O1 0.500000 0.983142 0.137143
O O2 0.307062 0.940446 0.102870
O O3 0.375221 0.959570 0.300128
O O4 0.344886 0.099009 0.172794
O O5 0.866146 0.720449 0.670531
O O6 0.000000 0.831081 0.757665
O O7 0.832802 0.803272 0.853859
O O8 0.657257 0.831834 0.435373
O O9 0.643340 0.000000 0.500000
O O10 0.651985 0.500000 0.500000
O O11 0.806341 0.565708 0.607607
O O12 0.624450 0.584683 0.688981
O O13 0.667918 0.670109 0.508595
O O14 0.000000 0.589154 0.647835
O O15 0.500000 0.759941 0.534928
#
# Coordination Sequence:
#
# PCOD8220318 Si02
#       6
#     8   8   8   8   8   8
#     4  10  21  35  52  79 117 151 189 230 271 326
#     4   8  15  30  54  79 101 138 181 227 279 316
#     4  11  22  33  55  81 109 150 187 222 275 332
#     4  10  21  36  59  87 111 141 189 232 281 338
#     4   9  19  35  57  84 116 142 177 235 288 330
#     4  10  20  35  56  81 109 140 184 236 278 326
#
# _framework density 19.708247
#
# number of rings (size 3 to 8) (size 9 to 14) (size 15 to 20)
#    0.000    2.333    1.667    2.000    2.333    4.000 
#    0.000    4.167    0.000    2.000    0.000    0.000 
#    0.000    0.000    0.000    0.000    0.000    0.000 
#
# Total GULP energy -595010.410931 kJ/mol
# GULP energy per Si atom -12396.050228 kJ/mol
# Density = 1.966339 g / cm^3
# Si number density = 19.708247 Si / 1000 Ang^3
#
#
#
# Elastic Constant Matrix: (Units=GPa)
#
#
# Indices 1 2 3 4 5 6 
#
# 1 98.3383 12.5661 -6.0488 0.0000 0.0000 0.0000
# 2 12.5661 104.0765 28.7903 0.0000 0.0000 0.0000
# 3 -6.0488 28.7903 40.1745 0.0000 0.0000 0.0000
# 4 0.0000 0.0000 0.0000 22.6630 0.0000 0.0000
# 5 0.0000 0.0000 0.0000 0.0000 8.6225 0.0000
# 6 0.0000 0.0000 0.0000 0.0000 0.0000 22.8615
#
#
#
# Elastic Compliance Matrix: (Units=1/GPa)
#
#
# Indices 1 2 3 4 5 6 
#
# 1 0.010638 -0.002155 0.003146 0.000000 0.000000 0.000000
# 2 -0.002155 0.012420 -0.009225 0.000000 0.000000 0.000000
# 3 0.003146 -0.009225 0.031976 0.000000 0.000000 0.000000
# 4 0.000000 0.000000 0.000000 0.044125 0.000000 0.000000
# 5 0.000000 0.000000 0.000000 0.000000 0.115975 0.000000
# 6 0.000000 0.000000 0.000000 0.000000 0.000000 0.043742
#
#
# Mechanical properties :
#
#
# Convention : Reuss Voigt Hill
#
# Bulk Modulus (GPa) = 25.92952 34.80050 30.36501
# Shear Modulus (GPa) = 17.34908 24.64819 20.99864
#
# Velocity S-wave (km/s) = 2.97020 3.54029 3.26770
# Velocity P-wave (km/s) = 4.99480 5.86581 5.44774
#
# Compressibility (1/GPa) = 0.03856608
#
# Stress axis : x y z
#
# Youngs Moduli (GPa) = 94.00452 80.51263 31.27329
#
# Poissons Ratio (x) = 0.17347 -0.09838
# Poissons Ratio (y) = 0.20254 0.28850
# Poissons Ratio (z) = -0.29571 0.74275
#
# Static dielectric constant tensor:
#      x y z
#    x 3.685420 0.000000 0.000000 
#    y 0.000000 3.514260 0.000000 
#    z 0.000000 0.000000 3.292060 
# 
# 
# High freq. dielectric constant tensor:
#      x y z
#    x 1.786460 0.000000 0.000000 
#    y 0.000000 1.749940 0.000000 
#    z 0.000000 0.000000 1.733650 
# 
# From -- ./inp_files/15941.got.cif
#   From: 2010.03.12/outbox.cif.g09.slc.cpg/sg53_8_cif.got.tgz:15941.got - 2010.04.16 14:36:59.
