data_PCOD8220397
_publ_section_title
;
Structure prediction by ZEFSAII (Michael W. Deem and Ramdas Pophale) SiO2 
 PCOD8220397
Probable space group: P M N A
;
_chemical_formula_sum "Si O2"
_cell_formula_units_Z 64
_cell_length_a 9.197380
_cell_length_b 12.470598
_cell_length_c 28.674081
_cell_angle_alpha 90.000000
_cell_angle_beta 90.000000
_cell_angle_gamma 90.000000
_cell_volume 3288.826155
_symmetry_space_group_name_H-M "P M N A"
_symmetry_group_IT_number 53
_symmetry_cell_setting 'orthorhombic'
loop_
_space_group_symop_operation_xyz
x,y,z
1/2-x,-y,1/2+z
x,-y,-z
1/2-x,y,1/2-z
-x,-y,-z
1/2+x,y,1/2-z
-x,y,z
1/2+x,-y,1/2+z
loop_
_atom_site_type_symbol
_atom_site_label
_atom_site_fract_x
_atom_site_fract_y
_atom_site_fract_z
Si Si1 0.329678 0.379414 0.111686
Si Si2 0.831561 0.983111 0.106986
Si Si3 0.333275 0.889492 0.298130
Si Si4 0.169402 0.832224 0.554388
Si Si5 0.168493 0.452664 0.949077
Si Si6 0.336412 0.341704 0.704447
Si Si7 0.332240 0.791485 0.461165
Si Si8 0.827616 0.576222 0.799682
O O1 0.500000 0.394309 0.121604
O O2 0.296776 0.281675 0.077430
O O3 0.267202 0.486255 0.088082
O O4 0.247243 0.352059 0.160411
O O5 0.786278 0.971775 0.161423
O O6 0.803210 0.869926 0.081840
O O7 0.000000 0.015967 0.101839
O O8 0.732164 0.075065 0.086555
O O9 0.250000 0.910868 0.250000
O O10 0.500000 0.906211 0.284677
O O11 0.314064 0.770502 0.322884
O O12 0.241217 0.837038 0.504023
O O13 0.000000 0.852725 0.548325
O O14 0.216456 0.328490 0.947326
O O15 0.000000 0.466354 0.934472
O O16 0.197767 0.500000 0.000000
O O17 0.250000 0.318021 0.750000
O O18 0.500000 0.358011 0.720776
O O19 0.291333 0.454670 0.681358
O O20 0.500000 0.789898 0.476671
O O21 0.750000 0.596885 0.750000
O O22 0.000000 0.600626 0.795715
#
# Coordination Sequence:
#
# PCOD8220397 Si02
#       8
#     8   8   8   8   8   8   8   8
#     4  11  24  39  57  83 119 159 198 242 293 347
#     4  10  22  38  60  86 114 150 195 241 287 345
#     4   9  18  34  55  81 113 147 183 229 281 336
#     4  11  24  41  59  81 115 154 195 245 294 342
#     4  10  20  36  61  90 117 151 192 235 288 355
#     4   8  15  28  49  75 107 142 176 218 273 330
#     4  10  21  38  62  89 118 150 191 239 291 351
#     4  10  20  35  58  85 117 155 196 243 291 348
#
# _framework density 19.459831000000001
#
# number of rings (size 3 to 8) (size 9 to 14) (size 15 to 20)
#    0.000    2.125    1.250    1.500    1.750    5.250 
#    0.000    0.625    0.000    1.500    0.000    0.000 
#    0.000    0.000    0.000    0.000    0.000    0.000 
#
# Total GULP energy -793169.810898 kJ/mol
# GULP energy per Si atom -12393.278295 kJ/mol
# Density = 1.941554 g / cm^3
# Si number density = 19.459831 Si / 1000 Ang^3
#
#
#
# Elastic Constant Matrix: (Units=GPa)
#
#
# Indices 1 2 3 4 5 6 
#
# 1 75.8106 26.5932 52.9056 0.0000 0.0000 0.0000
# 2 26.5932 54.6117 30.2878 0.0000 0.0000 0.0000
# 3 52.9056 30.2878 107.1310 0.0000 0.0000 0.0000
# 4 0.0000 0.0000 0.0000 14.8754 0.0000 0.0000
# 5 0.0000 0.0000 0.0000 0.0000 32.0392 0.0000
# 6 0.0000 0.0000 0.0000 0.0000 0.0000 26.6917
#
#
#
# Elastic Compliance Matrix: (Units=1/GPa)
#
#
# Indices 1 2 3 4 5 6 
#
# 1 0.021393 -0.005406 -0.009037 0.000000 0.000000 0.000000
# 2 -0.005406 0.023082 -0.003856 0.000000 0.000000 0.000000
# 3 -0.009037 -0.003856 0.014887 0.000000 0.000000 0.000000
# 4 0.000000 0.000000 0.000000 0.067225 0.000000 0.000000
# 5 0.000000 0.000000 0.000000 0.000000 0.031212 0.000000
# 6 0.000000 0.000000 0.000000 0.000000 0.000000 0.037465
#
#
# Mechanical properties :
#
#
# Convention : Reuss Voigt Hill
#
# Bulk Modulus (GPa) = 43.92586 50.79184 47.35885
# Shear Modulus (GPa) = 20.88121 23.23904 22.06013
#
# Velocity S-wave (km/s) = 3.27929 3.45948 3.37059
# Velocity P-wave (km/s) = 6.07946 6.48959 6.28787
#
# Compressibility (1/GPa) = 0.02276563
#
# Stress axis : x y z
#
# Youngs Moduli (GPa) = 46.74344 43.32368 67.17182
#
# Poissons Ratio (x) = 0.23420 0.60700
# Poissons Ratio (y) = 0.25269 0.25902
# Poissons Ratio (z) = 0.42240 0.16706
#
# Static dielectric constant tensor:
#      x y z
#    x 3.534070 0.000000 0.000000 
#    y 0.000000 3.683720 0.000000 
#    z 0.000000 0.000000 3.435950 
# 
# 
# High freq. dielectric constant tensor:
#      x y z
#    x 1.755070 0.000000 0.000000 
#    y 0.000000 1.753880 0.000000 
#    z 0.000000 0.000000 1.758300 
# 
# From -- ./inp_files/38262.got.cif
#   From: 2010.03.12/outbox.cif.g09.slc.cpg/sg53_20_cif.got.tgz:38262.got - 2010.04.16 14:36:59.
