data_PCOD8220006
_publ_section_title
;
Structure prediction by ZEFSAII (Michael W. Deem and Ramdas Pophale) SiO2 
 PCOD8220006
Probable space group: P M N A
;
_chemical_formula_sum "Si O2"
_cell_formula_units_Z 48
_cell_length_a 9.004515
_cell_length_b 14.769025
_cell_length_c 18.716265
_cell_angle_alpha 90.000000
_cell_angle_beta 90.000000
_cell_angle_gamma 90.000000
_cell_volume 2489.036912
_symmetry_space_group_name_H-M "P M N A"
_symmetry_group_IT_number 53
_symmetry_cell_setting 'orthorhombic'
loop_
_space_group_symop_operation_xyz
x,y,z
1/2-x,-y,1/2+z
x,-y,-z
1/2-x,y,1/2-z
-x,-y,-z
1/2+x,y,1/2-z
-x,y,z
1/2+x,-y,1/2+z
loop_
_atom_site_type_symbol
_atom_site_label
_atom_site_fract_x
_atom_site_fract_y
_atom_site_fract_z
Si Si1 0.327639 0.618082 0.425249
Si Si2 0.169573 0.777637 0.180885
Si Si3 0.328924 0.472477 0.173861
Si Si4 0.670870 0.681113 0.935003
Si Si5 0.324526 0.132030 0.445005
Si Si6 0.175397 0.059119 0.903997
O O1 0.500000 0.591636 0.432612
O O2 0.306486 0.714340 0.387226
O O3 0.245041 0.542922 0.379717
O O4 0.258015 0.626365 0.503702
O O5 0.250000 0.737455 0.250000
O O6 0.233414 0.877757 0.160855
O O7 0.000000 0.783260 0.203057
O O8 0.250000 0.473263 0.250000
O O9 0.500000 0.500018 0.185066
O O10 0.314354 0.373411 0.138987
O O11 0.500000 0.690145 0.958729
O O12 0.738607 0.779502 0.919115
O O13 0.500000 0.153113 0.444511
O O14 0.264072 0.101384 0.522261
O O15 0.283416 0.046701 0.393001
O O16 0.000000 0.068364 0.910101
#
# Coordination Sequence:
#
# PCOD8220006 Si02
#       6
#     8   8   8   8   8   8
#     4  11  22  38  62  87 112 149 195 238 284 347
#     4  10  20  34  52  80 115 149 186 229 282 341
#     4  11  25  43  60  82 115 153 190 236 291 344
#     4  11  23  38  58  87 120 148 185 242 293 336
#     4   9  16  32  59  82 105 144 189 232 277 332
#     4   8  15  31  54  79 108 143 186 231 274 331
#
# _framework density 19.284566999999999
#
# number of rings (size 3 to 8) (size 9 to 14) (size 15 to 20)
#    0.000    2.000    1.667    3.500    0.000    7.333 
#    0.000    3.333    0.000    4.000    0.000    0.000 
#    0.000    0.000    0.000    0.000    0.000    0.000 
#
# Total GULP energy -595042.490192 kJ/mol
# GULP energy per Si atom -12396.718546 kJ/mol
# Density = 1.924067 g / cm^3
# Si number density = 19.284567 Si / 1000 Ang^3
#
#
#
# Elastic Constant Matrix: (Units=GPa)
#
#
# Indices 1 2 3 4 5 6 
#
# 1 96.2008 50.8404 26.0322 0.0000 0.0000 0.0000
# 2 50.8404 114.5928 22.9916 0.0000 0.0000 0.0000
# 3 26.0322 22.9916 51.6875 0.0000 0.0000 0.0000
# 4 0.0000 0.0000 0.0000 12.2408 0.0000 0.0000
# 5 0.0000 0.0000 0.0000 0.0000 18.8363 0.0000
# 6 0.0000 0.0000 0.0000 0.0000 0.0000 26.7512
#
#
#
# Elastic Compliance Matrix: (Units=1/GPa)
#
#
# Indices 1 2 3 4 5 6 
#
# 1 0.014637 -0.005506 -0.004923 0.000000 0.000000 0.000000
# 2 -0.005506 0.011653 -0.002410 0.000000 0.000000 0.000000
# 3 -0.004923 -0.002410 0.022898 0.000000 0.000000 0.000000
# 4 0.000000 0.000000 0.000000 0.081694 0.000000 0.000000
# 5 0.000000 0.000000 0.000000 0.000000 0.053089 0.000000
# 6 0.000000 0.000000 0.000000 0.000000 0.000000 0.037381
#
#
# Mechanical properties :
#
#
# Convention : Reuss Voigt Hill
#
# Bulk Modulus (GPa) = 42.53470 51.35662 46.94566
# Shear Modulus (GPa) = 19.61806 22.40682 21.01244
#
# Velocity S-wave (km/s) = 3.19296 3.41237 3.30449
# Velocity P-wave (km/s) = 5.97474 6.49726 6.24147
#
# Compressibility (1/GPa) = 0.02351022
#
# Stress axis : x y z
#
# Youngs Moduli (GPa) = 68.32048 85.81459 43.67116
#
# Poissons Ratio (x) = 0.47251 0.21497
# Poissons Ratio (y) = 0.37618 0.10526
# Poissons Ratio (z) = 0.33631 0.20684
#
# Static dielectric constant tensor:
#      x y z
#    x 3.442020 0.000000 0.000000 
#    y 0.000000 3.861370 0.000000 
#    z 0.000000 0.000000 3.424440 
# 
# 
# High freq. dielectric constant tensor:
#      x y z
#    x 1.737280 0.000000 0.000000 
#    y 0.000000 1.766170 0.000000 
#    z 0.000000 0.000000 1.733110 
# 
# From -- ./inp_files/26276.got.cif
#   From: 2010.03.12/outbox.cif.g09.slc.cpg/sg53_14_cif.got.tgz:26276.got - 2010.04.16 14:36:59.
