data_PCOD8220699
_publ_section_title
;
Structure prediction by ZEFSAII (Michael W. Deem and Ramdas Pophale) SiO2 
 PCOD8220699
Probable space group: P M N A
;
_chemical_formula_sum "Si O2"
_cell_formula_units_Z 48
_cell_length_a 8.491683
_cell_length_b 9.955720
_cell_length_c 28.052634
_cell_angle_alpha 90.000000
_cell_angle_beta 90.000000
_cell_angle_gamma 90.000000
_cell_volume 2371.592633
_symmetry_space_group_name_H-M "P M N A"
_symmetry_group_IT_number 53
_symmetry_cell_setting 'orthorhombic'
loop_
_space_group_symop_operation_xyz
x,y,z
1/2-x,-y,1/2+z
x,-y,-z
1/2-x,y,1/2-z
-x,-y,-z
1/2+x,y,1/2-z
-x,y,z
1/2+x,-y,1/2+z
loop_
_atom_site_type_symbol
_atom_site_label
_atom_site_fract_x
_atom_site_fract_y
_atom_site_fract_z
Si Si1 0.681509 0.262029 0.895950
Si Si2 0.183065 0.011308 0.945350
Si Si3 0.315530 0.652049 0.300700
Si Si4 0.818365 0.511401 0.944975
Si Si5 0.184709 0.340034 0.199243
Si Si6 0.817699 0.761099 0.604273
O O1 0.500000 0.222062 0.900739
O O2 0.731615 0.257820 0.840677
O O3 0.709187 0.411371 0.915432
O O4 0.786311 0.161413 0.927091
O O5 0.283965 0.911652 0.912708
O O6 0.000000 0.975372 0.940630
O O7 0.238771 0.000000 0.000000
O O8 0.250000 0.700239 0.250000
O O9 0.500000 0.678092 0.302792
O O10 0.274511 0.496030 0.309492
O O11 0.785696 0.662166 0.928155
O O12 0.000000 0.475484 0.934989
O O13 0.775149 0.500000 0.000000
O O14 0.250000 0.291896 0.250000
O O15 0.270722 0.251626 0.159475
O O16 0.000000 0.313580 0.196803
O O17 0.000000 0.726787 0.597649
#
# Coordination Sequence:
#
# PCOD8220699 Si02
#       6
#     8   8   8   8   8   8
#     4  12  24  39  62  92 125 160 204 255 309 365
#     4  11  25  45  66  87 120 167 211 253 309 373
#     4  10  20  36  61  91 126 163 203 250 305 365
#     4  11  23  39  60  87 120 159 205 255 307 363
#     4  10  20  36  61  91 126 163 203 250 305 365
#     4  12  24  39  62  92 125 160 204 255 309 365
#
# _framework density 20.239563
#
# number of rings (size 3 to 8) (size 9 to 14) (size 15 to 20)
#    0.000    1.000    1.667    6.000    0.000    8.000 
#    0.000    0.833    0.000    0.000    0.000    0.000 
#    0.000    0.000    0.000    0.000    0.000    0.000 
#
# Total GULP energy -595628.244861 kJ/mol
# GULP energy per Si atom -12408.921768 kJ/mol
# Density = 2.019350 g / cm^3
# Si number density = 20.239563 Si / 1000 Ang^3
#
#
#
# Elastic Constant Matrix: (Units=GPa)
#
#
# Indices 1 2 3 4 5 6 
#
# 1 74.9566 15.5098 56.2274 0.0000 0.0000 0.0000
# 2 15.5098 56.0066 27.4928 0.0000 0.0000 0.0000
# 3 56.2274 27.4928 145.0833 0.0000 0.0000 0.0000
# 4 0.0000 0.0000 0.0000 31.6417 0.0000 0.0000
# 5 0.0000 0.0000 0.0000 0.0000 32.3199 0.0000
# 6 0.0000 0.0000 0.0000 0.0000 0.0000 30.3504
#
#
#
# Elastic Compliance Matrix: (Units=1/GPa)
#
#
# Indices 1 2 3 4 5 6 
#
# 1 0.018975 -0.001814 -0.007010 0.000000 0.000000 0.000000
# 2 -0.001814 0.019860 -0.003060 0.000000 0.000000 0.000000
# 3 -0.007010 -0.003060 0.010189 0.000000 0.000000 0.000000
# 4 0.000000 0.000000 0.000000 0.031604 0.000000 0.000000
# 5 0.000000 0.000000 0.000000 0.000000 0.030941 0.000000
# 6 0.000000 0.000000 0.000000 0.000000 0.000000 0.032948
#
#
# Mechanical properties :
#
#
# Convention : Reuss Voigt Hill
#
# Bulk Modulus (GPa) = 39.59528 52.72295 46.15912
# Shear Modulus (GPa) = 28.29600 30.65018 29.47309
#
# Velocity S-wave (km/s) = 3.74311 3.89571 3.82017
# Velocity P-wave (km/s) = 6.18765 6.80745 6.50494
#
# Compressibility (1/GPa) = 0.02525554
#
# Stress axis : x y z
#
# Youngs Moduli (GPa) = 52.70146 50.35350 98.14193
#
# Poissons Ratio (x) = 0.09132 0.68798
# Poissons Ratio (y) = 0.09557 0.30036
# Poissons Ratio (z) = 0.36944 0.15411
#
# Static dielectric constant tensor:
#      x y z
#    x 3.626920 0.000000 0.000000 
#    y 0.000000 3.362580 0.000000 
#    z 0.000000 0.000000 3.879030 
# 
# 
# High freq. dielectric constant tensor:
#      x y z
#    x 1.801680 0.000000 0.000000 
#    y 0.000000 1.768230 0.000000 
#    z 0.000000 0.000000 1.808560 
# 
# From -- ./inp_files/37763.got.cif
#   From: 2010.03.12/outbox.cif.g09.slc.cpg/sg53_19_cif.got.tgz:37763.got - 2010.04.16 14:36:59.
