data_PCOD8220619
_publ_section_title
;
Structure prediction by ZEFSAII (Michael W. Deem and Ramdas Pophale) SiO2 
 PCOD8220619
Probable space group: P M N A
;
_chemical_formula_sum "Si O2"
_cell_formula_units_Z 40
_cell_length_a 8.834846
_cell_length_b 14.434653
_cell_length_c 15.629724
_cell_angle_alpha 90.000000
_cell_angle_beta 90.000000
_cell_angle_gamma 90.000000
_cell_volume 1993.226447
_symmetry_space_group_name_H-M "P M N A"
_symmetry_group_IT_number 53
_symmetry_cell_setting 'orthorhombic'
loop_
_space_group_symop_operation_xyz
x,y,z
1/2-x,-y,1/2+z
x,-y,-z
1/2-x,y,1/2-z
-x,-y,-z
1/2+x,y,1/2-z
-x,y,z
1/2+x,-y,1/2+z
loop_
_atom_site_type_symbol
_atom_site_label
_atom_site_fract_x
_atom_site_fract_y
_atom_site_fract_z
Si Si1 0.821382 0.211813 0.336247
Si Si2 0.179422 0.605757 0.400196
Si Si3 0.178788 0.401941 0.405785
Si Si4 0.823532 0.892000 0.494161
Si Si5 0.178749 0.212818 0.836989
O O1 0.750000 0.170036 0.250000
O O2 0.762557 0.317991 0.346782
O O3 0.766064 0.152663 0.417298
O O4 0.000000 0.206261 0.327660
O O5 0.229076 0.502263 0.369203
O O6 0.235686 0.615725 0.497854
O O7 0.267934 0.680800 0.344743
O O8 0.000000 0.622283 0.390514
O O9 0.000000 0.400969 0.411527
O O10 0.732121 0.848800 0.416184
O O11 0.000000 0.870371 0.479223
O O12 0.789394 0.000000 0.500000
O O13 0.250000 0.171282 0.750000
O O14 0.000000 0.208596 0.830293
#
# Coordination Sequence:
#
# PCOD8220619 Si02
#       5
#     8   8   8   8   8
#     4  10  20  36  58  87 120 152 190 234 290 354
#     4   9  16  33  59  85 116 155 200 241 291 349
#     4   8  15  30  57  85 115 157 195 238 291 347
#     4  10  22  43  68  89 114 151 196 249 306 359
#     4  12  25  40  61  89 122 159 200 248 298 353
#
# _framework density 20.067965000000001
#
# number of rings (size 3 to 8) (size 9 to 14) (size 15 to 20)
#    0.000    2.200    2.000    3.000    0.000    2.800 
#    0.000    7.000    0.000    0.000    0.000    0.000 
#    0.000    0.000    0.000    0.000    0.000    0.000 
#
# Total GULP energy -495907.334846 kJ/mol
# GULP energy per Si atom -12397.683371 kJ/mol
# Density = 2.002229 g / cm^3
# Si number density = 20.067965 Si / 1000 Ang^3
#
#
#
# Elastic Constant Matrix: (Units=GPa)
#
#
# Indices 1 2 3 4 5 6 
#
# 1 83.4561 46.3067 58.5902 0.0000 0.0000 0.0000
# 2 46.3067 115.3101 65.8529 0.0000 0.0000 0.0000
# 3 58.5902 65.8529 154.3952 0.0000 0.0000 0.0000
# 4 0.0000 0.0000 0.0000 9.3221 0.0000 0.0000
# 5 0.0000 0.0000 0.0000 0.0000 31.5818 0.0000
# 6 0.0000 0.0000 0.0000 0.0000 0.0000 7.6294
#
#
#
# Elastic Compliance Matrix: (Units=1/GPa)
#
#
# Indices 1 2 3 4 5 6 
#
# 1 0.017853 -0.004363 -0.004914 0.000000 0.000000 0.000000
# 2 -0.004363 0.012531 -0.003689 0.000000 0.000000 0.000000
# 3 -0.004914 -0.003689 0.009915 0.000000 0.000000 0.000000
# 4 0.000000 0.000000 0.000000 0.107272 0.000000 0.000000
# 5 0.000000 0.000000 0.000000 0.000000 0.031664 0.000000
# 6 0.000000 0.000000 0.000000 0.000000 0.000000 0.131071
#
#
# Mechanical properties :
#
#
# Convention : Reuss Voigt Hill
#
# Bulk Modulus (GPa) = 69.60376 77.18453 73.39415
# Shear Modulus (GPa) = 14.66154 21.86743 18.26448
#
# Velocity S-wave (km/s) = 2.70588 3.30459 3.02011
# Velocity P-wave (km/s) = 6.67246 7.28735 6.98667
#
# Compressibility (1/GPa) = 0.01436704
#
# Stress axis : x y z
#
# Youngs Moduli (GPa) = 56.01242 79.80019 100.85606
#
# Poissons Ratio (x) = 0.34819 0.49560
# Poissons Ratio (y) = 0.24440 0.37207
# Poissons Ratio (z) = 0.27524 0.29439
#
# Static dielectric constant tensor:
#      x y z
#    x 3.237210 0.000000 0.000000 
#    y 0.000000 3.942490 0.000000 
#    z 0.000000 0.000000 3.700460 
# 
# 
# High freq. dielectric constant tensor:
#      x y z
#    x 1.748470 0.000000 0.000000 
#    y 0.000000 1.789130 0.000000 
#    z 0.000000 0.000000 1.786130 
# 
# From -- ./inp_files/19879.got.cif
#   From: 2010.03.12/outbox.cif.g09.slc.cpg/sg53_10_cif.got.tgz:19879.got - 2010.04.16 14:36:59.
