data_PCOD8220346
_publ_section_title
;
Structure prediction by ZEFSAII (Michael W. Deem and Ramdas Pophale) SiO2 
 PCOD8220346
Probable space group: P M N A
;
_chemical_formula_sum "Si O2"
_cell_formula_units_Z 48
_cell_length_a 9.417238
_cell_length_b 9.054355
_cell_length_c 30.924289
_cell_angle_alpha 90.000000
_cell_angle_beta 90.000000
_cell_angle_gamma 90.000000
_cell_volume 2636.821844
_symmetry_space_group_name_H-M "P M N A"
_symmetry_group_IT_number 53
_symmetry_cell_setting 'orthorhombic'
loop_
_space_group_symop_operation_xyz
x,y,z
1/2-x,-y,1/2+z
x,-y,-z
1/2-x,y,1/2-z
-x,-y,-z
1/2+x,y,1/2-z
-x,y,z
1/2+x,-y,1/2+z
loop_
_atom_site_type_symbol
_atom_site_label
_atom_site_fract_x
_atom_site_fract_y
_atom_site_fract_z
Si Si1 0.657159 0.082547 0.211463
Si Si2 0.331291 0.096359 0.117321
Si Si3 0.843994 0.433365 0.288555
Si Si4 0.166426 0.599830 0.041539
Si Si5 0.831081 0.571298 0.614408
Si Si6 0.837739 0.891891 0.459864
O O1 0.750000 0.012667 0.250000
O O2 0.500000 0.014208 0.215679
O O3 0.725437 0.044550 0.164511
O O4 0.649656 0.257942 0.215681
O O5 0.500000 0.105213 0.120131
O O6 0.278633 0.261097 0.105289
O O7 0.279737 0.979422 0.081982
O O8 0.750000 0.502421 0.250000
O O9 0.788917 0.474917 0.336553
O O10 0.000000 0.500863 0.282217
O O11 0.245561 0.535111 0.083009
O O12 0.232934 0.758037 0.030944
O O13 0.000000 0.615347 0.051556
O O14 0.195215 0.500000 0.000000
O O15 0.000000 0.554519 0.606819
O O16 0.000000 0.836713 0.452781
O O17 0.831157 0.000000 0.500000
#
# Coordination Sequence:
#
# PCOD8220346 Si02
#       6
#     8   8   8   8   8   8
#     4   8  13  23  40  65  98 129 157 193 236 281
#     4   8  15  29  50  76 102 126 159 206 249 283
#     4   8  14  24  42  70 101 131 162 199 242 286
#     4  11  24  38  51  72 103 134 163 202 255 307
#     4   9  17  32  54  77 101 132 171 209 244 289
#     4  10  20  35  57  79  96 123 165 206 246 298
#
# _framework density 18.203731999999999
#
# number of rings (size 3 to 8) (size 9 to 14) (size 15 to 20)
#    0.000    3.000    0.000    3.500    0.000    3.667 
#    0.000    4.167    0.000    1.000    0.000    2.333 
#    0.000    0.000    0.000    0.000    0.000    0.000 
#
# Total GULP energy -594934.535054 kJ/mol
# GULP energy per Si atom -12394.469480 kJ/mol
# Density = 1.816230 g / cm^3
# Si number density = 18.203732 Si / 1000 Ang^3
#
#
#
# Elastic Constant Matrix: (Units=GPa)
#
#
# Indices 1 2 3 4 5 6 
#
# 1 78.3445 37.2904 59.2293 0.0000 0.0000 0.0000
# 2 37.2904 63.7174 39.4315 0.0000 0.0000 0.0000
# 3 59.2293 39.4315 136.0474 0.0000 0.0000 0.0000
# 4 0.0000 0.0000 0.0000 24.9654 0.0000 0.0000
# 5 0.0000 0.0000 0.0000 0.0000 30.5028 0.0000
# 6 0.0000 0.0000 0.0000 0.0000 0.0000 17.8073
#
#
#
# Elastic Compliance Matrix: (Units=1/GPa)
#
#
# Indices 1 2 3 4 5 6 
#
# 1 0.022315 -0.008588 -0.007226 0.000000 0.000000 0.000000
# 2 -0.008588 0.022430 -0.002762 0.000000 0.000000 0.000000
# 3 -0.007226 -0.002762 0.011297 0.000000 0.000000 0.000000
# 4 0.000000 0.000000 0.000000 0.040055 0.000000 0.000000
# 5 0.000000 0.000000 0.000000 0.000000 0.032784 0.000000
# 6 0.000000 0.000000 0.000000 0.000000 0.000000 0.056157
#
#
# Mechanical properties :
#
#
# Convention : Reuss Voigt Hill
#
# Bulk Modulus (GPa) = 52.93960 61.11242 57.02601
# Shear Modulus (GPa) = 21.88330 24.13232 23.00781
#
# Velocity S-wave (km/s) = 3.47094 3.64494 3.55900
# Velocity P-wave (km/s) = 6.72370 7.16647 6.94861
#
# Compressibility (1/GPa) = 0.01888945
#
# Stress axis : x y z
#
# Youngs Moduli (GPa) = 44.81389 44.58383 88.52126
#
# Poissons Ratio (x) = 0.38288 0.63963
# Poissons Ratio (y) = 0.38486 0.24451
# Poissons Ratio (z) = 0.32381 0.12315
#
# Static dielectric constant tensor:
#      x y z
#    x 3.350320 0.000000 0.000000 
#    y 0.000000 3.020210 0.000000 
#    z 0.000000 0.000000 3.720690 
# 
# 
# High freq. dielectric constant tensor:
#      x y z
#    x 1.680770 0.000000 0.000000 
#    y 0.000000 1.667630 0.000000 
#    z 0.000000 0.000000 1.725790 
# 
# From -- ./inp_files/37673.got.cif
#   From: 2010.03.12/outbox.cif.g09.slc.cpg/sg53_19_cif.got.tgz:37673.got - 2010.04.16 14:36:59.
