data_PCOD8220865
_publ_section_title
;
Structure prediction by ZEFSAII (Michael W. Deem and Ramdas Pophale) SiO2 
 PCOD8220865
Probable space group: P M N A
;
_chemical_formula_sum "Si O2"
_cell_formula_units_Z 56
_cell_length_a 8.932243
_cell_length_b 20.871442
_cell_length_c 15.350356
_cell_angle_alpha 90.000000
_cell_angle_beta 90.000000
_cell_angle_gamma 90.000000
_cell_volume 2861.748321
_symmetry_space_group_name_H-M "P M N A"
_symmetry_group_IT_number 53
_symmetry_cell_setting 'orthorhombic'
loop_
_space_group_symop_operation_xyz
x,y,z
1/2-x,-y,1/2+z
x,-y,-z
1/2-x,y,1/2-z
-x,-y,-z
1/2+x,y,1/2-z
-x,y,z
1/2+x,-y,1/2+z
loop_
_atom_site_type_symbol
_atom_site_label
_atom_site_fract_x
_atom_site_fract_y
_atom_site_fract_z
Si Si1 0.823206 0.156325 0.489411
Si Si2 0.823964 0.084343 0.662141
Si Si3 0.176087 0.378398 0.162998
Si Si4 0.322955 0.289881 0.496934
Si Si5 0.175901 0.060839 0.337863
Si Si6 0.676502 0.355314 0.840820
Si Si7 0.174402 0.497271 0.600540
O O1 0.773733 0.129268 0.583025
O O2 0.730412 0.219802 0.469278
O O3 0.773634 0.104386 0.418155
O O4 0.000000 0.170397 0.485605
O O5 0.750000 0.111554 0.750000
O O6 0.000000 0.086137 0.674457
O O7 0.769676 0.011721 0.643414
O O8 0.250000 0.348801 0.250000
O O9 0.228326 0.337662 0.079733
O O10 0.229119 0.451417 0.152896
O O11 0.000000 0.376597 0.174879
O O12 0.500000 0.291741 0.510879
O O13 0.241756 0.309334 0.585547
O O14 0.250000 0.087861 0.250000
O O15 0.000000 0.063299 0.325018
O O16 0.750000 0.335044 0.750000
O O17 0.500000 0.344618 0.836058
O O18 0.718318 0.428355 0.862026
O O19 0.220687 0.500000 0.500000
O O20 0.000000 0.513107 0.613094
#
# Coordination Sequence:
#
# PCOD8220865 Si02
#       7
#     8   8   8   8   8   8   8
#     4  10  21  37  58  81 111 153 192 229 281 340
#     4   9  18  34  57  85 114 145 184 229 280 336
#     4  11  24  40  61  86 115 152 193 239 290 344
#     4  11  25  42  58  82 115 153 197 242 285 336
#     4   9  18  34  57  85 115 146 184 231 281 337
#     4  11  23  40  63  88 117 151 190 235 287 344
#     4  10  20  37  63  92 119 148 184 233 290 345
#
# _framework density 19.568456999999999
#
# number of rings (size 3 to 8) (size 9 to 14) (size 15 to 20)
#    0.000    1.857    1.429    2.143    0.000    8.286 
#    0.000    4.286    0.000    4.286    0.000    0.000 
#    0.000    0.000    0.000    0.000    0.000    0.000 
#
# Total GULP energy -694690.602469 kJ/mol
# GULP energy per Si atom -12405.189330 kJ/mol
# Density = 1.952392 g / cm^3
# Si number density = 19.568457 Si / 1000 Ang^3
#
#
#
# Elastic Constant Matrix: (Units=GPa)
#
#
# Indices 1 2 3 4 5 6 
#
# 1 48.4475 22.8652 30.9595 0.0000 0.0000 0.0000
# 2 22.8652 67.0361 19.0361 0.0000 0.0000 0.0000
# 3 30.9595 19.0361 110.4091 0.0000 0.0000 0.0000
# 4 0.0000 0.0000 0.0000 11.6713 0.0000 0.0000
# 5 0.0000 0.0000 0.0000 0.0000 35.3438 0.0000
# 6 0.0000 0.0000 0.0000 0.0000 0.0000 29.1860
#
#
#
# Elastic Compliance Matrix: (Units=1/GPa)
#
#
# Indices 1 2 3 4 5 6 
#
# 1 0.028614 -0.007867 -0.006667 0.000000 0.000000 0.000000
# 2 -0.007867 0.017848 -0.000871 0.000000 0.000000 0.000000
# 3 -0.006667 -0.000871 0.011077 0.000000 0.000000 0.000000
# 4 0.000000 0.000000 0.000000 0.085680 0.000000 0.000000
# 5 0.000000 0.000000 0.000000 0.000000 0.028293 0.000000
# 6 0.000000 0.000000 0.000000 0.000000 0.000000 0.034263
#
#
# Mechanical properties :
#
#
# Convention : Reuss Voigt Hill
#
# Bulk Modulus (GPa) = 37.41317 41.29049 39.35183
# Shear Modulus (GPa) = 20.36691 25.44235 22.90463
#
# Velocity S-wave (km/s) = 3.22965 3.60970 3.42495
# Velocity P-wave (km/s) = 5.75049 6.20642 5.98280
#
# Compressibility (1/GPa) = 0.02672855
#
# Stress axis : x y z
#
# Youngs Moduli (GPa) = 34.94754 56.02862 90.27687
#
# Poissons Ratio (x) = 0.44076 0.60191
# Poissons Ratio (y) = 0.27492 0.07867
# Poissons Ratio (z) = 0.23301 0.04882
#
# Static dielectric constant tensor:
#      x y z
#    x 3.468790 0.000000 0.000000 
#    y 0.000000 3.546760 0.000000 
#    z 0.000000 0.000000 3.755490 
# 
# 
# High freq. dielectric constant tensor:
#      x y z
#    x 1.757250 0.000000 0.000000 
#    y 0.000000 1.757960 0.000000 
#    z 0.000000 0.000000 1.777770 
# 
# From -- ./inp_files/20499.got.cif
#   From: 2010.03.12/outbox.cif.g09.slc.cpg/sg53_11_cif.got.tgz:20499.got - 2010.04.16 14:36:59.
