data_PCOD8220483
_publ_section_title
;
Structure prediction by ZEFSAII (Michael W. Deem and Ramdas Pophale) SiO2 
 PCOD8220483
Probable space group: P M N A
;
_chemical_formula_sum "Si O2"
_cell_formula_units_Z 48
_cell_length_a 8.752900
_cell_length_b 9.096932
_cell_length_c 30.883676
_cell_angle_alpha 90.000000
_cell_angle_beta 90.000000
_cell_angle_gamma 90.000000
_cell_volume 2459.098375
_symmetry_space_group_name_H-M "P M N A"
_symmetry_group_IT_number 53
_symmetry_cell_setting 'orthorhombic'
loop_
_space_group_symop_operation_xyz
x,y,z
1/2-x,-y,1/2+z
x,-y,-z
1/2-x,y,1/2-z
-x,-y,-z
1/2+x,y,1/2-z
-x,y,z
1/2+x,-y,1/2+z
loop_
_atom_site_type_symbol
_atom_site_label
_atom_site_fract_x
_atom_site_fract_y
_atom_site_fract_z
Si Si1 0.820609 0.413793 0.624530
Si Si2 0.320181 0.911943 0.705509
Si Si3 0.180660 0.421693 0.204854
Si Si4 0.180716 0.912380 0.959273
Si Si5 0.178569 0.419624 0.044981
Si Si6 0.819290 0.902445 0.123501
O O1 0.738337 0.475877 0.666701
O O2 0.773571 0.503386 0.582344
O O3 0.771656 0.246763 0.617877
O O4 0.000000 0.424989 0.631421
O O5 0.250000 0.972367 0.750000
O O6 0.500000 0.914997 0.709992
O O7 0.264710 0.745652 0.695943
O O8 0.265234 0.018116 0.667318
O O9 0.250000 0.478962 0.250000
O O10 0.000000 0.433548 0.207502
O O11 0.241504 0.745980 0.959113
O O12 0.000000 0.908241 0.963997
O O13 0.230634 0.991615 0.915389
O O14 0.252102 0.000000 0.000000
O O15 0.000000 0.424492 0.057538
O O16 0.209895 0.500000 0.000000
O O17 0.000000 0.870886 0.122907
#
# Coordination Sequence:
#
# PCOD8220483 Si02
#       6
#     8   8   8   8   8   8
#     4  12  25  38  54  81 117 155 193 233 279 331
#     4   9  19  35  58  84 110 142 182 230 280 333
#     4  10  20  38  62  87 114 146 187 233 284 339
#     4   9  17  32  58  88 111 136 179 231 281 336
#     4  10  20  37  63  89 113 146 187 232 284 339
#     4  10  20  36  56  79 110 147 187 232 279 327
#
# _framework density 19.519348999999998
#
# number of rings (size 3 to 8) (size 9 to 14) (size 15 to 20)
#    0.000    2.000    0.000    4.000    0.000    7.667 
#    0.000    4.167    0.000    2.000    0.000    0.000 
#    0.000    0.000    0.000    0.000    0.000    0.000 
#
# Total GULP energy -595365.705278 kJ/mol
# GULP energy per Si atom -12403.452193 kJ/mol
# Density = 1.947492 g / cm^3
# Si number density = 19.519349 Si / 1000 Ang^3
#
#
#
# Elastic Constant Matrix: (Units=GPa)
#
#
# Indices 1 2 3 4 5 6 
#
# 1 53.5714 30.3475 34.9969 0.0000 0.0000 0.0000
# 2 30.3475 146.0540 75.1902 0.0000 0.0000 0.0000
# 3 34.9969 75.1902 145.0569 0.0000 0.0000 0.0000
# 4 0.0000 0.0000 0.0000 34.1922 0.0000 0.0000
# 5 0.0000 0.0000 0.0000 0.0000 30.6449 0.0000
# 6 0.0000 0.0000 0.0000 0.0000 0.0000 29.2235
#
#
#
# Elastic Compliance Matrix: (Units=1/GPa)
#
#
# Indices 1 2 3 4 5 6 
#
# 1 0.022864 -0.002606 -0.004165 0.000000 0.000000 0.000000
# 2 -0.002606 0.009636 -0.004366 0.000000 0.000000 0.000000
# 3 -0.004165 -0.004366 0.010162 0.000000 0.000000 0.000000
# 4 0.000000 0.000000 0.000000 0.029246 0.000000 0.000000
# 5 0.000000 0.000000 0.000000 0.000000 0.032632 0.000000
# 6 0.000000 0.000000 0.000000 0.000000 0.000000 0.034219
#
#
# Mechanical properties :
#
#
# Convention : Reuss Voigt Hill
#
# Bulk Modulus (GPa) = 49.05148 69.52796 59.28972
# Shear Modulus (GPa) = 29.79197 32.42197 31.10697
#
# Velocity S-wave (km/s) = 3.91100 4.07998 3.99638
# Velocity P-wave (km/s) = 6.75121 7.60870 7.19274
#
# Compressibility (1/GPa) = 0.02038674
#
# Stress axis : x y z
#
# Youngs Moduli (GPa) = 43.73640 103.77730 98.40714
#
# Poissons Ratio (x) = 0.27049 0.40989
# Poissons Ratio (y) = 0.11400 0.42964
# Poissons Ratio (z) = 0.18217 0.45309
#
# Static dielectric constant tensor:
#      x y z
#    x 3.300570 0.000000 0.000000 
#    y 0.000000 3.766340 0.000000 
#    z 0.000000 0.000000 3.768120 
# 
# 
# High freq. dielectric constant tensor:
#      x y z
#    x 1.733690 0.000000 0.000000 
#    y 0.000000 1.770220 0.000000 
#    z 0.000000 0.000000 1.778250 
# 
# From -- ./inp_files/37780.got.cif
#   From: 2010.03.12/outbox.cif.g09.slc.cpg/sg53_19_cif.got.tgz:37780.got - 2010.04.16 14:36:59.
