data_PCOD8220679
_publ_section_title
;
Structure prediction by ZEFSAII (Michael W. Deem and Ramdas Pophale) SiO2 
 PCOD8220679
Probable space group: P M N A
;
_chemical_formula_sum "Si O2"
_cell_formula_units_Z 64
_cell_length_a 8.781058
_cell_length_b 23.638744
_cell_length_c 15.442744
_cell_angle_alpha 90.000000
_cell_angle_beta 90.000000
_cell_angle_gamma 90.000000
_cell_volume 3205.499513
_symmetry_space_group_name_H-M "P M N A"
_symmetry_group_IT_number 53
_symmetry_cell_setting 'orthorhombic'
loop_
_space_group_symop_operation_xyz
x,y,z
1/2-x,-y,1/2+z
x,-y,-z
1/2-x,y,1/2-z
-x,-y,-z
1/2+x,y,1/2-z
-x,y,z
1/2+x,-y,1/2+z
loop_
_atom_site_type_symbol
_atom_site_label
_atom_site_fract_x
_atom_site_fract_y
_atom_site_fract_z
Si Si1 0.319805 0.060140 0.895763
Si Si2 0.324601 0.371346 0.512106
Si Si3 0.179952 0.936120 0.592097
Si Si4 0.821148 0.829488 0.163948
Si Si5 0.179776 0.181011 0.338602
Si Si6 0.176960 0.239946 0.001629
Si Si7 0.679295 0.564061 0.660441
Si Si8 0.820110 0.556856 0.340285
O O1 0.500000 0.070049 0.886547
O O2 0.230988 0.105212 0.838060
O O3 0.272098 0.996416 0.865855
O O4 0.261548 0.068310 0.993886
O O5 0.500000 0.386028 0.532672
O O6 0.292733 0.305146 0.517594
O O7 0.281124 0.392456 0.416059
O O8 0.218659 0.400224 0.583170
O O9 0.244917 0.882713 0.645274
O O10 0.000000 0.933288 0.588234
O O11 0.750000 0.801296 0.250000
O O12 0.761632 0.795610 0.080271
O O13 0.000000 0.825267 0.171156
O O14 0.250000 0.204424 0.250000
O O15 0.227456 0.222561 0.415007
O O16 0.000000 0.180982 0.330849
O O17 0.000000 0.227602 0.019522
O O18 0.750000 0.587696 0.750000
O O19 0.500000 0.556279 0.673097
O O20 0.751497 0.503981 0.635772
O O21 0.750000 0.579306 0.250000
O O22 0.000000 0.551694 0.329995
#
# Coordination Sequence:
#
# PCOD8220679 Si02
#       8
#     8   8   8   8   8   8   8   8
#     4   9  16  33  58  83 112 144 183 228 285 347
#     4  10  22  40  61  85 117 155 195 241 290 338
#     4   8  16  31  56  84 112 146 180 227 285 344
#     4  11  23  38  58  83 112 147 189 237 289 345
#     4  11  22  38  60  85 113 150 192 236 289 346
#     4  10  23  43  61  82 114 151 195 245 288 334
#     4  10  20  36  60  88 121 157 191 233 285 338
#     4  11  22  37  60  90 124 157 192 235 283 338
#
# _framework density 19.965686999999999
#
# number of rings (size 3 to 8) (size 9 to 14) (size 15 to 20)
#    0.000    2.000    1.250    4.125    0.000    5.000 
#    0.000    6.250    0.000    0.000    0.000    0.000 
#    0.000    0.000    0.000    0.000    0.000    0.000 
#
# Total GULP energy -793658.749193 kJ/mol
# GULP energy per Si atom -12400.917956 kJ/mol
# Density = 1.992024 g / cm^3
# Si number density = 19.965687 Si / 1000 Ang^3
#
#
#
# Elastic Constant Matrix: (Units=GPa)
#
#
# Indices 1 2 3 4 5 6 
#
# 1 81.6673 29.4099 42.8828 0.0000 0.0000 0.0000
# 2 29.4099 76.2585 37.4454 0.0000 0.0000 0.0000
# 3 42.8828 37.4454 116.6755 0.0000 0.0000 0.0000
# 4 0.0000 0.0000 0.0000 11.2259 0.0000 0.0000
# 5 0.0000 0.0000 0.0000 0.0000 32.6280 0.0000
# 6 0.0000 0.0000 0.0000 0.0000 0.0000 22.0194
#
#
#
# Elastic Compliance Matrix: (Units=1/GPa)
#
#
# Indices 1 2 3 4 5 6 
#
# 1 0.016104 -0.003923 -0.004660 0.000000 0.000000 0.000000
# 2 -0.003923 0.016522 -0.003861 0.000000 0.000000 0.000000
# 3 -0.004660 -0.003861 0.011523 0.000000 0.000000 0.000000
# 4 0.000000 0.000000 0.000000 0.089080 0.000000 0.000000
# 5 0.000000 0.000000 0.000000 0.000000 0.030648 0.000000
# 6 0.000000 0.000000 0.000000 0.000000 0.000000 0.045415
#
#
# Mechanical properties :
#
#
# Convention : Reuss Voigt Hill
#
# Bulk Modulus (GPa) = 51.91577 54.89750 53.40664
# Shear Modulus (GPa) = 20.78143 24.16553 22.47348
#
# Velocity S-wave (km/s) = 3.22973 3.48279 3.35864
# Velocity P-wave (km/s) = 6.32196 6.61277 6.46900
#
# Compressibility (1/GPa) = 0.01926197
#
# Stress axis : x y z
#
# Youngs Moduli (GPa) = 62.09497 60.52593 86.78602
#
# Poissons Ratio (x) = 0.23742 0.40443
# Poissons Ratio (y) = 0.24357 0.33506
# Poissons Ratio (z) = 0.28937 0.23368
#
# Static dielectric constant tensor:
#      x y z
#    x 3.450370 0.000000 0.000000 
#    y 0.000000 3.683630 0.000000 
#    z 0.000000 0.000000 7.731960 
# 
# 
# High freq. dielectric constant tensor:
#      x y z
#    x 1.767020 0.000000 0.000000 
#    y 0.000000 1.775210 0.000000 
#    z 0.000000 0.000000 1.786320 
# 
# From -- ./inp_files/20956.got.cif
#   From: 2010.03.12/outbox.cif.g09.slc.cpg/sg53_11_cif.got.tgz:20956.got - 2010.04.16 14:36:59.
