data_PCOD8220376
_publ_section_title
;
Structure prediction by ZEFSAII (Michael W. Deem and Ramdas Pophale) SiO2 
 PCOD8220376
Probable space group: P M N A
;
_chemical_formula_sum "Si O2"
_cell_formula_units_Z 64
_cell_length_a 17.504377
_cell_length_b 20.445184
_cell_length_c 8.914006
_cell_angle_alpha 90.000000
_cell_angle_beta 90.000000
_cell_angle_gamma 90.000000
_cell_volume 3190.146326
_symmetry_space_group_name_H-M "P M N A"
_symmetry_group_IT_number 53
_symmetry_cell_setting 'orthorhombic'
loop_
_space_group_symop_operation_xyz
x,y,z
1/2-x,-y,1/2+z
x,-y,-z
1/2-x,y,1/2-z
-x,-y,-z
1/2+x,y,1/2-z
-x,y,z
1/2+x,-y,1/2+z
loop_
_atom_site_type_symbol
_atom_site_label
_atom_site_fract_x
_atom_site_fract_y
_atom_site_fract_z
Si Si1 0.087945 0.119531 0.676477
Si Si2 0.588221 0.885912 0.830295
Si Si3 0.590688 0.368870 0.331284
Si Si4 0.590896 0.499270 0.830967
Si Si5 0.909895 0.370491 0.828167
Si Si6 0.168918 0.247503 0.323234
Si Si7 0.830518 0.252576 0.675016
Si Si8 0.169638 0.003312 0.823669
O O1 0.102779 0.098690 0.504917
O O2 0.137740 0.181971 0.723007
O O3 0.109098 0.059357 0.782917
O O4 0.000000 0.138048 0.701423
O O5 0.500000 0.895846 0.786979
O O6 0.611990 0.812317 0.790392
O O7 0.640100 0.933843 0.733490
O O8 0.500000 0.359979 0.318210
O O9 0.618174 0.436842 0.258722
O O10 0.620254 0.366104 0.501941
O O11 0.631723 0.311717 0.243163
O O12 0.500000 0.496340 0.833535
O O13 0.624945 0.435529 0.748068
O O14 0.623396 0.500000 0.000000
O O15 0.888429 0.307335 0.732327
O O16 0.000000 0.376348 0.830335
O O17 0.250000 0.231564 0.250000
O O18 0.179434 0.258474 0.498558
O O19 0.750000 0.264903 0.750000
O O20 0.250000 0.021666 0.750000
O O21 0.180672 0.000000 0.000000
#
# Coordination Sequence:
#
# PCOD8220376 Si02
#       8
#     8   8   8   8   8   8   8   8
#     4  10  22  41  64  89 118 152 191 237 287 340
#     4  10  22  41  64  89 118 152 191 237 287 340
#     4  10  20  35  57  85 116 150 190 237 287 340
#     4   9  17  31  54  83 114 149 190 235 283 339
#     4  10  20  35  57  85 116 150 190 237 287 340
#     4  11  23  39  59  84 115 152 193 236 287 344
#     4  11  23  39  59  84 115 152 193 236 287 344
#     4  12  25  40  61  89 121 157 195 236 285 340
#
# _framework density 20.061775999999998
#
# number of rings (size 3 to 8) (size 9 to 14) (size 15 to 20)
#    0.000    1.625    0.000    4.875    0.000   10.000 
#    0.000    0.625    0.000    0.000    0.000    0.000 
#    0.000    0.000    0.000    0.000    0.000    0.000 
#
# Total GULP energy -793954.623339 kJ/mol
# GULP energy per Si atom -12405.540990 kJ/mol
# Density = 2.001611 g / cm^3
# Si number density = 20.061776 Si / 1000 Ang^3
#
#
#
# Elastic Constant Matrix: (Units=GPa)
#
#
# Indices 1 2 3 4 5 6 
#
# 1 43.3464 12.6253 24.5359 0.0000 0.0000 0.0000
# 2 12.6253 120.4919 60.6730 0.0000 0.0000 0.0000
# 3 24.5359 60.6730 127.4601 0.0000 0.0000 0.0000
# 4 0.0000 0.0000 0.0000 31.0216 0.0000 0.0000
# 5 0.0000 0.0000 0.0000 0.0000 28.1148 0.0000
# 6 0.0000 0.0000 0.0000 0.0000 0.0000 65.1921
#
#
#
# Elastic Compliance Matrix: (Units=1/GPa)
#
#
# Indices 1 2 3 4 5 6 
#
# 1 0.025898 -0.000267 -0.004858 0.000000 0.000000 0.000000
# 2 -0.000267 0.010919 -0.005146 0.000000 0.000000 0.000000
# 3 -0.004858 -0.005146 0.011230 0.000000 0.000000 0.000000
# 4 0.000000 0.000000 0.000000 0.032236 0.000000 0.000000
# 5 0.000000 0.000000 0.000000 0.000000 0.035569 0.000000
# 6 0.000000 0.000000 0.000000 0.000000 0.000000 0.015339
#
#
# Mechanical properties :
#
#
# Convention : Reuss Voigt Hill
#
# Bulk Modulus (GPa) = 36.35849 54.10741 45.23295
# Shear Modulus (GPa) = 31.07514 37.76332 34.41923
#
# Velocity S-wave (km/s) = 3.93997 4.34331 4.14655
# Velocity P-wave (km/s) = 6.23381 7.22367 6.74692
#
# Compressibility (1/GPa) = 0.02750389
#
# Stress axis : x y z
#
# Youngs Moduli (GPa) = 38.61356 91.58744 89.04501
#
# Poissons Ratio (x) = 0.02449 0.43258
# Poissons Ratio (y) = 0.01033 0.45822
# Poissons Ratio (z) = 0.18758 0.47130
#
# Static dielectric constant tensor:
#      x y z
#    x 3.521280 0.000000 0.000000 
#    y 0.000000 3.730230 0.000000 
#    z 0.000000 0.000000 3.646580 
# 
# 
# High freq. dielectric constant tensor:
#      x y z
#    x 1.771370 0.000000 0.000000 
#    y 0.000000 1.799080 0.000000 
#    z 0.000000 0.000000 1.792800 
# 
# From -- ./inp_files/10230.got.cif
#   From: 2010.03.12/outbox.cif.g09.slc.cpg/sg53_6_cif.got.tgz:10230.got - 2010.04.16 14:36:59.
