data_PCOD8220355
_publ_section_title
;
Structure prediction by ZEFSAII (Michael W. Deem and Ramdas Pophale) SiO2 
 PCOD8220355
Probable space group: P M N A
;
_chemical_formula_sum "Si O2"
_cell_formula_units_Z 64
_cell_length_a 17.605011
_cell_length_b 9.142484
_cell_length_c 20.160172
_cell_angle_alpha 90.000000
_cell_angle_beta 90.000000
_cell_angle_gamma 90.000000
_cell_volume 3244.850877
_symmetry_space_group_name_H-M "P M N A"
_symmetry_group_IT_number 53
_symmetry_cell_setting 'orthorhombic'
loop_
_space_group_symop_operation_xyz
x,y,z
1/2-x,-y,1/2+z
x,-y,-z
1/2-x,y,1/2-z
-x,-y,-z
1/2+x,y,1/2-z
-x,y,z
1/2+x,-y,1/2+z
loop_
_atom_site_type_symbol
_atom_site_label
_atom_site_fract_x
_atom_site_fract_y
_atom_site_fract_z
Si Si1 0.669889 0.328331 0.010688
Si Si2 0.912680 0.163370 0.110607
Si Si3 0.588368 0.829273 0.374019
Si Si4 0.163550 0.785021 0.756459
Si Si5 0.911751 0.713665 0.380612
Si Si6 0.412511 0.373910 0.139502
Si Si7 0.337010 0.124852 0.761115
Si Si8 0.841836 0.327580 0.992527
O O1 0.620338 0.250253 0.953772
O O2 0.664574 0.500000 0.000000
O O3 0.635769 0.290339 0.082787
O O4 0.756510 0.274166 0.007611
O O5 0.861643 0.236884 0.167563
O O6 0.898674 0.245595 0.041961
O O7 0.000000 0.179754 0.131657
O O8 0.892173 0.992962 0.101655
O O9 0.500000 0.792370 0.380909
O O10 0.612722 0.807787 0.297917
O O11 0.636102 0.715710 0.417903
O O12 0.250000 0.732388 0.750000
O O13 0.111138 0.683836 0.711189
O O14 0.152775 0.951501 0.734399
O O15 0.897249 0.546209 0.361431
O O16 0.865485 0.813044 0.330210
O O17 0.000000 0.755246 0.378549
O O18 0.500000 0.338714 0.125731
O O19 0.250000 0.169399 0.750000
O O20 0.851163 0.500000 0.000000
#
# Coordination Sequence:
#
# PCOD8220355 Si02
#       8
#     8   8   8   8   8   8   8   8
#     4   9  19  36  55  78 110 143 174 214 268 323
#     4  10  21  37  55  75 105 144 177 210 263 325
#     4  10  21  37  55  75 105 144 177 210 263 325
#     4  10  21  37  57  81 109 142 180 222 268 318
#     4  10  20  35  57  82 108 142 181 219 263 318
#     4  10  20  35  57  82 108 142 181 219 263 318
#     4  10  21  37  57  81 109 142 180 222 268 318
#     4  11  22  35  55  81 106 135 176 226 268 305
#
# _framework density 19.723555999999999
#
# number of rings (size 3 to 8) (size 9 to 14) (size 15 to 20)
#    0.000    2.000    0.000    3.375    0.000    6.500 
#    0.000    1.875    0.000    1.500    0.000    0.000 
#    0.000    0.000    0.000    0.000    0.000    0.000 
#
# Total GULP energy -793964.140223 kJ/mol
# GULP energy per Si atom -12405.689691 kJ/mol
# Density = 1.967866 g / cm^3
# Si number density = 19.723556 Si / 1000 Ang^3
#
#
#
# Elastic Constant Matrix: (Units=GPa)
#
#
# Indices 1 2 3 4 5 6 
#
# 1 73.7634 16.6044 4.2852 0.0000 0.0000 0.0000
# 2 16.6044 35.9281 13.4297 0.0000 0.0000 0.0000
# 3 4.2852 13.4297 63.8832 0.0000 0.0000 0.0000
# 4 0.0000 0.0000 0.0000 30.2241 0.0000 0.0000
# 5 0.0000 0.0000 0.0000 0.0000 43.5746 0.0000
# 6 0.0000 0.0000 0.0000 0.0000 0.0000 21.2230
#
#
#
# Elastic Compliance Matrix: (Units=1/GPa)
#
#
# Indices 1 2 3 4 5 6 
#
# 1 0.015145 -0.007184 0.000494 0.000000 0.000000 0.000000
# 2 -0.007184 0.033615 -0.006585 0.000000 0.000000 0.000000
# 3 0.000494 -0.006585 0.017005 0.000000 0.000000 0.000000
# 4 0.000000 0.000000 0.000000 0.033086 0.000000 0.000000
# 5 0.000000 0.000000 0.000000 0.000000 0.022949 0.000000
# 6 0.000000 0.000000 0.000000 0.000000 0.000000 0.047119
#
#
# Mechanical properties :
#
#
# Convention : Reuss Voigt Hill
#
# Bulk Modulus (GPa) = 25.49999 26.91257 26.20628
# Shear Modulus (GPa) = 23.97620 28.28804 26.13212
#
# Velocity S-wave (km/s) = 3.49035 3.79123 3.64389
# Velocity P-wave (km/s) = 5.40371 5.73054 5.56952
#
# Compressibility (1/GPa) = 0.03921570
#
# Stress axis : x y z
#
# Youngs Moduli (GPa) = 66.02688 29.74868 58.80739
#
# Poissons Ratio (x) = 0.21372 -0.02907
# Poissons Ratio (y) = 0.47436 0.38723
# Poissons Ratio (z) = -0.03264 0.19589
#
# Static dielectric constant tensor:
#      x y z
#    x 3.714860 0.000000 0.000000 
#    y 0.000000 3.337880 0.000000 
#    z 0.000000 0.000000 3.620980 
# 
# 
# High freq. dielectric constant tensor:
#      x y z
#    x 1.783730 0.000000 0.000000 
#    y 0.000000 1.746050 0.000000 
#    z 0.000000 0.000000 1.779310 
# 
# From -- ./inp_files/32824.got.cif
#   From: 2010.03.12/outbox.cif.g09.slc.cpg/sg53_17_cif.got.tgz:32824.got - 2010.04.16 14:36:59.
