data_PCOD8220606
_publ_section_title
;
Structure prediction by ZEFSAII (Michael W. Deem and Ramdas Pophale) SiO2 
 PCOD8220606
Probable space group: P M N A
;
_chemical_formula_sum "Si O2"
_cell_formula_units_Z 64
_cell_length_a 9.043212
_cell_length_b 19.491765
_cell_length_c 19.782108
_cell_angle_alpha 90.000000
_cell_angle_beta 90.000000
_cell_angle_gamma 90.000000
_cell_volume 3486.955840
_symmetry_space_group_name_H-M "P M N A"
_symmetry_group_IT_number 53
_symmetry_cell_setting 'orthorhombic'
loop_
_space_group_symop_operation_xyz
x,y,z
1/2-x,-y,1/2+z
x,-y,-z
1/2-x,y,1/2-z
-x,-y,-z
1/2+x,y,1/2-z
-x,y,z
1/2+x,-y,1/2+z
loop_
_atom_site_type_symbol
_atom_site_label
_atom_site_fract_x
_atom_site_fract_y
_atom_site_fract_z
Si Si1 0.172129 0.343466 0.029210
Si Si2 0.828099 0.271769 0.816460
Si Si3 0.328699 0.190439 0.436765
Si Si4 0.672925 0.112183 0.181751
Si Si5 0.827191 0.954143 0.318368
Si Si6 0.337304 0.484062 0.421029
Si Si7 0.174277 0.613999 0.393341
Si Si8 0.669598 0.147152 0.586551
O O1 0.210085 0.270975 0.062720
O O2 0.204591 0.403168 0.084972
O O3 0.000000 0.345638 0.005561
O O4 0.273734 0.354971 0.964346
O O5 0.750000 0.240909 0.750000
O O6 0.751449 0.343952 0.833524
O O7 0.800900 0.219538 0.877620
O O8 0.000000 0.283731 0.802243
O O9 0.500000 0.178563 0.419078
O O10 0.227652 0.156176 0.380890
O O11 0.289119 0.156032 0.508339
O O12 0.750000 0.138611 0.250000
O O13 0.500000 0.122877 0.190734
O O14 0.713917 0.033063 0.168227
O O15 0.750000 0.927176 0.250000
O O16 0.771574 0.911969 0.382801
O O17 0.000000 0.942431 0.309128
O O18 0.340568 0.500000 0.500000
O O19 0.500000 0.497624 0.389701
O O20 0.219985 0.533892 0.384818
O O21 0.000000 0.620524 0.386868
O O22 0.500000 0.124701 0.595949
#
# Coordination Sequence:
#
# PCOD8220606 Si02
#       8
#     8   8   8   8   8   8   8   8
#     4   9  17  33  53  76 107 142 178 218 270 320
#     4  11  22  37  53  74 107 147 190 229 273 329
#     4  10  20  36  58  84 113 145 179 224 274 325
#     4  10  22  40  60  83 108 141 180 223 273 331
#     4  10  21  37  57  79 109 145 186 228 270 321
#     4   8  15  28  49  72  99 137 175 216 264 313
#     4  11  20  30  48  75 106 140 180 225 269 316
#     4  10  21  36  56  81 111 144 182 225 271 323
#
# _framework density 18.354118
#
# number of rings (size 3 to 8) (size 9 to 14) (size 15 to 20)
#    0.000    2.125    1.250    3.375    0.000    7.250 
#    0.000    2.500    0.000    0.750    0.000    3.500 
#    0.000    0.000    0.000    0.000    0.000    0.000 
#
# Total GULP energy -793668.617804 kJ/mol
# GULP energy per Si atom -12401.072153 kJ/mol
# Density = 1.831234 g / cm^3
# Si number density = 18.354118 Si / 1000 Ang^3
#
#
#
# Elastic Constant Matrix: (Units=GPa)
#
#
# Indices 1 2 3 4 5 6 
#
# 1 104.8151 51.2539 47.5726 0.0000 0.0000 0.0000
# 2 51.2539 102.3096 47.5532 0.0000 0.0000 0.0000
# 3 47.5726 47.5532 88.7869 0.0000 0.0000 0.0000
# 4 0.0000 0.0000 0.0000 19.3162 0.0000 0.0000
# 5 0.0000 0.0000 0.0000 0.0000 31.5710 0.0000
# 6 0.0000 0.0000 0.0000 0.0000 0.0000 29.2705
#
#
#
# Elastic Compliance Matrix: (Units=1/GPa)
#
#
# Indices 1 2 3 4 5 6 
#
# 1 0.014148 -0.004746 -0.005039 0.000000 0.000000 0.000000
# 2 -0.004746 0.014606 -0.005280 0.000000 0.000000 0.000000
# 3 -0.005039 -0.005280 0.016791 0.000000 0.000000 0.000000
# 4 0.000000 0.000000 0.000000 0.051770 0.000000 0.000000
# 5 0.000000 0.000000 0.000000 0.000000 0.031675 0.000000
# 6 0.000000 0.000000 0.000000 0.000000 0.000000 0.034164
#
#
# Mechanical properties :
#
#
# Convention : Reuss Voigt Hill
#
# Bulk Modulus (GPa) = 64.86958 65.40789 65.13873
# Shear Modulus (GPa) = 25.19890 26.00034 25.59962
#
# Velocity S-wave (km/s) = 3.70933 3.76785 3.73870
# Velocity P-wave (km/s) = 7.33250 7.39208 7.36235
#
# Compressibility (1/GPa) = 0.01541555
#
# Stress axis : x y z
#
# Youngs Moduli (GPa) = 70.67988 68.46590 59.55676
#
# Poissons Ratio (x) = 0.32492 0.30011
# Poissons Ratio (y) = 0.33543 0.31445
# Poissons Ratio (z) = 0.35615 0.36149
#
# Static dielectric constant tensor:
#      x y z
#    x 3.339250 0.000000 0.000000 
#    y 0.000000 3.651210 0.000000 
#    z 0.000000 0.000000 3.141030 
# 
# 
# High freq. dielectric constant tensor:
#      x y z
#    x 1.712890 0.000000 0.000000 
#    y 0.000000 1.719060 0.000000 
#    z 0.000000 0.000000 1.683090 
# 
# From -- ./inp_files/26885.got.cif
#   From: 2010.03.12/outbox.cif.g09.slc.cpg/sg53_14_cif.got.tgz:26885.got - 2010.04.16 14:36:59.
