data_PCOD8220822
_publ_section_title
;
Structure prediction by ZEFSAII (Michael W. Deem and Ramdas Pophale) SiO2 
 PCOD8220822
Probable space group: P M N A
;
_chemical_formula_sum "Si O2"
_cell_formula_units_Z 48
_cell_length_a 8.504749
_cell_length_b 18.770469
_cell_length_c 14.866029
_cell_angle_alpha 90.000000
_cell_angle_beta 90.000000
_cell_angle_gamma 90.000000
_cell_volume 2373.185032
_symmetry_space_group_name_H-M "P M N A"
_symmetry_group_IT_number 53
_symmetry_cell_setting 'orthorhombic'
loop_
_space_group_symop_operation_xyz
x,y,z
1/2-x,-y,1/2+z
x,-y,-z
1/2-x,y,1/2-z
-x,-y,-z
1/2+x,y,1/2-z
-x,y,z
1/2+x,-y,1/2+z
loop_
_atom_site_type_symbol
_atom_site_label
_atom_site_fract_x
_atom_site_fract_y
_atom_site_fract_z
Si Si1 0.186674 0.510894 0.352478
Si Si2 0.315236 0.398728 0.489561
Si Si3 0.816239 0.860775 0.659128
Si Si4 0.815139 0.755120 0.507766
Si Si5 0.184649 0.005483 0.898136
Si Si6 0.813673 0.837182 0.155003
O O1 0.250000 0.516342 0.250000
O O2 0.246164 0.440099 0.403228
O O3 0.241266 0.577240 0.414653
O O4 0.000000 0.510023 0.347475
O O5 0.500000 0.412858 0.493915
O O6 0.279067 0.316563 0.473131
O O7 0.750000 0.826090 0.750000
O O8 0.749575 0.814865 0.576460
O O9 0.767496 0.943215 0.656682
O O10 0.000000 0.855217 0.659712
O O11 0.775818 0.783916 0.410065
O O12 0.000000 0.740752 0.518090
O O13 0.000000 0.994327 0.889396
O O14 0.239655 0.081391 0.860431
O O15 0.242506 0.000000 0.000000
O O16 0.750000 0.811982 0.250000
O O17 0.000000 0.828474 0.144829
#
# Coordination Sequence:
#
# PCOD8220822 Si02
#       6
#     8   8   8   8   8   8
#     4  11  22  41  68  98 130 164 203 247 293 351
#     4  11  23  41  65  95 128 164 203 248 300 357
#     4  11  24  39  60  86 117 156 202 252 305 363
#     4  11  24  42  61  87 122 161 203 250 302 360
#     4  10  20  37  61  86 115 152 198 252 308 364
#     4  11  23  39  60  86 117 156 201 252 308 366
#
# _framework density 20.225981999999998
#
# number of rings (size 3 to 8) (size 9 to 14) (size 15 to 20)
#    0.000    1.167    1.667    6.000    0.000    6.333 
#    0.000    5.000    0.000    0.000    0.000    0.000 
#    0.000    0.000    0.000    0.000    0.000    0.000 
#
# Total GULP energy -595324.795821 kJ/mol
# GULP energy per Si atom -12402.599913 kJ/mol
# Density = 2.017995 g / cm^3
# Si number density = 20.225982 Si / 1000 Ang^3
#
#
#
# Elastic Constant Matrix: (Units=GPa)
#
#
# Indices 1 2 3 4 5 6 
#
# 1 102.7422 27.8726 33.4234 0.0000 0.0000 0.0000
# 2 27.8726 92.8685 12.3339 0.0000 0.0000 0.0000
# 3 33.4234 12.3339 116.7413 0.0000 0.0000 0.0000
# 4 0.0000 0.0000 0.0000 29.1752 0.0000 0.0000
# 5 0.0000 0.0000 0.0000 0.0000 35.4394 0.0000
# 6 0.0000 0.0000 0.0000 0.0000 0.0000 32.4463
#
#
#
# Elastic Compliance Matrix: (Units=1/GPa)
#
#
# Indices 1 2 3 4 5 6 
#
# 1 0.011534 -0.003066 -0.002978 0.000000 0.000000 0.000000
# 2 -0.003066 0.011736 -0.000362 0.000000 0.000000 0.000000
# 3 -0.002978 -0.000362 0.009457 0.000000 0.000000 0.000000
# 4 0.000000 0.000000 0.000000 0.034276 0.000000 0.000000
# 5 0.000000 0.000000 0.000000 0.000000 0.028217 0.000000
# 6 0.000000 0.000000 0.000000 0.000000 0.000000 0.030820
#
#
# Mechanical properties :
#
#
# Convention : Reuss Voigt Hill
#
# Bulk Modulus (GPa) = 50.21585 51.06795 50.64190
# Shear Modulus (GPa) = 34.36645 35.32697 34.84671
#
# Velocity S-wave (km/s) = 4.12651 4.18378 4.15525
# Velocity P-wave (km/s) = 6.89822 6.97440 6.93641
#
# Compressibility (1/GPa) = 0.01991403
#
# Stress axis : x y z
#
# Youngs Moduli (GPa) = 86.70215 85.20622 105.74315
#
# Poissons Ratio (x) = 0.26125 0.31493
# Poissons Ratio (y) = 0.26584 0.03829
# Poissons Ratio (z) = 0.25822 0.03085
#
# Static dielectric constant tensor:
#      x y z
#    x 3.659710 0.000000 0.000000 
#    y 0.000000 3.733610 0.000000 
#    z 0.000000 0.000000 3.926520 
# 
# 
# High freq. dielectric constant tensor:
#      x y z
#    x 1.798760 0.000000 0.000000 
#    y 0.000000 1.787930 0.000000 
#    z 0.000000 0.000000 1.804000 
# 
# From -- ./inp_files/20229.got.cif
#   From: 2010.03.12/outbox.cif.g09.slc.cpg/sg53_11_cif.got.tgz:20229.got - 2010.04.16 14:36:59.
