data_PCOD8220697
_publ_section_title
;
Structure prediction by ZEFSAII (Michael W. Deem and Ramdas Pophale) SiO2 
 PCOD8220697
Probable space group: P M N A
;
_chemical_formula_sum "Si O2"
_cell_formula_units_Z 48
_cell_length_a 18.113400
_cell_length_b 11.128715
_cell_length_c 12.276444
_cell_angle_alpha 90.000000
_cell_angle_beta 90.000000
_cell_angle_gamma 90.000000
_cell_volume 2474.671663
_symmetry_space_group_name_H-M "P M N A"
_symmetry_group_IT_number 53
_symmetry_cell_setting 'orthorhombic'
loop_
_space_group_symop_operation_xyz
x,y,z
1/2-x,-y,1/2+z
x,-y,-z
1/2-x,y,1/2-z
-x,-y,-z
1/2+x,y,1/2-z
-x,y,z
1/2+x,-y,1/2+z
loop_
_atom_site_type_symbol
_atom_site_label
_atom_site_fract_x
_atom_site_fract_y
_atom_site_fract_z
Si Si1 0.317650 0.978177 0.831822
Si Si2 0.913021 0.390614 0.857372
Si Si3 0.863671 0.651979 0.911936
Si Si4 0.582243 0.220948 0.213827
Si Si5 0.323982 0.748896 0.181953
Si Si6 0.296537 0.745729 0.943638
O O1 0.250000 0.975324 0.750000
O O2 0.343328 0.114225 0.851025
O O3 0.389767 0.916462 0.778434
O O4 0.294653 0.894383 0.937317
O O5 0.869087 0.514399 0.873060
O O6 0.888150 0.317395 0.749683
O O7 0.000000 0.415180 0.848159
O O8 0.893328 0.317493 0.966897
O O9 0.917044 0.727199 0.834692
O O10 0.779320 0.692518 0.897761
O O11 0.500000 0.225983 0.165478
O O12 0.636776 0.298356 0.134931
O O13 0.250000 0.739026 0.250000
O O14 0.310999 0.690327 0.063457
#
# Coordination Sequence:
#
# PCOD8220697 Si02
#       6
#     8   8   8   8   8   8
#     4   9  19  37  61  89 120 162 201 253 302 370
#     4  11  25  41  63  91 125 165 202 258 315 364
#     4  11  20  43  63  86 119 164 214 256 306 368
#     4  10  20  36  61  90 117 159 206 256 308 362
#     4  11  22  39  61  90 126 160 206 250 303 374
#     4  10  20  39  62  93 118 164 207 251 303 371
#
# _framework density 19.396512999999999
#
# number of rings (size 3 to 8) (size 9 to 14) (size 15 to 20)
#    1.000    0.667    3.333    3.000    0.000    2.667 
#    0.000    1.667    0.000    4.000    0.000    0.000 
#    0.000    0.000    0.000    0.000    0.000    0.000 
#
# Total GULP energy -594671.486242 kJ/mol
# GULP energy per Si atom -12388.989297 kJ/mol
# Density = 1.935237 g / cm^3
# Si number density = 19.396513 Si / 1000 Ang^3
#
#
#
# Elastic Constant Matrix: (Units=GPa)
#
#
# Indices 1 2 3 4 5 6 
#
# 1 132.9370 42.5674 30.2880 0.0000 0.0000 0.0000
# 2 42.5674 69.4871 26.3315 0.0000 0.0000 0.0000
# 3 30.2880 26.3315 92.1944 0.0000 0.0000 0.0000
# 4 0.0000 0.0000 0.0000 18.7677 0.0000 0.0000
# 5 0.0000 0.0000 0.0000 0.0000 29.3420 0.0000
# 6 0.0000 0.0000 0.0000 0.0000 0.0000 -63.3163
#
#
#
# Elastic Compliance Matrix: (Units=1/GPa)
#
#
# Indices 1 2 3 4 5 6 
#
# 1 0.009576 -0.005242 -0.001649 0.000000 0.000000 0.000000
# 2 -0.005242 0.019007 -0.003706 0.000000 0.000000 0.000000
# 3 -0.001649 -0.003706 0.012447 0.000000 0.000000 0.000000
# 4 0.000000 0.000000 0.000000 0.053283 0.000000 0.000000
# 5 0.000000 0.000000 0.000000 0.000000 0.034081 0.000000
# 6 0.000000 0.000000 0.000000 0.000000 0.000000 -0.015794
#
#
# Mechanical properties :
#
#
# Convention : Reuss Voigt Hill
#
# Bulk Modulus (GPa) = 50.41367 54.77691 52.59529
# Shear Modulus (GPa) = 35.61092 9.98747 22.79920
#
# Velocity S-wave (km/s) = 4.28944 2.27163 3.43217
# Velocity P-wave (km/s) = 7.11196 5.93147 6.54837
#
# Compressibility (1/GPa) = 0.01983589
#
# Stress axis : x y z
#
# Youngs Moduli (GPa) = 104.42261 52.61312 80.34071
#
# Poissons Ratio (x) = 0.27578 0.13249
# Poissons Ratio (y) = 0.54734 0.29778
# Poissons Ratio (z) = 0.17220 0.19501
#
# Static dielectric constant tensor:
#      x y z
#    x 3.365810 0.000000 0.000000 
#    y 0.000000 3.466710 0.000000 
#    z 0.000000 0.000000 3.624460 
# 
# 
# High freq. dielectric constant tensor:
#      x y z
#    x 1.748820 0.000000 0.000000 
#    y 0.000000 1.737350 0.000000 
#    z 0.000000 0.000000 1.759760 
# 
# From -- ./inp_files/16943.got.cif
#   From: 2010.03.12/outbox.cif.g09.slc.cpg/sg53_9_cif.got.tgz:16943.got - 2010.04.16 14:36:59.
