data_PCOD8220808
_publ_section_title
;
Structure prediction by ZEFSAII (Michael W. Deem and Ramdas Pophale) SiO2 
 PCOD8220808
Probable space group: P M N A
;
_chemical_formula_sum "Si O2"
_cell_formula_units_Z 40
_cell_length_a 8.638182
_cell_length_b 12.602088
_cell_length_c 18.069761
_cell_angle_alpha 90.000000
_cell_angle_beta 90.000000
_cell_angle_gamma 90.000000
_cell_volume 1967.058457
_symmetry_space_group_name_H-M "P M N A"
_symmetry_group_IT_number 53
_symmetry_cell_setting 'orthorhombic'
loop_
_space_group_symop_operation_xyz
x,y,z
1/2-x,-y,1/2+z
x,-y,-z
1/2-x,y,1/2-z
-x,-y,-z
1/2+x,y,1/2-z
-x,y,z
1/2+x,-y,1/2+z
loop_
_atom_site_type_symbol
_atom_site_label
_atom_site_fract_x
_atom_site_fract_y
_atom_site_fract_z
Si Si1 0.681316 0.681403 0.423670
Si Si2 0.181941 0.866883 0.329769
Si Si3 0.818208 0.496338 0.329979
Si Si4 0.819623 0.911457 0.828351
Si Si5 0.178932 0.697013 0.905808
O O1 0.500000 0.697840 0.410694
O O2 0.771501 0.779257 0.388760
O O3 0.735843 0.571258 0.389282
O O4 0.723732 0.676559 0.509755
O O5 0.250000 0.836660 0.250000
O O6 0.000000 0.871114 0.322001
O O7 0.242485 0.980671 0.357936
O O8 0.750000 0.522382 0.250000
O O9 0.783671 0.375537 0.352851
O O10 0.000000 0.518261 0.328932
O O11 0.750000 0.876279 0.750000
O O12 0.786076 0.819525 0.887496
O O13 0.000000 0.933222 0.817656
O O14 0.000000 0.669283 0.890031
#
# Coordination Sequence:
#
# PCOD8220808 Si02
#       5
#     8   8   8   8   8
#     4  11  23  41  62  86 120 157 194 239 294 351
#     4  11  22  38  60  87 118 154 198 244 292 344
#     4  12  25  41  63  89 118 153 196 243 291 347
#     4  10  20  37  60  87 117 153 197 240 288 343
#     4  10  23  41  62  88 120 157 194 238 293 351
#
# _framework density 20.334931999999998
#
# number of rings (size 3 to 8) (size 9 to 14) (size 15 to 20)
#    0.000    1.200    0.000    7.800    0.000    8.000 
#    0.000    4.000    0.000    0.000    0.000    0.000 
#    0.000    0.000    0.000    0.000    0.000    0.000 
#
# Total GULP energy -496283.764139 kJ/mol
# GULP energy per Si atom -12407.094103 kJ/mol
# Density = 2.028865 g / cm^3
# Si number density = 20.334932 Si / 1000 Ang^3
#
#
#
# Elastic Constant Matrix: (Units=GPa)
#
#
# Indices 1 2 3 4 5 6 
#
# 1 112.9179 30.6813 26.7383 0.0000 0.0000 0.0000
# 2 30.6813 93.0996 28.3170 0.0000 0.0000 0.0000
# 3 26.7383 28.3170 66.7413 0.0000 0.0000 0.0000
# 4 0.0000 0.0000 0.0000 12.4256 0.0000 0.0000
# 5 0.0000 0.0000 0.0000 0.0000 20.0836 0.0000
# 6 0.0000 0.0000 0.0000 0.0000 0.0000 44.0334
#
#
#
# Elastic Compliance Matrix: (Units=1/GPa)
#
#
# Indices 1 2 3 4 5 6 
#
# 1 0.010246 -0.002444 -0.003068 0.000000 0.000000 0.000000
# 2 -0.002444 0.012915 -0.004501 0.000000 0.000000 0.000000
# 3 -0.003068 -0.004501 0.018122 0.000000 0.000000 0.000000
# 4 0.000000 0.000000 0.000000 0.080479 0.000000 0.000000
# 5 0.000000 0.000000 0.000000 0.000000 0.049792 0.000000
# 6 0.000000 0.000000 0.000000 0.000000 0.000000 0.022710
#
#
# Mechanical properties :
#
#
# Convention : Reuss Voigt Hill
#
# Bulk Modulus (GPa) = 47.03947 49.35912 48.19929
# Shear Modulus (GPa) = 22.58596 27.77665 25.18130
#
# Velocity S-wave (km/s) = 3.33633 3.69990 3.52281
# Velocity P-wave (km/s) = 6.16636 6.52519 6.34831
#
# Compressibility (1/GPa) = 0.02125874
#
# Stress axis : x y z
#
# Youngs Moduli (GPa) = 97.59451 77.42681 55.18131
#
# Poissons Ratio (x) = 0.18919 0.16931
# Poissons Ratio (y) = 0.23847 0.24836
# Poissons Ratio (z) = 0.29945 0.34848
#
# Static dielectric constant tensor:
#      x y z
#    x 3.886700 0.000000 0.000000 
#    y 0.000000 3.770150 0.000000 
#    z 0.000000 0.000000 3.637000 
# 
# 
# High freq. dielectric constant tensor:
#      x y z
#    x 1.806050 0.000000 0.000000 
#    y 0.000000 1.809760 0.000000 
#    z 0.000000 0.000000 1.794380 
# 
# From -- ./inp_files/25829.got.cif
#   From: 2010.03.12/outbox.cif.g09.slc.cpg/sg53_13_cif.got.tgz:25829.got - 2010.04.16 14:36:59.
