data_PCOD8220331
_publ_section_title
;
Structure prediction by ZEFSAII (Michael W. Deem and Ramdas Pophale) SiO2 
 PCOD8220331
Probable space group: P M N A
;
_chemical_formula_sum "Si O2"
_cell_formula_units_Z 64
_cell_length_a 9.255343
_cell_length_b 24.046563
_cell_length_c 14.404123
_cell_angle_alpha 90.000000
_cell_angle_beta 90.000000
_cell_angle_gamma 90.000000
_cell_volume 3205.769926
_symmetry_space_group_name_H-M "P M N A"
_symmetry_group_IT_number 53
_symmetry_cell_setting 'orthorhombic'
loop_
_space_group_symop_operation_xyz
x,y,z
1/2-x,-y,1/2+z
x,-y,-z
1/2-x,y,1/2-z
-x,-y,-z
1/2+x,y,1/2-z
-x,y,z
1/2+x,-y,1/2+z
loop_
_atom_site_type_symbol
_atom_site_label
_atom_site_fract_x
_atom_site_fract_y
_atom_site_fract_z
Si Si1 0.838033 0.903736 0.836334
Si Si2 0.833080 0.870615 0.338593
Si Si3 0.335288 0.831282 0.964436
Si Si4 0.333576 0.630978 0.540737
Si Si5 0.670802 0.723282 0.847731
Si Si6 0.334871 0.528460 0.662741
Si Si7 0.669265 0.597299 0.340537
Si Si8 0.663553 0.022726 0.598198
O O1 0.750000 0.878586 0.750000
O O2 0.766489 0.881268 0.930549
O O3 0.000000 0.880448 0.830008
O O4 0.835601 0.970383 0.832309
O O5 0.750000 0.845050 0.250000
O O6 0.814183 0.827798 0.424235
O O7 0.769560 0.931004 0.362373
O O8 0.000000 0.879123 0.312462
O O9 0.500000 0.846916 0.940259
O O10 0.290389 0.774001 0.916102
O O11 0.500000 0.649778 0.555420
O O12 0.228295 0.668774 0.601083
O O13 0.312720 0.567281 0.573306
O O14 0.290813 0.633294 0.431864
O O15 0.750000 0.732275 0.750000
O O16 0.500000 0.717449 0.830566
O O17 0.250000 0.554256 0.750000
O O18 0.500000 0.526769 0.693431
O O19 0.280053 0.466158 0.640598
O O20 0.750000 0.621945 0.250000
O O21 0.500000 0.600573 0.321149
O O22 0.500000 0.046564 0.587777
O O23 0.720766 0.000000 0.500000
#
# Coordination Sequence:
#
# PCOD8220331 Si02
#       8
#     8   8   8   8   8   8   8   8
#     4  11  22  35  56  83 114 147 182 223 270 327
#     4  11  23  39  61  86 114 149 189 232 279 331
#     4  10  23  42  61  82 109 143 186 232 279 329
#     4  10  20  35  56  82 112 149 191 232 280 335
#     4  11  24  42  62  85 113 143 181 230 283 336
#     4   9  17  30  50  78 113 150 187 229 276 331
#     4   9  18  33  53  79 113 152 191 231 277 328
#     4  10  20  36  56  84 118 151 185 223 271 328
#
# _framework density 19.964003000000002
#
# number of rings (size 3 to 8) (size 9 to 14) (size 15 to 20)
#    0.000    1.875    1.250    2.625    0.000    8.250 
#    0.000    0.625    0.000    6.750    0.000    0.000 
#    0.000    0.000    0.000    0.000    0.000    0.000 
#
# Total GULP energy -793647.911766 kJ/mol
# GULP energy per Si atom -12400.748621 kJ/mol
# Density = 1.991856 g / cm^3
# Si number density = 19.964003 Si / 1000 Ang^3
#
#
#
# Elastic Constant Matrix: (Units=GPa)
#
#
# Indices 1 2 3 4 5 6 
#
# 1 103.4573 35.6709 66.3385 0.0000 0.0000 0.0000
# 2 35.6709 60.3940 34.2428 0.0000 0.0000 0.0000
# 3 66.3385 34.2428 142.6224 0.0000 0.0000 0.0000
# 4 0.0000 0.0000 0.0000 30.0949 0.0000 0.0000
# 5 0.0000 0.0000 0.0000 0.0000 36.7899 0.0000
# 6 0.0000 0.0000 0.0000 0.0000 0.0000 18.9311
#
#
#
# Elastic Compliance Matrix: (Units=1/GPa)
#
#
# Indices 1 2 3 4 5 6 
#
# 1 0.015354 -0.005810 -0.005747 0.000000 0.000000 0.000000
# 2 -0.005810 0.021366 -0.002427 0.000000 0.000000 0.000000
# 3 -0.005747 -0.002427 0.010267 0.000000 0.000000 0.000000
# 4 0.000000 0.000000 0.000000 0.033228 0.000000 0.000000
# 5 0.000000 0.000000 0.000000 0.000000 0.027181 0.000000
# 6 0.000000 0.000000 0.000000 0.000000 0.000000 0.052823
#
#
# Mechanical properties :
#
#
# Convention : Reuss Voigt Hill
#
# Bulk Modulus (GPa) = 52.57970 64.33089 58.45530
# Shear Modulus (GPa) = 25.70322 28.51127 27.10725
#
# Velocity S-wave (km/s) = 3.59204 3.78317 3.68884
# Velocity P-wave (km/s) = 6.60288 7.16774 6.89110
#
# Compressibility (1/GPa) = 0.01901875
#
# Stress axis : x y z
#
# Youngs Moduli (GPa) = 65.12959 46.80339 97.39708
#
# Poissons Ratio (x) = 0.27194 0.55971
# Poissons Ratio (y) = 0.37843 0.23641
# Poissons Ratio (z) = 0.37428 0.11360
#
# Static dielectric constant tensor:
#      x y z
#    x 3.640620 0.000000 0.000000 
#    y 0.000000 3.358020 0.000000 
#    z 0.000000 0.000000 3.828800 
# 
# 
# High freq. dielectric constant tensor:
#      x y z
#    x 1.779040 0.000000 0.000000 
#    y 0.000000 1.750670 0.000000 
#    z 0.000000 0.000000 1.790910 
# 
# From -- ./inp_files/20809.got.cif
#   From: 2010.03.12/outbox.cif.g09.slc.cpg/sg53_11_cif.got.tgz:20809.got - 2010.04.16 14:36:59.
