data_PCOD8220969
_publ_section_title
;
Structure prediction by ZEFSAII (Michael W. Deem and Ramdas Pophale) SiO2 
 PCOD8220969
Probable space group: P M N A
;
_chemical_formula_sum "Si O2"
_cell_formula_units_Z 40
_cell_length_a 18.424532
_cell_length_b 9.271745
_cell_length_c 11.409606
_cell_angle_alpha 90.000000
_cell_angle_beta 90.000000
_cell_angle_gamma 90.000000
_cell_volume 1949.075181
_symmetry_space_group_name_H-M "P M N A"
_symmetry_group_IT_number 53
_symmetry_cell_setting 'orthorhombic'
loop_
_space_group_symop_operation_xyz
x,y,z
1/2-x,-y,1/2+z
x,-y,-z
1/2-x,y,1/2-z
-x,-y,-z
1/2+x,y,1/2-z
-x,y,z
1/2+x,-y,1/2+z
loop_
_atom_site_type_symbol
_atom_site_label
_atom_site_fract_x
_atom_site_fract_y
_atom_site_fract_z
Si Si1 0.583784 0.414343 0.774345
Si Si2 0.658696 0.343133 0.546492
Si Si3 0.415855 0.273609 0.315482
Si Si4 0.819212 0.093941 0.327854
Si Si5 0.310961 0.220717 0.918204
O O1 0.500000 0.392220 0.809414
O O2 0.598124 0.342841 0.647864
O O3 0.603940 0.582858 0.758888
O O4 0.632553 0.343547 0.876764
O O5 0.680264 0.500000 0.500000
O O6 0.626737 0.255843 0.437528
O O7 0.729105 0.271445 0.604816
O O8 0.500000 0.269913 0.345276
O O9 0.392825 0.136399 0.239133
O O10 0.750000 0.138443 0.250000
O O11 0.818706 0.187956 0.445184
O O12 0.824140 0.923996 0.345486
#
# Coordination Sequence:
#
# PCOD8220969 Si02
#       5
#     8   8   8   8   8
#     4  10  22  39  61  94 130 162 203 255 312 371
#     4  10  20  38  67  94 123 161 216 260 307 360
#     4  10  22  40  65  93 126 166 207 257 311 367
#     4  11  23  41  61  88 126 163 209 253 306 373
#     4  11  24  39  64  91 123 165 205 260 313 366
#
# _framework density 20.522555000000001
#
# number of rings (size 3 to 8) (size 9 to 14) (size 15 to 20)
#    0.000    1.600    2.000    2.400    2.800    4.000 
#    0.000    4.000    0.000    3.600    0.000    0.000 
#    0.000    0.000    0.000    0.000    0.000    0.000 
#
# Total GULP energy -496055.217454 kJ/mol
# GULP energy per Si atom -12401.380436 kJ/mol
# Density = 2.047584 g / cm^3
# Si number density = 20.522555 Si / 1000 Ang^3
#
#
#
# Elastic Constant Matrix: (Units=GPa)
#
#
# Indices 1 2 3 4 5 6 
#
# 1 119.9350 49.4968 47.8659 0.0000 0.0000 0.0000
# 2 49.4968 71.4140 50.6487 0.0000 0.0000 0.0000
# 3 47.8659 50.6487 98.5391 0.0000 0.0000 0.0000
# 4 0.0000 0.0000 0.0000 30.4674 0.0000 0.0000
# 5 0.0000 0.0000 0.0000 0.0000 40.4606 0.0000
# 6 0.0000 0.0000 0.0000 0.0000 0.0000 23.3695
#
#
#
# Elastic Compliance Matrix: (Units=1/GPa)
#
#
# Indices 1 2 3 4 5 6 
#
# 1 0.012044 -0.006607 -0.002455 0.000000 0.000000 0.000000
# 2 -0.006607 0.025660 -0.009980 0.000000 0.000000 0.000000
# 3 -0.002455 -0.009980 0.016470 0.000000 0.000000 0.000000
# 4 0.000000 0.000000 0.000000 0.032822 0.000000 0.000000
# 5 0.000000 0.000000 0.000000 0.000000 0.024715 0.000000
# 6 0.000000 0.000000 0.000000 0.000000 0.000000 0.042791
#
#
# Mechanical properties :
#
#
# Convention : Reuss Voigt Hill
#
# Bulk Modulus (GPa) = 62.14372 65.10123 63.62248
# Shear Modulus (GPa) = 25.25903 28.31793 26.78848
#
# Velocity S-wave (km/s) = 3.51207 3.71866 3.61684
# Velocity P-wave (km/s) = 6.84051 7.08721 6.96495
#
# Compressibility (1/GPa) = 0.01609173
#
# Stress axis : x y z
#
# Youngs Moduli (GPa) = 83.02818 38.97115 60.71584
#
# Poissons Ratio (x) = 0.25748 0.14903
# Poissons Ratio (y) = 0.54856 0.60593
# Poissons Ratio (z) = 0.20380 0.38893
#
# Static dielectric constant tensor:
#      x y z
#    x 3.581680 0.000000 0.000000 
#    y 0.000000 3.669670 0.000000 
#    z 0.000000 0.000000 3.777460 
# 
# 
# High freq. dielectric constant tensor:
#      x y z
#    x 1.799330 0.000000 0.000000 
#    y 0.000000 1.795420 0.000000 
#    z 0.000000 0.000000 1.815340 
# 
# From -- ./inp_files/16657.got.cif
#   From: 2010.03.12/outbox.cif.g09.slc.cpg/sg53_9_cif.got.tgz:16657.got - 2010.04.16 14:36:59.
