data_PCOD8220891
_publ_section_title
;
Structure prediction by ZEFSAII (Michael W. Deem and Ramdas Pophale) SiO2 
 PCOD8220891
Probable space group: P M N A
;
_chemical_formula_sum "Si O2"
_cell_formula_units_Z 36
_cell_length_a 25.467521
_cell_length_b 11.092762
_cell_length_c 6.049561
_cell_angle_alpha 90.000000
_cell_angle_beta 90.000000
_cell_angle_gamma 90.000000
_cell_volume 1709.032133
_symmetry_space_group_name_H-M "P M N A"
_symmetry_group_IT_number 53
_symmetry_cell_setting 'orthorhombic'
loop_
_space_group_symop_operation_xyz
x,y,z
1/2-x,-y,1/2+z
x,-y,-z
1/2-x,y,1/2-z
-x,-y,-z
1/2+x,y,1/2-z
-x,y,z
1/2+x,-y,1/2+z
loop_
_atom_site_type_symbol
_atom_site_label
_atom_site_fract_x
_atom_site_fract_y
_atom_site_fract_z
Si Si1 0.700071 0.626050 0.114129
Si Si2 0.639983 0.793857 0.799084
Si Si3 0.559455 0.165304 0.827527
Si Si4 0.622883 0.000000 0.500000
Si Si5 0.101142 0.625420 0.076484
O O1 0.750000 0.673699 0.250000
O O2 0.652465 0.600290 0.277704
O O3 0.715097 0.500000 0.000000
O O4 0.686810 0.734622 0.942481
O O5 0.616694 0.690997 0.647003
O O6 0.658844 0.908791 0.648699
O O7 0.592682 0.842854 0.949340
O O8 0.500000 0.127948 0.881761
O O9 0.584648 0.077051 0.651168
O O10 0.560083 0.299902 0.724014
O O11 0.075018 0.500000 0.000000
#
# Coordination Sequence:
#
# PCOD8220891 Si02
#       5
#     8   8   8   4   8
#     4  11  22  36  64  99 122 151 201 260 314 373
#     4  10  22  38  60  93 125 162 206 251 311 365
#     4  10  22  37  60  93 122 162 216 261 302 361
#     4  10  21  40  64  88 120 170 206 258 307 364
#     4  10  20  38  58  88 129 165 200 246 313 375
#
# _framework density 21.064556
#
# number of rings (size 3 to 8) (size 9 to 14) (size 15 to 20)
#    0.000    1.778    2.222    1.667    0.000    5.778 
#    0.000    1.111    0.000    0.000  208.000    0.000 
#    0.000    0.000    0.000    0.000    0.000    0.000 
#
# Total GULP energy -446305.700900 kJ/mol
# GULP energy per Si atom -12397.380581 kJ/mol
# Density = 2.101661 g / cm^3
# Si number density = 21.064556 Si / 1000 Ang^3
#
#
#
# Elastic Constant Matrix: (Units=GPa)
#
#
# Indices 1 2 3 4 5 6 
#
# 1 69.8081 26.0150 29.3779 0.0000 0.0000 0.0000
# 2 26.0150 140.6572 60.3333 0.0000 0.0000 0.0000
# 3 29.3779 60.3333 124.6348 0.0000 0.0000 0.0000
# 4 0.0000 0.0000 0.0000 43.1950 0.0000 0.0000
# 5 0.0000 0.0000 0.0000 0.0000 40.3537 0.0000
# 6 0.0000 0.0000 0.0000 0.0000 0.0000 17.6656
#
#
#
# Elastic Compliance Matrix: (Units=1/GPa)
#
#
# Indices 1 2 3 4 5 6 
#
# 1 0.016224 -0.001717 -0.002993 0.000000 0.000000 0.000000
# 2 -0.001717 0.009154 -0.004027 0.000000 0.000000 0.000000
# 3 -0.002993 -0.004027 0.010678 0.000000 0.000000 0.000000
# 4 0.000000 0.000000 0.000000 0.023151 0.000000 0.000000
# 5 0.000000 0.000000 0.000000 0.000000 0.024781 0.000000
# 6 0.000000 0.000000 0.000000 0.000000 0.000000 0.056607
#
#
# Mechanical properties :
#
#
# Convention : Reuss Voigt Hill
#
# Bulk Modulus (GPa) = 53.81151 62.95026 58.38089
# Shear Modulus (GPa) = 30.43887 34.86779 32.65333
#
# Velocity S-wave (km/s) = 3.80548 4.07293 3.94147
# Velocity P-wave (km/s) = 6.70152 7.21579 6.96340
#
# Compressibility (1/GPa) = 0.01858338
#
# Stress axis : x y z
#
# Youngs Moduli (GPa) = 61.63537 109.23913 93.64863
#
# Poissons Ratio (x) = 0.18755 0.28031
# Poissons Ratio (y) = 0.10582 0.37709
# Poissons Ratio (z) = 0.18449 0.43987
#
# Static dielectric constant tensor:
#      x y z
#    x 3.382010 0.000000 0.000000 
#    y 0.000000 3.708460 0.000000 
#    z 0.000000 0.000000 4.114350 
# 
# 
# High freq. dielectric constant tensor:
#      x y z
#    x 1.780250 0.000000 0.000000 
#    y 0.000000 1.841270 0.000000 
#    z 0.000000 0.000000 1.852050 
# 
# From -- ./inp_files/3483.got.cif
#   From: 2010.03.12/outbox.cif.g09.slc.cpg/sg53_2_cif.got.tgz:3483.got - 2010.04.16 14:36:59.
