data_PCOD8220231
_publ_section_title
;
Structure prediction by ZEFSAII (Michael W. Deem and Ramdas Pophale) SiO2 
 PCOD8220231
Probable space group: P M N A
;
_chemical_formula_sum "Si O2"
_cell_formula_units_Z 48
_cell_length_a 8.668337
_cell_length_b 11.894260
_cell_length_c 25.993293
_cell_angle_alpha 90.000000
_cell_angle_beta 90.000000
_cell_angle_gamma 90.000000
_cell_volume 2679.998290
_symmetry_space_group_name_H-M "P M N A"
_symmetry_group_IT_number 53
_symmetry_cell_setting 'orthorhombic'
loop_
_space_group_symop_operation_xyz
x,y,z
1/2-x,-y,1/2+z
x,-y,-z
1/2-x,y,1/2-z
-x,-y,-z
1/2+x,y,1/2-z
-x,y,z
1/2+x,-y,1/2+z
loop_
_atom_site_type_symbol
_atom_site_label
_atom_site_fract_x
_atom_site_fract_y
_atom_site_fract_z
Si Si1 0.820078 0.468274 0.057927
Si Si2 0.676047 0.232260 0.067500
Si Si3 0.320972 0.153566 0.532759
Si Si4 0.179040 0.671366 0.394154
Si Si5 0.320492 0.006101 0.111119
Si Si6 0.322570 0.834527 0.194719
O O1 0.787095 0.338994 0.071947
O O2 0.726926 0.541245 0.100229
O O3 0.000000 0.491542 0.064094
O O4 0.764840 0.500000 0.000000
O O5 0.500000 0.274815 0.066104
O O6 0.701366 0.141740 0.114125
O O7 0.714099 0.160549 0.017066
O O8 0.500000 0.151617 0.516983
O O9 0.287874 0.263790 0.566233
O O10 0.278527 0.041116 0.563507
O O11 0.211328 0.719724 0.337060
O O12 0.000000 0.688578 0.408504
O O13 0.500000 0.974287 0.101918
O O14 0.261485 0.944102 0.163110
O O15 0.250000 0.824512 0.250000
O O16 0.500000 0.851323 0.205062
#
# Coordination Sequence:
#
# PCOD8220231 Si02
#       6
#     8   8   8   8   8   8
#     4  11  22  34  50  76 109 141 178 222 260 304
#     4  11  21  33  51  71 101 145 182 211 250 307
#     4  11  20  30  47  74 106 138 173 215 258 301
#     4  10  20  35  54  76 104 140 180 215 255 312
#     4   9  20  36  51  73 103 136 175 213 254 311
#     4   9  19  36  58  82 104 128 166 217 268 316
#
# _framework density 17.910457999999998
#
# number of rings (size 3 to 8) (size 9 to 14) (size 15 to 20)
#    0.000    1.833    1.667    4.500    0.000    7.333 
#    0.000    0.000    0.000    1.000    0.000    2.333 
#    0.000    0.000    0.000    0.000    0.000    0.000 
#
# Total GULP energy -595046.350040 kJ/mol
# GULP energy per Si atom -12396.798959 kJ/mol
# Density = 1.786969 g / cm^3
# Si number density = 17.910458 Si / 1000 Ang^3
#
#
#
# Elastic Constant Matrix: (Units=GPa)
#
#
# Indices 1 2 3 4 5 6 
#
# 1 48.4086 26.5523 14.2959 0.0000 0.0000 0.0000
# 2 26.5523 122.5147 47.6773 0.0000 0.0000 0.0000
# 3 14.2959 47.6773 73.2445 0.0000 0.0000 0.0000
# 4 0.0000 0.0000 0.0000 12.8541 0.0000 0.0000
# 5 0.0000 0.0000 0.0000 0.0000 25.0715 0.0000
# 6 0.0000 0.0000 0.0000 0.0000 0.0000 26.8406
#
#
#
# Elastic Compliance Matrix: (Units=1/GPa)
#
#
# Indices 1 2 3 4 5 6 
#
# 1 0.023603 -0.004450 -0.001710 0.000000 0.000000 0.000000
# 2 -0.004450 0.011770 -0.006793 0.000000 0.000000 0.000000
# 3 -0.001710 -0.006793 0.018409 0.000000 0.000000 0.000000
# 4 0.000000 0.000000 0.000000 0.077796 0.000000 0.000000
# 5 0.000000 0.000000 0.000000 0.000000 0.039886 0.000000
# 6 0.000000 0.000000 0.000000 0.000000 0.000000 0.037257
#
#
# Mechanical properties :
#
#
# Convention : Reuss Voigt Hill
#
# Bulk Modulus (GPa) = 35.87374 46.80207 41.33790
# Shear Modulus (GPa) = 20.49854 23.32940 21.91397
#
# Velocity S-wave (km/s) = 3.38672 3.61301 3.50169
# Velocity P-wave (km/s) = 5.94694 6.60250 6.28328
#
# Compressibility (1/GPa) = 0.02787554
#
# Stress axis : x y z
#
# Youngs Moduli (GPa) = 42.36683 84.95972 54.32247
#
# Poissons Ratio (x) = 0.37806 0.09291
# Poissons Ratio (y) = 0.18853 0.36902
# Poissons Ratio (z) = 0.07246 0.57714
#
# Static dielectric constant tensor:
#      x y z
#    x 3.254650 0.000000 0.000000 
#    y 0.000000 3.428680 0.000000 
#    z 0.000000 0.000000 3.261730 
# 
# 
# High freq. dielectric constant tensor:
#      x y z
#    x 1.698740 0.000000 0.000000 
#    y 0.000000 1.700120 0.000000 
#    z 0.000000 0.000000 1.650510 
# 
# From -- ./inp_files/33867.got.cif
#   From: 2010.03.12/outbox.cif.g09.slc.cpg/sg53_17_cif.got.tgz:33867.got - 2010.04.16 14:36:59.
