data_PCOD8220284
_publ_section_title
;
Structure prediction by ZEFSAII (Michael W. Deem and Ramdas Pophale) SiO2 
 PCOD8220284
Probable space group: P M N A
;
_chemical_formula_sum "Si O2"
_cell_formula_units_Z 64
_cell_length_a 16.477823
_cell_length_b 20.460947
_cell_length_c 9.232233
_cell_angle_alpha 90.000000
_cell_angle_beta 90.000000
_cell_angle_gamma 90.000000
_cell_volume 3112.664556
_symmetry_space_group_name_H-M "P M N A"
_symmetry_group_IT_number 53
_symmetry_cell_setting 'orthorhombic'
loop_
_space_group_symop_operation_xyz
x,y,z
1/2-x,-y,1/2+z
x,-y,-z
1/2-x,y,1/2-z
-x,-y,-z
1/2+x,y,1/2-z
-x,y,z
1/2+x,-y,1/2+z
loop_
_atom_site_type_symbol
_atom_site_label
_atom_site_fract_x
_atom_site_fract_y
_atom_site_fract_z
Si Si1 0.661908 0.560557 0.918609
Si Si2 0.669520 0.676868 0.146563
Si Si3 0.402917 0.939128 0.591512
Si Si4 0.907722 0.325808 0.929756
Si Si5 0.596587 0.936577 0.917954
Si Si6 0.346338 0.443099 0.400687
Si Si7 0.094424 0.189222 0.592761
Si Si8 0.093664 0.182110 0.921630
O O1 0.616742 0.566596 0.761836
O O2 0.753025 0.538260 0.884643
O O3 0.618362 0.500000 0.000000
O O4 0.664162 0.625797 0.015191
O O5 0.750000 0.674222 0.250000
O O6 0.596292 0.660154 0.257297
O O7 0.652822 0.747762 0.074068
O O8 0.500000 0.938712 0.585360
O O9 0.370722 0.941693 0.754745
O O10 0.365841 0.873464 0.520296
O O11 0.368851 0.000000 0.500000
O O12 0.869081 0.253556 0.955628
O O13 0.000000 0.332886 0.981865
O O14 0.852106 0.374134 0.019660
O O15 0.500000 0.937908 0.924222
O O16 0.626421 0.868397 0.988088
O O17 0.632027 0.000000 0.000000
O O18 0.389253 0.500000 0.500000
O O19 0.103955 0.161693 0.754939
O O20 0.000000 0.207594 0.561006
O O21 0.000000 0.188386 0.961767
#
# Coordination Sequence:
#
# PCOD8220284 Si02
#       8
#     8   8   8   8   8   8   8   8
#     4  10  21  35  58  83 106 137 186 234 271 320
#     4  11  20  35  57  83 109 144 184 226 273 337
#     4   9  15  23  39  64  95 132 175 217 256 305
#     4  10  20  35  55  79 111 146 177 219 277 335
#     4   9  16  26  43  70 104 140 177 220 268 317
#     4  10  20  36  57  80 107 140 180 226 274 323
#     4   9  18  32  50  75 110 144 177 223 275 326
#     4   8  15  27  42  63  94 132 167 203 255 312
#
# _framework density 20.561161999999999
#
# number of rings (size 3 to 8) (size 9 to 14) (size 15 to 20)
#    0.000    2.500    1.250    2.625    1.750    4.250 
#    0.000    2.500    0.000    2.625    0.000    7.000 
#    0.000    0.000    0.000    0.000    0.000    0.000 
#
# Total GULP energy -792973.348085 kJ/mol
# GULP energy per Si atom -12390.208564 kJ/mol
# Density = 2.051436 g / cm^3
# Si number density = 20.561162 Si / 1000 Ang^3
#
#
#
# Elastic Constant Matrix: (Units=GPa)
#
#
# Indices 1 2 3 4 5 6 
#
# 1 18.5166 15.1362 7.0277 0.0000 0.0000 0.0000
# 2 15.1362 177.4519 118.1671 0.0000 0.0000 0.0000
# 3 7.0277 118.1671 173.1707 0.0000 0.0000 0.0000
# 4 0.0000 0.0000 0.0000 44.9866 0.0000 0.0000
# 5 0.0000 0.0000 0.0000 0.0000 12.6841 0.0000
# 6 0.0000 0.0000 0.0000 0.0000 0.0000 14.7446
#
#
#
# Elastic Compliance Matrix: (Units=1/GPa)
#
#
# Indices 1 2 3 4 5 6 
#
# 1 0.058387 -0.006236 0.001886 0.000000 0.000000 0.000000
# 2 -0.006236 0.010995 -0.007249 0.000000 0.000000 0.000000
# 3 0.001886 -0.007249 0.010645 0.000000 0.000000 0.000000
# 4 0.000000 0.000000 0.000000 0.022229 0.000000 0.000000
# 5 0.000000 0.000000 0.000000 0.000000 0.078839 0.000000
# 6 0.000000 0.000000 0.000000 0.000000 0.000000 0.067822
#
#
# Mechanical properties :
#
#
# Convention : Reuss Voigt Hill
#
# Bulk Modulus (GPa) = 17.59707 72.20015 44.89861
# Shear Modulus (GPa) = 17.17869 29.73694 23.45782
#
# Velocity S-wave (km/s) = 2.89362 3.80711 3.38136
# Velocity P-wave (km/s) = 4.44309 7.38353 6.09334
#
# Compressibility (1/GPa) = 0.05682765
#
# Stress axis : x y z
#
# Youngs Moduli (GPa) = 17.12699 90.95266 93.94133
#
# Poissons Ratio (x) = 0.56719 -0.17716
# Poissons Ratio (y) = 0.10681 0.68102
# Poissons Ratio (z) = -0.03230 0.65936
#
# Static dielectric constant tensor:
#      x y z
#    x 3.180800 0.000000 0.000000 
#    y 0.000000 3.926940 0.000000 
#    z 0.000000 0.000000 3.980200 
# 
# 
# High freq. dielectric constant tensor:
#      x y z
#    x 1.745600 0.000000 0.000000 
#    y 0.000000 1.815890 0.000000 
#    z 0.000000 0.000000 1.807050 
# 
# From -- ./inp_files/10243.got.cif
#   From: 2010.03.12/outbox.cif.g09.slc.cpg/sg53_6_cif.got.tgz:10243.got - 2010.04.16 14:36:59.
