data_PCOD8220930
_publ_section_title
;
Structure prediction by ZEFSAII (Michael W. Deem and Ramdas Pophale) SiO2 
 PCOD8220930
Probable space group: P M N A
;
_chemical_formula_sum "Si O2"
_cell_formula_units_Z 64
_cell_length_a 8.672755
_cell_length_b 24.294662
_cell_length_c 14.702792
_cell_angle_alpha 90.000000
_cell_angle_beta 90.000000
_cell_angle_gamma 90.000000
_cell_volume 3097.902554
_symmetry_space_group_name_H-M "P M N A"
_symmetry_group_IT_number 53
_symmetry_cell_setting 'orthorhombic'
loop_
_space_group_symop_operation_xyz
x,y,z
1/2-x,-y,1/2+z
x,-y,-z
1/2-x,y,1/2-z
-x,-y,-z
1/2+x,y,1/2-z
-x,y,z
1/2+x,-y,1/2+z
loop_
_atom_site_type_symbol
_atom_site_label
_atom_site_fract_x
_atom_site_fract_y
_atom_site_fract_z
Si Si1 0.822620 0.483888 0.846138
Si Si2 0.816666 0.635617 0.149447
Si Si3 0.320010 0.867492 0.346582
Si Si4 0.681865 0.396759 0.351118
Si Si5 0.818583 0.902855 0.649959
Si Si6 0.181433 0.190359 0.027313
Si Si7 0.318229 0.306825 0.017483
Si Si8 0.182240 0.011316 0.849264
O O1 0.750000 0.492873 0.750000
O O2 0.768241 0.425651 0.889345
O O3 0.791245 0.542003 0.897632
O O4 0.000000 0.476159 0.826856
O O5 0.750000 0.644175 0.250000
O O6 0.000000 0.645071 0.149125
O O7 0.737757 0.679656 0.084116
O O8 0.250000 0.850140 0.250000
O O9 0.500000 0.870156 0.329378
O O10 0.274629 0.823035 0.422491
O O11 0.264981 0.928033 0.382702
O O12 0.750000 0.392861 0.250000
O O13 0.500000 0.383249 0.348906
O O14 0.771162 0.354494 0.413683
O O15 0.750000 0.894843 0.750000
O O16 0.772916 0.850151 0.592137
O O17 0.753951 0.958411 0.598357
O O18 0.000000 0.907393 0.657466
O O19 0.000000 0.183662 0.044380
O O20 0.234982 0.251606 0.050488
O O21 0.500000 0.298249 0.018530
O O22 0.250000 0.003848 0.750000
O O23 0.000000 0.004965 0.851896
#
# Coordination Sequence:
#
# PCOD8220930 Si02
#       8
#     8   8   8   8   8   8   8   8
#     4   8  16  31  56  87 118 148 185 229 282 343
#     4  10  20  38  62  89 119 154 191 236 289 343
#     4   9  20  37  61  88 117 150 187 231 284 338
#     4  10  20  38  62  89 119 153 189 235 289 345
#     4  11  22  38  60  88 118 152 189 233 285 341
#     4  11  24  43  61  82 112 151 197 245 289 338
#     4  12  26  42  58  83 115 153 200 246 287 341
#     4   9  16  31  55  86 118 149 183 225 277 339
#
# _framework density 20.659140000000001
#
# number of rings (size 3 to 8) (size 9 to 14) (size 15 to 20)
#    0.000    2.000    0.000    4.500    0.000    4.500 
#    0.000    8.750    0.000    0.000    0.000    0.000 
#    0.000    0.000    0.000    0.000    0.000    0.000 
#
# Total GULP energy -793017.233481 kJ/mol
# GULP energy per Si atom -12390.894273 kJ/mol
# Density = 2.061212 g / cm^3
# Si number density = 20.659140 Si / 1000 Ang^3
#
#
#
# Elastic Constant Matrix: (Units=GPa)
#
#
# Indices 1 2 3 4 5 6 
#
# 1 76.9694 13.4944 15.4891 0.0000 0.0000 0.0000
# 2 13.4944 67.3404 -6.2890 0.0000 0.0000 0.0000
# 3 15.4891 -6.2890 35.3440 0.0000 0.0000 0.0000
# 4 0.0000 0.0000 0.0000 28.5271 0.0000 0.0000
# 5 0.0000 0.0000 0.0000 0.0000 30.8091 0.0000
# 6 0.0000 0.0000 0.0000 0.0000 0.0000 9.7318
#
#
#
# Elastic Compliance Matrix: (Units=1/GPa)
#
#
# Indices 1 2 3 4 5 6 
#
# 1 0.015107 -0.003707 -0.007280 0.000000 0.000000 0.000000
# 2 -0.003707 0.016011 0.004474 0.000000 0.000000 0.000000
# 3 -0.007280 0.004474 0.032280 0.000000 0.000000 0.000000
# 4 0.000000 0.000000 0.000000 0.035054 0.000000 0.000000
# 5 0.000000 0.000000 0.000000 0.000000 0.032458 0.000000
# 6 0.000000 0.000000 0.000000 0.000000 0.000000 0.102756
#
#
# Mechanical properties :
#
#
# Convention : Reuss Voigt Hill
#
# Bulk Modulus (GPa) = 19.85316 25.00475 22.42895
# Shear Modulus (GPa) = 18.97648 24.27754 21.62701
#
# Velocity S-wave (km/s) = 3.03405 3.43176 3.23902
# Velocity P-wave (km/s) = 4.68024 5.27564 4.98684
#
# Compressibility (1/GPa) = 0.05036981
#
# Stress axis : x y z
#
# Youngs Moduli (GPa) = 66.19360 62.45861 30.97907
#
# Poissons Ratio (x) = 0.23155 0.22553
# Poissons Ratio (y) = 0.24540 -0.13859
# Poissons Ratio (z) = 0.48190 -0.27941
#
# Static dielectric constant tensor:
#      x y z
#    x 3.524130 0.000000 0.000000 
#    y 0.000000 4.307330 0.000000 
#    z 0.000000 0.000000 3.537560 
# 
# 
# High freq. dielectric constant tensor:
#      x y z
#    x 1.813480 0.000000 0.000000 
#    y 0.000000 1.825900 0.000000 
#    z 0.000000 0.000000 1.789520 
# 
# From -- ./inp_files/20935.got.cif
#   From: 2010.03.12/outbox.cif.g09.slc.cpg/sg53_11_cif.got.tgz:20935.got - 2010.04.16 14:36:59.
