data_PCOD8220717
_publ_section_title
;
Structure prediction by ZEFSAII (Michael W. Deem and Ramdas Pophale) SiO2 
 PCOD8220717
Probable space group: P M N A
;
_chemical_formula_sum "Si O2"
_cell_formula_units_Z 48
_cell_length_a 23.399533
_cell_length_b 8.845765
_cell_length_c 10.618683
_cell_angle_alpha 90.000000
_cell_angle_beta 90.000000
_cell_angle_gamma 90.000000
_cell_volume 2197.926896
_symmetry_space_group_name_H-M "P M N A"
_symmetry_group_IT_number 53
_symmetry_cell_setting 'orthorhombic'
loop_
_space_group_symop_operation_xyz
x,y,z
1/2-x,-y,1/2+z
x,-y,-z
1/2-x,y,1/2-z
-x,-y,-z
1/2+x,y,1/2-z
-x,y,z
1/2+x,-y,1/2+z
loop_
_atom_site_type_symbol
_atom_site_label
_atom_site_fract_x
_atom_site_fract_y
_atom_site_fract_z
Si Si1 0.064764 0.210868 0.703684
Si Si2 0.341717 0.707262 0.724441
Si Si3 0.284368 0.173624 0.501330
Si Si4 0.934826 0.075079 0.131552
Si Si5 0.130645 0.405447 0.878497
Si Si6 0.344167 0.827974 0.003759
O O1 0.075067 0.327117 0.818358
O O2 0.109922 0.253503 0.594000
O O3 0.000000 0.231272 0.653986
O O4 0.074688 0.041165 0.753479
O O5 0.286833 0.766150 0.643895
O O6 0.396442 0.777373 0.651502
O O7 0.342676 0.525437 0.720099
O O8 0.343404 0.754371 0.867689
O O9 0.322914 0.275876 0.592364
O O10 0.220217 0.184091 0.556946
O O11 0.305553 0.000000 0.500000
O O12 0.000000 0.130135 0.126496
O O13 0.916928 0.000000 0.000000
O O14 0.111584 0.500000 0.000000
O O15 0.364364 0.000000 0.000000
#
# Coordination Sequence:
#
# PCOD8220717 Si02
#       6
#     8   8   8   8   8   8
#     4  11  24  43  66  96 134 179 230 276 331 403
#     4  11  21  41  64  96 136 170 224 269 336 406
#     4  10  22  42  69  95 127 171 226 279 332 396
#     4  10  20  36  65  97 130 175 229 286 330 381
#     4  10  23  43  65 100 131 174 218 285 337 395
#     4  11  24  42  66  98 132 180 219 273 331 404
#
# _framework density 21.838761000000002
#
# number of rings (size 3 to 8) (size 9 to 14) (size 15 to 20)
#    0.000    1.500    1.667    4.000    0.000    3.333 
#   15.000    0.833    0.000    0.000    0.000    0.000 
#    0.000    0.000    0.000    0.000    0.000    0.000 
#
# Total GULP energy -595167.482790 kJ/mol
# GULP energy per Si atom -12399.322558 kJ/mol
# Density = 2.178906 g / cm^3
# Si number density = 21.838761 Si / 1000 Ang^3
#
#
#
# Elastic Constant Matrix: (Units=GPa)
#
#
# Indices 1 2 3 4 5 6 
#
# 1 125.5446 43.4441 47.5269 0.0000 0.0000 0.0000
# 2 43.4441 132.7422 34.5401 0.0000 0.0000 0.0000
# 3 47.5269 34.5401 98.9964 0.0000 0.0000 0.0000
# 4 0.0000 0.0000 0.0000 34.1069 0.0000 0.0000
# 5 0.0000 0.0000 0.0000 0.0000 35.5027 0.0000
# 6 0.0000 0.0000 0.0000 0.0000 0.0000 4.6672
#
#
#
# Elastic Compliance Matrix: (Units=1/GPa)
#
#
# Indices 1 2 3 4 5 6 
#
# 1 0.010336 -0.002300 -0.004160 0.000000 0.000000 0.000000
# 2 -0.002300 0.008798 -0.001965 0.000000 0.000000 0.000000
# 3 -0.004160 -0.001965 0.012784 0.000000 0.000000 0.000000
# 4 0.000000 0.000000 0.000000 0.029320 0.000000 0.000000
# 5 0.000000 0.000000 0.000000 0.000000 0.028167 0.000000
# 6 0.000000 0.000000 0.000000 0.000000 0.000000 0.214263
#
#
# Mechanical properties :
#
#
# Convention : Reuss Voigt Hill
#
# Bulk Modulus (GPa) = 66.36851 67.58949 66.97900
# Shear Modulus (GPa) = 15.35909 30.30682 22.83296
#
# Velocity S-wave (km/s) = 2.65485 3.72930 3.23696
# Velocity P-wave (km/s) = 6.31299 7.03989 6.68633
#
# Compressibility (1/GPa) = 0.01506739
#
# Stress axis : x y z
#
# Youngs Moduli (GPa) = 96.74894 113.66702 78.22312
#
# Poissons Ratio (x) = 0.26149 0.32537
# Poissons Ratio (y) = 0.22257 0.15372
# Poissons Ratio (z) = 0.40243 0.22337
#
# Static dielectric constant tensor:
#      x y z
#    x 3.897150 0.000000 0.000000 
#    y 0.000000 4.077020 0.000000 
#    z 0.000000 0.000000 3.833540 
# 
# 
# High freq. dielectric constant tensor:
#      x y z
#    x 1.857220 0.000000 0.000000 
#    y 0.000000 1.855870 0.000000 
#    z 0.000000 0.000000 1.853530 
# 
# From -- ./inp_files/18248.got.cif
#   From: 2010.03.12/outbox.cif.g09.slc.cpg/sg53_10_cif.got.tgz:18248.got - 2010.04.16 14:36:59.
