data_PCOD8220382
_publ_section_title
;
Structure prediction by ZEFSAII (Michael W. Deem and Ramdas Pophale) SiO2 
 PCOD8220382
Probable space group: P M N A
;
_chemical_formula_sum "Si O2"
_cell_formula_units_Z 64
_cell_length_a 8.659552
_cell_length_b 11.805433
_cell_length_c 31.651482
_cell_angle_alpha 90.000000
_cell_angle_beta 90.000000
_cell_angle_gamma 90.000000
_cell_volume 3235.723438
_symmetry_space_group_name_H-M "P M N A"
_symmetry_group_IT_number 53
_symmetry_cell_setting 'orthorhombic'
loop_
_space_group_symop_operation_xyz
x,y,z
1/2-x,-y,1/2+z
x,-y,-z
1/2-x,y,1/2-z
-x,-y,-z
1/2+x,y,1/2-z
-x,y,z
1/2+x,-y,1/2+z
loop_
_atom_site_type_symbol
_atom_site_label
_atom_site_fract_x
_atom_site_fract_y
_atom_site_fract_z
Si Si1 0.179101 0.868422 0.585821
Si Si2 0.677113 0.870093 0.503004
Si Si3 0.822755 0.499565 0.450945
Si Si4 0.681915 0.321594 0.205753
Si Si5 0.817780 0.345581 0.120732
Si Si6 0.681909 0.941116 0.793473
Si Si7 0.176469 0.245834 0.574158
Si Si8 0.181695 0.927801 0.128467
O O1 0.213900 0.817817 0.539468
O O2 0.238139 0.777487 0.619374
O O3 0.000000 0.891889 0.593941
O O4 0.273638 0.985425 0.590822
O O5 0.500000 0.852321 0.515894
O O6 0.709980 0.805103 0.460424
O O7 0.723092 0.000000 0.500000
O O8 0.761572 0.500000 0.500000
O O9 0.727032 0.416884 0.420732
O O10 0.805700 0.619854 0.427932
O O11 0.000000 0.458406 0.451534
O O12 0.750000 0.368828 0.250000
O O13 0.500000 0.340927 0.205703
O O14 0.755993 0.392028 0.166129
O O15 0.729001 0.189815 0.201029
O O16 0.000000 0.333797 0.121921
O O17 0.750000 0.988253 0.750000
O O18 0.500000 0.956800 0.794883
O O19 0.756881 0.020295 0.828522
O O20 0.236010 0.193485 0.618661
O O21 0.000000 0.209486 0.565885
O O22 0.000000 0.909065 0.130272
#
# Coordination Sequence:
#
# PCOD8220382 Si02
#       8
#     8   8   8   8   8   8   8   8
#     4  12  23  36  55  81 115 154 197 241 291 350
#     4  11  22  35  53  80 114 149 187 238 291 343
#     4  10  23  44  66  88 116 157 209 259 308 364
#     4  10  20  35  58  88 125 161 198 247 300 362
#     4  12  24  38  61  89 121 159 200 248 305 361
#     4  10  20  35  57  86 122 162 197 239 294 359
#     4  11  23  39  61  86 115 155 199 245 295 353
#     4  12  23  36  56  84 120 156 195 243 292 352
#
# _framework density 19.779192999999999
#
# number of rings (size 3 to 8) (size 9 to 14) (size 15 to 20)
#    0.000    1.000    2.500    5.625    0.000    3.750 
#    0.000    0.000    0.000    0.750    0.000    0.000 
#    0.000    0.000    0.000    0.000    0.000    0.000 
#
# Total GULP energy -793567.411794 kJ/mol
# GULP energy per Si atom -12399.490809 kJ/mol
# Density = 1.973417 g / cm^3
# Si number density = 19.779193 Si / 1000 Ang^3
#
#
#
# Elastic Constant Matrix: (Units=GPa)
#
#
# Indices 1 2 3 4 5 6 
#
# 1 94.5498 21.4100 31.7125 0.0000 0.0000 0.0000
# 2 21.4100 47.5705 17.4395 0.0000 0.0000 0.0000
# 3 31.7125 17.4395 124.4064 0.0000 0.0000 0.0000
# 4 0.0000 0.0000 0.0000 29.9086 0.0000 0.0000
# 5 0.0000 0.0000 0.0000 0.0000 39.3110 0.0000
# 6 0.0000 0.0000 0.0000 0.0000 0.0000 19.4867
#
#
#
# Elastic Compliance Matrix: (Units=1/GPa)
#
#
# Indices 1 2 3 4 5 6 
#
# 1 0.012486 -0.004694 -0.002525 0.000000 0.000000 0.000000
# 2 -0.004694 0.023925 -0.002157 0.000000 0.000000 0.000000
# 3 -0.002525 -0.002157 0.008984 0.000000 0.000000 0.000000
# 4 0.000000 0.000000 0.000000 0.033435 0.000000 0.000000
# 5 0.000000 0.000000 0.000000 0.000000 0.025438 0.000000
# 6 0.000000 0.000000 0.000000 0.000000 0.000000 0.051317
#
#
# Mechanical properties :
#
#
# Convention : Reuss Voigt Hill
#
# Bulk Modulus (GPa) = 37.53327 45.29452 41.41389
# Shear Modulus (GPa) = 27.28972 30.80556 29.04764
#
# Velocity S-wave (km/s) = 3.71849 3.95077 3.83638
# Velocity P-wave (km/s) = 6.11993 6.61522 6.37239
#
# Compressibility (1/GPa) = 0.02664303
#
# Stress axis : x y z
#
# Youngs Moduli (GPa) = 80.08841 41.79736 111.30661
#
# Poissons Ratio (x) = 0.19620 0.28103
# Poissons Ratio (y) = 0.37594 0.24012
# Poissons Ratio (z) = 0.20221 0.09017
#
# Static dielectric constant tensor:
#      x y z
#    x 3.577160 0.000000 0.000000 
#    y 0.000000 3.476670 0.000000 
#    z 0.000000 0.000000 3.883410 
# 
# 
# High freq. dielectric constant tensor:
#      x y z
#    x 1.781920 0.000000 0.000000 
#    y 0.000000 1.735030 0.000000 
#    z 0.000000 0.000000 1.783050 
# 
# From -- ./inp_files/38298.got.cif
#   From: 2010.03.12/outbox.cif.g09.slc.cpg/sg53_20_cif.got.tgz:38298.got - 2010.04.16 14:36:59.
