data_PCOD8220981
_publ_section_title
;
Structure prediction by ZEFSAII (Michael W. Deem and Ramdas Pophale) SiO2 
 PCOD8220981
Probable space group: P M N A
;
_chemical_formula_sum "Si O2"
_cell_formula_units_Z 64
_cell_length_a 9.136300
_cell_length_b 19.148339
_cell_length_c 18.915856
_cell_angle_alpha 90.000000
_cell_angle_beta 90.000000
_cell_angle_gamma 90.000000
_cell_volume 3309.233853
_symmetry_space_group_name_H-M "P M N A"
_symmetry_group_IT_number 53
_symmetry_cell_setting 'orthorhombic'
loop_
_space_group_symop_operation_xyz
x,y,z
1/2-x,-y,1/2+z
x,-y,-z
1/2-x,y,1/2-z
-x,-y,-z
1/2+x,y,1/2-z
-x,y,z
1/2+x,-y,1/2+z
loop_
_atom_site_type_symbol
_atom_site_label
_atom_site_fract_x
_atom_site_fract_y
_atom_site_fract_z
Si Si1 0.327292 0.819346 0.040714
Si Si2 0.672808 0.925171 0.676145
Si Si3 0.332597 0.472115 0.074659
Si Si4 0.326478 0.638388 0.673801
Si Si5 0.172439 0.743228 0.318704
Si Si6 0.671160 0.784082 0.599864
Si Si7 0.660245 0.043309 0.569474
Si Si8 0.837235 0.587029 0.312724
O O1 0.500000 0.816060 0.029974
O O2 0.273368 0.780956 0.111075
O O3 0.278607 0.898656 0.050962
O O4 0.254704 0.780202 0.974458
O O5 0.750000 0.934187 0.750000
O O6 0.500000 0.923048 0.686874
O O7 0.726223 0.853033 0.640589
O O8 0.721452 0.991720 0.629823
O O9 0.500000 0.444145 0.067096
O O10 0.235297 0.413335 0.113091
O O11 0.327584 0.543115 0.117428
O O12 0.268985 0.500000 0.000000
O O13 0.250000 0.625689 0.750000
O O14 0.500000 0.625578 0.682441
O O15 0.292052 0.716811 0.647809
O O16 0.250000 0.777124 0.250000
O O17 0.226916 0.663662 0.327812
O O18 0.000000 0.750913 0.309219
O O19 0.500000 0.788628 0.582775
O O20 0.500000 0.074601 0.591276
O O21 0.633848 0.000000 0.500000
O O22 0.750000 0.548613 0.250000
O O23 0.000000 0.594459 0.284013
#
# Coordination Sequence:
#
# PCOD8220981 Si02
#       8
#     8   8   8   8   8   8   8   8
#     4  11  23  36  59  90 119 149 191 248 293 339
#     4  10  21  38  61  86 114 151 194 240 289 346
#     4  10  22  38  60  87 119 158 195 240 296 352
#     4  11  24  41  63  89 122 160 201 250 298 357
#     4   9  20  37  56  82 114 148 189 234 283 338
#     4  10  22  41  61  85 118 159 200 236 292 359
#     4  10  20  39  61  79 111 156 193 229 281 348
#     4   9  18  35  57  80 107 146 190 229 275 335
#
# _framework density 19.339824
#
# number of rings (size 3 to 8) (size 9 to 14) (size 15 to 20)
#    0.000    2.000    1.250    1.500    1.750    5.500 
#    0.000    2.500    0.000    0.000    0.000    0.000 
#    0.000    0.000    0.000    0.000    0.000    0.000 
#
# Total GULP energy -793454.713879 kJ/mol
# GULP energy per Si atom -12397.729904 kJ/mol
# Density = 1.929581 g / cm^3
# Si number density = 19.339824 Si / 1000 Ang^3
#
#
#
# Elastic Constant Matrix: (Units=GPa)
#
#
# Indices 1 2 3 4 5 6 
#
# 1 61.4457 34.9419 52.8614 0.0000 0.0000 0.0000
# 2 34.9419 72.6464 41.9913 0.0000 0.0000 0.0000
# 3 52.8614 41.9913 147.0548 0.0000 0.0000 0.0000
# 4 0.0000 0.0000 0.0000 31.7035 0.0000 0.0000
# 5 0.0000 0.0000 0.0000 0.0000 45.6319 0.0000
# 6 0.0000 0.0000 0.0000 0.0000 0.0000 25.2191
#
#
#
# Elastic Compliance Matrix: (Units=1/GPa)
#
#
# Indices 1 2 3 4 5 6 
#
# 1 0.027817 -0.009102 -0.007400 0.000000 0.000000 0.000000
# 2 -0.009102 0.019465 -0.002286 0.000000 0.000000 0.000000
# 3 -0.007400 -0.002286 0.010113 0.000000 0.000000 0.000000
# 4 0.000000 0.000000 0.000000 0.031542 0.000000 0.000000
# 5 0.000000 0.000000 0.000000 0.000000 0.021914 0.000000
# 6 0.000000 0.000000 0.000000 0.000000 0.000000 0.039653
#
#
# Mechanical properties :
#
#
# Convention : Reuss Voigt Hill
#
# Bulk Modulus (GPa) = 50.45963 60.08180 55.27071
# Shear Modulus (GPa) = 25.68227 30.60107 28.14167
#
# Velocity S-wave (km/s) = 3.64806 3.98211 3.81874
# Velocity P-wave (km/s) = 6.62511 7.23026 6.93429
#
# Compressibility (1/GPa) = 0.01981782
#
# Stress axis : x y z
#
# Youngs Moduli (GPa) = 35.94943 51.37494 98.88123
#
# Poissons Ratio (x) = 0.46762 0.73174
# Poissons Ratio (y) = 0.32721 0.22607
# Poissons Ratio (z) = 0.26603 0.11746
#
# Static dielectric constant tensor:
#      x y z
#    x 3.518860 0.000000 0.000000 
#    y 0.000000 3.038920 0.000000 
#    z 0.000000 0.000000 3.701200 
# 
# 
# High freq. dielectric constant tensor:
#      x y z
#    x 1.746360 0.000000 0.000000 
#    y 0.000000 1.755470 0.000000 
#    z 0.000000 0.000000 1.764680 
# 
# From -- ./inp_files/27021.got.cif
#   From: 2010.03.12/outbox.cif.g09.slc.cpg/sg53_14_cif.got.tgz:27021.got - 2010.04.16 14:36:59.
