data_PCOD8220933
_publ_section_title
;
Structure prediction by ZEFSAII (Michael W. Deem and Ramdas Pophale) SiO2 
 PCOD8220933
Probable space group: P M N A
;
_chemical_formula_sum "Si O2"
_cell_formula_units_Z 40
_cell_length_a 18.864206
_cell_length_b 10.101829
_cell_length_c 10.490224
_cell_angle_alpha 90.000000
_cell_angle_beta 90.000000
_cell_angle_gamma 90.000000
_cell_volume 1999.048380
_symmetry_space_group_name_H-M "P M N A"
_symmetry_group_IT_number 53
_symmetry_cell_setting 'orthorhombic'
loop_
_space_group_symop_operation_xyz
x,y,z
1/2-x,-y,1/2+z
x,-y,-z
1/2-x,y,1/2-z
-x,-y,-z
1/2+x,y,1/2-z
-x,y,z
1/2+x,-y,1/2+z
loop_
_atom_site_type_symbol
_atom_site_label
_atom_site_fract_x
_atom_site_fract_y
_atom_site_fract_z
Si Si1 0.581810 0.296305 0.746359
Si Si2 0.576266 0.972887 0.356986
Si Si3 0.185041 0.521009 0.849947
Si Si4 0.167264 0.795917 0.751936
Si Si5 0.918155 0.156533 0.488247
O O1 0.500000 0.338884 0.735001
O O2 0.627376 0.419640 0.701756
O O3 0.603159 0.177067 0.652485
O O4 0.599569 0.239787 0.885837
O O5 0.500000 0.986140 0.280866
O O6 0.633778 0.072442 0.307058
O O7 0.559237 0.000000 0.500000
O O8 0.250000 0.511631 0.750000
O O9 0.151187 0.667453 0.838578
O O10 0.205722 0.500000 0.000000
O O11 0.250000 0.824097 0.750000
O O12 0.133879 0.774218 0.612805
O O13 0.000000 0.175200 0.448302
O O14 0.900061 0.000000 0.500000
#
# Coordination Sequence:
#
# PCOD8220933 Si02
#       5
#     8   8   8   8   8
#     4  10  22  40  68  99 127 168 219 271 330 385
#     4  10  20  38  62  89 123 163 211 266 324 381
#     4  11  27  46  66  92 135 179 217 270 328 391
#     4  11  24  38  61  92 129 168 217 263 322 386
#     4  10  20  40  68  98 132 168 214 275 328 384
#
# _framework density 20.009520999999999
#
# number of rings (size 3 to 8) (size 9 to 14) (size 15 to 20)
#    0.000    1.600    2.000    1.800    5.600    3.600 
#    0.000    2.000    0.000    0.000    0.000    0.000 
#    0.000    0.000    0.000    0.000    0.000    0.000 
#
# Total GULP energy -495709.224767 kJ/mol
# GULP energy per Si atom -12392.730619 kJ/mol
# Density = 1.996398 g / cm^3
# Si number density = 20.009521 Si / 1000 Ang^3
#
#
#
# Elastic Constant Matrix: (Units=GPa)
#
#
# Indices 1 2 3 4 5 6 
#
# 1 106.5302 60.1070 43.4572 0.0000 0.0000 0.0000
# 2 60.1070 89.9137 4.4564 0.0000 0.0000 0.0000
# 3 43.4572 4.4564 95.0846 0.0000 0.0000 0.0000
# 4 0.0000 0.0000 0.0000 38.3821 0.0000 0.0000
# 5 0.0000 0.0000 0.0000 0.0000 33.4612 0.0000
# 6 0.0000 0.0000 0.0000 0.0000 0.0000 43.6923
#
#
#
# Elastic Compliance Matrix: (Units=1/GPa)
#
#
# Indices 1 2 3 4 5 6 
#
# 1 0.020376 -0.013190 -0.008694 0.000000 0.000000 0.000000
# 2 -0.013190 0.019686 0.005106 0.000000 0.000000 0.000000
# 3 -0.008694 0.005106 0.014251 0.000000 0.000000 0.000000
# 4 0.000000 0.000000 0.000000 0.026054 0.000000 0.000000
# 5 0.000000 0.000000 0.000000 0.000000 0.029885 0.000000
# 6 0.000000 0.000000 0.000000 0.000000 0.000000 0.022887
#
#
# Mechanical properties :
#
#
# Convention : Reuss Voigt Hill
#
# Bulk Modulus (GPa) = 48.17909 56.39664 52.28786
# Shear Modulus (GPa) = 28.79898 35.34096 32.06997
#
# Velocity S-wave (km/s) = 3.79788 4.20719 4.00776
# Velocity P-wave (km/s) = 6.58500 7.20046 6.89960
#
# Compressibility (1/GPa) = 0.02075589
#
# Stress axis : x y z
#
# Youngs Moduli (GPa) = 49.07699 50.79624 70.16886
#
# Poissons Ratio (x) = 0.67003 0.61008
# Poissons Ratio (y) = 0.64735 -0.35827
# Poissons Ratio (z) = 0.42670 -0.25936
#
# Static dielectric constant tensor:
#      x y z
#    x 3.484420 0.000000 0.000000 
#    y 0.000000 3.551010 0.000000 
#    z 0.000000 0.000000 3.256110 
# 
# 
# High freq. dielectric constant tensor:
#      x y z
#    x 1.777230 0.000000 0.000000 
#    y 0.000000 1.788370 0.000000 
#    z 0.000000 0.000000 1.792880 
# 
# From -- ./inp_files/16705.got.cif
#   From: 2010.03.12/outbox.cif.g09.slc.cpg/sg53_9_cif.got.tgz:16705.got - 2010.04.16 14:36:59.
