data_PCOD8220202
_publ_section_title
;
Structure prediction by ZEFSAII (Michael W. Deem and Ramdas Pophale) SiO2 
 PCOD8220202
Probable space group: P M N A
;
_chemical_formula_sum "Si O2"
_cell_formula_units_Z 40
_cell_length_a 19.376191
_cell_length_b 18.099459
_cell_length_c 5.317720
_cell_angle_alpha 90.000000
_cell_angle_beta 90.000000
_cell_angle_gamma 90.000000
_cell_volume 1864.916824
_symmetry_space_group_name_H-M "P M N A"
_symmetry_group_IT_number 53
_symmetry_cell_setting 'orthorhombic'
loop_
_space_group_symop_operation_xyz
x,y,z
1/2-x,-y,1/2+z
x,-y,-z
1/2-x,y,1/2-z
-x,-y,-z
1/2+x,y,1/2-z
-x,y,z
1/2+x,-y,1/2+z
loop_
_atom_site_type_symbol
_atom_site_label
_atom_site_fract_x
_atom_site_fract_y
_atom_site_fract_z
Si Si1 0.859194 0.312965 0.910668
Si Si2 0.920570 0.546441 0.251931
Si Si3 0.000000 0.728531 0.972515
Si Si4 0.352504 0.165696 0.903442
Si Si5 0.250000 0.248925 0.250000
Si Si6 0.250000 0.951670 0.250000
Si Si7 0.000000 0.818839 0.482309
O O1 0.864366 0.386509 0.740470
O O2 0.863198 0.237991 0.758567
O O3 0.929805 0.318520 0.078253
O O4 0.787841 0.306559 0.063764
O O5 0.904257 0.500000 0.500000
O O6 0.000000 0.575941 0.259395
O O7 0.907524 0.500000 0.000000
O O8 0.000000 0.790725 0.765215
O O9 0.000000 0.758043 0.260317
O O10 0.316957 0.100425 0.748492
O O11 0.428676 0.134276 0.971838
O O12 0.306012 0.192228 0.137050
O O13 0.252725 0.000000 0.500000
#
# Coordination Sequence:
#
# PCOD8220202 Si02
#       7
#     8   8   4   8   4   4   4
#     4  11  22  39  68 101 135 182 238 298 338 419
#     4  10  23  41  65  99 141 184 228 285 358 419
#     4  10  20  34  60 102 134 166 219 293 354 381
#     4  11  24  43  69 105 136 181 235 285 349 420
#     4  12  21  38  72  97 142 174 246 292 349 412
#     4  12  27  46  72 101 144 188 226 278 357 440
#     4  10  22  38  66 100 136 170 223 293 338 401
#
# _framework density 21.448677
#
# number of rings (size 3 to 8) (size 9 to 14) (size 15 to 20)
#    0.000    1.200    5.000    0.600    2.800    0.000 
#    0.000    1.000    4.400    0.000    0.000    0.000 
#    0.000    0.000    0.000    0.000    0.000    0.000 
#
# Total GULP energy -495538.022285 kJ/mol
# GULP energy per Si atom -12388.450557 kJ/mol
# Density = 2.139986 g / cm^3
# Si number density = 21.448677 Si / 1000 Ang^3
#
#
#
# Elastic Constant Matrix: (Units=GPa)
#
#
# Indices 1 2 3 4 5 6 
#
# 1 173.2004 48.2968 41.2217 0.0000 0.0000 0.0000
# 2 48.2968 115.9961 45.2955 0.0000 0.0000 0.0000
# 3 41.2217 45.2955 107.6270 0.0000 0.0000 0.0000
# 4 0.0000 0.0000 0.0000 19.9632 0.0000 0.0000
# 5 0.0000 0.0000 0.0000 0.0000 -3.3179 0.0000
# 6 0.0000 0.0000 0.0000 0.0000 0.0000 20.6656
#
#
#
# Elastic Compliance Matrix: (Units=1/GPa)
#
#
# Indices 1 2 3 4 5 6 
#
# 1 0.006778 -0.002164 -0.001685 0.000000 0.000000 0.000000
# 2 -0.002164 0.011007 -0.003804 0.000000 0.000000 0.000000
# 3 -0.001685 -0.003804 0.011538 0.000000 0.000000 0.000000
# 4 0.000000 0.000000 0.000000 0.050092 0.000000 0.000000
# 5 0.000000 0.000000 0.000000 0.000000 -0.301398 0.000000
# 6 0.000000 0.000000 0.000000 0.000000 0.000000 0.048390
#
#
# Mechanical properties :
#
#
# Convention : Reuss Voigt Hill
#
# Bulk Modulus (GPa) = 71.34173 74.05016 72.69595
# Shear Modulus (GPa) = -32.54902 24.92949 -3.80976
#
# Velocity S-wave (km/s) = -3.89978 3.41293 -1.33420
# Velocity P-wave (km/s) = 3.61333 7.08026 5.62078
#
# Compressibility (1/GPa) = 0.01401704
#
# Stress axis : x y z
#
# Youngs Moduli (GPa) = 147.53126 90.84850 86.67302
#
# Poissons Ratio (x) = 0.19661 0.14607
# Poissons Ratio (y) = 0.31928 0.32967
# Poissons Ratio (z) = 0.24864 0.34555
#
# Static dielectric constant tensor:
#      x y z
#    x 5.481540 0.000000 0.000000 
#    y 0.000000 3.600090 0.000000 
#    z 0.000000 0.000000 3.355930 
# 
# 
# High freq. dielectric constant tensor:
#      x y z
#    x 1.859720 0.000000 0.000000 
#    y 0.000000 1.808330 0.000000 
#    z 0.000000 0.000000 1.843990 
# 
# From -- ./inp_files/2916.got.cif
#   From: 2010.03.12/outbox.cif.g09.slc.cpg/sg53_2_cif.got.tgz:2916.got - 2010.04.16 14:36:59.
