data_PCOD8220967
_publ_section_title
;
Structure prediction by ZEFSAII (Michael W. Deem and Ramdas Pophale) SiO2 
 PCOD8220967
Probable space group: P M N A
;
_chemical_formula_sum "Si O2"
_cell_formula_units_Z 64
_cell_length_a 17.794515
_cell_length_b 11.688639
_cell_length_c 15.256848
_cell_angle_alpha 90.000000
_cell_angle_beta 90.000000
_cell_angle_gamma 90.000000
_cell_volume 3173.327686
_symmetry_space_group_name_H-M "P M N A"
_symmetry_group_IT_number 53
_symmetry_cell_setting 'orthorhombic'
loop_
_space_group_symop_operation_xyz
x,y,z
1/2-x,-y,1/2+z
x,-y,-z
1/2-x,y,1/2-z
-x,-y,-z
1/2+x,y,1/2-z
-x,y,z
1/2+x,-y,1/2+z
loop_
_atom_site_type_symbol
_atom_site_label
_atom_site_fract_x
_atom_site_fract_y
_atom_site_fract_z
Si Si1 0.643701 0.251071 0.911004
Si Si2 0.677199 0.493538 0.308102
Si Si3 0.177301 0.275238 0.091008
Si Si4 0.162338 0.894767 0.759900
Si Si5 0.413844 0.863310 0.257566
Si Si6 0.812889 0.270942 0.894675
Si Si7 0.913085 0.483762 0.644532
Si Si8 0.146682 0.269616 0.398595
O O1 0.592366 0.187657 0.840162
O O2 0.730007 0.215658 0.891412
O O3 0.633171 0.388744 0.909678
O O4 0.620859 0.211166 0.009530
O O5 0.750000 0.456162 0.250000
O O6 0.644211 0.389214 0.364875
O O7 0.697837 0.596371 0.372092
O O8 0.609265 0.531814 0.245805
O O9 0.150324 0.166005 0.146447
O O10 0.265883 0.295803 0.093583
O O11 0.150135 0.258883 0.991101
O O12 0.250000 0.924878 0.750000
O O13 0.131041 0.814085 0.682436
O O14 0.112842 0.006974 0.758289
O O15 0.500000 0.857714 0.287291
O O16 0.364973 0.791151 0.325166
O O17 0.896348 0.611504 0.613035
O O18 0.000000 0.456288 0.632319
#
# Coordination Sequence:
#
# PCOD8220967 Si02
#       8
#     8   8   8   8   8   8   8   8
#     4  11  22  39  63  94 123 161 206 252 301 368
#     4  12  18  36  64  91 126 165 200 246 296 360
#     4  10  20  38  66  96 119 155 212 256 300 351
#     4  10  21  42  66  88 118 158 207 262 304 364
#     4  12  26  43  61  85 122 164 206 258 320 374
#     4  11  22  38  66  95 120 159 207 259 301 361
#     4  12  23  35  58  93 133 167 194 237 304 373
#     4  10  21  38  64  94 125 157 203 251 304 364
#
# _framework density 20.168102999999999
#
# number of rings (size 3 to 8) (size 9 to 14) (size 15 to 20)
#    0.000    1.000    5.000    2.625    0.000    5.000 
#    0.000    6.250    0.000    1.500    0.000    0.000 
#    0.000    0.000    0.000    0.000    0.000    0.000 
#
# Total GULP energy -793687.881239 kJ/mol
# GULP energy per Si atom -12401.373144 kJ/mol
# Density = 2.012220 g / cm^3
# Si number density = 20.168103 Si / 1000 Ang^3
#
#
#
# Elastic Constant Matrix: (Units=GPa)
#
#
# Indices 1 2 3 4 5 6 
#
# 1 77.9808 25.8045 31.7971 0.0000 0.0000 0.0000
# 2 25.8045 86.5815 35.2531 0.0000 0.0000 0.0000
# 3 31.7971 35.2531 143.1950 0.0000 0.0000 0.0000
# 4 0.0000 0.0000 0.0000 9.8882 0.0000 0.0000
# 5 0.0000 0.0000 0.0000 0.0000 8.5991 0.0000
# 6 0.0000 0.0000 0.0000 0.0000 0.0000 18.7550
#
#
#
# Elastic Compliance Matrix: (Units=1/GPa)
#
#
# Indices 1 2 3 4 5 6 
#
# 1 0.014976 -0.003456 -0.002475 0.000000 0.000000 0.000000
# 2 -0.003456 0.013634 -0.002589 0.000000 0.000000 0.000000
# 3 -0.002475 -0.002589 0.008170 0.000000 0.000000 0.000000
# 4 0.000000 0.000000 0.000000 0.101131 0.000000 0.000000
# 5 0.000000 0.000000 0.000000 0.000000 0.116291 0.000000
# 6 0.000000 0.000000 0.000000 0.000000 0.000000 0.053319
#
#
# Mechanical properties :
#
#
# Convention : Reuss Voigt Hill
#
# Bulk Modulus (GPa) = 50.65546 54.82963 52.74254
# Shear Modulus (GPa) = 15.09928 21.77530 18.43729
#
# Velocity S-wave (km/s) = 2.73915 3.28943 3.02682
# Velocity P-wave (km/s) = 5.93086 6.45542 6.19869
#
# Compressibility (1/GPa) = 0.01974121
#
# Stress axis : x y z
#
# Youngs Moduli (GPa) = 66.77200 73.34604 122.39243
#
# Poissons Ratio (x) = 0.25347 0.30289
# Poissons Ratio (y) = 0.23075 0.31689
# Poissons Ratio (z) = 0.16525 0.18990
#
# Static dielectric constant tensor:
#      x y z
#    x 3.405740 0.000000 0.000000 
#    y 0.000000 3.563380 0.000000 
#    z 0.000000 0.000000 4.087680 
# 
# 
# High freq. dielectric constant tensor:
#      x y z
#    x 1.758980 0.000000 0.000000 
#    y 0.000000 1.783440 0.000000 
#    z 0.000000 0.000000 1.803240 
# 
# From -- ./inp_files/23883.got.cif
#   From: 2010.03.12/outbox.cif.g09.slc.cpg/sg53_12_cif.got.tgz:23883.got - 2010.04.16 14:36:59.
