data_PCOD8220521
_publ_section_title
;
Structure prediction by ZEFSAII (Michael W. Deem and Ramdas Pophale) SiO2 
 PCOD8220521
Probable space group: P M N A
;
_chemical_formula_sum "Si O2"
_cell_formula_units_Z 40
_cell_length_a 8.984304
_cell_length_b 25.526409
_cell_length_c 9.133388
_cell_angle_alpha 90.000000
_cell_angle_beta 90.000000
_cell_angle_gamma 90.000000
_cell_volume 2094.623973
_symmetry_space_group_name_H-M "P M N A"
_symmetry_group_IT_number 53
_symmetry_cell_setting 'orthorhombic'
loop_
_space_group_symop_operation_xyz
x,y,z
1/2-x,-y,1/2+z
x,-y,-z
1/2-x,y,1/2-z
-x,-y,-z
1/2+x,y,1/2-z
-x,y,z
1/2+x,-y,1/2+z
loop_
_atom_site_type_symbol
_atom_site_label
_atom_site_fract_x
_atom_site_fract_y
_atom_site_fract_z
Si Si1 0.326387 0.663451 0.593043
Si Si2 0.174056 0.148876 0.406382
Si Si3 0.329033 0.454402 0.401018
Si Si4 0.324428 0.949695 0.092852
Si Si5 0.675840 0.249864 0.904837
O O1 0.250000 0.672241 0.750000
O O2 0.500000 0.678550 0.608142
O O3 0.306734 0.603979 0.534820
O O4 0.246578 0.697860 0.470802
O O5 0.250000 0.147412 0.250000
O O6 0.233162 0.101369 0.506379
O O7 0.214735 0.202726 0.486202
O O8 0.000000 0.142986 0.379748
O O9 0.257376 0.500000 0.500000
O O10 0.250000 0.458473 0.250000
O O11 0.500000 0.467010 0.373899
O O12 0.250000 0.952019 0.250000
O O13 0.500000 0.947886 0.116758
O O14 0.274851 0.000000 0.000000
O O15 0.750000 0.237185 0.750000
O O16 0.500000 0.257267 0.884140
#
# Coordination Sequence:
#
# PCOD8220521 Si02
#       5
#     8   8   8   8   8
#     4  10  20  36  57  80 108 142 181 223 268 321
#     4  10  22  38  57  82 110 143 182 223 269 322
#     4   9  19  35  54  78 107 139 176 218 265 317
#     4  10  21  37  57  83 113 144 182 225 269 319
#     4  11  23  38  56  80 110 143 181 224 272 324
#
# _framework density 19.096506000000002
#
# number of rings (size 3 to 8) (size 9 to 14) (size 15 to 20)
#    0.000    2.000    0.000    3.000    0.000    6.400 
#    0.000    2.000    0.000    0.000    0.000    0.000 
#    0.000    0.000    0.000    0.000    0.000    0.000 
#
# Total GULP energy -496072.304702 kJ/mol
# GULP energy per Si atom -12401.807618 kJ/mol
# Density = 1.905304 g / cm^3
# Si number density = 19.096506 Si / 1000 Ang^3
#
#
#
# Elastic Constant Matrix: (Units=GPa)
#
#
# Indices 1 2 3 4 5 6 
#
# 1 76.0920 57.9149 61.5910 0.0000 0.0000 0.0000
# 2 57.9149 139.5380 73.0555 0.0000 0.0000 0.0000
# 3 61.5910 73.0555 141.0580 0.0000 0.0000 0.0000
# 4 0.0000 0.0000 0.0000 37.4883 0.0000 0.0000
# 5 0.0000 0.0000 0.0000 0.0000 34.9737 0.0000
# 6 0.0000 0.0000 0.0000 0.0000 0.0000 13.0352
#
#
#
# Elastic Compliance Matrix: (Units=1/GPa)
#
#
# Indices 1 2 3 4 5 6 
#
# 1 0.023505 -0.006013 -0.007149 0.000000 0.000000 0.000000
# 2 -0.006013 0.011371 -0.003264 0.000000 0.000000 0.000000
# 3 -0.007149 -0.003264 0.011901 0.000000 0.000000 0.000000
# 4 0.000000 0.000000 0.000000 0.026675 0.000000 0.000000
# 5 0.000000 0.000000 0.000000 0.000000 0.028593 0.000000
# 6 0.000000 0.000000 0.000000 0.000000 0.000000 0.076715
#
#
# Mechanical properties :
#
#
# Convention : Reuss Voigt Hill
#
# Bulk Modulus (GPa) = 71.80849 82.42342 77.11596
# Shear Modulus (GPa) = 23.12105 28.04123 25.58114
#
# Velocity S-wave (km/s) = 3.48335 3.83612 3.66399
# Velocity P-wave (km/s) = 7.33914 7.92946 7.64000
#
# Compressibility (1/GPa) = 0.01392593
#
# Stress axis : x y z
#
# Youngs Moduli (GPa) = 42.54395 87.94458 84.02578
#
# Poissons Ratio (x) = 0.52879 0.60071
# Poissons Ratio (y) = 0.25581 0.27423
# Poissons Ratio (z) = 0.30415 0.28702
#
# Static dielectric constant tensor:
#      x y z
#    x 3.502260 0.000000 0.000000 
#    y 0.000000 4.097650 0.000000 
#    z 0.000000 0.000000 3.468570 
# 
# 
# High freq. dielectric constant tensor:
#      x y z
#    x 1.743300 0.000000 0.000000 
#    y 0.000000 1.761760 0.000000 
#    z 0.000000 0.000000 1.745530 
# 
# From -- ./inp_files/6251.got.cif
#   From: 2010.03.12/outbox.cif.g09.slc.cpg/sg53_4_cif.got.tgz:6251.got - 2010.04.16 14:36:59.
