data_PCOD8220391
_publ_section_title
;
Structure prediction by ZEFSAII (Michael W. Deem and Ramdas Pophale) SiO2 
 PCOD8220391
Probable space group: P M N A
;
_chemical_formula_sum "Si O2"
_cell_formula_units_Z 64
_cell_length_a 8.971519
_cell_length_b 14.928235
_cell_length_c 24.687769
_cell_angle_alpha 90.000000
_cell_angle_beta 90.000000
_cell_angle_gamma 90.000000
_cell_volume 3306.406830
_symmetry_space_group_name_H-M "P M N A"
_symmetry_group_IT_number 53
_symmetry_cell_setting 'orthorhombic'
loop_
_space_group_symop_operation_xyz
x,y,z
1/2-x,-y,1/2+z
x,-y,-z
1/2-x,y,1/2-z
-x,-y,-z
1/2+x,y,1/2-z
-x,y,z
1/2+x,-y,1/2+z
loop_
_atom_site_type_symbol
_atom_site_label
_atom_site_fract_x
_atom_site_fract_y
_atom_site_fract_z
Si Si1 0.676439 0.722876 0.613290
Si Si2 0.675972 0.429439 0.304021
Si Si3 0.163275 0.447077 0.949765
Si Si4 0.325901 0.872102 0.694897
Si Si5 0.824638 0.077550 0.806105
Si Si6 0.328058 0.591222 0.150359
Si Si7 0.176227 0.211618 0.613145
Si Si8 0.163864 0.747545 0.007565
O O1 0.500000 0.721764 0.608242
O O2 0.726872 0.631488 0.644196
O O3 0.733288 0.809173 0.646677
O O4 0.739963 0.734287 0.551909
O O5 0.750000 0.387672 0.250000
O O6 0.500000 0.427561 0.296806
O O7 0.730588 0.533557 0.307423
O O8 0.292288 0.457806 0.906028
O O9 0.134724 0.346772 0.965903
O O10 0.000000 0.486210 0.930297
O O11 0.227891 0.500000 0.000000
O O12 0.250000 0.840516 0.750000
O O13 0.500000 0.858691 0.703377
O O14 0.285843 0.974506 0.681109
O O15 0.750000 0.108455 0.750000
O O16 0.757220 0.133125 0.855104
O O17 0.000000 0.094885 0.801687
O O18 0.500000 0.581688 0.165788
O O19 0.280126 0.695244 0.143884
O O20 0.228070 0.202385 0.550323
O O21 0.000000 0.198801 0.614332
O O22 0.000000 0.795568 0.003222
#
# Coordination Sequence:
#
# PCOD8220391 Si02
#       8
#     8   8   8   8   8   8   8   8
#     4   9  18  34  56  80 107 141 179 217 259 312
#     4  11  22  36  54  77 107 142 179 220 266 317
#     4   9  16  28  48  72  97 129 170 213 256 301
#     4   9  18  34  56  82 109 136 172 217 264 315
#     4  10  20  35  58  84 107 135 171 214 264 317
#     4  10  21  35  50  71 100 135 173 213 258 305
#     4  10  21  37  55  77 108 142 177 221 268 314
#     4   9  17  31  52  76 103 138 179 218 258 310
#
# _framework density 19.356358
#
# number of rings (size 3 to 8) (size 9 to 14) (size 15 to 20)
#    0.000    2.375    0.000    2.625    0.000    4.750 
#    0.000    5.625    0.000    3.750    0.000    0.000 
#    0.000    0.000    0.000    0.000    0.000    0.000 
#
# Total GULP energy -793036.726040 kJ/mol
# GULP energy per Si atom -12391.198844 kJ/mol
# Density = 1.931230 g / cm^3
# Si number density = 19.356358 Si / 1000 Ang^3
#
#
#
# Elastic Constant Matrix: (Units=GPa)
#
#
# Indices 1 2 3 4 5 6 
#
# 1 64.1070 32.4172 40.9308 0.0000 0.0000 0.0000
# 2 32.4172 71.3905 44.6774 0.0000 0.0000 0.0000
# 3 40.9308 44.6774 125.0840 0.0000 0.0000 0.0000
# 4 0.0000 0.0000 0.0000 33.1913 0.0000 0.0000
# 5 0.0000 0.0000 0.0000 0.0000 36.9803 0.0000
# 6 0.0000 0.0000 0.0000 0.0000 0.0000 19.7963
#
#
#
# Elastic Compliance Matrix: (Units=1/GPa)
#
#
# Indices 1 2 3 4 5 6 
#
# 1 0.022223 -0.007135 -0.004723 0.000000 0.000000 0.000000
# 2 -0.007135 0.020331 -0.004927 0.000000 0.000000 0.000000
# 3 -0.004723 -0.004927 0.011300 0.000000 0.000000 0.000000
# 4 0.000000 0.000000 0.000000 0.030128 0.000000 0.000000
# 5 0.000000 0.000000 0.000000 0.000000 0.027041 0.000000
# 6 0.000000 0.000000 0.000000 0.000000 0.000000 0.050515
#
#
# Mechanical properties :
#
#
# Convention : Reuss Voigt Hill
#
# Bulk Modulus (GPa) = 49.30284 55.18138 52.24211
# Shear Modulus (GPa) = 24.76850 27.49731 26.13291
#
# Velocity S-wave (km/s) = 3.58104 3.77315 3.67835
# Velocity P-wave (km/s) = 6.52877 6.89581 6.71480
#
# Compressibility (1/GPa) = 0.02028281
#
# Stress axis : x y z
#
# Youngs Moduli (GPa) = 44.99914 49.18669 88.49517
#
# Poissons Ratio (x) = 0.35094 0.41800
# Poissons Ratio (y) = 0.32107 0.43601
# Poissons Ratio (z) = 0.21255 0.24234
#
# Static dielectric constant tensor:
#      x y z
#    x 3.511090 0.000000 0.000000 
#    y 0.000000 3.523920 0.000000 
#    z 0.000000 0.000000 3.637030 
# 
# 
# High freq. dielectric constant tensor:
#      x y z
#    x 1.737550 0.000000 0.000000 
#    y 0.000000 1.741330 0.000000 
#    z 0.000000 0.000000 1.758110 
# 
# From -- ./inp_files/34308.got.cif
#   From: 2010.03.12/outbox.cif.g09.slc.cpg/sg53_18_cif.got.tgz:34308.got - 2010.04.16 14:36:59.
