data_PCOD8220613
_publ_section_title
;
Structure prediction by ZEFSAII (Michael W. Deem and Ramdas Pophale) SiO2 
 PCOD8220613
Probable space group: P M N A
;
_chemical_formula_sum "Si O2"
_cell_formula_units_Z 48
_cell_length_a 8.593384
_cell_length_b 30.354097
_cell_length_c 9.522016
_cell_angle_alpha 90.000000
_cell_angle_beta 90.000000
_cell_angle_gamma 90.000000
_cell_volume 2483.764660
_symmetry_space_group_name_H-M "P M N A"
_symmetry_group_IT_number 53
_symmetry_cell_setting 'orthorhombic'
loop_
_space_group_symop_operation_xyz
x,y,z
1/2-x,-y,1/2+z
x,-y,-z
1/2-x,y,1/2-z
-x,-y,-z
1/2+x,y,1/2-z
-x,y,z
1/2+x,-y,1/2+z
loop_
_atom_site_type_symbol
_atom_site_label
_atom_site_fract_x
_atom_site_fract_y
_atom_site_fract_z
Si Si1 0.684016 0.380347 0.601292
Si Si2 0.184222 0.136466 0.597359
Si Si3 0.817091 0.963063 0.398554
Si Si4 0.183162 0.539828 0.905388
Si Si5 0.184269 0.714580 0.400681
Si Si6 0.315917 0.210810 0.405126
O O1 0.750000 0.397486 0.750000
O O2 0.500000 0.374398 0.615655
O O3 0.730510 0.414632 0.480264
O O4 0.760471 0.334204 0.559103
O O5 0.250000 0.148660 0.750000
O O6 0.229381 0.086415 0.555984
O O7 0.266503 0.166441 0.482980
O O8 0.000000 0.144628 0.597019
O O9 0.750000 0.975238 0.250000
O O10 0.000000 0.967339 0.391336
O O11 0.744639 0.000000 0.500000
O O12 0.250000 0.538236 0.750000
O O13 0.000000 0.534961 0.892881
O O14 0.250867 0.500000 0.000000
O O15 0.250000 0.729463 0.250000
O O16 0.245223 0.746873 0.519346
O O17 0.000000 0.716314 0.394011
O O18 0.250000 0.208798 0.250000
O O19 0.500000 0.214940 0.401750
#
# Coordination Sequence:
#
# PCOD8220613 Si02
#       6
#     8   8   8   8   8   8
#     4  10  20  36  58  85 115 147 188 233 278 330
#     4  10  20  37  59  83 112 148 190 232 277 331
#     4   9  19  35  55  81 112 146 185 228 274 327
#     4  10  22  38  57  83 114 149 189 232 278 331
#     4  11  22  39  62  87 115 150 190 230 278 334
#     4  12  25  41  59  83 114 147 186 232 284 336
#
# _framework density 19.325503000000001
#
# number of rings (size 3 to 8) (size 9 to 14) (size 15 to 20)
#    0.000    1.667    0.000    6.000    0.000    4.000 
#    0.000    3.333    0.000    0.000    0.000    0.000 
#    0.000    0.000    0.000    0.000    0.000    0.000 
#
# Total GULP energy -595317.115184 kJ/mol
# GULP energy per Si atom -12402.439900 kJ/mol
# Density = 1.928152 g / cm^3
# Si number density = 19.325503 Si / 1000 Ang^3
#
#
#
# Elastic Constant Matrix: (Units=GPa)
#
#
# Indices 1 2 3 4 5 6 
#
# 1 106.2722 60.0691 59.6032 0.0000 0.0000 0.0000
# 2 60.0691 140.3761 112.8110 0.0000 0.0000 0.0000
# 3 59.6032 112.8110 165.4028 0.0000 0.0000 0.0000
# 4 0.0000 0.0000 0.0000 39.9897 0.0000 0.0000
# 5 0.0000 0.0000 0.0000 0.0000 36.8262 0.0000
# 6 0.0000 0.0000 0.0000 0.0000 0.0000 35.2136
#
#
#
# Elastic Compliance Matrix: (Units=1/GPa)
#
#
# Indices 1 2 3 4 5 6 
#
# 1 0.012682 -0.003882 -0.001922 0.000000 0.000000 0.000000
# 2 -0.003882 0.016953 -0.010163 0.000000 0.000000 0.000000
# 3 -0.001922 -0.010163 0.013670 0.000000 0.000000 0.000000
# 4 0.000000 0.000000 0.000000 0.025006 0.000000 0.000000
# 5 0.000000 0.000000 0.000000 0.000000 0.027155 0.000000
# 6 0.000000 0.000000 0.000000 0.000000 0.000000 0.028398
#
#
# Mechanical properties :
#
#
# Convention : Reuss Voigt Hill
#
# Bulk Modulus (GPa) = 87.95392 97.44643 92.70017
# Shear Modulus (GPa) = 31.33033 34.37708 32.85371
#
# Velocity S-wave (km/s) = 4.03077 4.22221 4.12760
# Velocity P-wave (km/s) = 8.20204 8.61990 8.41356
#
# Compressibility (1/GPa) = 0.01136959
#
# Stress axis : x y z
#
# Youngs Moduli (GPa) = 78.85040 58.98823 73.15086
#
# Poissons Ratio (x) = 0.22900 0.14062
# Poissons Ratio (y) = 0.30610 0.74346
# Poissons Ratio (z) = 0.15158 0.59952
#
# Static dielectric constant tensor:
#      x y z
#    x 3.621220 0.000000 0.000000 
#    y 0.000000 3.826770 0.000000 
#    z 0.000000 0.000000 3.573560 
# 
# 
# High freq. dielectric constant tensor:
#      x y z
#    x 1.762040 0.000000 0.000000 
#    y 0.000000 1.768450 0.000000 
#    z 0.000000 0.000000 1.753470 
# 
# From -- ./inp_files/6739.got.cif
#   From: 2010.03.12/outbox.cif.g09.slc.cpg/sg53_4_cif.got.tgz:6739.got - 2010.04.16 14:36:59.
