data_PCOD8220964
_publ_section_title
;
Structure prediction by ZEFSAII (Michael W. Deem and Ramdas Pophale) SiO2 
 PCOD8220964
Probable space group: P M N A
;
_chemical_formula_sum "Si O2"
_cell_formula_units_Z 48
_cell_length_a 24.219930
_cell_length_b 5.517142
_cell_length_c 17.306747
_cell_angle_alpha 90.000000
_cell_angle_beta 90.000000
_cell_angle_gamma 90.000000
_cell_volume 2312.610486
_symmetry_space_group_name_H-M "P M N A"
_symmetry_group_IT_number 53
_symmetry_cell_setting 'orthorhombic'
loop_
_space_group_symop_operation_xyz
x,y,z
1/2-x,-y,1/2+z
x,-y,-z
1/2-x,y,1/2-z
-x,-y,-z
1/2+x,y,1/2-z
-x,y,z
1/2+x,-y,1/2+z
loop_
_atom_site_type_symbol
_atom_site_label
_atom_site_fract_x
_atom_site_fract_y
_atom_site_fract_z
Si Si1 0.384458 0.380085 0.804309
Si Si2 0.500000 0.476715 0.233948
Si Si3 0.804067 0.316546 0.215067
Si Si4 0.328002 0.239950 0.955491
Si Si5 0.118594 0.067548 0.850133
Si Si6 0.500000 0.976281 0.327852
Si Si7 0.290733 0.651491 0.423571
O O1 0.444516 0.502879 0.817339
O O2 0.338586 0.583007 0.787382
O O3 0.367576 0.241084 0.881390
O O4 0.386241 0.199385 0.732042
O O5 0.500000 0.208175 0.270961
O O6 0.500000 0.705822 0.291972
O O7 0.750000 0.178044 0.250000
O O8 0.779808 0.517276 0.157363
O O9 0.844611 0.167244 0.161515
O O10 0.264192 0.185884 0.932916
O O11 0.333057 0.500000 0.000000
O O12 0.348758 0.000000 0.000000
O O13 0.150938 0.209880 0.916716
O O14 0.056350 0.003165 0.878598
O O15 0.298813 0.500000 0.500000
#
# Coordination Sequence:
#
# PCOD8220964 Si02
#       7
#     8   4   8   8   8   4   8
#     4  10  22  40  59  94 126 161 213 261 315 374
#     4  10  20  38  66  89 124 167 204 264 317 369
#     4  11  21  35  62  95 123 155 214 269 318 375
#     4  11  26  41  61  89 130 172 205 257 322 386
#     4  10  23  35  65  89 122 164 209 269 309 386
#     4  10  20  40  59  96 123 160 212 258 323 365
#     4  10  24  39  56  89 128 169 207 256 331 387
#
# _framework density 20.755763999999999
#
# number of rings (size 3 to 8) (size 9 to 14) (size 15 to 20)
#    0.000    1.667    3.333    0.000    9.333    0.000 
#    0.000    1.250    0.000    1.000    0.000    0.000 
#    0.000    0.000    0.000    0.000    0.000    0.000 
#
# Total GULP energy -594657.649346 kJ/mol
# GULP energy per Si atom -12388.701028 kJ/mol
# Density = 2.070852 g / cm^3
# Si number density = 20.755764 Si / 1000 Ang^3
#
#
#
# Elastic Constant Matrix: (Units=GPa)
#
#
# Indices 1 2 3 4 5 6 
#
# 1 142.7510 15.7698 27.1790 0.0000 0.0000 0.0000
# 2 15.7698 73.1470 6.3024 0.0000 0.0000 0.0000
# 3 27.1790 6.3024 61.8137 0.0000 0.0000 0.0000
# 4 0.0000 0.0000 0.0000 25.5168 0.0000 0.0000
# 5 0.0000 0.0000 0.0000 0.0000 23.6514 0.0000
# 6 0.0000 0.0000 0.0000 0.0000 0.0000 7.4583
#
#
#
# Elastic Compliance Matrix: (Units=1/GPa)
#
#
# Indices 1 2 3 4 5 6 
#
# 1 0.007784 -0.001396 -0.003280 0.000000 0.000000 0.000000
# 2 -0.001396 0.014042 -0.000818 0.000000 0.000000 0.000000
# 3 -0.003280 -0.000818 0.017703 0.000000 0.000000 0.000000
# 4 0.000000 0.000000 0.000000 0.039190 0.000000 0.000000
# 5 0.000000 0.000000 0.000000 0.000000 0.042281 0.000000
# 6 0.000000 0.000000 0.000000 0.000000 0.000000 0.134078
#
#
# Mechanical properties :
#
#
# Convention : Reuss Voigt Hill
#
# Bulk Modulus (GPa) = 35.03619 41.80158 38.41889
# Shear Modulus (GPa) = 18.14353 26.55600 22.34976
#
# Velocity S-wave (km/s) = 2.95980 3.58082 3.28502
# Velocity P-wave (km/s) = 5.34766 6.10572 5.73922
#
# Compressibility (1/GPa) = 0.02854191
#
# Stress axis : x y z
#
# Youngs Moduli (GPa) = 128.47021 71.21267 56.48641
#
# Poissons Ratio (x) = 0.09938 0.18529
# Poissons Ratio (y) = 0.17928 0.04621
# Poissons Ratio (z) = 0.42141 0.05826
#
# Static dielectric constant tensor:
#      x y z
#    x 4.436010 0.000000 0.000000 
#    y 0.000000 3.826720 0.000000 
#    z 0.000000 0.000000 3.467540 
# 
# 
# High freq. dielectric constant tensor:
#      x y z
#    x 1.832330 0.000000 0.000000 
#    y 0.000000 1.807680 0.000000 
#    z 0.000000 0.000000 1.782170 
# 
# From -- ./inp_files/29541.got.cif
#   From: 2010.03.12/outbox.cif.g09.slc.cpg/sg53_15_cif.got.tgz:29541.got - 2010.04.16 14:36:59.
