data_PCOD8220025
_publ_section_title
;
Structure prediction by ZEFSAII (Michael W. Deem and Ramdas Pophale) SiO2 
 PCOD8220025
Probable space group: P M N A
;
_chemical_formula_sum "Si O2"
_cell_formula_units_Z 48
_cell_length_a 9.090460
_cell_length_b 10.330996
_cell_length_c 26.692994
_cell_angle_alpha 90.000000
_cell_angle_beta 90.000000
_cell_angle_gamma 90.000000
_cell_volume 2506.832649
_symmetry_space_group_name_H-M "P M N A"
_symmetry_group_IT_number 53
_symmetry_cell_setting 'orthorhombic'
loop_
_space_group_symop_operation_xyz
x,y,z
1/2-x,-y,1/2+z
x,-y,-z
1/2-x,y,1/2-z
-x,-y,-z
1/2+x,y,1/2-z
-x,y,z
1/2+x,-y,1/2+z
loop_
_atom_site_type_symbol
_atom_site_label
_atom_site_fract_x
_atom_site_fract_y
_atom_site_fract_z
Si Si1 0.674206 0.369980 0.471520
Si Si2 0.828469 0.373452 0.801907
Si Si3 0.672657 0.133905 0.973801
Si Si4 0.172591 0.882555 0.802697
Si Si5 0.674759 0.626333 0.642033
Si Si6 0.829755 0.872298 0.130433
O O1 0.721930 0.500000 0.500000
O O2 0.500000 0.350164 0.473652
O O3 0.747425 0.248340 0.497464
O O4 0.733684 0.378788 0.414733
O O5 0.750000 0.345790 0.750000
O O6 0.764352 0.503286 0.827400
O O7 0.795056 0.256110 0.838776
O O8 0.000000 0.387636 0.790810
O O9 0.500000 0.159871 0.974940
O O10 0.726145 0.127742 0.917177
O O11 0.715622 0.000000 0.000000
O O12 0.250000 0.898430 0.750000
O O13 0.232993 0.755351 0.830876
O O14 0.000000 0.872291 0.792994
O O15 0.213207 0.005014 0.836285
O O16 0.500000 0.622801 0.640631
O O17 0.000000 0.877571 0.113645
#
# Coordination Sequence:
#
# PCOD8220025 Si02
#       6
#     8   8   8   8   8   8
#     4  10  20  37  62  86 110 147 192 234 277 328
#     4  10  20  35  55  80 109 140 178 222 269 323
#     4  11  24  39  56  83 117 149 184 231 285 337
#     4  10  20  34  53  77 105 138 177 221 269 322
#     4   9  18  33  53  78 107 139 178 221 265 322
#     4  10  21  37  57  79 105 142 185 226 270 326
#
# _framework density 19.147670000000002
#
# number of rings (size 3 to 8) (size 9 to 14) (size 15 to 20)
#    0.000    2.000    0.000    3.500    0.000    7.000 
#    0.000    1.667    0.000    0.000    0.000    0.000 
#    0.000    0.000    0.000    0.000    0.000    0.000 
#
# Total GULP energy -595397.155413 kJ/mol
# GULP energy per Si atom -12404.107404 kJ/mol
# Density = 1.910409 g / cm^3
# Si number density = 19.147670 Si / 1000 Ang^3
#
#
#
# Elastic Constant Matrix: (Units=GPa)
#
#
# Indices 1 2 3 4 5 6 
#
# 1 35.2356 34.4401 34.9437 0.0000 0.0000 0.0000
# 2 34.4401 133.8004 33.1039 0.0000 0.0000 0.0000
# 3 34.9437 33.1039 110.5566 0.0000 0.0000 0.0000
# 4 0.0000 0.0000 0.0000 27.8112 0.0000 0.0000
# 5 0.0000 0.0000 0.0000 0.0000 34.2222 0.0000
# 6 0.0000 0.0000 0.0000 0.0000 0.0000 -21.7725
#
#
#
# Elastic Compliance Matrix: (Units=1/GPa)
#
#
# Indices 1 2 3 4 5 6 
#
# 1 0.051150 -0.009899 -0.013203 0.000000 0.000000 0.000000
# 2 -0.009899 0.009988 0.000138 0.000000 0.000000 0.000000
# 3 -0.013203 0.000138 0.013177 0.000000 0.000000 0.000000
# 4 0.000000 0.000000 0.000000 0.035957 0.000000 0.000000
# 5 0.000000 0.000000 0.000000 0.000000 0.029221 0.000000
# 6 0.000000 0.000000 0.000000 0.000000 0.000000 -0.045930
#
#
# Mechanical properties :
#
#
# Convention : Reuss Voigt Hill
#
# Bulk Modulus (GPa) = 35.22808 53.84089 44.53448
# Shear Modulus (GPa) = 33.56787 19.85918 26.71352
#
# Velocity S-wave (km/s) = 4.19155 3.22399 3.73920
# Velocity P-wave (km/s) = 6.47020 6.48372 6.47696
#
# Compressibility (1/GPa) = 0.02838645
#
# Stress axis : x y z
#
# Youngs Moduli (GPa) = 19.55045 100.12322 75.89129
#
# Poissons Ratio (x) = 0.99116 1.00198
# Poissons Ratio (y) = 0.19354 -0.01050
# Poissons Ratio (z) = 0.25812 -0.01385
#
# Static dielectric constant tensor:
#      x y z
#    x 3.165720 0.000000 0.000000 
#    y 0.000000 3.863830 0.000000 
#    z 0.000000 0.000000 3.560860 
# 
# 
# High freq. dielectric constant tensor:
#      x y z
#    x 1.717370 0.000000 0.000000 
#    y 0.000000 1.767890 0.000000 
#    z 0.000000 0.000000 1.761930 
# 
# From -- ./inp_files/37755.got.cif
#   From: 2010.03.12/outbox.cif.g09.slc.cpg/sg53_19_cif.got.tgz:37755.got - 2010.04.16 14:36:59.
