data_PCOD8220674
_publ_section_title
;
Structure prediction by ZEFSAII (Michael W. Deem and Ramdas Pophale) SiO2 
 PCOD8220674
Probable space group: P M N A
;
_chemical_formula_sum "Si O2"
_cell_formula_units_Z 48
_cell_length_a 8.790102
_cell_length_b 14.872595
_cell_length_c 19.104516
_cell_angle_alpha 90.000000
_cell_angle_beta 90.000000
_cell_angle_gamma 90.000000
_cell_volume 2497.564461
_symmetry_space_group_name_H-M "P M N A"
_symmetry_group_IT_number 53
_symmetry_cell_setting 'orthorhombic'
loop_
_space_group_symop_operation_xyz
x,y,z
1/2-x,-y,1/2+z
x,-y,-z
1/2-x,y,1/2-z
-x,-y,-z
1/2+x,y,1/2-z
-x,y,z
1/2+x,-y,1/2+z
loop_
_atom_site_type_symbol
_atom_site_label
_atom_site_fract_x
_atom_site_fract_y
_atom_site_fract_z
Si Si1 0.821648 0.107170 0.825776
Si Si2 0.178893 0.626540 0.824113
Si Si3 0.822189 0.560193 0.323203
Si Si4 0.174797 0.758196 0.569916
Si Si5 0.675850 0.265562 0.909959
Si Si6 0.176303 0.032319 0.424541
O O1 0.750000 0.115428 0.750000
O O2 0.778660 0.193727 0.870885
O O3 0.000000 0.103112 0.816455
O O4 0.767295 0.016450 0.863259
O O5 0.250000 0.654516 0.750000
O O6 0.246913 0.531779 0.850270
O O7 0.215695 0.702891 0.879926
O O8 0.000000 0.616837 0.815236
O O9 0.750000 0.591743 0.250000
O O10 0.789682 0.635618 0.380812
O O11 0.000000 0.543789 0.311601
O O12 0.220074 0.734021 0.491000
O O13 0.204103 0.862486 0.584409
O O14 0.000000 0.732378 0.584836
O O15 0.500000 0.237993 0.899433
O O16 0.000000 0.005800 0.417745
O O17 0.237864 0.000000 0.500000
#
# Coordination Sequence:
#
# PCOD8220674 Si02
#       6
#     8   8   8   8   8   8
#     4  12  25  39  60  89 124 159 201 249 295 353
#     4  11  23  40  61  85 118 155 199 248 297 353
#     4  10  20  36  60  86 117 156 199 244 295 353
#     4  10  21  39  64  89 118 156 196 241 296 357
#     4  10  21  39  62  89 121 158 198 241 297 359
#     4  10  20  40  66  87 116 157 198 242 296 356
#
# _framework density 19.218723000000001
#
# number of rings (size 3 to 8) (size 9 to 14) (size 15 to 20)
#    0.000    1.500    1.667    5.000    0.000    5.667 
#    0.000    3.333    0.000    0.000    0.000    0.000 
#    0.000    0.000    0.000    0.000    0.000    0.000 
#
# Total GULP energy -595472.530391 kJ/mol
# GULP energy per Si atom -12405.677716 kJ/mol
# Density = 1.917498 g / cm^3
# Si number density = 19.218723 Si / 1000 Ang^3
#
#
#
# Elastic Constant Matrix: (Units=GPa)
#
#
# Indices 1 2 3 4 5 6 
#
# 1 123.9677 59.8322 54.4742 0.0000 0.0000 0.0000
# 2 59.8322 115.2992 73.6054 0.0000 0.0000 0.0000
# 3 54.4742 73.6054 111.7608 0.0000 0.0000 0.0000
# 4 0.0000 0.0000 0.0000 140.2066 0.0000 0.0000
# 5 0.0000 0.0000 0.0000 0.0000 33.5808 0.0000
# 6 0.0000 0.0000 0.0000 0.0000 0.0000 67.9038
#
#
#
# Elastic Compliance Matrix: (Units=1/GPa)
#
#
# Indices 1 2 3 4 5 6 
#
# 1 0.011258 -0.004036 -0.002829 0.000000 0.000000 0.000000
# 2 -0.004036 0.016412 -0.008842 0.000000 0.000000 0.000000
# 3 -0.002829 -0.008842 0.016150 0.000000 0.000000 0.000000
# 4 0.000000 0.000000 0.000000 0.007132 0.000000 0.000000
# 5 0.000000 0.000000 0.000000 0.000000 0.029779 0.000000
# 6 0.000000 0.000000 0.000000 0.000000 0.000000 0.014727
#
#
# Mechanical properties :
#
#
# Convention : Reuss Voigt Hill
#
# Bulk Modulus (GPa) = 80.60677 80.76126 80.68402
# Shear Modulus (GPa) = 38.16624 59.21263 48.68944
#
# Velocity S-wave (km/s) = 4.46117 5.55669 5.03879
# Velocity P-wave (km/s) = 8.28063 9.12592 8.71353
#
# Compressibility (1/GPa) = 0.01240591
#
# Stress axis : x y z
#
# Youngs Moduli (GPa) = 88.82799 60.93186 61.92039
#
# Poissons Ratio (x) = 0.24591 0.17519
# Poissons Ratio (y) = 0.35850 0.54748
# Poissons Ratio (z) = 0.25131 0.53874
#
# Static dielectric constant tensor:
#      x y z
#    x 3.516820 0.000000 0.000000 
#    y 0.000000 3.570660 0.000000 
#    z 0.000000 0.000000 3.223680 
# 
# 
# High freq. dielectric constant tensor:
#      x y z
#    x 1.748230 0.000000 0.000000 
#    y 0.000000 1.758620 0.000000 
#    z 0.000000 0.000000 1.752210 
# 
# From -- ./inp_files/26272.got.cif
#   From: 2010.03.12/outbox.cif.g09.slc.cpg/sg53_14_cif.got.tgz:26272.got - 2010.04.16 14:36:59.
