data_PCOD8220188
_publ_section_title
;
Structure prediction by ZEFSAII (Michael W. Deem and Ramdas Pophale) SiO2 
 PCOD8220188
Probable space group: P M N A
;
_chemical_formula_sum "Si O2"
_cell_formula_units_Z 36
_cell_length_a 19.879613
_cell_length_b 17.028434
_cell_length_c 5.239695
_cell_angle_alpha 90.000000
_cell_angle_beta 90.000000
_cell_angle_gamma 90.000000
_cell_volume 1773.734624
_symmetry_space_group_name_H-M "P M N A"
_symmetry_group_IT_number 53
_symmetry_cell_setting 'orthorhombic'
loop_
_space_group_symop_operation_xyz
x,y,z
1/2-x,-y,1/2+z
x,-y,-z
1/2-x,y,1/2-z
-x,-y,-z
1/2+x,y,1/2-z
-x,y,z
1/2+x,-y,1/2+z
loop_
_atom_site_type_symbol
_atom_site_label
_atom_site_fract_x
_atom_site_fract_y
_atom_site_fract_z
Si Si1 0.750000 0.802154 0.250000
Si Si2 0.181435 0.079564 0.385370
Si Si3 0.171833 0.450611 0.750987
Si Si4 0.122559 0.718448 0.191469
Si Si5 0.075716 0.199604 0.287769
O O1 0.797981 0.855630 0.414616
O O2 0.697442 0.746680 0.398063
O O3 0.250000 0.052433 0.250000
O O4 0.123667 0.123778 0.220980
O O5 0.149287 0.000000 0.500000
O O6 0.153366 0.500000 0.500000
O O7 0.250000 0.426001 0.750000
O O8 0.124615 0.374243 0.758699
O O9 0.154053 0.500000 0.000000
O O10 0.096721 0.757612 0.451691
O O11 0.076233 0.740003 0.950022
O O12 0.000000 0.167886 0.319472
#
# Coordination Sequence:
#
# PCOD8220188 Si02
#       5
#     4   8   8   8   8
#     4  10  20  34  58  92 116 160 200 256 304 356
#     4  11  21  37  62  90 126 158 207 261 317 371
#     4  10  20  34  57  94 130 156 194 255 321 370
#     4  11  21  39  64  87 127 160 209 253 308 367
#     4  11  25  41  62  90 124 169 212 254 307 372
#
# _framework density 20.29616
#
# number of rings (size 3 to 8) (size 9 to 14) (size 15 to 20)
#    0.000    1.333    4.444    2.000    0.000    0.444 
#    0.000    0.000    0.000   18.000    0.000    0.000 
#    0.000    0.000    0.000    0.000    0.000    0.000 
#
# Total GULP energy -446128.885807 kJ/mol
# GULP energy per Si atom -12392.469050 kJ/mol
# Density = 2.024997 g / cm^3
# Si number density = 20.296160 Si / 1000 Ang^3
#
#
#
# Elastic Constant Matrix: (Units=GPa)
#
#
# Indices 1 2 3 4 5 6 
#
# 1 95.9712 48.4988 24.0799 0.0000 0.0000 0.0000
# 2 48.4988 121.7014 44.6307 0.0000 0.0000 0.0000
# 3 24.0799 44.6307 129.2837 0.0000 0.0000 0.0000
# 4 0.0000 0.0000 0.0000 20.5123 0.0000 0.0000
# 5 0.0000 0.0000 0.0000 0.0000 -6.2143 0.0000
# 6 0.0000 0.0000 0.0000 0.0000 0.0000 24.9368
#
#
#
# Elastic Compliance Matrix: (Units=1/GPa)
#
#
# Indices 1 2 3 4 5 6 
#
# 1 0.013107 -0.004955 -0.000731 0.000000 0.000000 0.000000
# 2 -0.004955 0.011281 -0.002972 0.000000 0.000000 0.000000
# 3 -0.000731 -0.002972 0.008897 0.000000 0.000000 0.000000
# 4 0.000000 0.000000 0.000000 0.048751 0.000000 0.000000
# 5 0.000000 0.000000 0.000000 0.000000 -0.160918 0.000000
# 6 0.000000 0.000000 0.000000 0.000000 0.000000 0.040101
#
#
# Mechanical properties :
#
#
# Convention : Reuss Voigt Hill
#
# Bulk Modulus (GPa) = 62.61602 64.59722 63.60662
# Shear Modulus (GPa) = -309.76355 23.16340 -143.30007
#
# Velocity S-wave (km/s) = -12.36742 3.38193 -8.41177
# Velocity P-wave (km/s) = 13.15368 6.86632 7.93325
#
# Compressibility (1/GPa) = 0.01597035
#
# Stress axis : x y z
#
# Youngs Moduli (GPa) = 76.29326 88.64219 112.39969
#
# Poissons Ratio (x) = 0.43926 0.08212
# Poissons Ratio (y) = 0.37806 0.33400
# Poissons Ratio (z) = 0.05574 0.26340
#
# Static dielectric constant tensor:
#      x y z
#    x 4.053250 0.000000 0.000000 
#    y 0.000000 2.381050 0.000000 
#    z 0.000000 0.000000 3.423290 
# 
# 
# High freq. dielectric constant tensor:
#      x y z
#    x 1.775290 0.000000 0.000000 
#    y 0.000000 1.796780 0.000000 
#    z 0.000000 0.000000 1.791070 
# 
# From -- ./inp_files/2756.got.cif
#   From: 2010.03.12/outbox.cif.g09.slc.cpg/sg53_2_cif.got.tgz:2756.got - 2010.04.16 14:36:59.
