data_PCOD8220411
_publ_section_title
;
Structure prediction by ZEFSAII (Michael W. Deem and Ramdas Pophale) SiO2 
 PCOD8220411
Probable space group: P M N A
;
_chemical_formula_sum "Si O2"
_cell_formula_units_Z 52
_cell_length_a 26.240106
_cell_length_b 5.012247
_cell_length_c 20.944256
_cell_angle_alpha 90.000000
_cell_angle_beta 90.000000
_cell_angle_gamma 90.000000
_cell_volume 2754.628188
_symmetry_space_group_name_H-M "P M N A"
_symmetry_group_IT_number 53
_symmetry_cell_setting 'orthorhombic'
loop_
_space_group_symop_operation_xyz
x,y,z
1/2-x,-y,1/2+z
x,-y,-z
1/2-x,y,1/2-z
-x,-y,-z
1/2+x,y,1/2-z
-x,y,z
1/2+x,-y,1/2+z
loop_
_atom_site_type_symbol
_atom_site_label
_atom_site_fract_x
_atom_site_fract_y
_atom_site_fract_z
Si Si1 0.599682 0.878536 0.878440
Si Si2 0.942642 0.595120 0.158388
Si Si3 0.942506 0.107027 0.241228
Si Si4 0.846218 0.601410 0.427095
Si Si5 0.500000 0.752799 0.954693
Si Si6 0.758695 0.754647 0.042595
Si Si7 0.370550 0.245435 0.544032
O O1 0.592120 0.916889 0.803451
O O2 0.643281 0.654608 0.883482
O O3 0.549473 0.755496 0.910325
O O4 0.615095 0.155784 0.912637
O O5 0.920920 0.321834 0.189763
O O6 0.908841 0.702202 0.101035
O O7 0.000000 0.547565 0.132311
O O8 0.942279 0.813755 0.213099
O O9 0.000000 0.195064 0.259748
O O10 0.851656 0.500000 0.500000
O O11 0.788435 0.696116 0.409737
O O12 0.500000 0.500000 0.000000
O O13 0.500000 0.000000 0.000000
O O14 0.814001 0.817825 0.074101
O O15 0.768447 0.500000 0.000000
O O16 0.739739 0.000000 0.000000
O O17 0.369477 0.500000 0.500000
O O18 0.389174 0.000000 0.500000
#
# Coordination Sequence:
#
# PCOD8220411 Si02
#       7
#     8   8   8   8   4   8   8
#     4  12  22  36  54  74 106 144 184 231 265 325
#     4  10  21  36  59  82 109 144 179 220 256 322
#     4  10  21  39  55  74 104 148 196 215 256 317
#     4  11  21  34  54  78 106 139 183 226 278 322
#     4  12  24  34  48  76 108 134 166 228 292 312
#     4   9  18  33  53  77 108 142 174 211 261 334
#     4  10  20  35  58  88 115 138 167 213 278 325
#
# _framework density 18.877321999999999
#
# number of rings (size 3 to 8) (size 9 to 14) (size 15 to 20)
#    0.000    1.538    0.769    6.462    0.000    0.615 
#    0.000    0.000    0.000    5.538    0.000    0.000 
#    0.000    0.000    0.000    0.000    0.000    0.000 
#
# Total GULP energy -644601.707649 kJ/mol
# GULP energy per Si atom -12396.186686 kJ/mol
# Density = 1.883436 g / cm^3
# Si number density = 18.877322 Si / 1000 Ang^3
#
#
#
# Elastic Constant Matrix: (Units=GPa)
#
#
# Indices 1 2 3 4 5 6 
#
# 1 95.8265 19.2103 49.5827 0.0000 0.0000 0.0000
# 2 19.2103 108.2633 17.4693 0.0000 0.0000 0.0000
# 3 49.5827 17.4693 74.3501 0.0000 0.0000 0.0000
# 4 0.0000 0.0000 0.0000 27.1014 0.0000 0.0000
# 5 0.0000 0.0000 0.0000 0.0000 14.4393 0.0000
# 6 0.0000 0.0000 0.0000 0.0000 0.0000 26.6744
#
#
#
# Elastic Compliance Matrix: (Units=1/GPa)
#
#
# Indices 1 2 3 4 5 6 
#
# 1 0.016074 -0.001167 -0.010445 0.000000 0.000000 0.000000
# 2 -0.001167 0.009685 -0.001498 0.000000 0.000000 0.000000
# 3 -0.010445 -0.001498 0.020768 0.000000 0.000000 0.000000
# 4 0.000000 0.000000 0.000000 0.036899 0.000000 0.000000
# 5 0.000000 0.000000 0.000000 0.000000 0.069256 0.000000
# 6 0.000000 0.000000 0.000000 0.000000 0.000000 0.037489
#
#
# Mechanical properties :
#
#
# Convention : Reuss Voigt Hill
#
# Bulk Modulus (GPa) = 49.24252 50.10715 49.67483
# Shear Modulus (GPa) = 22.40555 26.45484 24.43019
#
# Velocity S-wave (km/s) = 3.44888 3.74760 3.60134
# Velocity P-wave (km/s) = 6.48089 6.73255 6.60792
#
# Compressibility (1/GPa) = 0.02030765
#
# Stress axis : x y z
#
# Youngs Moduli (GPa) = 62.21198 103.24795 48.15202
#
# Poissons Ratio (x) = 0.12046 0.50297
# Poissons Ratio (y) = 0.07258 0.07211
# Poissons Ratio (z) = 0.64983 0.15463
#
# Static dielectric constant tensor:
#      x y z
#    x 3.887960 0.000000 0.000000 
#    y 0.000000 3.694570 0.000000 
#    z 0.000000 0.000000 3.090330 
# 
# 
# High freq. dielectric constant tensor:
#      x y z
#    x 1.732870 0.000000 0.000000 
#    y 0.000000 1.762240 0.000000 
#    z 0.000000 0.000000 1.696870 
# 
# From -- ./inp_files/29676.got.cif
#   From: 2010.03.12/outbox.cif.g09.slc.cpg/sg53_15_cif.got.tgz:29676.got - 2010.04.16 14:36:59.
