data_PCOD8220881
_publ_section_title
;
Structure prediction by ZEFSAII (Michael W. Deem and Ramdas Pophale) SiO2 
 PCOD8220881
Probable space group: P M N A
;
_chemical_formula_sum "Si O2"
_cell_formula_units_Z 36
_cell_length_a 22.110928
_cell_length_b 6.226023
_cell_length_c 13.210271
_cell_angle_alpha 90.000000
_cell_angle_beta 90.000000
_cell_angle_gamma 90.000000
_cell_volume 1818.567469
_symmetry_space_group_name_H-M "P M N A"
_symmetry_group_IT_number 53
_symmetry_cell_setting 'orthorhombic'
loop_
_space_group_symop_operation_xyz
x,y,z
1/2-x,-y,1/2+z
x,-y,-z
1/2-x,y,1/2-z
-x,-y,-z
1/2+x,y,1/2-z
-x,y,z
1/2+x,-y,1/2+z
loop_
_atom_site_type_symbol
_atom_site_label
_atom_site_fract_x
_atom_site_fract_y
_atom_site_fract_z
Si Si1 0.854543 0.355931 0.244205
Si Si2 0.750000 0.666248 0.250000
Si Si3 0.325496 0.974787 0.116152
Si Si4 0.431640 0.264225 0.794883
Si Si5 0.068679 0.049437 0.114807
O O1 0.803416 0.519307 0.203567
O O2 0.823669 0.204193 0.328162
O O3 0.908746 0.491144 0.295093
O O4 0.882773 0.223835 0.151662
O O5 0.775272 0.815575 0.338901
O O6 0.392581 0.876875 0.127299
O O7 0.308676 0.000000 0.000000
O O8 0.500000 0.259493 0.834449
O O9 0.425415 0.165745 0.681862
O O10 0.000000 0.140366 0.122390
O O11 0.085948 0.000000 0.000000
#
# Coordination Sequence:
#
# PCOD8220881 Si02
#       5
#     8   4   8   8   8
#     4  10  20  38  57  78 113 150 187 233 279 329
#     4  10  22  40  58  80 108 146 194 234 274 328
#     4  10  22  41  60  81 112 147 185 232 282 330
#     4   9  19  35  57  86 115 146 186 229 279 337
#     4   9  18  34  57  86 119 150 183 229 283 337
#
# _framework density 19.795801999999998
#
# number of rings (size 3 to 8) (size 9 to 14) (size 15 to 20)
#    0.000    2.444    0.000    1.333    0.000    5.778 
#    0.000   31.111    0.000    0.000    0.000    0.000 
#    0.000    0.000    0.000    0.000    0.000    0.000 
#
# Total GULP energy -446431.626530 kJ/mol
# GULP energy per Si atom -12400.878515 kJ/mol
# Density = 1.975075 g / cm^3
# Si number density = 19.795802 Si / 1000 Ang^3
#
#
#
# Elastic Constant Matrix: (Units=GPa)
#
#
# Indices 1 2 3 4 5 6 
#
# 1 134.1390 66.1929 58.1927 0.0000 0.0000 0.0000
# 2 66.1929 127.9226 55.6519 0.0000 0.0000 0.0000
# 3 58.1927 55.6519 130.3459 0.0000 0.0000 0.0000
# 4 0.0000 0.0000 0.0000 12.7722 0.0000 0.0000
# 5 0.0000 0.0000 0.0000 0.0000 19.5544 0.0000
# 6 0.0000 0.0000 0.0000 0.0000 0.0000 26.7943
#
#
#
# Elastic Compliance Matrix: (Units=1/GPa)
#
#
# Indices 1 2 3 4 5 6 
#
# 1 0.010900 -0.004327 -0.003019 0.000000 0.000000 0.000000
# 2 -0.004327 0.011318 -0.002901 0.000000 0.000000 0.000000
# 3 -0.003019 -0.002901 0.010258 0.000000 0.000000 0.000000
# 4 0.000000 0.000000 0.000000 0.078295 0.000000 0.000000
# 5 0.000000 0.000000 0.000000 0.000000 0.051139 0.000000
# 6 0.000000 0.000000 0.000000 0.000000 0.000000 0.037321
#
#
# Mechanical properties :
#
#
# Convention : Reuss Voigt Hill
#
# Bulk Modulus (GPa) = 83.44854 83.60919 83.52887
# Shear Modulus (GPa) = 22.34955 25.98217 24.16586
#
# Velocity S-wave (km/s) = 3.36371 3.62679 3.49772
# Velocity P-wave (km/s) = 7.57181 7.73729 7.65499
#
# Compressibility (1/GPa) = 0.01198343
#
# Stress axis : x y z
#
# Youngs Moduli (GPa) = 91.74613 88.35535 97.48398
#
# Poissons Ratio (x) = 0.38228 0.29429
# Poissons Ratio (y) = 0.39695 0.28277
# Poissons Ratio (z) = 0.27697 0.25629
#
# Static dielectric constant tensor:
#      x y z
#    x 3.805510 0.000000 0.000000 
#    y 0.000000 3.776710 0.000000 
#    z 0.000000 0.000000 3.206730 
# 
# 
# High freq. dielectric constant tensor:
#      x y z
#    x 1.787000 0.000000 0.000000 
#    y 0.000000 1.782090 0.000000 
#    z 0.000000 0.000000 1.739200 
# 
# From -- ./inp_files/18089.got.cif
#   From: 2010.03.12/outbox.cif.g09.slc.cpg/sg53_10_cif.got.tgz:18089.got - 2010.04.16 14:36:59.
