data_PCOD8220811
_publ_section_title
;
Structure prediction by ZEFSAII (Michael W. Deem and Ramdas Pophale) SiO2 
 PCOD8220811
Probable space group: P M N A
;
_chemical_formula_sum "Si O2"
_cell_formula_units_Z 64
_cell_length_a 8.924130
_cell_length_b 15.327633
_cell_length_c 23.705946
_cell_angle_alpha 90.000000
_cell_angle_beta 90.000000
_cell_angle_gamma 90.000000
_cell_volume 3242.636539
_symmetry_space_group_name_H-M "P M N A"
_symmetry_group_IT_number 53
_symmetry_cell_setting 'orthorhombic'
loop_
_space_group_symop_operation_xyz
x,y,z
1/2-x,-y,1/2+z
x,-y,-z
1/2-x,y,1/2-z
-x,-y,-z
1/2+x,y,1/2-z
-x,y,z
1/2+x,-y,1/2+z
loop_
_atom_site_type_symbol
_atom_site_label
_atom_site_fract_x
_atom_site_fract_y
_atom_site_fract_z
Si Si1 0.824887 0.649064 0.500222
Si Si2 0.676177 0.912591 0.120719
Si Si3 0.675988 0.249786 0.310395
Si Si4 0.677014 0.744389 0.189579
Si Si5 0.174496 0.851492 0.502929
Si Si6 0.671295 0.593390 0.611007
Si Si7 0.828436 0.603486 0.112943
Si Si8 0.823060 0.910986 0.885970
O O1 0.783593 0.750330 0.504251
O O2 0.780750 0.602728 0.558071
O O3 0.728870 0.605628 0.450986
O O4 0.000000 0.634874 0.487859
O O5 0.500000 0.927123 0.125673
O O6 0.729826 0.834350 0.160994
O O7 0.759336 0.000000 0.140819
O O8 0.723271 0.889820 0.057071
O O9 0.750000 0.244543 0.250000
O O10 0.500000 0.243243 0.301859
O O11 0.722742 0.340172 0.340203
O O12 0.735350 0.169797 0.348569
O O13 0.750000 0.735678 0.250000
O O14 0.500000 0.740820 0.195526
O O15 0.726273 0.663614 0.151595
O O16 0.265784 0.902226 0.550319
O O17 0.000000 0.867065 0.514584
O O18 0.500000 0.613934 0.592378
O O19 0.685119 0.495697 0.635213
O O20 0.000000 0.635687 0.115463
O O21 0.000000 0.915073 0.886486
#
# Coordination Sequence:
#
# PCOD8220811 Si02
#       8
#     8   8   8   8   8   8   8   8
#     4  11  21  36  61  92 124 159 200 245 297 359
#     4  10  22  41  62  86 121 159 194 241 297 358
#     4  10  23  42  61  83 116 154 199 248 294 349
#     4  11  24  44  65  88 120 159 205 253 303 357
#     4  10  20  37  60  87 120 159 196 236 297 359
#     4  10  22  41  61  88 124 159 198 246 303 359
#     4  11  23  39  63  91 123 162 199 246 304 358
#     4  11  23  38  60  91 121 153 196 247 297 353
#
# _framework density 19.737027000000001
#
# number of rings (size 3 to 8) (size 9 to 14) (size 15 to 20)
#    0.000    1.500    2.500    2.250    0.000    8.500 
#    0.000    3.750    0.000    0.000    0.000    0.000 
#    0.000    0.000    0.000    0.000    0.000    0.000 
#
# Total GULP energy -793963.669152 kJ/mol
# GULP energy per Si atom -12405.682330 kJ/mol
# Density = 1.969210 g / cm^3
# Si number density = 19.737027 Si / 1000 Ang^3
#
#
#
# Elastic Constant Matrix: (Units=GPa)
#
#
# Indices 1 2 3 4 5 6 
#
# 1 50.0186 24.9574 15.3731 0.0000 0.0000 0.0000
# 2 24.9574 88.1337 -6.6055 0.0000 0.0000 0.0000
# 3 15.3731 -6.6055 56.7082 0.0000 0.0000 0.0000
# 4 0.0000 0.0000 0.0000 4.8313 0.0000 0.0000
# 5 0.0000 0.0000 0.0000 0.0000 25.6690 0.0000
# 6 0.0000 0.0000 0.0000 0.0000 0.0000 30.9195
#
#
#
# Elastic Compliance Matrix: (Units=1/GPa)
#
#
# Indices 1 2 3 4 5 6 
#
# 1 0.026552 -0.008129 -0.008145 0.000000 0.000000 0.000000
# 2 -0.008129 0.013935 0.003827 0.000000 0.000000 0.000000
# 3 -0.008145 0.003827 0.020288 0.000000 0.000000 0.000000
# 4 0.000000 0.000000 0.000000 0.206985 0.000000 0.000000
# 5 0.000000 0.000000 0.000000 0.000000 0.038958 0.000000
# 6 0.000000 0.000000 0.000000 0.000000 0.000000 0.032342
#
#
# Mechanical properties :
#
#
# Convention : Reuss Voigt Hill
#
# Bulk Modulus (GPa) = 27.87015 29.14559 28.50787
# Shear Modulus (GPa) = 13.30088 23.02632 18.16360
#
# Velocity S-wave (km/s) = 2.59878 3.41934 3.03690
# Velocity P-wave (km/s) = 4.81210 5.51255 5.17419
#
# Compressibility (1/GPa) = 0.03588068
#
# Stress axis : x y z
#
# Youngs Moduli (GPa) = 37.66176 71.76037 49.29033
#
# Poissons Ratio (x) = 0.58337 0.40147
# Poissons Ratio (y) = 0.30617 -0.18864
# Poissons Ratio (z) = 0.30675 -0.27463
#
# Static dielectric constant tensor:
#      x y z
#    x 3.536190 0.000000 0.000000 
#    y 0.000000 3.865140 0.000000 
#    z 0.000000 0.000000 3.578840 
# 
# 
# High freq. dielectric constant tensor:
#      x y z
#    x 1.768470 0.000000 0.000000 
#    y 0.000000 1.787710 0.000000 
#    z 0.000000 0.000000 1.762890 
# 
# From -- ./inp_files/34147.got.cif
#   From: 2010.03.12/outbox.cif.g09.slc.cpg/sg53_18_cif.got.tgz:34147.got - 2010.04.16 14:36:59.
