data_PCOD8220919
_publ_section_title
;
Structure prediction by ZEFSAII (Michael W. Deem and Ramdas Pophale) SiO2 
 PCOD8220919
Probable space group: P M N A
;
_chemical_formula_sum "Si O2"
_cell_formula_units_Z 64
_cell_length_a 15.528342
_cell_length_b 20.816412
_cell_length_c 9.903569
_cell_angle_alpha 90.000000
_cell_angle_beta 90.000000
_cell_angle_gamma 90.000000
_cell_volume 3201.272870
_symmetry_space_group_name_H-M "P M N A"
_symmetry_group_IT_number 53
_symmetry_cell_setting 'orthorhombic'
loop_
_space_group_symop_operation_xyz
x,y,z
1/2-x,-y,1/2+z
x,-y,-z
1/2-x,y,1/2-z
-x,-y,-z
1/2+x,y,1/2-z
-x,y,z
1/2+x,-y,1/2+z
loop_
_atom_site_type_symbol
_atom_site_label
_atom_site_fract_x
_atom_site_fract_y
_atom_site_fract_z
Si Si1 0.898375 0.856738 0.116731
Si Si2 0.748113 0.563326 0.910974
Si Si3 0.400839 0.344904 0.483324
Si Si4 0.648493 0.276424 0.744900
Si Si5 0.595563 0.746755 0.745925
Si Si6 0.094438 0.994733 0.160357
Si Si7 0.100610 0.661713 0.521473
Si Si8 0.336004 0.127315 0.321643
O O1 0.877931 0.796988 0.212165
O O2 0.875154 0.922558 0.199684
O O3 0.000000 0.857489 0.075283
O O4 0.839731 0.859107 0.982033
O O5 0.750000 0.549112 0.750000
O O6 0.837639 0.598078 0.944493
O O7 0.662649 0.600355 0.962927
O O8 0.748165 0.500000 0.000000
O O9 0.500000 0.366045 0.457056
O O10 0.390187 0.325512 0.637629
O O11 0.373048 0.281742 0.397450
O O12 0.750000 0.282325 0.750000
O O13 0.607224 0.299526 0.882926
O O14 0.500000 0.723420 0.769957
O O15 0.642325 0.711592 0.869915
O O16 0.596862 0.823998 0.747327
O O17 0.000000 0.006836 0.220248
O O18 0.151626 0.052686 0.219392
O O19 0.092850 0.000000 0.000000
O O20 0.000000 0.640962 0.541165
O O21 0.250000 0.151066 0.250000
#
# Coordination Sequence:
#
# PCOD8220919 Si02
#       8
#     8   8   8   8   8   8   8   8
#     4  10  20  38  61  87 121 169 222 268 322 396
#     4  12  28  47  72 101 138 172 212 261 315 387
#     4  11  23  44  71  96 129 174 219 267 314 381
#     4  12  24  38  66  99 133 168 215 275 330 381
#     4  10  21  38  64  91 121 165 214 264 320 373
#     4   8  16  33  54  77 114 161 212 265 316 381
#     4  11  25  45  67  96 135 175 213 267 331 384
#     4  11  21  29  56  90 122 158 212 272 326 376
#
# _framework density 19.992049000000002
#
# number of rings (size 3 to 8) (size 9 to 14) (size 15 to 20)
#    0.000    1.375    3.750    3.000    5.250    1.000 
#    0.000    0.000    0.000    0.000    0.000    3.500 
#    0.000    0.000    0.000    0.000    0.000    0.000 
#
# Total GULP energy -792897.038091 kJ/mol
# GULP energy per Si atom -12389.016220 kJ/mol
# Density = 1.994655 g / cm^3
# Si number density = 19.992049 Si / 1000 Ang^3
#
#
#
# Elastic Constant Matrix: (Units=GPa)
#
#
# Indices 1 2 3 4 5 6 
#
# 1 104.9745 59.8992 44.1487 0.0000 0.0000 0.0000
# 2 59.8992 144.6217 42.7024 0.0000 0.0000 0.0000
# 3 44.1487 42.7024 84.6222 0.0000 0.0000 0.0000
# 4 0.0000 0.0000 0.0000 23.5326 0.0000 0.0000
# 5 0.0000 0.0000 0.0000 0.0000 18.1249 0.0000
# 6 0.0000 0.0000 0.0000 0.0000 0.0000 29.3431
#
#
#
# Elastic Compliance Matrix: (Units=1/GPa)
#
#
# Indices 1 2 3 4 5 6 
#
# 1 0.014196 -0.004339 -0.005217 0.000000 0.000000 0.000000
# 2 -0.004339 0.009452 -0.002506 0.000000 0.000000 0.000000
# 3 -0.005217 -0.002506 0.015803 0.000000 0.000000 0.000000
# 4 0.000000 0.000000 0.000000 0.042494 0.000000 0.000000
# 5 0.000000 0.000000 0.000000 0.000000 0.055173 0.000000
# 6 0.000000 0.000000 0.000000 0.000000 0.000000 0.034080
#
#
# Mechanical properties :
#
#
# Convention : Reuss Voigt Hill
#
# Bulk Modulus (GPa) = 65.24085 69.74655 67.49370
# Shear Modulus (GPa) = 24.94633 26.69798 25.82215
#
# Velocity S-wave (km/s) = 3.53627 3.65832 3.59781
# Velocity P-wave (km/s) = 7.02694 7.26686 7.14791
#
# Compressibility (1/GPa) = 0.01532782
#
# Stress axis : x y z
#
# Youngs Moduli (GPa) = 70.44158 105.80079 63.27832
#
# Poissons Ratio (x) = 0.45912 0.33010
# Poissons Ratio (y) = 0.30568 0.15855
# Poissons Ratio (z) = 0.36746 0.26510
#
# Static dielectric constant tensor:
#      x y z
#    x 3.662210 0.000000 0.000000 
#    y 0.000000 3.767270 0.000000 
#    z 0.000000 0.000000 3.742970 
# 
# 
# High freq. dielectric constant tensor:
#      x y z
#    x 1.781220 0.000000 0.000000 
#    y 0.000000 1.785920 0.000000 
#    z 0.000000 0.000000 1.767150 
# 
# From -- ./inp_files/8968.got.cif
#   From: 2010.03.12/outbox.cif.g09.slc.cpg/sg53_5_cif.got.tgz:8968.got - 2010.04.16 14:36:59.
