data_PCOD8220551
_publ_section_title
;
Structure prediction by ZEFSAII (Michael W. Deem and Ramdas Pophale) SiO2 
 PCOD8220551
Probable space group: P M N A
;
_chemical_formula_sum "Si O2"
_cell_formula_units_Z 48
_cell_length_a 8.590094
_cell_length_b 30.554407
_cell_length_c 9.123023
_cell_angle_alpha 90.000000
_cell_angle_beta 90.000000
_cell_angle_gamma 90.000000
_cell_volume 2394.476314
_symmetry_space_group_name_H-M "P M N A"
_symmetry_group_IT_number 53
_symmetry_cell_setting 'orthorhombic'
loop_
_space_group_symop_operation_xyz
x,y,z
1/2-x,-y,1/2+z
x,-y,-z
1/2-x,y,1/2-z
-x,-y,-z
1/2+x,y,1/2-z
-x,y,z
1/2+x,-y,1/2+z
loop_
_atom_site_type_symbol
_atom_site_label
_atom_site_fract_x
_atom_site_fract_y
_atom_site_fract_z
Si Si1 0.815497 0.792119 0.406507
Si Si2 0.184120 0.698543 0.091364
Si Si3 0.179731 0.456299 0.907892
Si Si4 0.684463 0.957958 0.088709
Si Si5 0.816683 0.378799 0.408971
Si Si6 0.683659 0.874927 0.910202
O O1 0.750000 0.806839 0.250000
O O2 0.741788 0.746360 0.456550
O O3 0.762986 0.828662 0.522485
O O4 0.000000 0.786888 0.395698
O O5 0.250000 0.684762 0.250000
O O6 0.000000 0.697934 0.101217
O O7 0.241244 0.665708 0.967049
O O8 0.250000 0.465983 0.750000
O O9 0.000000 0.441929 0.896160
O O10 0.199565 0.500000 0.000000
O O11 0.277078 0.417874 0.981647
O O12 0.750000 0.960169 0.250000
O O13 0.500000 0.957475 0.096567
O O14 0.748852 0.914356 0.009784
O O15 0.745679 0.000000 0.000000
O O16 0.750000 0.390235 0.250000
O O17 0.000000 0.372727 0.398751
O O18 0.750000 0.880081 0.750000
O O19 0.500000 0.877688 0.901932
#
# Coordination Sequence:
#
# PCOD8220551 Si02
#       6
#     8   8   8   8   8   8
#     4  10  20  36  57  83 113 147 191 238 287 343
#     4  11  22  39  62  88 118 154 196 241 293 348
#     4  11  24  42  65  93 125 161 201 245 294 347
#     4  10  21  37  57  83 113 146 187 232 280 336
#     4  12  25  42  63  89 122 158 199 245 295 350
#     4  10  22  37  55  81 113 148 188 234 282 339
#
# _framework density 20.046137000000002
#
# number of rings (size 3 to 8) (size 9 to 14) (size 15 to 20)
#    0.000    1.333    0.000    7.000    0.000    5.667 
#    0.000    1.667    0.000    0.000    0.000    0.000 
#    0.000    0.000    0.000    0.000    0.000    0.000 
#
# Total GULP energy -595473.580263 kJ/mol
# GULP energy per Si atom -12405.699589 kJ/mol
# Density = 2.000051 g / cm^3
# Si number density = 20.046137 Si / 1000 Ang^3
#
#
#
# Elastic Constant Matrix: (Units=GPa)
#
#
# Indices 1 2 3 4 5 6 
#
# 1 104.0438 47.5918 36.5076 0.0000 0.0000 0.0000
# 2 47.5918 119.3864 67.0959 0.0000 0.0000 0.0000
# 3 36.5076 67.0959 145.5530 0.0000 0.0000 0.0000
# 4 0.0000 0.0000 0.0000 3.5094 0.0000 0.0000
# 5 0.0000 0.0000 0.0000 0.0000 37.3175 0.0000
# 6 0.0000 0.0000 0.0000 0.0000 0.0000 5.9658
#
#
#
# Elastic Compliance Matrix: (Units=1/GPa)
#
#
# Indices 1 2 3 4 5 6 
#
# 1 0.011878 -0.004131 -0.001075 0.000000 0.000000 0.000000
# 2 -0.004131 0.012742 -0.004837 0.000000 0.000000 0.000000
# 3 -0.001075 -0.004837 0.009370 0.000000 0.000000 0.000000
# 4 0.000000 0.000000 0.000000 0.284951 0.000000 0.000000
# 5 0.000000 0.000000 0.000000 0.000000 0.026797 0.000000
# 6 0.000000 0.000000 0.000000 0.000000 0.000000 0.167621
#
#
# Mechanical properties :
#
#
# Convention : Reuss Voigt Hill
#
# Bulk Modulus (GPa) = 71.92734 74.59708 73.26221
# Shear Modulus (GPa) = 9.29230 23.87773 16.58502
#
# Velocity S-wave (km/s) = 2.15535 3.45503 2.87948
# Velocity P-wave (km/s) = 6.49252 7.29451 6.90517
#
# Compressibility (1/GPa) = 0.01390292
#
# Stress axis : x y z
#
# Youngs Moduli (GPa) = 84.18856 78.48368 106.72480
#
# Poissons Ratio (x) = 0.32420 0.11474
# Poissons Ratio (y) = 0.34777 0.51627
# Poissons Ratio (z) = 0.09051 0.37966
#
# Static dielectric constant tensor:
#      x y z
#    x 3.710800 0.000000 0.000000 
#    y 0.000000 3.961490 0.000000 
#    z 0.000000 0.000000 3.665020 
# 
# 
# High freq. dielectric constant tensor:
#      x y z
#    x 1.789800 0.000000 0.000000 
#    y 0.000000 1.800380 0.000000 
#    z 0.000000 0.000000 1.790070 
# 
# From -- ./inp_files/6753.got.cif
#   From: 2010.03.12/outbox.cif.g09.slc.cpg/sg53_4_cif.got.tgz:6753.got - 2010.04.16 14:36:59.
