data_PCOD8220383
_publ_section_title
;
Structure prediction by ZEFSAII (Michael W. Deem and Ramdas Pophale) SiO2 
 PCOD8220383
Probable space group: P M N A
;
_chemical_formula_sum "Si O2"
_cell_formula_units_Z 40
_cell_length_a 17.056538
_cell_length_b 13.126872
_cell_length_c 8.653573
_cell_angle_alpha 90.000000
_cell_angle_beta 90.000000
_cell_angle_gamma 90.000000
_cell_volume 1937.526264
_symmetry_space_group_name_H-M "P M N A"
_symmetry_group_IT_number 53
_symmetry_cell_setting 'orthorhombic'
loop_
_space_group_symop_operation_xyz
x,y,z
1/2-x,-y,1/2+z
x,-y,-z
1/2-x,y,1/2-z
-x,-y,-z
1/2+x,y,1/2-z
-x,y,z
1/2+x,-y,1/2+z
loop_
_atom_site_type_symbol
_atom_site_label
_atom_site_fract_x
_atom_site_fract_y
_atom_site_fract_z
Si Si1 0.909950 0.004728 0.675773
Si Si2 0.090331 0.605041 0.139343
Si Si3 0.165541 0.814732 0.812074
Si Si4 0.667555 0.197046 0.677375
Si Si5 0.336934 0.590249 0.689924
O O1 0.859057 0.089624 0.757831
O O2 0.000000 0.035973 0.689424
O O3 0.881668 0.000000 0.500000
O O4 0.898430 0.895398 0.755806
O O5 0.108250 0.711244 0.226488
O O6 0.108199 0.504688 0.246106
O O7 0.000000 0.603271 0.084535
O O8 0.151195 0.598126 0.995815
O O9 0.250000 0.848129 0.750000
O O10 0.140260 0.702804 0.745796
O O11 0.170941 0.814509 0.995017
O O12 0.750000 0.227374 0.750000
O O13 0.250000 0.564986 0.750000
#
# Coordination Sequence:
#
# PCOD8220383 Si02
#       5
#     8   8   8   8   8
#     4  11  24  40  58  82 116 153 191 242 300 353
#     4  10  20  35  57  87 119 151 193 244 295 347
#     4  10  21  37  58  85 114 149 193 239 286 346
#     4  11  22  37  61  87 116 153 196 243 292 352
#     4   9  18  33  55  84 115 150 192 239 289 345
#
# _framework density 20.644881000000002
#
# number of rings (size 3 to 8) (size 9 to 14) (size 15 to 20)
#    0.000    1.800    0.000    4.800    0.000    5.600 
#    0.000    0.000    0.000    0.000    0.000   33.600 
#    0.000    0.000    0.000    0.000    0.000    0.000 
#
# Total GULP energy -495680.201616 kJ/mol
# GULP energy per Si atom -12392.005040 kJ/mol
# Density = 2.059789 g / cm^3
# Si number density = 20.644881 Si / 1000 Ang^3
#
#
#
# Elastic Constant Matrix: (Units=GPa)
#
#
# Indices 1 2 3 4 5 6 
#
# 1 105.1790 55.3531 42.3560 0.0000 0.0000 0.0000
# 2 55.3531 167.5449 37.0112 0.0000 0.0000 0.0000
# 3 42.3560 37.0112 79.6991 0.0000 0.0000 0.0000
# 4 0.0000 0.0000 0.0000 14.1307 0.0000 0.0000
# 5 0.0000 0.0000 0.0000 0.0000 24.1293 0.0000
# 6 0.0000 0.0000 0.0000 0.0000 0.0000 32.6677
#
#
#
# Elastic Compliance Matrix: (Units=1/GPa)
#
#
# Indices 1 2 3 4 5 6 
#
# 1 0.013477 -0.003198 -0.005677 0.000000 0.000000 0.000000
# 2 -0.003198 0.007410 -0.001741 0.000000 0.000000 0.000000
# 3 -0.005677 -0.001741 0.016373 0.000000 0.000000 0.000000
# 4 0.000000 0.000000 0.000000 0.070768 0.000000 0.000000
# 5 0.000000 0.000000 0.000000 0.000000 0.041443 0.000000
# 6 0.000000 0.000000 0.000000 0.000000 0.000000 0.030611
#
#
# Mechanical properties :
#
#
# Convention : Reuss Voigt Hill
#
# Bulk Modulus (GPa) = 62.39731 69.09595 65.74663
# Shear Modulus (GPa) = 24.19456 28.69905 26.44681
#
# Velocity S-wave (km/s) = 3.42707 3.73249 3.58304
# Velocity P-wave (km/s) = 6.77861 7.21919 7.00237
#
# Compressibility (1/GPa) = 0.01602633
#
# Stress axis : x y z
#
# Youngs Moduli (GPa) = 74.20036 134.95483 61.07669
#
# Poissons Ratio (x) = 0.43164 0.34673
# Poissons Ratio (y) = 0.23732 0.10635
# Poissons Ratio (z) = 0.42124 0.23499
#
# Static dielectric constant tensor:
#      x y z
#    x 3.583920 0.000000 0.000000 
#    y 0.000000 4.675810 0.000000 
#    z 0.000000 0.000000 3.502740 
# 
# 
# High freq. dielectric constant tensor:
#      x y z
#    x 1.798030 0.000000 0.000000 
#    y 0.000000 1.846430 0.000000 
#    z 0.000000 0.000000 1.774300 
# 
# From -- ./inp_files/8435.got.cif
#   From: 2010.03.12/outbox.cif.g09.slc.cpg/sg53_5_cif.got.tgz:8435.got - 2010.04.16 14:36:59.
