data_PCOD8220010
_publ_section_title
;
Structure prediction by ZEFSAII (Michael W. Deem and Ramdas Pophale) SiO2 
 PCOD8220010
Probable space group: P M N A
;
_chemical_formula_sum "Si O2"
_cell_formula_units_Z 56
_cell_length_a 8.960034
_cell_length_b 23.595186
_cell_length_c 14.433552
_cell_angle_alpha 90.000000
_cell_angle_beta 90.000000
_cell_angle_gamma 90.000000
_cell_volume 3051.450182
_symmetry_space_group_name_H-M "P M N A"
_symmetry_group_IT_number 53
_symmetry_cell_setting 'orthorhombic'
loop_
_space_group_symop_operation_xyz
x,y,z
1/2-x,-y,1/2+z
x,-y,-z
1/2-x,y,1/2-z
-x,-y,-z
1/2+x,y,1/2-z
-x,y,z
1/2+x,-y,1/2+z
loop_
_atom_site_type_symbol
_atom_site_label
_atom_site_fract_x
_atom_site_fract_y
_atom_site_fract_z
Si Si1 0.174554 0.434384 0.155550
Si Si2 0.825188 0.768712 0.508988
Si Si3 0.175611 0.439827 0.845378
Si Si4 0.676006 0.849119 0.649749
Si Si5 0.674907 0.143960 0.849456
Si Si6 0.173987 0.935164 0.010749
Si Si7 0.824340 0.350793 0.996308
O O1 0.250000 0.417140 0.250000
O O2 0.225971 0.497118 0.121149
O O3 0.000000 0.435560 0.170811
O O4 0.221698 0.384929 0.087139
O O5 0.740296 0.793634 0.598554
O O6 0.786930 0.802889 0.415353
O O7 0.771061 0.705610 0.491049
O O8 0.000000 0.770345 0.530818
O O9 0.250000 0.423490 0.750000
O O10 0.229287 0.391732 0.914799
O O11 0.000000 0.438109 0.833843
O O12 0.750000 0.857905 0.750000
O O13 0.500000 0.841455 0.663425
O O14 0.714864 0.903055 0.584897
O O15 0.750000 0.153342 0.750000
O O16 0.500000 0.136475 0.833653
O O17 0.736759 0.088286 0.900805
O O18 0.000000 0.928353 0.033140
O O19 0.221970 0.000000 0.000000
O O20 0.000000 0.336721 0.992103
#
# Coordination Sequence:
#
# PCOD8220010 Si02
#       7
#     8   8   8   8   8   8   8
#     4   9  18  33  52  74 100 131 167 207 254 310
#     4  10  22  38  54  76 105 136 177 224 265 310
#     4   9  18  33  52  74 101 132 167 208 255 311
#     4  10  20  36  58  80 107 143 179 216 260 309
#     4  10  21  37  57  79 106 143 182 221 265 312
#     4   9  19  36  57  84 116 145 176 216 260 308
#     4  10  20  34  53  75 101 135 171 209 260 316
#
# _framework density 18.351928999999998
#
# number of rings (size 3 to 8) (size 9 to 14) (size 15 to 20)
#    0.000    2.429    0.000    1.714    0.000    7.143 
#    0.000    5.714    0.000    4.286    0.000    0.000 
#    0.000    0.000    0.000    0.000    0.000    0.000 
#
# Total GULP energy -694353.967227 kJ/mol
# GULP energy per Si atom -12399.177986 kJ/mol
# Density = 1.831016 g / cm^3
# Si number density = 18.351929 Si / 1000 Ang^3
#
#
#
# Elastic Constant Matrix: (Units=GPa)
#
#
# Indices 1 2 3 4 5 6 
#
# 1 65.7906 49.1660 58.9795 0.0000 0.0000 0.0000
# 2 49.1660 127.7622 63.0998 0.0000 0.0000 0.0000
# 3 58.9795 63.0998 133.1912 0.0000 0.0000 0.0000
# 4 0.0000 0.0000 0.0000 30.4799 0.0000 0.0000
# 5 0.0000 0.0000 0.0000 0.0000 36.4730 0.0000
# 6 0.0000 0.0000 0.0000 0.0000 0.0000 29.5720
#
#
#
# Elastic Compliance Matrix: (Units=1/GPa)
#
#
# Indices 1 2 3 4 5 6 
#
# 1 0.028514 -0.006184 -0.009697 0.000000 0.000000 0.000000
# 2 -0.006184 0.011559 -0.002738 0.000000 0.000000 0.000000
# 3 -0.009697 -0.002738 0.013099 0.000000 0.000000 0.000000
# 4 0.000000 0.000000 0.000000 0.032809 0.000000 0.000000
# 5 0.000000 0.000000 0.000000 0.000000 0.027418 0.000000
# 6 0.000000 0.000000 0.000000 0.000000 0.000000 0.033816
#
#
# Mechanical properties :
#
#
# Convention : Reuss Voigt Hill
#
# Bulk Modulus (GPa) = 62.75517 74.35941 68.55729
# Shear Modulus (GPa) = 26.34878 29.67154 28.01016
#
# Velocity S-wave (km/s) = 3.79324 4.02532 3.91100
# Velocity P-wave (km/s) = 7.31126 7.88738 7.60478
#
# Compressibility (1/GPa) = 0.01593494
#
# Stress axis : x y z
#
# Youngs Moduli (GPa) = 35.07061 86.51402 76.34149
#
# Poissons Ratio (x) = 0.53497 0.74028
# Poissons Ratio (y) = 0.21686 0.20901
# Poissons Ratio (z) = 0.34008 0.23686
#
# Static dielectric constant tensor:
#      x y z
#    x 3.344810 0.000000 0.000000 
#    y 0.000000 3.460570 0.000000 
#    z 0.000000 0.000000 3.429950 
# 
# 
# High freq. dielectric constant tensor:
#      x y z
#    x 1.711850 0.000000 0.000000 
#    y 0.000000 1.714850 0.000000 
#    z 0.000000 0.000000 1.716390 
# 
# From -- ./inp_files/20500.got.cif
#   From: 2010.03.12/outbox.cif.g09.slc.cpg/sg53_11_cif.got.tgz:20500.got - 2010.04.16 14:36:59.
