data_PCOD8220235
_publ_section_title
;
Structure prediction by ZEFSAII (Michael W. Deem and Ramdas Pophale) SiO2 
 PCOD8220235
Probable space group: P M N A
;
_chemical_formula_sum "Si O2"
_cell_formula_units_Z 40
_cell_length_a 8.731607
_cell_length_b 25.213450
_cell_length_c 9.607875
_cell_angle_alpha 90.000000
_cell_angle_beta 90.000000
_cell_angle_gamma 90.000000
_cell_volume 2115.211503
_symmetry_space_group_name_H-M "P M N A"
_symmetry_group_IT_number 53
_symmetry_cell_setting 'orthorhombic'
loop_
_space_group_symop_operation_xyz
x,y,z
1/2-x,-y,1/2+z
x,-y,-z
1/2-x,y,1/2-z
-x,-y,-z
1/2+x,y,1/2-z
-x,y,z
1/2+x,-y,1/2+z
loop_
_atom_site_type_symbol
_atom_site_label
_atom_site_fract_x
_atom_site_fract_y
_atom_site_fract_z
Si Si1 0.181352 0.133161 0.602686
Si Si2 0.680840 0.547804 0.599739
Si Si3 0.679794 0.746247 0.107207
Si Si4 0.818222 0.656493 0.599649
Si Si5 0.819506 0.950736 0.902407
O O1 0.250000 0.113109 0.750000
O O2 0.232116 0.193756 0.574442
O O3 0.248979 0.101205 0.473195
O O4 0.000000 0.125726 0.608834
O O5 0.728305 0.500000 0.500000
O O6 0.750000 0.535497 0.750000
O O7 0.500000 0.554455 0.613085
O O8 0.751681 0.601854 0.536452
O O9 0.750000 0.725649 0.250000
O O10 0.500000 0.743620 0.122005
O O11 0.739113 0.706526 0.989249
O O12 0.750000 0.666212 0.750000
O O13 0.000000 0.652448 0.606331
O O14 0.750000 0.959700 0.750000
O O15 0.000000 0.943577 0.887709
O O16 0.775451 0.000000 0.000000
#
# Coordination Sequence:
#
# PCOD8220235 Si02
#       5
#     8   8   8   8   8
#     4  10  20  37  59  83 113 146 183 225 271 322
#     4  10  21  36  54  77 104 136 175 217 264 316
#     4   9  20  36  55  81 110 142 179 220 265 315
#     4  10  20  35  54  77 106 139 176 217 264 315
#     4  11  24  40  59  84 113 146 184 226 273 323
#
# _framework density 18.910640000000001
#
# number of rings (size 3 to 8) (size 9 to 14) (size 15 to 20)
#    0.000    2.000    0.000    4.200    0.000    8.800 
#    0.000    6.000    0.000    0.000    0.000    0.000 
#    0.000    0.000    0.000    0.000    0.000    0.000 
#
# Total GULP energy -496084.450522 kJ/mol
# GULP energy per Si atom -12402.111263 kJ/mol
# Density = 1.886760 g / cm^3
# Si number density = 18.910640 Si / 1000 Ang^3
#
#
#
# Elastic Constant Matrix: (Units=GPa)
#
#
# Indices 1 2 3 4 5 6 
#
# 1 77.6028 52.1978 53.0883 0.0000 0.0000 0.0000
# 2 52.1978 132.3357 88.8014 0.0000 0.0000 0.0000
# 3 53.0883 88.8014 129.4744 0.0000 0.0000 0.0000
# 4 0.0000 0.0000 0.0000 44.8377 0.0000 0.0000
# 5 0.0000 0.0000 0.0000 0.0000 32.1443 0.0000
# 6 0.0000 0.0000 0.0000 0.0000 0.0000 30.0911
#
#
#
# Elastic Compliance Matrix: (Units=1/GPa)
#
#
# Indices 1 2 3 4 5 6 
#
# 1 0.019104 -0.004222 -0.004937 0.000000 0.000000 0.000000
# 2 -0.004222 0.014933 -0.008511 0.000000 0.000000 0.000000
# 3 -0.004937 -0.008511 0.015585 0.000000 0.000000 0.000000
# 4 0.000000 0.000000 0.000000 0.022303 0.000000 0.000000
# 5 0.000000 0.000000 0.000000 0.000000 0.031110 0.000000
# 6 0.000000 0.000000 0.000000 0.000000 0.000000 0.033232
#
#
# Mechanical properties :
#
#
# Convention : Reuss Voigt Hill
#
# Bulk Modulus (GPa) = 70.02069 80.84311 75.43190
# Shear Modulus (GPa) = 28.35000 31.10297 29.72649
#
# Velocity S-wave (km/s) = 3.87609 4.05993 3.96908
# Velocity P-wave (km/s) = 7.55908 8.05110 7.80897
#
# Compressibility (1/GPa) = 0.01428149
#
# Stress axis : x y z
#
# Youngs Moduli (GPa) = 52.34604 66.96682 64.16385
#
# Poissons Ratio (x) = 0.28274 0.31680
# Poissons Ratio (y) = 0.22101 0.54608
# Poissons Ratio (z) = 0.25845 0.56993
#
# Static dielectric constant tensor:
#      x y z
#    x 3.529830 0.000000 0.000000 
#    y 0.000000 3.816960 0.000000 
#    z 0.000000 0.000000 3.462350 
# 
# 
# High freq. dielectric constant tensor:
#      x y z
#    x 1.746610 0.000000 0.000000 
#    y 0.000000 1.746550 0.000000 
#    z 0.000000 0.000000 1.733360 
# 
# From -- ./inp_files/6259.got.cif
#   From: 2010.03.12/outbox.cif.g09.slc.cpg/sg53_4_cif.got.tgz:6259.got - 2010.04.16 14:36:59.
