data_PCOD8220122
_publ_section_title
;
Structure prediction by ZEFSAII (Michael W. Deem and Ramdas Pophale) SiO2 
 PCOD8220122
Probable space group: P M N A
;
_chemical_formula_sum "Si O2"
_cell_formula_units_Z 56
_cell_length_a 14.387393
_cell_length_b 9.102796
_cell_length_c 21.616147
_cell_angle_alpha 90.000000
_cell_angle_beta 90.000000
_cell_angle_gamma 90.000000
_cell_volume 2830.969575
_symmetry_space_group_name_H-M "P M N A"
_symmetry_group_IT_number 53
_symmetry_cell_setting 'orthorhombic'
loop_
_space_group_symop_operation_xyz
x,y,z
1/2-x,-y,1/2+z
x,-y,-z
1/2-x,y,1/2-z
-x,-y,-z
1/2+x,y,1/2-z
-x,y,z
1/2+x,-y,1/2+z
loop_
_atom_site_type_symbol
_atom_site_label
_atom_site_fract_x
_atom_site_fract_y
_atom_site_fract_z
Si Si1 0.275660 0.736715 0.905260
Si Si2 0.897069 0.756276 0.135465
Si Si3 0.717043 0.935030 0.124860
Si Si4 0.397889 0.512511 0.128498
Si Si5 0.347303 0.270103 0.770547
Si Si6 0.394512 0.455339 0.429595
Si Si7 0.609797 0.756879 0.030691
O O1 0.326365 0.619390 0.861038
O O2 0.170557 0.683999 0.916197
O O3 0.272554 0.890793 0.870019
O O4 0.335161 0.745297 0.967444
O O5 0.818755 0.866620 0.110181
O O6 0.905645 0.768892 0.209778
O O7 0.868164 0.592331 0.114531
O O8 0.000000 0.795245 0.108453
O O9 0.674881 0.876397 0.189387
O O10 0.647424 0.897061 0.068716
O O11 0.500000 0.446372 0.116884
O O12 0.403139 0.613309 0.189097
O O13 0.367613 0.609753 0.069478
O O14 0.250000 0.342546 0.750000
O O15 0.379871 0.500000 0.500000
O O16 0.500000 0.404449 0.417002
O O17 0.500000 0.776587 0.019148
#
# Coordination Sequence:
#
# PCOD8220122 Si02
#       7
#     8   8   8   8   8   8   8
#     4  12  21  33  54  82 117 146 175 224 286 333
#     4  10  20  39  63  79 101 146 193 225 267 333
#     4  10  22  35  53  82 113 145 181 227 273 321
#     4  10  20  34  55  82 108 138 181 229 271 318
#     4   9  18  37  58  76 103 143 189 225 263 322
#     4  10  21  37  59  86 113 143 185 237 286 333
#     4  10  21  37  56  78 109 151 190 218 259 328
#
# _framework density 19.781207999999999
#
# number of rings (size 3 to 8) (size 9 to 14) (size 15 to 20)
#    0.000    1.857    0.000    6.000    0.000    4.000 
#    0.000    6.429    0.000    4.286    0.000    0.000 
#    0.000    0.000    0.000    0.000    0.000    0.000 
#
# Total GULP energy -694394.835299 kJ/mol
# GULP energy per Si atom -12399.907773 kJ/mol
# Density = 1.973619 g / cm^3
# Si number density = 19.781208 Si / 1000 Ang^3
#
#
#
# Elastic Constant Matrix: (Units=GPa)
#
#
# Indices 1 2 3 4 5 6 
#
# 1 116.0280 64.4987 27.5004 0.0000 0.0000 0.0000
# 2 64.4987 136.6164 35.6230 0.0000 0.0000 0.0000
# 3 27.5004 35.6230 75.8373 0.0000 0.0000 0.0000
# 4 0.0000 0.0000 0.0000 11.0861 0.0000 0.0000
# 5 0.0000 0.0000 0.0000 0.0000 23.9256 0.0000
# 6 0.0000 0.0000 0.0000 0.0000 0.0000 17.0881
#
#
#
# Elastic Compliance Matrix: (Units=1/GPa)
#
#
# Indices 1 2 3 4 5 6 
#
# 1 0.011924 -0.005131 -0.001914 0.000000 0.000000 0.000000
# 2 -0.005131 0.010549 -0.003095 0.000000 0.000000 0.000000
# 3 -0.001914 -0.003095 0.015334 0.000000 0.000000 0.000000
# 4 0.000000 0.000000 0.000000 0.090203 0.000000 0.000000
# 5 0.000000 0.000000 0.000000 0.000000 0.041796 0.000000
# 6 0.000000 0.000000 0.000000 0.000000 0.000000 0.058520
#
#
# Mechanical properties :
#
#
# Convention : Reuss Voigt Hill
#
# Bulk Modulus (GPa) = 57.04995 64.85845 60.95420
# Shear Modulus (GPa) = 19.65037 23.81059 21.73048
#
# Velocity S-wave (km/s) = 3.15522 3.47320 3.31802
# Velocity P-wave (km/s) = 6.49438 6.99594 6.74982
#
# Compressibility (1/GPa) = 0.01752850
#
# Stress axis : x y z
#
# Youngs Moduli (GPa) = 83.86243 94.79647 65.21512
#
# Poissons Ratio (x) = 0.48636 0.12483
# Poissons Ratio (y) = 0.43026 0.20182
# Poissons Ratio (z) = 0.16052 0.29336
#
# Static dielectric constant tensor:
#      x y z
#    x 3.770700 0.000000 0.000000 
#    y 0.000000 3.428900 0.000000 
#    z 0.000000 0.000000 3.599550 
# 
# 
# High freq. dielectric constant tensor:
#      x y z
#    x 1.790610 0.000000 0.000000 
#    y 0.000000 1.746440 0.000000 
#    z 0.000000 0.000000 1.763450 
# 
# From -- ./inp_files/32428.got.cif
#   From: 2010.03.12/outbox.cif.g09.slc.cpg/sg53_17_cif.got.tgz:32428.got - 2010.04.16 14:36:59.
