data_PCOD8220978
_publ_section_title
;
Structure prediction by ZEFSAII (Michael W. Deem and Ramdas Pophale) SiO2 
 PCOD8220978
Probable space group: P M N A
;
_chemical_formula_sum "Si O2"
_cell_formula_units_Z 48
_cell_length_a 30.237538
_cell_length_b 8.890247
_cell_length_c 9.447167
_cell_angle_alpha 90.000000
_cell_angle_beta 90.000000
_cell_angle_gamma 90.000000
_cell_volume 2539.579700
_symmetry_space_group_name_H-M "P M N A"
_symmetry_group_IT_number 53
_symmetry_cell_setting 'orthorhombic'
loop_
_space_group_symop_operation_xyz
x,y,z
1/2-x,-y,1/2+z
x,-y,-z
1/2-x,y,1/2-z
-x,-y,-z
1/2+x,y,1/2-z
-x,y,z
1/2+x,-y,1/2+z
loop_
_atom_site_type_symbol
_atom_site_label
_atom_site_fract_x
_atom_site_fract_y
_atom_site_fract_z
Si Si1 0.948227 0.171156 0.029681
Si Si2 0.615319 0.323420 0.261553
Si Si3 0.234779 0.851523 0.410401
Si Si4 0.683584 0.327290 0.494213
Si Si5 0.636870 0.176213 0.968925
Si Si6 0.394095 0.676487 0.298756
O O1 0.935212 0.276243 0.896862
O O2 0.000000 0.184365 0.055741
O O3 0.924584 0.227624 0.172272
O O4 0.933582 0.000000 0.000000
O O5 0.660493 0.286317 0.345721
O O6 0.603095 0.499059 0.269582
O O7 0.623146 0.274976 0.102182
O O8 0.250000 0.880953 0.250000
O O9 0.269682 0.751659 0.493591
O O10 0.186201 0.777287 0.417668
O O11 0.231397 0.000000 0.500000
O O12 0.695051 0.500000 0.500000
O O13 0.651008 0.279919 0.620489
O O14 0.603688 0.226552 0.844490
O O15 0.631305 0.000000 0.000000
#
# Coordination Sequence:
#
# PCOD8220978 Si02
#       6
#     8   8   8   8   8   8
#     4  10  21  39  65  93 119 149 187 233 289 357
#     4  10  22  37  60  87 115 155 193 240 293 350
#     4  11  24  38  55  82 116 155 201 249 291 342
#     4   9  20  37  56  78 109 153 196 239 286 340
#     4  11  23  37  56  84 117 157 198 244 300 339
#     4  10  20  39  59  85 118 150 197 239 289 350
#
# _framework density 18.900763999999999
#
# number of rings (size 3 to 8) (size 9 to 14) (size 15 to 20)
#    0.000    1.833    1.667    3.000    4.667    5.333 
#    0.000    0.833    0.000    5.000    0.000    0.000 
#    0.000    0.000    0.000    0.000    0.000    0.000 
#
# Total GULP energy -595231.883417 kJ/mol
# GULP energy per Si atom -12400.664238 kJ/mol
# Density = 1.885775 g / cm^3
# Si number density = 18.900764 Si / 1000 Ang^3
#
#
#
# Elastic Constant Matrix: (Units=GPa)
#
#
# Indices 1 2 3 4 5 6 
#
# 1 72.7150 27.1676 25.5716 0.0000 0.0000 0.0000
# 2 27.1676 71.3377 25.8479 0.0000 0.0000 0.0000
# 3 25.5716 25.8479 116.5836 0.0000 0.0000 0.0000
# 4 0.0000 0.0000 0.0000 35.8478 0.0000 0.0000
# 5 0.0000 0.0000 0.0000 0.0000 36.0656 0.0000
# 6 0.0000 0.0000 0.0000 0.0000 0.0000 61.6820
#
#
#
# Elastic Compliance Matrix: (Units=1/GPa)
#
#
# Indices 1 2 3 4 5 6 
#
# 1 0.016650 -0.005456 -0.002442 0.000000 0.000000 0.000000
# 2 -0.005456 0.017030 -0.002579 0.000000 0.000000 0.000000
# 3 -0.002442 -0.002579 0.009685 0.000000 0.000000 0.000000
# 4 0.000000 0.000000 0.000000 0.027896 0.000000 0.000000
# 5 0.000000 0.000000 0.000000 0.000000 0.027727 0.000000
# 6 0.000000 0.000000 0.000000 0.000000 0.000000 0.016212
#
#
# Mechanical properties :
#
#
# Convention : Reuss Voigt Hill
#
# Bulk Modulus (GPa) = 44.62229 46.42342 45.52286
# Shear Modulus (GPa) = 34.81306 38.85568 36.83437
#
# Velocity S-wave (km/s) = 4.29638 4.53898 4.41934
# Velocity P-wave (km/s) = 6.94779 7.21698 7.08366
#
# Compressibility (1/GPa) = 0.02241032
#
# Stress axis : x y z
#
# Youngs Moduli (GPa) = 60.06156 58.71982 103.25182
#
# Poissons Ratio (x) = 0.32036 0.25218
# Poissons Ratio (y) = 0.32768 0.26630
# Poissons Ratio (z) = 0.14669 0.15144
#
# Static dielectric constant tensor:
#      x y z
#    x 3.645600 0.000000 0.000000 
#    y 0.000000 3.422000 0.000000 
#    z 0.000000 0.000000 3.491270 
# 
# 
# High freq. dielectric constant tensor:
#      x y z
#    x 1.720590 0.000000 0.000000 
#    y 0.000000 1.742930 0.000000 
#    z 0.000000 0.000000 1.742660 
# 
# From -- ./inp_files/12970.got.cif
#   From: 2010.03.12/outbox.cif.g09.slc.cpg/sg53_7_cif.got.tgz:12970.got - 2010.04.16 14:36:59.
