data_PCOD8220197
_publ_section_title
;
Structure prediction by ZEFSAII (Michael W. Deem and Ramdas Pophale) SiO2 
 PCOD8220197
Probable space group: P M N A
;
_chemical_formula_sum "Si O2"
_cell_formula_units_Z 36
_cell_length_a 13.042113
_cell_length_b 6.123341
_cell_length_c 22.288867
_cell_angle_alpha 90.000000
_cell_angle_beta 90.000000
_cell_angle_gamma 90.000000
_cell_volume 1780.018011
_symmetry_space_group_name_H-M "P M N A"
_symmetry_group_IT_number 53
_symmetry_cell_setting 'orthorhombic'
loop_
_space_group_symop_operation_xyz
x,y,z
1/2-x,-y,1/2+z
x,-y,-z
1/2-x,y,1/2-z
-x,-y,-z
1/2+x,y,1/2-z
-x,y,z
1/2+x,-y,1/2+z
loop_
_atom_site_type_symbol
_atom_site_label
_atom_site_fract_x
_atom_site_fract_y
_atom_site_fract_z
Si Si1 0.382081 0.634875 0.439905
Si Si2 0.296089 0.031011 0.934460
Si Si3 0.750000 0.963079 0.750000
Si Si4 0.235466 0.346403 0.146666
Si Si5 0.382447 0.276658 0.827564
O O1 0.358298 0.500000 0.500000
O O2 0.500000 0.706366 0.436469
O O3 0.356108 0.491469 0.380745
O O4 0.315336 0.854652 0.439738
O O5 0.285169 0.791254 0.907020
O O6 0.371218 0.178648 0.894436
O O7 0.345719 0.000000 0.000000
O O8 0.804427 0.816116 0.801347
O O9 0.838993 0.109947 0.721692
O O10 0.322967 0.495521 0.176576
O O11 0.500000 0.321753 0.812645
#
# Coordination Sequence:
#
# PCOD8220197 Si02
#       5
#     8   8   4   8   8
#     4  10  20  34  58  92 126 162 201 243 297 358
#     4  10  20  37  59  87 125 160 195 244 298 353
#     4  10  22  42  64  86 116 158 202 250 298 346
#     4  10  21  39  61  86 124 162 193 248 298 350
#     4  10  23  41  62  88 116 153 202 248 295 353
#
# _framework density 20.224513999999999
#
# number of rings (size 3 to 8) (size 9 to 14) (size 15 to 20)
#    0.000    2.000    2.222    0.667    0.000    6.222 
#    0.000   16.667    0.000    0.000    0.000    0.000 
#    0.000    0.000    0.000    0.000    0.000    0.000 
#
# Total GULP energy -446463.702557 kJ/mol
# GULP energy per Si atom -12401.769515 kJ/mol
# Density = 2.017848 g / cm^3
# Si number density = 20.224514 Si / 1000 Ang^3
#
#
#
# Elastic Constant Matrix: (Units=GPa)
#
#
# Indices 1 2 3 4 5 6 
#
# 1 104.3585 33.4312 32.2658 0.0000 0.0000 0.0000
# 2 33.4312 105.6757 43.4793 0.0000 0.0000 0.0000
# 3 32.2658 43.4793 130.1338 0.0000 0.0000 0.0000
# 4 0.0000 0.0000 0.0000 35.9354 0.0000 0.0000
# 5 0.0000 0.0000 0.0000 0.0000 19.6573 0.0000
# 6 0.0000 0.0000 0.0000 0.0000 0.0000 11.8336
#
#
#
# Elastic Compliance Matrix: (Units=1/GPa)
#
#
# Indices 1 2 3 4 5 6 
#
# 1 0.011022 -0.002739 -0.001818 0.000000 0.000000 0.000000
# 2 -0.002739 0.011652 -0.003214 0.000000 0.000000 0.000000
# 3 -0.001818 -0.003214 0.009209 0.000000 0.000000 0.000000
# 4 0.000000 0.000000 0.000000 0.027828 0.000000 0.000000
# 5 0.000000 0.000000 0.000000 0.000000 0.050872 0.000000
# 6 0.000000 0.000000 0.000000 0.000000 0.000000 0.084505
#
#
# Mechanical properties :
#
#
# Convention : Reuss Voigt Hill
#
# Bulk Modulus (GPa) = 61.19432 62.05784 61.62608
# Shear Modulus (GPa) = 23.14009 28.88471 26.01240
#
# Velocity S-wave (km/s) = 3.38621 3.78326 3.59023
# Velocity P-wave (km/s) = 6.75365 7.05940 6.90822
#
# Compressibility (1/GPa) = 0.01634138
#
# Stress axis : x y z
#
# Youngs Moduli (GPa) = 90.72965 85.82426 108.59099
#
# Poissons Ratio (x) = 0.23507 0.19738
# Poissons Ratio (y) = 0.24850 0.34900
# Poissons Ratio (z) = 0.16491 0.27583
#
# Static dielectric constant tensor:
#      x y z
#    x 3.219190 0.000000 0.000000 
#    y 0.000000 3.810850 0.000000 
#    z 0.000000 0.000000 3.957790 
# 
# 
# High freq. dielectric constant tensor:
#      x y z
#    x 1.751060 0.000000 0.000000 
#    y 0.000000 1.804780 0.000000 
#    z 0.000000 0.000000 1.806540 
# 
# From -- ./inp_files/34714.got.cif
#   From: 2010.03.12/outbox.cif.g09.slc.cpg/sg53_18_cif.got.tgz:34714.got - 2010.04.16 14:36:59.
