data_PCOD8220520
_publ_section_title
;
Structure prediction by ZEFSAII (Michael W. Deem and Ramdas Pophale) SiO2 
 PCOD8220520
Probable space group: P M N A
;
_chemical_formula_sum "Si O2"
_cell_formula_units_Z 48
_cell_length_a 9.020684
_cell_length_b 30.701112
_cell_length_c 9.074919
_cell_angle_alpha 90.000000
_cell_angle_beta 90.000000
_cell_angle_gamma 90.000000
_cell_volume 2513.253713
_symmetry_space_group_name_H-M "P M N A"
_symmetry_group_IT_number 53
_symmetry_cell_setting 'orthorhombic'
loop_
_space_group_symop_operation_xyz
x,y,z
1/2-x,-y,1/2+z
x,-y,-z
1/2-x,y,1/2-z
-x,-y,-z
1/2+x,y,1/2-z
-x,y,z
1/2+x,-y,1/2+z
loop_
_atom_site_type_symbol
_atom_site_label
_atom_site_fract_x
_atom_site_fract_y
_atom_site_fract_z
Si Si1 0.325102 0.125415 0.092611
Si Si2 0.824951 0.708045 0.595112
Si Si3 0.830190 0.461868 0.901428
Si Si4 0.174588 0.041613 0.592509
Si Si5 0.327309 0.364062 0.592357
Si Si6 0.173030 0.792340 0.406505
O O1 0.250000 0.122376 0.250000
O O2 0.500000 0.126308 0.117484
O O3 0.275040 0.084362 0.995582
O O4 0.268618 0.168632 0.009422
O O5 0.750000 0.719141 0.750000
O O6 0.753231 0.664613 0.529809
O O7 0.787936 0.747103 0.484438
O O8 0.000000 0.701510 0.616939
O O9 0.750000 0.463936 0.750000
O O10 0.810369 0.413453 0.967979
O O11 0.000000 0.472878 0.872286
O O12 0.758531 0.500000 0.000000
O O13 0.250000 0.041278 0.750000
O O14 0.000000 0.040610 0.617805
O O15 0.228826 0.000000 0.500000
O O16 0.250000 0.357405 0.750000
O O17 0.500000 0.351061 0.608481
O O18 0.250000 0.794216 0.250000
O O19 0.000000 0.797632 0.378357
#
# Coordination Sequence:
#
# PCOD8220520 Si02
#       6
#     8   8   8   8   8   8
#     4  10  21  37  56  81 111 142 180 223 268 319
#     4  11  23  38  56  80 109 141 179 222 270 321
#     4   9  19  35  54  78 107 139 176 217 262 313
#     4  10  21  36  55  81 111 143 182 225 269 321
#     4  10  20  36  57  80 108 142 180 221 266 318
#     4  10  22  38  57  81 108 141 180 221 266 319
#
# _framework density 19.098746999999999
#
# number of rings (size 3 to 8) (size 9 to 14) (size 15 to 20)
#    0.000    2.000    0.000    3.000    0.000    6.000 
#    0.000    1.667    0.000    0.000    0.000    0.000 
#    0.000    0.000    0.000    0.000    0.000    0.000 
#
# Total GULP energy -595306.910973 kJ/mol
# GULP energy per Si atom -12402.227312 kJ/mol
# Density = 1.905528 g / cm^3
# Si number density = 19.098747 Si / 1000 Ang^3
#
#
#
# Elastic Constant Matrix: (Units=GPa)
#
#
# Indices 1 2 3 4 5 6 
#
# 1 70.0201 52.9396 58.8598 0.0000 0.0000 0.0000
# 2 52.9396 140.0158 69.8219 0.0000 0.0000 0.0000
# 3 58.8598 69.8219 145.8957 0.0000 0.0000 0.0000
# 4 0.0000 0.0000 0.0000 36.8330 0.0000 0.0000
# 5 0.0000 0.0000 0.0000 0.0000 36.1385 0.0000
# 6 0.0000 0.0000 0.0000 0.0000 0.0000 28.1136
#
#
#
# Elastic Compliance Matrix: (Units=1/GPa)
#
#
# Indices 1 2 3 4 5 6 
#
# 1 0.024680 -0.005735 -0.007212 0.000000 0.000000 0.000000
# 2 -0.005735 0.010713 -0.002813 0.000000 0.000000 0.000000
# 3 -0.007212 -0.002813 0.011110 0.000000 0.000000 0.000000
# 4 0.000000 0.000000 0.000000 0.027150 0.000000 0.000000
# 5 0.000000 0.000000 0.000000 0.000000 0.027671 0.000000
# 6 0.000000 0.000000 0.000000 0.000000 0.000000 0.035570
#
#
# Mechanical properties :
#
#
# Convention : Reuss Voigt Hill
#
# Bulk Modulus (GPa) = 66.74410 79.90823 73.32616
# Shear Modulus (GPa) = 28.83324 31.83772 30.33548
#
# Velocity S-wave (km/s) = 3.88969 4.08733 3.98973
# Velocity P-wave (km/s) = 7.42938 8.01282 7.72661
#
# Compressibility (1/GPa) = 0.01498260
#
# Stress axis : x y z
#
# Youngs Moduli (GPa) = 40.51791 93.34085 90.00569
#
# Poissons Ratio (x) = 0.53531 0.64916
# Poissons Ratio (y) = 0.23237 0.25323
# Poissons Ratio (z) = 0.29223 0.26261
#
# Static dielectric constant tensor:
#      x y z
#    x 3.477580 0.000000 0.000000 
#    y 0.000000 4.154640 0.000000 
#    z 0.000000 0.000000 3.447990 
# 
# 
# High freq. dielectric constant tensor:
#      x y z
#    x 1.741170 0.000000 0.000000 
#    y 0.000000 1.762830 0.000000 
#    z 0.000000 0.000000 1.746760 
# 
# From -- ./inp_files/6571.got.cif
#   From: 2010.03.12/outbox.cif.g09.slc.cpg/sg53_4_cif.got.tgz:6571.got - 2010.04.16 14:36:59.
