data_PCOD8220672
_publ_section_title
;
Structure prediction by ZEFSAII (Michael W. Deem and Ramdas Pophale) SiO2 
 PCOD8220672
Probable space group: P M N A
;
_chemical_formula_sum "Si O2"
_cell_formula_units_Z 48
_cell_length_a 8.706093
_cell_length_b 9.072153
_cell_length_c 30.846399
_cell_angle_alpha 90.000000
_cell_angle_beta 90.000000
_cell_angle_gamma 90.000000
_cell_volume 2436.341371
_symmetry_space_group_name_H-M "P M N A"
_symmetry_group_IT_number 53
_symmetry_cell_setting 'orthorhombic'
loop_
_space_group_symop_operation_xyz
x,y,z
1/2-x,-y,1/2+z
x,-y,-z
1/2-x,y,1/2-z
-x,-y,-z
1/2+x,y,1/2-z
-x,y,z
1/2+x,-y,1/2+z
loop_
_atom_site_type_symbol
_atom_site_label
_atom_site_fract_x
_atom_site_fract_y
_atom_site_fract_z
Si Si1 0.681090 0.410739 0.705000
Si Si2 0.819521 0.595271 0.877741
Si Si3 0.178768 0.579725 0.454854
Si Si4 0.317932 0.916109 0.041611
Si Si5 0.181168 0.922769 0.205002
Si Si6 0.681048 0.088473 0.125365
O O1 0.750000 0.471305 0.750000
O O2 0.500000 0.413318 0.709274
O O3 0.737086 0.513712 0.665886
O O4 0.739124 0.244007 0.695780
O O5 0.783769 0.492316 0.918379
O O6 0.722845 0.742959 0.882984
O O7 0.000000 0.629994 0.876018
O O8 0.209686 0.500000 0.500000
O O9 0.235096 0.747367 0.459486
O O10 0.000000 0.569164 0.441516
O O11 0.500000 0.928064 0.039999
O O12 0.255811 0.993224 0.085067
O O13 0.247076 0.000000 0.000000
O O14 0.250000 0.980901 0.250000
O O15 0.237472 0.032137 0.168240
O O16 0.000000 0.930283 0.207822
O O17 0.500000 0.071414 0.130638
#
# Coordination Sequence:
#
# PCOD8220672 Si02
#       6
#     8   8   8   8   8   8
#     4   9  20  37  58  82 109 143 183 228 276 329
#     4  11  23  38  55  80 115 150 186 231 281 332
#     4  10  20  36  60  86 111 143 185 231 279 334
#     4   9  18  34  57  84 112 142 181 229 277 330
#     4  10  20  37  59  83 111 143 182 227 277 331
#     4  11  22  36  56  82 112 148 188 229 276 328
#
# _framework density 19.701671999999999
#
# number of rings (size 3 to 8) (size 9 to 14) (size 15 to 20)
#    0.000    2.000    0.000    3.500    0.000    5.667 
#    0.000    2.500    0.000    3.500    0.000    0.000 
#    0.000    0.000    0.000    0.000    0.000    0.000 
#
# Total GULP energy -595408.903095 kJ/mol
# GULP energy per Si atom -12404.352148 kJ/mol
# Density = 1.965683 g / cm^3
# Si number density = 19.701672 Si / 1000 Ang^3
#
#
#
# Elastic Constant Matrix: (Units=GPa)
#
#
# Indices 1 2 3 4 5 6 
#
# 1 39.7592 16.1243 28.4826 0.0000 0.0000 0.0000
# 2 16.1243 129.7589 70.9404 0.0000 0.0000 0.0000
# 3 28.4826 70.9404 149.9109 0.0000 0.0000 0.0000
# 4 0.0000 0.0000 0.0000 53.7562 0.0000 0.0000
# 5 0.0000 0.0000 0.0000 0.0000 30.5832 0.0000
# 6 0.0000 0.0000 0.0000 0.0000 0.0000 26.8289
#
#
#
# Elastic Compliance Matrix: (Units=1/GPa)
#
#
# Indices 1 2 3 4 5 6 
#
# 1 0.029176 -0.000803 -0.005164 0.000000 0.000000 0.000000
# 2 -0.000803 0.010418 -0.004778 0.000000 0.000000 0.000000
# 3 -0.005164 -0.004778 0.009913 0.000000 0.000000 0.000000
# 4 0.000000 0.000000 0.000000 0.018602 0.000000 0.000000
# 5 0.000000 0.000000 0.000000 0.000000 0.032698 0.000000
# 6 0.000000 0.000000 0.000000 0.000000 0.000000 0.037273
#
#
# Mechanical properties :
#
#
# Convention : Reuss Voigt Hill
#
# Bulk Modulus (GPa) = 35.68965 61.16931 48.42948
# Shear Modulus (GPa) = 29.60199 35.82577 32.71388
#
# Velocity S-wave (km/s) = 3.88043 4.26891 4.07930
# Velocity P-wave (km/s) = 6.18315 7.44401 6.84268
#
# Compressibility (1/GPa) = 0.02801933
#
# Stress axis : x y z
#
# Youngs Moduli (GPa) = 34.27477 95.98482 100.88216
#
# Poissons Ratio (x) = 0.07703 0.52091
# Poissons Ratio (y) = 0.02751 0.48198
# Poissons Ratio (z) = 0.17698 0.45858
#
# Static dielectric constant tensor:
#      x y z
#    x 3.349740 0.000000 0.000000 
#    y 0.000000 3.713540 0.000000 
#    z 0.000000 0.000000 3.786170 
# 
# 
# High freq. dielectric constant tensor:
#      x y z
#    x 1.750050 0.000000 0.000000 
#    y 0.000000 1.775580 0.000000 
#    z 0.000000 0.000000 1.783610 
# 
# From -- ./inp_files/37748.got.cif
#   From: 2010.03.12/outbox.cif.g09.slc.cpg/sg53_19_cif.got.tgz:37748.got - 2010.04.16 14:36:59.
