data_PCOD8220449
_publ_section_title
;
Structure prediction by ZEFSAII (Michael W. Deem and Ramdas Pophale) SiO2 
 PCOD8220449
Probable space group: P M N A
;
_chemical_formula_sum "Si O2"
_cell_formula_units_Z 40
_cell_length_a 8.878556
_cell_length_b 9.664889
_cell_length_c 25.780584
_cell_angle_alpha 90.000000
_cell_angle_beta 90.000000
_cell_angle_gamma 90.000000
_cell_volume 2212.238570
_symmetry_space_group_name_H-M "P M N A"
_symmetry_group_IT_number 53
_symmetry_cell_setting 'orthorhombic'
loop_
_space_group_symop_operation_xyz
x,y,z
1/2-x,-y,1/2+z
x,-y,-z
1/2-x,y,1/2-z
-x,-y,-z
1/2+x,y,1/2-z
-x,y,z
1/2+x,-y,1/2+z
loop_
_atom_site_type_symbol
_atom_site_label
_atom_site_fract_x
_atom_site_fract_y
_atom_site_fract_z
Si Si1 0.176695 0.355832 0.302754
Si Si2 0.178140 0.847228 0.607146
Si Si3 0.177916 0.672048 0.303508
Si Si4 0.676974 0.144034 0.608642
Si Si5 0.334272 0.836586 0.006001
O O1 0.250000 0.299153 0.250000
O O2 0.233398 0.262572 0.350371
O O3 0.225783 0.513329 0.313524
O O4 0.000000 0.343411 0.295944
O O5 0.217406 0.780726 0.550608
O O6 0.000000 0.879040 0.610603
O O7 0.267851 0.988042 0.616624
O O8 0.250000 0.725738 0.250000
O O9 0.241459 0.760884 0.350066
O O10 0.000000 0.690664 0.300153
O O11 0.500000 0.151979 0.616701
O O12 0.717687 0.202477 0.551286
O O13 0.500000 0.777700 0.020733
O O14 0.344800 0.000000 0.000000
#
# Coordination Sequence:
#
# PCOD8220449 Si02
#       5
#     8   8   8   8   8
#     4   9  19  35  55  76  99 130 166 205 251 301
#     4   9  18  34  54  76 102 132 168 209 252 299
#     4  10  20  36  55  74  99 132 168 206 250 298
#     4  11  21  32  50  77 105 134 168 206 249 296
#     4   8  15  30  51  72  98 133 168 205 250 296
#
# _framework density 18.081233999999998
#
# number of rings (size 3 to 8) (size 9 to 14) (size 15 to 20)
#    0.000    2.600    0.000    3.600    0.000    6.000 
#    0.000    3.000    0.000    6.000    0.000    0.000 
#    0.000    0.000    0.000    0.000    0.000    0.000 
#
# Total GULP energy -495906.413408 kJ/mol
# GULP energy per Si atom -12397.660335 kJ/mol
# Density = 1.804008 g / cm^3
# Si number density = 18.081234 Si / 1000 Ang^3
#
#
#
# Elastic Constant Matrix: (Units=GPa)
#
#
# Indices 1 2 3 4 5 6 
#
# 1 70.9826 29.2922 47.9736 0.0000 0.0000 0.0000
# 2 29.2922 56.1170 62.5543 0.0000 0.0000 0.0000
# 3 47.9736 62.5543 165.8791 0.0000 0.0000 0.0000
# 4 0.0000 0.0000 0.0000 -46.7504 0.0000 0.0000
# 5 0.0000 0.0000 0.0000 0.0000 33.3120 0.0000
# 6 0.0000 0.0000 0.0000 0.0000 0.0000 12.9472
#
#
#
# Elastic Compliance Matrix: (Units=1/GPa)
#
#
# Indices 1 2 3 4 5 6 
#
# 1 0.018779 -0.006467 -0.002992 0.000000 0.000000 0.000000
# 2 -0.006467 0.032970 -0.010563 0.000000 0.000000 0.000000
# 3 -0.002992 -0.010563 0.010877 0.000000 0.000000 0.000000
# 4 0.000000 0.000000 0.000000 -0.021390 0.000000 0.000000
# 5 0.000000 0.000000 0.000000 0.000000 0.030019 0.000000
# 6 0.000000 0.000000 0.000000 0.000000 0.000000 0.077237
#
#
# Mechanical properties :
#
#
# Convention : Reuss Voigt Hill
#
# Bulk Modulus (GPa) = 44.28270 63.62432 53.95351
# Shear Modulus (GPa) = 25.50185 10.11233 17.80709
#
# Velocity S-wave (km/s) = 3.75961 2.36746 3.14162
# Velocity P-wave (km/s) = 6.58714 6.53740 6.56231
#
# Compressibility (1/GPa) = 0.02258218
#
# Stress axis : x y z
#
# Youngs Moduli (GPa) = 53.25106 30.33035 91.93419
#
# Poissons Ratio (x) = 0.19614 0.27510
# Poissons Ratio (y) = 0.34436 0.97111
# Poissons Ratio (z) = 0.15935 0.32038
#
# Static dielectric constant tensor:
#      x y z
#    x 3.316860 0.000000 0.000000 
#    y 0.000000 3.174090 0.000000 
#    z 0.000000 0.000000 3.939650 
# 
# 
# High freq. dielectric constant tensor:
#      x y z
#    x 1.696360 0.000000 0.000000 
#    y 0.000000 1.670330 0.000000 
#    z 0.000000 0.000000 1.718910 
# 
# From -- ./inp_files/30361.got.cif
#   From: 2010.03.12/outbox.cif.g09.slc.cpg/sg53_16_cif.got.tgz:30361.got - 2010.04.16 14:36:59.
