data_PCOD8220914
_publ_section_title
;
Structure prediction by ZEFSAII (Michael W. Deem and Ramdas Pophale) SiO2 
 PCOD8220914
Probable space group: P M N A
;
_chemical_formula_sum "Si O2"
_cell_formula_units_Z 64
_cell_length_a 8.667791
_cell_length_b 11.973171
_cell_length_c 30.875792
_cell_angle_alpha 90.000000
_cell_angle_beta 90.000000
_cell_angle_gamma 90.000000
_cell_volume 3204.318835
_symmetry_space_group_name_H-M "P M N A"
_symmetry_group_IT_number 53
_symmetry_cell_setting 'orthorhombic'
loop_
_space_group_symop_operation_xyz
x,y,z
1/2-x,-y,1/2+z
x,-y,-z
1/2-x,y,1/2-z
-x,-y,-z
1/2+x,y,1/2-z
-x,y,z
1/2+x,-y,1/2+z
loop_
_atom_site_type_symbol
_atom_site_label
_atom_site_fract_x
_atom_site_fract_y
_atom_site_fract_z
Si Si1 0.680943 0.493447 0.176047
Si Si2 0.317956 0.865789 0.873888
Si Si3 0.321022 0.500144 0.416894
Si Si4 0.683086 0.116636 0.874983
Si Si5 0.182505 0.262547 0.704613
Si Si6 0.677266 0.712277 0.952747
Si Si7 0.818921 0.269273 0.205507
Si Si8 0.678340 0.721283 0.050297
O O1 0.500000 0.473842 0.182947
O O2 0.716506 0.488255 0.125415
O O3 0.737482 0.611641 0.194910
O O4 0.772910 0.398649 0.201474
O O5 0.500000 0.865622 0.866807
O O6 0.271753 0.807270 0.918919
O O7 0.243120 0.800379 0.834564
O O8 0.250423 0.991270 0.875216
O O9 0.500000 0.499124 0.403876
O O10 0.283970 0.396197 0.447930
O O11 0.281001 0.612467 0.442217
O O12 0.500000 0.112747 0.873589
O O13 0.747662 0.182127 0.833053
O O14 0.737675 0.179998 0.918423
O O15 0.250000 0.220528 0.750000
O O16 0.000000 0.256148 0.706209
O O17 0.500000 0.676837 0.945017
O O18 0.699691 0.761730 0.000919
O O19 0.750000 0.220000 0.250000
O O20 0.000000 0.257661 0.207163
O O21 0.500000 0.691760 0.060517
#
# Coordination Sequence:
#
# PCOD8220914 Si02
#       8
#     8   8   8   8   8   8   8   8
#     4  11  21  38  63  88 119 154 193 241 298 357
#     4  10  21  39  62  87 118 156 201 249 295 348
#     4  12  23  35  57  88 122 157 194 241 299 359
#     4   9  19  38  61  85 116 155 201 249 293 342
#     4  10  21  37  59  86 117 151 187 237 291 346
#     4  10  21  36  60  89 118 157 199 244 298 353
#     4  12  25  41  62  90 122 158 198 242 294 351
#     4  10  20  38  61  86 119 157 199 246 297 356
#
# _framework density 19.973044999999999
#
# number of rings (size 3 to 8) (size 9 to 14) (size 15 to 20)
#    0.000    1.500    2.500    3.375    0.000    5.000 
#    0.000    5.000    0.000    0.000    0.000    2.625 
#    0.000    0.000    0.000    0.000    0.000    0.000 
#
# Total GULP energy -793876.622374 kJ/mol
# GULP energy per Si atom -12404.322225 kJ/mol
# Density = 1.992759 g / cm^3
# Si number density = 19.973045 Si / 1000 Ang^3
#
#
#
# Elastic Constant Matrix: (Units=GPa)
#
#
# Indices 1 2 3 4 5 6 
#
# 1 40.5463 35.9874 30.7714 0.0000 0.0000 0.0000
# 2 35.9874 152.3806 68.2463 0.0000 0.0000 0.0000
# 3 30.7714 68.2463 163.0101 0.0000 0.0000 0.0000
# 4 0.0000 0.0000 0.0000 9.3694 0.0000 0.0000
# 5 0.0000 0.0000 0.0000 0.0000 25.9364 0.0000
# 6 0.0000 0.0000 0.0000 0.0000 0.0000 7.2659
#
#
#
# Elastic Compliance Matrix: (Units=1/GPa)
#
#
# Indices 1 2 3 4 5 6 
#
# 1 0.032867 -0.006133 -0.003636 0.000000 0.000000 0.000000
# 2 -0.006133 0.009222 -0.002703 0.000000 0.000000 0.000000
# 3 -0.003636 -0.002703 0.007953 0.000000 0.000000 0.000000
# 4 0.000000 0.000000 0.000000 0.106731 0.000000 0.000000
# 5 0.000000 0.000000 0.000000 0.000000 0.038556 0.000000
# 6 0.000000 0.000000 0.000000 0.000000 0.000000 0.137630
#
#
# Mechanical properties :
#
#
# Convention : Reuss Voigt Hill
#
# Bulk Modulus (GPa) = 39.84792 69.54968 54.69880
# Shear Modulus (GPa) = 13.65119 23.24313 18.44716
#
# Velocity S-wave (km/s) = 2.61718 3.41504 3.04238
# Velocity P-wave (km/s) = 5.39695 7.10263 6.30771
#
# Compressibility (1/GPa) = 0.02509542
#
# Stress axis : x y z
#
# Youngs Moduli (GPa) = 30.42592 108.44128 125.74421
#
# Poissons Ratio (x) = 0.66512 0.45726
# Poissons Ratio (y) = 0.18661 0.33988
# Poissons Ratio (z) = 0.11064 0.29311
#
# Static dielectric constant tensor:
#      x y z
#    x 3.370240 0.000000 0.000000 
#    y 0.000000 3.797770 0.000000 
#    z 0.000000 0.000000 3.805280 
# 
# 
# High freq. dielectric constant tensor:
#      x y z
#    x 1.756820 0.000000 0.000000 
#    y 0.000000 1.775010 0.000000 
#    z 0.000000 0.000000 1.795770 
# 
# From -- ./inp_files/38108.got.cif
#   From: 2010.03.12/outbox.cif.g09.slc.cpg/sg53_20_cif.got.tgz:38108.got - 2010.04.16 14:36:59.
