data_PCOD8220195
_publ_section_title
;
Structure prediction by ZEFSAII (Michael W. Deem and Ramdas Pophale) SiO2 
 PCOD8220195
Probable space group: P M N A
;
_chemical_formula_sum "Si O2"
_cell_formula_units_Z 40
_cell_length_a 14.359570
_cell_length_b 7.627884
_cell_length_c 16.497842
_cell_angle_alpha 90.000000
_cell_angle_beta 90.000000
_cell_angle_gamma 90.000000
_cell_volume 1807.060343
_symmetry_space_group_name_H-M "P M N A"
_symmetry_group_IT_number 53
_symmetry_cell_setting 'orthorhombic'
loop_
_space_group_symop_operation_xyz
x,y,z
1/2-x,-y,1/2+z
x,-y,-z
1/2-x,y,1/2-z
-x,-y,-z
1/2+x,y,1/2-z
-x,y,z
1/2+x,-y,1/2+z
loop_
_atom_site_type_symbol
_atom_site_label
_atom_site_fract_x
_atom_site_fract_y
_atom_site_fract_z
Si Si1 0.609798 0.527733 0.271696
Si Si2 0.392177 0.794314 0.832953
Si Si3 0.392847 0.185886 0.849549
Si Si4 0.100656 0.657886 0.056764
Si Si5 0.289096 0.708839 0.995212
O O1 0.500000 0.545905 0.275679
O O2 0.638118 0.331884 0.241922
O O3 0.653048 0.667530 0.208406
O O4 0.646461 0.577183 0.360862
O O5 0.500000 0.754817 0.857770
O O6 0.380280 0.996384 0.806649
O O7 0.323292 0.765406 0.907546
O O8 0.500000 0.231589 0.862127
O O9 0.349940 0.190459 0.938616
O O10 0.181796 0.770758 0.012807
O O11 0.000000 0.758876 0.070839
O O12 0.074044 0.500000 0.000000
O O13 0.298225 0.500000 0.000000
#
# Coordination Sequence:
#
# PCOD8220195 Si02
#       5
#     8   8   8   8   8
#     4   9  18  36  63  87 114 153 200 247 296 349
#     4  10  20  35  60  94 125 154 189 239 303 365
#     4  10  20  34  58  91 127 157 186 236 301 365
#     4   9  20  39  63  85 110 159 212 253 294 342
#     4  11  20  33  57  87 122 160 191 238 294 361
#
# _framework density 22.135396
#
# number of rings (size 3 to 8) (size 9 to 14) (size 15 to 20)
#    0.000    2.200    2.000    1.200    0.000    3.200 
#    0.000    0.000   26.400    2.400    0.000    0.000 
#    0.000    0.000    0.000    0.000    0.000    0.000 
#
# Total GULP energy -495610.389833 kJ/mol
# GULP energy per Si atom -12390.259746 kJ/mol
# Density = 2.208501 g / cm^3
# Si number density = 22.135396 Si / 1000 Ang^3
#
#
#
# Elastic Constant Matrix: (Units=GPa)
#
#
# Indices 1 2 3 4 5 6 
#
# 1 93.8590 19.3135 34.2437 0.0000 0.0000 0.0000
# 2 19.3135 80.1018 -4.7776 0.0000 0.0000 0.0000
# 3 34.2437 -4.7776 84.1559 0.0000 0.0000 0.0000
# 4 0.0000 0.0000 0.0000 8.2180 0.0000 0.0000
# 5 0.0000 0.0000 0.0000 0.0000 18.9751 0.0000
# 6 0.0000 0.0000 0.0000 0.0000 0.0000 19.4854
#
#
#
# Elastic Compliance Matrix: (Units=1/GPa)
#
#
# Indices 1 2 3 4 5 6 
#
# 1 0.013465 -0.003586 -0.005683 0.000000 0.000000 0.000000
# 2 -0.003586 0.013481 0.002224 0.000000 0.000000 0.000000
# 3 -0.005683 0.002224 0.014321 0.000000 0.000000 0.000000
# 4 0.000000 0.000000 0.000000 0.121685 0.000000 0.000000
# 5 0.000000 0.000000 0.000000 0.000000 0.052701 0.000000
# 6 0.000000 0.000000 0.000000 0.000000 0.000000 0.051320
#
#
# Mechanical properties :
#
#
# Convention : Reuss Voigt Hill
#
# Bulk Modulus (GPa) = 36.79167 39.51957 38.15562
# Shear Modulus (GPa) = 17.23415 23.29151 20.26283
#
# Velocity S-wave (km/s) = 2.79333 3.24733 3.02885
# Velocity P-wave (km/s) = 5.20201 5.65265 5.43201
#
# Compressibility (1/GPa) = 0.02718006
#
# Stress axis : x y z
#
# Youngs Moduli (GPa) = 74.26442 74.17673 69.82586
#
# Poissons Ratio (x) = 0.26597 0.39680
# Poissons Ratio (y) = 0.26628 -0.15532
# Poissons Ratio (z) = 0.42203 -0.16500
#
# Static dielectric constant tensor:
#      x y z
#    x 4.164170 0.000000 0.000000 
#    y 0.000000 3.939490 0.000000 
#    z 0.000000 0.000000 4.199720 
# 
# 
# High freq. dielectric constant tensor:
#      x y z
#    x 1.879290 0.000000 0.000000 
#    y 0.000000 1.844250 0.000000 
#    z 0.000000 0.000000 1.867270 
# 
# From -- ./inp_files/28057.got.cif
#   From: 2010.03.12/outbox.cif.g09.slc.cpg/sg53_15_cif.got.tgz:28057.got - 2010.04.16 14:36:59.
