data_PCOD8220758
_publ_section_title
;
Structure prediction by ZEFSAII (Michael W. Deem and Ramdas Pophale) SiO2 
 PCOD8220758
Probable space group: P M N A
;
_chemical_formula_sum "Si O2"
_cell_formula_units_Z 48
_cell_length_a 8.709796
_cell_length_b 30.745873
_cell_length_c 9.105458
_cell_angle_alpha 90.000000
_cell_angle_beta 90.000000
_cell_angle_gamma 90.000000
_cell_volume 2438.353163
_symmetry_space_group_name_H-M "P M N A"
_symmetry_group_IT_number 53
_symmetry_cell_setting 'orthorhombic'
loop_
_space_group_symop_operation_xyz
x,y,z
1/2-x,-y,1/2+z
x,-y,-z
1/2-x,y,1/2-z
-x,-y,-z
1/2+x,y,1/2-z
-x,y,z
1/2+x,-y,1/2+z
loop_
_atom_site_type_symbol
_atom_site_label
_atom_site_fract_x
_atom_site_fract_y
_atom_site_fract_z
Si Si1 0.318197 0.541992 0.910843
Si Si2 0.319586 0.863641 0.911076
Si Si3 0.682246 0.787740 0.410014
Si Si4 0.682182 0.290416 0.090399
Si Si5 0.180773 0.375022 0.589663
Si Si6 0.321580 0.038795 0.094413
O O1 0.250000 0.540625 0.750000
O O2 0.500000 0.542810 0.897451
O O3 0.260574 0.500000 0.000000
O O4 0.256000 0.584589 0.994875
O O5 0.250000 0.855260 0.750000
O O6 0.500000 0.852898 0.904162
O O7 0.288351 0.912845 0.967101
O O8 0.236542 0.834463 0.032348
O O9 0.750000 0.778194 0.250000
O O10 0.500000 0.785913 0.400823
O O11 0.743052 0.752543 0.524489
O O12 0.750000 0.299151 0.250000
O O13 0.500000 0.284636 0.099758
O O14 0.731200 0.330733 0.989169
O O15 0.250000 0.376516 0.750000
O O16 0.000000 0.378175 0.605149
O O17 0.250000 0.033973 0.250000
O O18 0.500000 0.030629 0.110351
O O19 0.246224 0.000000 0.000000
#
# Coordination Sequence:
#
# PCOD8220758 Si02
#       6
#     8   8   8   8   8   8
#     4  10  21  37  57  84 116 150 191 235 281 335
#     4  10  20  37  59  83 113 149 189 231 278 332
#     4  12  25  41  60  84 114 147 186 232 283 336
#     4  11  23  40  61  86 115 149 190 232 280 336
#     4  10  22  38  58  85 116 150 189 234 282 335
#     4   9  19  35  55  81 112 146 185 228 274 327
#
# _framework density 19.685417999999999
#
# number of rings (size 3 to 8) (size 9 to 14) (size 15 to 20)
#    0.000    1.667    0.000    4.500    0.000    5.333 
#    0.000    1.667    0.000    0.000    0.000    0.000 
#    0.000    0.000    0.000    0.000    0.000    0.000 
#
# Total GULP energy -595313.779127 kJ/mol
# GULP energy per Si atom -12402.370398 kJ/mol
# Density = 1.964061 g / cm^3
# Si number density = 19.685418 Si / 1000 Ang^3
#
#
#
# Elastic Constant Matrix: (Units=GPa)
#
#
# Indices 1 2 3 4 5 6 
#
# 1 74.3633 50.3557 52.0645 0.0000 0.0000 0.0000
# 2 50.3557 143.5984 64.3439 0.0000 0.0000 0.0000
# 3 52.0645 64.3439 131.4248 0.0000 0.0000 0.0000
# 4 0.0000 0.0000 0.0000 47.6648 0.0000 0.0000
# 5 0.0000 0.0000 0.0000 0.0000 37.5583 0.0000
# 6 0.0000 0.0000 0.0000 0.0000 0.0000 15.7629
#
#
#
# Elastic Compliance Matrix: (Units=1/GPa)
#
#
# Indices 1 2 3 4 5 6 
#
# 1 0.020737 -0.004600 -0.005963 0.000000 0.000000 0.000000
# 2 -0.004600 0.009941 -0.003045 0.000000 0.000000 0.000000
# 3 -0.005963 -0.003045 0.011462 0.000000 0.000000 0.000000
# 4 0.000000 0.000000 0.000000 0.020980 0.000000 0.000000
# 5 0.000000 0.000000 0.000000 0.000000 0.026625 0.000000
# 6 0.000000 0.000000 0.000000 0.000000 0.000000 0.063440
#
#
# Mechanical properties :
#
#
# Convention : Reuss Voigt Hill
#
# Bulk Modulus (GPa) = 67.00279 75.87941 71.44110
# Shear Modulus (GPa) = 26.97211 32.37203 29.67207
#
# Velocity S-wave (km/s) = 3.70558 4.05960 3.88662
# Velocity P-wave (km/s) = 7.24010 7.78483 7.51740
#
# Compressibility (1/GPa) = 0.01492475
#
# Stress axis : x y z
#
# Youngs Moduli (GPa) = 48.22193 100.59064 87.24537
#
# Poissons Ratio (x) = 0.46272 0.52025
# Poissons Ratio (y) = 0.22182 0.26564
# Poissons Ratio (z) = 0.28755 0.30628
#
# Static dielectric constant tensor:
#      x y z
#    x 3.605920 0.000000 0.000000 
#    y 0.000000 4.309980 0.000000 
#    z 0.000000 0.000000 3.585900 
# 
# 
# High freq. dielectric constant tensor:
#      x y z
#    x 1.768210 0.000000 0.000000 
#    y 0.000000 1.788630 0.000000 
#    z 0.000000 0.000000 1.773980 
# 
# From -- ./inp_files/6755.got.cif
#   From: 2010.03.12/outbox.cif.g09.slc.cpg/sg53_4_cif.got.tgz:6755.got - 2010.04.16 14:36:59.
