data_PCOD8220607
_publ_section_title
;
Structure prediction by ZEFSAII (Michael W. Deem and Ramdas Pophale) SiO2 
 PCOD8220607
Probable space group: P M N A
;
_chemical_formula_sum "Si O2"
_cell_formula_units_Z 64
_cell_length_a 8.743911
_cell_length_b 20.888123
_cell_length_c 18.576328
_cell_angle_alpha 90.000000
_cell_angle_beta 90.000000
_cell_angle_gamma 90.000000
_cell_volume 3392.852779
_symmetry_space_group_name_H-M "P M N A"
_symmetry_group_IT_number 53
_symmetry_cell_setting 'orthorhombic'
loop_
_space_group_symop_operation_xyz
x,y,z
1/2-x,-y,1/2+z
x,-y,-z
1/2-x,y,1/2-z
-x,-y,-z
1/2+x,y,1/2-z
-x,y,z
1/2+x,-y,1/2+z
loop_
_atom_site_type_symbol
_atom_site_label
_atom_site_fract_x
_atom_site_fract_y
_atom_site_fract_z
Si Si1 0.175805 0.874338 0.323732
Si Si2 0.820036 0.193310 0.032620
Si Si3 0.821488 0.494326 0.582324
Si Si4 0.177340 0.388628 0.322310
Si Si5 0.182063 0.254860 0.602372
Si Si6 0.181901 0.244475 0.325716
Si Si7 0.177710 0.930809 0.471767
Si Si8 0.819402 0.618601 0.171482
O O1 0.250000 0.898073 0.250000
O O2 0.238482 0.805210 0.349566
O O3 0.206578 0.926978 0.385761
O O4 0.000000 0.866493 0.306821
O O5 0.754621 0.201753 0.112250
O O6 0.000000 0.204800 0.031118
O O7 0.740828 0.244240 0.978909
O O8 0.782314 0.120764 0.011155
O O9 0.773125 0.500000 0.500000
O O10 0.781013 0.563967 0.613350
O O11 0.721183 0.440912 0.621030
O O12 0.000000 0.476836 0.591869
O O13 0.250000 0.416761 0.250000
O O14 0.237013 0.317493 0.340111
O O15 0.000000 0.385408 0.307346
O O16 0.253084 0.317854 0.635940
O O17 0.000000 0.260875 0.600001
O O18 0.250000 0.220268 0.250000
O O19 0.000000 0.236881 0.325668
O O20 0.000000 0.915774 0.488673
O O21 0.227219 0.000000 0.500000
O O22 0.750000 0.607411 0.250000
O O23 0.000000 0.625207 0.178765
#
# Coordination Sequence:
#
# PCOD8220607 Si02
#       8
#     8   8   8   8   8   8   8   8
#     4   9  18  32  54  83 111 143 183 229 279 331
#     4  11  22  36  57  88 120 150 186 234 289 343
#     4  10  22  39  58  81 110 148 190 234 286 344
#     4   9  19  35  56  80 103 140 185 232 284 338
#     4  10  21  38  59  83 113 151 191 234 284 342
#     4  10  20  36  58  84 113 148 191 240 292 343
#     4   9  19  38  60  81 111 156 201 235 277 334
#     4  12  25  40  58  84 115 151 190 235 289 344
#
# _framework density 18.863181999999998
#
# number of rings (size 3 to 8) (size 9 to 14) (size 15 to 20)
#    0.000    2.000    0.000    4.500    1.750    6.000 
#    0.000    0.625    0.000    1.500    0.000    0.000 
#    0.000    0.000    0.000    0.000    0.000    0.000 
#
# Total GULP energy -793730.111265 kJ/mol
# GULP energy per Si atom -12402.032989 kJ/mol
# Density = 1.882025 g / cm^3
# Si number density = 18.863182 Si / 1000 Ang^3
#
#
#
# Elastic Constant Matrix: (Units=GPa)
#
#
# Indices 1 2 3 4 5 6 
#
# 1 90.3310 36.1702 50.9592 0.0000 0.0000 0.0000
# 2 36.1702 75.0962 54.0098 0.0000 0.0000 0.0000
# 3 50.9592 54.0098 153.5861 0.0000 0.0000 0.0000
# 4 0.0000 0.0000 0.0000 36.2796 0.0000 0.0000
# 5 0.0000 0.0000 0.0000 0.0000 33.4257 0.0000
# 6 0.0000 0.0000 0.0000 0.0000 0.0000 22.9952
#
#
#
# Elastic Compliance Matrix: (Units=1/GPa)
#
#
# Indices 1 2 3 4 5 6 
#
# 1 0.014818 -0.004820 -0.003221 0.000000 0.000000 0.000000
# 2 -0.004820 0.019392 -0.005220 0.000000 0.000000 0.000000
# 3 -0.003221 -0.005220 0.009416 0.000000 0.000000 0.000000
# 4 0.000000 0.000000 0.000000 0.027564 0.000000 0.000000
# 5 0.000000 0.000000 0.000000 0.000000 0.029917 0.000000
# 6 0.000000 0.000000 0.000000 0.000000 0.000000 0.043487
#
#
# Mechanical properties :
#
#
# Convention : Reuss Voigt Hill
#
# Bulk Modulus (GPa) = 58.47202 66.81019 62.64110
# Shear Modulus (GPa) = 28.27767 30.39837 29.33802
#
# Velocity S-wave (km/s) = 3.87601 4.01873 3.94802
# Velocity P-wave (km/s) = 7.14819 7.55174 7.35273
#
# Compressibility (1/GPa) = 0.01710220
#
# Stress axis : x y z
#
# Youngs Moduli (GPa) = 67.48643 51.56697 106.20700
#
# Poissons Ratio (x) = 0.24856 0.34214
# Poissons Ratio (y) = 0.32529 0.55442
# Poissons Ratio (z) = 0.21740 0.26919
#
# Static dielectric constant tensor:
#      x y z
#    x 3.435380 0.000000 0.000000 
#    y 0.000000 3.453060 0.000000 
#    z 0.000000 0.000000 3.566930 
# 
# 
# High freq. dielectric constant tensor:
#      x y z
#    x 1.733820 0.000000 0.000000 
#    y 0.000000 1.723010 0.000000 
#    z 0.000000 0.000000 1.743090 
# 
# From -- ./inp_files/26840.got.cif
#   From: 2010.03.12/outbox.cif.g09.slc.cpg/sg53_14_cif.got.tgz:26840.got - 2010.04.16 14:36:59.
