data_PCOD8220879
_publ_section_title
;
Structure prediction by ZEFSAII (Michael W. Deem and Ramdas Pophale) SiO2 
 PCOD8220879
Probable space group: P M N A
;
_chemical_formula_sum "Si O2"
_cell_formula_units_Z 44
_cell_length_a 23.848368
_cell_length_b 13.984479
_cell_length_c 6.618363
_cell_angle_alpha 90.000000
_cell_angle_beta 90.000000
_cell_angle_gamma 90.000000
_cell_volume 2207.270399
_symmetry_space_group_name_H-M "P M N A"
_symmetry_group_IT_number 53
_symmetry_cell_setting 'orthorhombic'
loop_
_space_group_symop_operation_xyz
x,y,z
1/2-x,-y,1/2+z
x,-y,-z
1/2-x,y,1/2-z
-x,-y,-z
1/2+x,y,1/2-z
-x,y,z
1/2+x,-y,1/2+z
loop_
_atom_site_type_symbol
_atom_site_label
_atom_site_fract_x
_atom_site_fract_y
_atom_site_fract_z
Si Si1 0.618955 0.791168 0.512256
Si Si2 0.118861 0.643335 0.667493
Si Si3 0.000000 0.049668 0.706855
Si Si4 0.000000 0.247984 0.857373
Si Si5 0.151207 0.500000 0.000000
Si Si6 0.000000 0.386443 0.514419
Si Si7 0.095487 0.000000 0.000000
Si Si8 0.812750 0.335109 0.731893
O O1 0.639832 0.738221 0.714937
O O2 0.553011 0.767344 0.501539
O O3 0.647263 0.749501 0.310248
O O4 0.632802 0.904263 0.529551
O O5 0.115419 0.554019 0.825197
O O6 0.164405 0.630214 0.487312
O O7 0.056090 0.655702 0.584821
O O8 0.000000 0.164579 0.687282
O O9 0.000000 0.000000 0.500000
O O10 0.943422 0.013398 0.807883
O O11 0.000000 0.351396 0.748595
O O12 0.189468 0.424156 0.885027
O O13 0.000000 0.500000 0.500000
O O14 0.750000 0.294056 0.750000
#
# Coordination Sequence:
#
# PCOD8220879 Si02
#       8
#     8   8   4   4   4   4   4   8
#     4  10  22  40  62  88 126 159 202 262 308 368
#     4  11  24  40  62  92 124 165 205 248 309 364
#     4   9  19  31  58  87 119 159 204 244 305 364
#     4  10  20  38  55  90 124 163 203 255 302 367
#     4  10  24  39  62  90 122 157 206 262 294 354
#     4  12  23  34  62  85 130 169 200 234 307 381
#     4   9  20  36  58  90 122 154 204 255 306 366
#     4  11  24  41  64  88 121 159 210 255 307 358
#
# _framework density 19.934123
#
# number of rings (size 3 to 8) (size 9 to 14) (size 15 to 20)
#    0.000    1.636    1.818    2.727    7.636    2.545 
#    0.000    0.000    4.000    0.000    0.000    0.000 
#    0.000    0.000    0.000    0.000    0.000    0.000 
#
# Total GULP energy -545374.901152 kJ/mol
# GULP energy per Si atom -12394.884117 kJ/mol
# Density = 1.988875 g / cm^3
# Si number density = 19.934123 Si / 1000 Ang^3
#
#
#
# Elastic Constant Matrix: (Units=GPa)
#
#
# Indices 1 2 3 4 5 6 
#
# 1 94.2217 10.9821 28.5999 0.0000 0.0000 0.0000
# 2 10.9821 141.7471 41.4819 0.0000 0.0000 0.0000
# 3 28.5999 41.4819 105.0365 0.0000 0.0000 0.0000
# 4 0.0000 0.0000 0.0000 29.4688 0.0000 0.0000
# 5 0.0000 0.0000 0.0000 0.0000 12.5392 0.0000
# 6 0.0000 0.0000 0.0000 0.0000 0.0000 14.1911
#
#
#
# Elastic Compliance Matrix: (Units=1/GPa)
#
#
# Indices 1 2 3 4 5 6 
#
# 1 0.011570 0.000029 -0.003162 0.000000 0.000000 0.000000
# 2 0.000029 0.007977 -0.003158 0.000000 0.000000 0.000000
# 3 -0.003162 -0.003158 0.011629 0.000000 0.000000 0.000000
# 4 0.000000 0.000000 0.000000 0.033934 0.000000 0.000000
# 5 0.000000 0.000000 0.000000 0.000000 0.079750 0.000000
# 6 0.000000 0.000000 0.000000 0.000000 0.000000 0.070466
#
#
# Mechanical properties :
#
#
# Convention : Reuss Voigt Hill
#
# Bulk Modulus (GPa) = 53.78311 55.90370 54.84340
# Shear Modulus (GPa) = 21.35791 28.56924 24.96358
#
# Velocity S-wave (km/s) = 3.27681 3.78985 3.54263
# Velocity P-wave (km/s) = 6.43084 6.87428 6.65625
#
# Compressibility (1/GPa) = 0.01859320
#
# Stress axis : x y z
#
# Youngs Moduli (GPa) = 86.43364 125.36361 85.99490
#
# Poissons Ratio (x) = -0.00362 0.27188
# Poissons Ratio (y) = -0.00250 0.27158
# Poissons Ratio (z) = 0.27327 0.39591
#
# Static dielectric constant tensor:
#      x y z
#    x 3.354370 0.000000 0.000000 
#    y 0.000000 3.639530 0.000000 
#    z 0.000000 0.000000 3.424320 
# 
# 
# High freq. dielectric constant tensor:
#      x y z
#    x 1.748520 0.000000 0.000000 
#    y 0.000000 1.779020 0.000000 
#    z 0.000000 0.000000 1.784000 
# 
# From -- ./inp_files/4461.got.cif
#   From: 2010.03.12/outbox.cif.g09.slc.cpg/sg53_3_cif.got.tgz:4461.got - 2010.04.16 14:36:59.
