data_PCOD8220066
_publ_section_title
;
Structure prediction by ZEFSAII (Michael W. Deem and Ramdas Pophale) SiO2 
 PCOD8220066
Probable space group: P M N A
;
_chemical_formula_sum "Si O2"
_cell_formula_units_Z 40
_cell_length_a 9.011227
_cell_length_b 13.726197
_cell_length_c 17.874805
_cell_angle_alpha 90.000000
_cell_angle_beta 90.000000
_cell_angle_gamma 90.000000
_cell_volume 2210.932432
_symmetry_space_group_name_H-M "P M N A"
_symmetry_group_IT_number 53
_symmetry_cell_setting 'orthorhombic'
loop_
_space_group_symop_operation_xyz
x,y,z
1/2-x,-y,1/2+z
x,-y,-z
1/2-x,y,1/2-z
-x,-y,-z
1/2+x,y,1/2-z
-x,y,z
1/2+x,-y,1/2+z
loop_
_atom_site_type_symbol
_atom_site_label
_atom_site_fract_x
_atom_site_fract_y
_atom_site_fract_z
Si Si1 0.828958 0.423539 0.172862
Si Si2 0.171020 0.292059 0.034442
Si Si3 0.824511 0.108620 0.520448
Si Si4 0.169253 0.191356 0.675434
Si Si5 0.827256 0.392540 0.600479
O O1 0.750000 0.395979 0.250000
O O2 0.813447 0.330976 0.118634
O O3 0.753715 0.515528 0.134513
O O4 0.000000 0.449320 0.188649
O O5 0.241876 0.184372 0.033878
O O6 0.000000 0.287365 0.009095
O O7 0.256768 0.365224 0.979187
O O8 0.772057 0.128615 0.605286
O O9 0.000000 0.125910 0.511615
O O10 0.775966 0.000000 0.500000
O O11 0.250000 0.157590 0.750000
O O12 0.195145 0.305080 0.659091
O O13 0.000000 0.166868 0.689396
O O14 0.000000 0.415317 0.587452
#
# Coordination Sequence:
#
# PCOD8220066 Si02
#       5
#     8   8   8   8   8
#     4  11  23  36  51  75 108 144 180 217 257 304
#     4  10  21  36  54  78 106 135 173 220 264 310
#     4   9  19  37  58  77 100 134 175 216 263 320
#     4   9  18  31  49  76 104 130 163 206 257 308
#     4  10  20  34  54  78 105 140 178 213 258 315
#
# _framework density 18.091913000000002
#
# number of rings (size 3 to 8) (size 9 to 14) (size 15 to 20)
#    0.000    2.200    0.000    4.200    0.000   11.600 
#    0.000    1.000    0.000    4.800    0.000    0.000 
#    0.000    0.000    0.000    0.000    0.000    0.000 
#
# Total GULP energy -496090.984185 kJ/mol
# GULP energy per Si atom -12402.274605 kJ/mol
# Density = 1.805074 g / cm^3
# Si number density = 18.091913 Si / 1000 Ang^3
#
#
#
# Elastic Constant Matrix: (Units=GPa)
#
#
# Indices 1 2 3 4 5 6 
#
# 1 114.8794 61.3366 61.6878 0.0000 0.0000 0.0000
# 2 61.3366 118.4131 65.4341 0.0000 0.0000 0.0000
# 3 61.6878 65.4341 102.9995 0.0000 0.0000 0.0000
# 4 0.0000 0.0000 0.0000 15.4549 0.0000 0.0000
# 5 0.0000 0.0000 0.0000 0.0000 32.4003 0.0000
# 6 0.0000 0.0000 0.0000 0.0000 0.0000 3.3912
#
#
#
# Elastic Compliance Matrix: (Units=1/GPa)
#
#
# Indices 1 2 3 4 5 6 
#
# 1 0.013976 -0.004028 -0.005812 0.000000 0.000000 0.000000
# 2 -0.004028 0.014174 -0.006592 0.000000 0.000000 0.000000
# 3 -0.005812 -0.006592 0.017377 0.000000 0.000000 0.000000
# 4 0.000000 0.000000 0.000000 0.064705 0.000000 0.000000
# 5 0.000000 0.000000 0.000000 0.000000 0.030864 0.000000
# 6 0.000000 0.000000 0.000000 0.000000 0.000000 0.294883
#
#
# Mechanical properties :
#
#
# Convention : Reuss Voigt Hill
#
# Bulk Modulus (GPa) = 78.96348 79.24545 79.10447
# Shear Modulus (GPa) = 10.56939 20.10483 15.33711
#
# Velocity S-wave (km/s) = 2.41966 3.33717 2.91474
# Velocity P-wave (km/s) = 7.17961 7.66457 7.42605
#
# Compressibility (1/GPa) = 0.01266408
#
# Stress axis : x y z
#
# Youngs Moduli (GPa) = 71.55062 70.55001 57.54605
#
# Poissons Ratio (x) = 0.28418 0.33443
# Poissons Ratio (y) = 0.28821 0.37936
# Poissons Ratio (z) = 0.41582 0.46509
#
# Static dielectric constant tensor:
#      x y z
#    x 3.455190 0.000000 0.000000 
#    y 0.000000 3.249070 0.000000 
#    z 0.000000 0.000000 3.413980 
# 
# 
# High freq. dielectric constant tensor:
#      x y z
#    x 1.711060 0.000000 0.000000 
#    y 0.000000 1.687240 0.000000 
#    z 0.000000 0.000000 1.700910 
# 
# From -- ./inp_files/19836.got.cif
#   From: 2010.03.12/outbox.cif.g09.slc.cpg/sg53_10_cif.got.tgz:19836.got - 2010.04.16 14:36:59.
