data_PCOD8220991
_publ_section_title
;
Structure prediction by ZEFSAII (Michael W. Deem and Ramdas Pophale) SiO2 
 PCOD8220991
Probable space group: P M N A
;
_chemical_formula_sum "Si O2"
_cell_formula_units_Z 52
_cell_length_a 16.085305
_cell_length_b 7.871831
_cell_length_c 20.575705
_cell_angle_alpha 90.000000
_cell_angle_beta 90.000000
_cell_angle_gamma 90.000000
_cell_volume 2605.312280
_symmetry_space_group_name_H-M "P M N A"
_symmetry_group_IT_number 53
_symmetry_cell_setting 'orthorhombic'
loop_
_space_group_symop_operation_xyz
x,y,z
1/2-x,-y,1/2+z
x,-y,-z
1/2-x,y,1/2-z
-x,-y,-z
1/2+x,y,1/2-z
-x,y,z
1/2+x,-y,1/2+z
loop_
_atom_site_type_symbol
_atom_site_label
_atom_site_fract_x
_atom_site_fract_y
_atom_site_fract_z
Si Si1 0.272031 0.747784 0.452120
Si Si2 0.904528 0.291008 0.839713
Si Si3 0.591602 0.313615 0.118444
Si Si4 0.249521 0.113668 0.412890
Si Si5 0.650763 0.409962 0.246593
Si Si6 0.165755 0.047107 0.213162
Si Si7 0.854162 0.500000 0.500000
O O1 0.351197 0.706701 0.406632
O O2 0.290516 0.773224 0.529417
O O3 0.204016 0.600489 0.448316
O O4 0.229043 0.920992 0.430740
O O5 0.887472 0.461474 0.798771
O O6 0.000000 0.288765 0.861569
O O7 0.887728 0.125553 0.794284
O O8 0.500000 0.237637 0.132396
O O9 0.662045 0.171340 0.116616
O O10 0.616227 0.452380 0.174395
O O11 0.587112 0.391718 0.046260
O O12 0.318392 0.122840 0.357975
O O13 0.750000 0.422372 0.250000
O O14 0.621064 0.210846 0.254284
O O15 0.250000 0.992869 0.250000
#
# Coordination Sequence:
#
# PCOD8220991 Si02
#       7
#     8   8   8   8   8   8   4
#     4   9  20  37  64  81 117 157 206 237 296 367
#     4  11  24  39  59  94 130 158 200 261 309 357
#     4  11  21  36  58  88 120 149 195 256 313 357
#     4   9  18  39  59  85 110 159 201 246 292 365
#     4  11  21  39  65  88 120 166 207 245 303 373
#     4  10  20  39  63  86 115 161 213 245 298 370
#     4  10  21  38  61  84 114 160 200 246 293 372
#
# _framework density 19.959219999999998
#
# number of rings (size 3 to 8) (size 9 to 14) (size 15 to 20)
#    0.000    1.846    3.077    2.077    2.154    2.462 
#    0.000   13.462    0.000    0.000    0.000    0.000 
#    0.000    0.000    0.000    0.000    0.000    0.000 
#
# Total GULP energy -644184.530048 kJ/mol
# GULP energy per Si atom -12388.164039 kJ/mol
# Density = 1.991379 g / cm^3
# Si number density = 19.959220 Si / 1000 Ang^3
#
#
#
# Elastic Constant Matrix: (Units=GPa)
#
#
# Indices 1 2 3 4 5 6 
#
# 1 102.7346 34.2837 38.8067 0.0000 0.0000 0.0000
# 2 34.2837 78.6047 26.8897 0.0000 0.0000 0.0000
# 3 38.8067 26.8897 98.6671 0.0000 0.0000 0.0000
# 4 0.0000 0.0000 0.0000 22.1274 0.0000 0.0000
# 5 0.0000 0.0000 0.0000 0.0000 19.7508 0.0000
# 6 0.0000 0.0000 0.0000 0.0000 0.0000 11.8792
#
#
#
# Elastic Compliance Matrix: (Units=1/GPa)
#
#
# Indices 1 2 3 4 5 6 
#
# 1 0.012565 -0.004179 -0.003803 0.000000 0.000000 0.000000
# 2 -0.004179 0.015420 -0.002559 0.000000 0.000000 0.000000
# 3 -0.003803 -0.002559 0.012328 0.000000 0.000000 0.000000
# 4 0.000000 0.000000 0.000000 0.045193 0.000000 0.000000
# 5 0.000000 0.000000 0.000000 0.000000 0.050631 0.000000
# 6 0.000000 0.000000 0.000000 0.000000 0.000000 0.084181
#
#
# Mechanical properties :
#
#
# Convention : Reuss Voigt Hill
#
# Bulk Modulus (GPa) = 51.99852 53.32961 52.66406
# Shear Modulus (GPa) = 20.17674 22.75323 21.46499
#
# Velocity S-wave (km/s) = 3.18291 3.38003 3.28295
# Velocity P-wave (km/s) = 6.29419 6.48152 6.38854
#
# Compressibility (1/GPa) = 0.01923132
#
# Stress axis : x y z
#
# Youngs Moduli (GPa) = 79.58599 64.85084 81.11533
#
# Poissons Ratio (x) = 0.27103 0.30848
# Poissons Ratio (y) = 0.33262 0.20754
# Poissons Ratio (z) = 0.30266 0.16593
#
# Static dielectric constant tensor:
#      x y z
#    x 3.332460 0.000000 0.000000 
#    y 0.000000 3.779440 0.000000 
#    z 0.000000 0.000000 4.196010 
# 
# 
# High freq. dielectric constant tensor:
#      x y z
#    x 1.749940 0.000000 0.000000 
#    y 0.000000 1.776570 0.000000 
#    z 0.000000 0.000000 1.800880 
# 
# From -- ./inp_files/32356.got.cif
#   From: 2010.03.12/outbox.cif.g09.slc.cpg/sg53_17_cif.got.tgz:32356.got - 2010.04.16 14:36:59.
