data_PCOD8220352
_publ_section_title
;
Structure prediction by ZEFSAII (Michael W. Deem and Ramdas Pophale) SiO2 
 PCOD8220352
Probable space group: P M N A
;
_chemical_formula_sum "Si O2"
_cell_formula_units_Z 64
_cell_length_a 9.572392
_cell_length_b 23.939620
_cell_length_c 15.132501
_cell_angle_alpha 90.000000
_cell_angle_beta 90.000000
_cell_angle_gamma 90.000000
_cell_volume 3467.755258
_symmetry_space_group_name_H-M "P M N A"
_symmetry_group_IT_number 53
_symmetry_cell_setting 'orthorhombic'
loop_
_space_group_symop_operation_xyz
x,y,z
1/2-x,-y,1/2+z
x,-y,-z
1/2-x,y,1/2-z
-x,-y,-z
1/2+x,y,1/2-z
-x,y,z
1/2+x,-y,1/2+z
loop_
_atom_site_type_symbol
_atom_site_label
_atom_site_fract_x
_atom_site_fract_y
_atom_site_fract_z
Si Si1 0.163032 0.376322 0.667207
Si Si2 0.661740 0.612020 0.831112
Si Si3 0.337409 0.113351 0.339887
Si Si4 0.165373 0.494106 0.597680
Si Si5 0.165462 0.802400 0.991479
Si Si6 0.156897 0.007918 0.833949
Si Si7 0.337547 0.870490 0.339562
Si Si8 0.660412 0.692146 0.992585
O O1 0.250000 0.353143 0.750000
O O2 0.221813 0.437942 0.643543
O O3 0.192162 0.334534 0.587139
O O4 0.000000 0.378105 0.691553
O O5 0.750000 0.637050 0.750000
O O6 0.500000 0.616265 0.805939
O O7 0.708428 0.547954 0.845599
O O8 0.695195 0.646114 0.919212
O O9 0.250000 0.121301 0.250000
O O10 0.500000 0.123076 0.316835
O O11 0.285075 0.157017 0.412732
O O12 0.315406 0.051008 0.384166
O O13 0.231265 0.500000 0.500000
O O14 0.000000 0.489149 0.587933
O O15 0.000000 0.793929 0.989228
O O16 0.213159 0.827382 0.085870
O O17 0.239865 0.744025 0.976203
O O18 0.250000 0.007602 0.750000
O O19 0.184887 0.067099 0.883086
O O20 0.000000 0.007878 0.798569
O O21 0.250000 0.861176 0.250000
O O22 0.500000 0.860931 0.316183
O O23 0.500000 0.711680 0.985895
#
# Coordination Sequence:
#
# PCOD8220352 Si02
#       8
#     8   8   8   8   8   8   8   8
#     4  10  20  35  57  82 106 136 173 212 257 308
#     4  10  20  35  57  82 106 136 173 212 257 308
#     4   9  18  33  53  77 104 134 168 209 258 309
#     4   9  15  30  57  82 107 138 169 205 252 310
#     4  10  22  37  53  75 103 136 175 218 260 300
#     4   8  14  27  49  75 102 130 162 203 253 309
#     4   9  18  33  53  77 104 134 168 209 258 309
#     4  10  22  39  55  73 101 140 181 214 252 306
#
# _framework density 18.455742000000001
#
# number of rings (size 3 to 8) (size 9 to 14) (size 15 to 20)
#    0.000    2.625    1.250    0.375    0.000    3.500 
#    0.000    7.500    0.000    0.750    0.000    9.625 
#    0.000    0.000    0.000    0.000    0.000    0.000 
#
# Total GULP energy -793139.644764 kJ/mol
# GULP energy per Si atom -12392.806949 kJ/mol
# Density = 1.841374 g / cm^3
# Si number density = 18.455742 Si / 1000 Ang^3
#
#
#
# Elastic Constant Matrix: (Units=GPa)
#
#
# Indices 1 2 3 4 5 6 
#
# 1 41.6238 23.9094 30.8152 0.0000 0.0000 0.0000
# 2 23.9094 69.1265 2.8123 0.0000 0.0000 0.0000
# 3 30.8152 2.8123 79.1779 0.0000 0.0000 0.0000
# 4 0.0000 0.0000 0.0000 14.7714 0.0000 0.0000
# 5 0.0000 0.0000 0.0000 0.0000 28.2106 0.0000
# 6 0.0000 0.0000 0.0000 0.0000 0.0000 28.8148
#
#
#
# Elastic Compliance Matrix: (Units=1/GPa)
#
#
# Indices 1 2 3 4 5 6 
#
# 1 0.045269 -0.014963 -0.017087 0.000000 0.000000 0.000000
# 2 -0.014963 0.019433 0.005133 0.000000 0.000000 0.000000
# 3 -0.017087 0.005133 0.019098 0.000000 0.000000 0.000000
# 4 0.000000 0.000000 0.000000 0.067698 0.000000 0.000000
# 5 0.000000 0.000000 0.000000 0.000000 0.035448 0.000000
# 6 0.000000 0.000000 0.000000 0.000000 0.000000 0.034704
#
#
# Mechanical properties :
#
#
# Convention : Reuss Voigt Hill
#
# Bulk Modulus (GPa) = 33.37040 33.88911 33.62975
# Shear Modulus (GPa) = 17.51487 23.18545 20.35016
#
# Velocity S-wave (km/s) = 3.08396 3.54824 3.32421
# Velocity P-wave (km/s) = 5.54992 5.93202 5.74415
#
# Compressibility (1/GPa) = 0.02996668
#
# Stress axis : x y z
#
# Youngs Moduli (GPa) = 22.08997 51.45982 52.36282
#
# Poissons Ratio (x) = 0.76997 0.89472
# Poissons Ratio (y) = 0.33052 -0.26878
# Poissons Ratio (z) = 0.37745 -0.26415
#
# Static dielectric constant tensor:
#      x y z
#    x 3.195740 0.000000 0.000000 
#    y 0.000000 3.807550 0.000000 
#    z 0.000000 0.000000 3.163580 
# 
# 
# High freq. dielectric constant tensor:
#      x y z
#    x 1.696720 0.000000 0.000000 
#    y 0.000000 1.725470 0.000000 
#    z 0.000000 0.000000 1.707950 
# 
# From -- ./inp_files/21020.got.cif
#   From: 2010.03.12/outbox.cif.g09.slc.cpg/sg53_11_cif.got.tgz:21020.got - 2010.04.16 14:36:59.
