data_PCOD8220134
_publ_section_title
;
Structure prediction by ZEFSAII (Michael W. Deem and Ramdas Pophale) SiO2 
 PCOD8220134
Probable space group: P M N A
;
_chemical_formula_sum "Si O2"
_cell_formula_units_Z 64
_cell_length_a 8.931887
_cell_length_b 20.588468
_cell_length_c 18.551270
_cell_angle_alpha 90.000000
_cell_angle_beta 90.000000
_cell_angle_gamma 90.000000
_cell_volume 3411.464828
_symmetry_space_group_name_H-M "P M N A"
_symmetry_group_IT_number 53
_symmetry_cell_setting 'orthorhombic'
loop_
_space_group_symop_operation_xyz
x,y,z
1/2-x,-y,1/2+z
x,-y,-z
1/2-x,y,1/2-z
-x,-y,-z
1/2+x,y,1/2-z
-x,y,z
1/2+x,-y,1/2+z
loop_
_atom_site_type_symbol
_atom_site_label
_atom_site_fract_x
_atom_site_fract_y
_atom_site_fract_z
Si Si1 0.174731 0.878859 0.325876
Si Si2 0.825993 0.197730 0.033902
Si Si3 0.673134 0.506454 0.582724
Si Si4 0.173894 0.391874 0.322671
Si Si5 0.176365 0.256156 0.600037
Si Si6 0.176278 0.241987 0.324325
Si Si7 0.327121 0.937196 0.457587
Si Si8 0.823430 0.620290 0.173311
O O1 0.250000 0.893196 0.250000
O O2 0.214285 0.806193 0.351243
O O3 0.235049 0.930380 0.383893
O O4 0.000000 0.889290 0.317303
O O5 0.750041 0.201501 0.111650
O O6 0.000000 0.216679 0.038488
O O7 0.745457 0.247489 0.979373
O O8 0.801473 0.124439 0.008448
O O9 0.716775 0.500000 0.500000
O O10 0.500000 0.523539 0.593498
O O11 0.768730 0.566633 0.610675
O O12 0.715965 0.440327 0.622933
O O13 0.250000 0.417791 0.250000
O O14 0.214829 0.317311 0.337493
O O15 0.000000 0.402667 0.312475
O O16 0.252953 0.316406 0.638117
O O17 0.000000 0.267754 0.592400
O O18 0.250000 0.217869 0.250000
O O19 0.000000 0.228887 0.321514
O O20 0.500000 0.945441 0.436423
O O21 0.266956 0.000000 0.500000
O O22 0.750000 0.606611 0.250000
O O23 0.000000 0.630895 0.182414
#
# Coordination Sequence:
#
# PCOD8220134 Si02
#       8
#     8   8   8   8   8   8   8   8
#     4  10  20  34  55  83 114 148 186 229 273 322
#     4  10  20  35  58  85 114 148 182 224 276 327
#     4  10  23  40  56  78 108 143 182 227 275 328
#     4  10  21  37  58  81 104 139 180 226 277 329
#     4  10  21  36  56  83 114 146 182 227 275 329
#     4  10  21  37  57  84 113 144 185 232 280 330
#     4   9  19  37  59  83 113 149 188 227 270 324
#     4  11  23  38  56  80 109 145 183 225 278 331
#
# _framework density 18.760269000000001
#
# number of rings (size 3 to 8) (size 9 to 14) (size 15 to 20)
#    0.000    2.000    0.000    3.000    1.750    7.000 
#    0.000    0.625    0.000    0.000    0.000    0.000 
#    0.000    0.000    0.000    0.000    0.000    0.000 
#
# Total GULP energy -793956.570294 kJ/mol
# GULP energy per Si atom -12405.571411 kJ/mol
# Density = 1.871757 g / cm^3
# Si number density = 18.760269 Si / 1000 Ang^3
#
#
#
# Elastic Constant Matrix: (Units=GPa)
#
#
# Indices 1 2 3 4 5 6 
#
# 1 94.7840 44.0349 69.6973 0.0000 0.0000 0.0000
# 2 44.0349 68.4000 60.1403 0.0000 0.0000 0.0000
# 3 69.6973 60.1403 164.3572 0.0000 0.0000 0.0000
# 4 0.0000 0.0000 0.0000 27.0196 0.0000 0.0000
# 5 0.0000 0.0000 0.0000 0.0000 41.0309 0.0000
# 6 0.0000 0.0000 0.0000 0.0000 0.0000 25.2465
#
#
#
# Elastic Compliance Matrix: (Units=1/GPa)
#
#
# Indices 1 2 3 4 5 6 
#
# 1 0.017293 -0.006908 -0.004806 0.000000 0.000000 0.000000
# 2 -0.006908 0.024314 -0.005967 0.000000 0.000000 0.000000
# 3 -0.004806 -0.005967 0.010306 0.000000 0.000000 0.000000
# 4 0.000000 0.000000 0.000000 0.037010 0.000000 0.000000
# 5 0.000000 0.000000 0.000000 0.000000 0.024372 0.000000
# 6 0.000000 0.000000 0.000000 0.000000 0.000000 0.039609
#
#
# Mechanical properties :
#
#
# Convention : Reuss Voigt Hill
#
# Bulk Modulus (GPa) = 60.41912 75.03179 67.72545
# Shear Modulus (GPa) = 25.80203 28.90399 27.35301
#
# Velocity S-wave (km/s) = 3.71260 3.92944 3.82256
# Velocity P-wave (km/s) = 7.11714 7.78904 7.46066
#
# Compressibility (1/GPa) = 0.01655105
#
# Stress axis : x y z
#
# Youngs Moduli (GPa) = 57.82576 41.12897 97.03267
#
# Poissons Ratio (x) = 0.28411 0.46632
# Poissons Ratio (y) = 0.39944 0.57903
# Poissons Ratio (z) = 0.27790 0.24543
#
# Static dielectric constant tensor:
#      x y z
#    x 3.533330 0.000000 0.000000 
#    y 0.000000 3.353400 0.000000 
#    z 0.000000 0.000000 3.537040 
# 
# 
# High freq. dielectric constant tensor:
#      x y z
#    x 1.740450 0.000000 0.000000 
#    y 0.000000 1.717880 0.000000 
#    z 0.000000 0.000000 1.739630 
# 
# From -- ./inp_files/26805.got.cif
#   From: 2010.03.12/outbox.cif.g09.slc.cpg/sg53_14_cif.got.tgz:26805.got - 2010.04.16 14:36:59.
