data_PCOD8220966
_publ_section_title
;
Structure prediction by ZEFSAII (Michael W. Deem and Ramdas Pophale) SiO2 
 PCOD8220966
Probable space group: P M N A
;
_chemical_formula_sum "Si O2"
_cell_formula_units_Z 56
_cell_length_a 21.776758
_cell_length_b 8.159805
_cell_length_c 14.316122
_cell_angle_alpha 90.000000
_cell_angle_beta 90.000000
_cell_angle_gamma 90.000000
_cell_volume 2543.890397
_symmetry_space_group_name_H-M "P M N A"
_symmetry_group_IT_number 53
_symmetry_cell_setting 'orthorhombic'
loop_
_space_group_symop_operation_xyz
x,y,z
1/2-x,-y,1/2+z
x,-y,-z
1/2-x,y,1/2-z
-x,-y,-z
1/2+x,y,1/2-z
-x,y,z
1/2+x,-y,1/2+z
loop_
_atom_site_type_symbol
_atom_site_label
_atom_site_fract_x
_atom_site_fract_y
_atom_site_fract_z
Si Si1 0.868852 0.357606 0.255174
Si Si2 0.326323 0.357206 0.437820
Si Si3 0.774143 0.147097 0.349396
Si Si4 0.381073 0.927103 0.094786
Si Si5 0.069594 0.415644 0.599294
Si Si6 0.569078 0.826246 0.451059
Si Si7 0.069215 0.026931 0.216668
O O1 0.842454 0.445361 0.162237
O O2 0.817069 0.305352 0.329729
O O3 0.917297 0.465512 0.312542
O O4 0.895240 0.196243 0.202739
O O5 0.294997 0.500000 0.500000
O O6 0.279132 0.206292 0.419975
O O7 0.385662 0.296986 0.496179
O O8 0.750000 0.080713 0.250000
O O9 0.811951 0.996901 0.394069
O O10 0.380871 0.730479 0.095907
O O11 0.426763 0.983950 0.175076
O O12 0.409576 0.000000 0.000000
O O13 0.075915 0.500000 0.500000
O O14 0.000000 0.350878 0.613064
O O15 0.500000 0.748754 0.448034
O O16 0.566989 0.000000 0.500000
O O17 0.593705 0.873811 0.346177
O O18 0.000000 0.061422 0.186018
#
# Coordination Sequence:
#
# PCOD8220966 Si02
#       7
#     8   8   8   8   8   8   8
#     4  10  21  41  66  91 132 170 217 275 332 395
#     4  11  24  41  67  97 133 176 225 275 338 401
#     4   9  22  46  66  89 123 173 228 277 326 382
#     4  11  24  42  65  95 127 168 223 281 327 397
#     4  11  24  41  66  98 135 172 210 267 349 415
#     4  10  21  39  63  96 134 176 221 265 321 396
#     4  10  20  38  66  94 130 174 219 267 319 391
#
# _framework density 22.013525999999999
#
# number of rings (size 3 to 8) (size 9 to 14) (size 15 to 20)
#    0.000    1.714    1.429    2.571    2.000    5.429 
#    0.000    2.143    0.000    0.000    0.000    0.000 
#    0.000    0.000    0.000    0.000    0.000    0.000 
#
# Total GULP energy -694010.300606 kJ/mol
# GULP energy per Si atom -12393.041082 kJ/mol
# Density = 2.196342 g / cm^3
# Si number density = 22.013526 Si / 1000 Ang^3
#
#
#
# Elastic Constant Matrix: (Units=GPa)
#
#
# Indices 1 2 3 4 5 6 
#
# 1 103.4283 48.9310 47.5268 0.0000 0.0000 0.0000
# 2 48.9310 91.0912 43.5889 0.0000 0.0000 0.0000
# 3 47.5268 43.5889 133.0135 0.0000 0.0000 0.0000
# 4 0.0000 0.0000 0.0000 34.6609 0.0000 0.0000
# 5 0.0000 0.0000 0.0000 0.0000 19.0769 0.0000
# 6 0.0000 0.0000 0.0000 0.0000 0.0000 83.3168
#
#
#
# Elastic Compliance Matrix: (Units=1/GPa)
#
#
# Indices 1 2 3 4 5 6 
#
# 1 0.013897 -0.006035 -0.002988 0.000000 0.000000 0.000000
# 2 -0.006035 0.015641 -0.002969 0.000000 0.000000 0.000000
# 3 -0.002988 -0.002969 0.009559 0.000000 0.000000 0.000000
# 4 0.000000 0.000000 0.000000 0.028851 0.000000 0.000000
# 5 0.000000 0.000000 0.000000 0.000000 0.052419 0.000000
# 6 0.000000 0.000000 0.000000 0.000000 0.000000 0.012002
#
#
# Mechanical properties :
#
#
# Convention : Reuss Voigt Hill
#
# Bulk Modulus (GPa) = 66.17236 67.51405 66.84321
# Shear Modulus (GPa) = 30.98099 39.91003 35.44551
#
# Velocity S-wave (km/s) = 3.75555 4.26253 4.01705
# Velocity P-wave (km/s) = 6.99505 7.41360 7.20736
#
# Compressibility (1/GPa) = 0.01511205
#
# Stress axis : x y z
#
# Youngs Moduli (GPa) = 71.96039 63.93614 104.61876
#
# Poissons Ratio (x) = 0.38586 0.31256
# Poissons Ratio (y) = 0.43429 0.31062
# Poissons Ratio (z) = 0.21499 0.18983
#
# Static dielectric constant tensor:
#      x y z
#    x 3.965190 0.000000 0.000000 
#    y 0.000000 4.213750 0.000000 
#    z 0.000000 0.000000 4.559330 
# 
# 
# High freq. dielectric constant tensor:
#      x y z
#    x 1.856020 0.000000 0.000000 
#    y 0.000000 1.839160 0.000000 
#    z 0.000000 0.000000 1.891820 
# 
# From -- ./inp_files/24355.got.cif
#   From: 2010.03.12/outbox.cif.g09.slc.cpg/sg53_13_cif.got.tgz:24355.got - 2010.04.16 14:36:59.
