data_PCOD8220367
_publ_section_title
;
Structure prediction by ZEFSAII (Michael W. Deem and Ramdas Pophale) SiO2 
 PCOD8220367
Probable space group: P M N A
;
_chemical_formula_sum "Si O2"
_cell_formula_units_Z 64
_cell_length_a 8.961191
_cell_length_b 23.936348
_cell_length_c 15.172312
_cell_angle_alpha 90.000000
_cell_angle_beta 90.000000
_cell_angle_gamma 90.000000
_cell_volume 3254.433406
_symmetry_space_group_name_H-M "P M N A"
_symmetry_group_IT_number 53
_symmetry_cell_setting 'orthorhombic'
loop_
_space_group_symop_operation_xyz
x,y,z
1/2-x,-y,1/2+z
x,-y,-z
1/2-x,y,1/2-z
-x,-y,-z
1/2+x,y,1/2-z
-x,y,z
1/2+x,-y,1/2+z
loop_
_atom_site_type_symbol
_atom_site_label
_atom_site_fract_x
_atom_site_fract_y
_atom_site_fract_z
Si Si1 0.826516 0.817058 0.997937
Si Si2 0.324814 0.382779 0.344749
Si Si3 0.174546 0.490790 0.344051
Si Si4 0.675584 0.123624 0.160169
Si Si5 0.173509 0.000826 0.397430
Si Si6 0.826317 0.614303 0.344486
Si Si7 0.675542 0.108908 0.662500
Si Si8 0.671615 0.687827 0.488759
O O1 0.772512 0.853157 0.081180
O O2 0.792637 0.752924 0.017884
O O3 0.000000 0.827537 0.977176
O O4 0.729639 0.835041 0.915239
O O5 0.250000 0.369539 0.250000
O O6 0.500000 0.390828 0.329588
O O7 0.256420 0.438809 0.391854
O O8 0.289448 0.332674 0.412380
O O9 0.250000 0.492094 0.250000
O O10 0.202432 0.552047 0.385663
O O11 0.000000 0.477315 0.337644
O O12 0.750000 0.143984 0.250000
O O13 0.500000 0.128775 0.168437
O O14 0.724826 0.060354 0.139930
O O15 0.000000 0.988482 0.379550
O O16 0.210666 0.000000 0.500000
O O17 0.271279 0.954557 0.349225
O O18 0.750000 0.622895 0.250000
O O19 0.769732 0.658346 0.414981
O O20 0.000000 0.623902 0.328169
O O21 0.750000 0.134465 0.750000
O O22 0.500000 0.109794 0.674466
O O23 0.500000 0.674641 0.467261
#
# Coordination Sequence:
#
# PCOD8220367 Si02
#       8
#     8   8   8   8   8   8   8   8
#     4  10  23  43  61  82 114 152 197 245 289 336
#     4  10  20  35  57  83 113 149 187 234 287 343
#     4   9  17  31  53  82 115 147 183 229 282 343
#     4  11  23  39  62  89 119 154 191 236 287 343
#     4  10  20  37  61  90 123 153 186 232 285 342
#     4  10  21  37  59  86 116 151 189 234 287 342
#     4  11  23  38  61  88 117 153 192 236 287 344
#     4  10  23  41  59  82 114 151 195 242 287 339
#
# _framework density 19.665481
#
# number of rings (size 3 to 8) (size 9 to 14) (size 15 to 20)
#    0.000    1.875    1.250    3.000    0.000    7.250 
#    0.000    5.000    0.000    0.000    0.000    0.000 
#    0.000    0.000    0.000    0.000    0.000    0.000 
#
# Total GULP energy -793605.744267 kJ/mol
# GULP energy per Si atom -12400.089754 kJ/mol
# Density = 1.962072 g / cm^3
# Si number density = 19.665481 Si / 1000 Ang^3
#
#
#
# Elastic Constant Matrix: (Units=GPa)
#
#
# Indices 1 2 3 4 5 6 
#
# 1 83.8373 30.2621 36.7025 0.0000 0.0000 0.0000
# 2 30.2621 72.0333 17.3153 0.0000 0.0000 0.0000
# 3 36.7025 17.3153 89.7621 0.0000 0.0000 0.0000
# 4 0.0000 0.0000 0.0000 0.8706 0.0000 0.0000
# 5 0.0000 0.0000 0.0000 0.0000 32.7127 0.0000
# 6 0.0000 0.0000 0.0000 0.0000 0.0000 17.8630
#
#
#
# Elastic Compliance Matrix: (Units=1/GPa)
#
#
# Indices 1 2 3 4 5 6 
#
# 1 0.016392 -0.005532 -0.005635 0.000000 0.000000 0.000000
# 2 -0.005532 0.016424 -0.000906 0.000000 0.000000 0.000000
# 3 -0.005635 -0.000906 0.013620 0.000000 0.000000 0.000000
# 4 0.000000 0.000000 0.000000 1.148609 0.000000 0.000000
# 5 0.000000 0.000000 0.000000 0.000000 0.030569 0.000000
# 6 0.000000 0.000000 0.000000 0.000000 0.000000 0.055982
#
#
# Mechanical properties :
#
#
# Convention : Reuss Voigt Hill
#
# Bulk Modulus (GPa) = 44.86575 46.02139 45.44357
# Shear Modulus (GPa) = 3.80758 21.04611 12.42684
#
# Velocity S-wave (km/s) = 1.39297 3.27495 2.51651
# Velocity P-wave (km/s) = 5.04491 6.14437 5.62159
#
# Compressibility (1/GPa) = 0.02228872
#
# Stress axis : x y z
#
# Youngs Moduli (GPa) = 61.00675 60.88538 73.42371
#
# Poissons Ratio (x) = 0.33680 0.41376
# Poissons Ratio (y) = 0.33747 0.06655
# Poissons Ratio (z) = 0.34379 0.05519
#
# Static dielectric constant tensor:
#      x y z
#    x 3.620890 0.000000 0.000000 
#    y 0.000000 3.862520 0.000000 
#    z 0.000000 0.000000 3.567660 
# 
# 
# High freq. dielectric constant tensor:
#      x y z
#    x 1.772130 0.000000 0.000000 
#    y 0.000000 1.767650 0.000000 
#    z 0.000000 0.000000 1.766710 
# 
# From -- ./inp_files/20841.got.cif
#   From: 2010.03.12/outbox.cif.g09.slc.cpg/sg53_11_cif.got.tgz:20841.got - 2010.04.16 14:36:59.
