data_PCOD8220402
_publ_section_title
;
Structure prediction by ZEFSAII (Michael W. Deem and Ramdas Pophale) SiO2 
 PCOD8220402
Probable space group: P M N A
;
_chemical_formula_sum "Si O2"
_cell_formula_units_Z 40
_cell_length_a 8.742984
_cell_length_b 25.751442
_cell_length_c 9.164064
_cell_angle_alpha 90.000000
_cell_angle_beta 90.000000
_cell_angle_gamma 90.000000
_cell_volume 2063.238107
_symmetry_space_group_name_H-M "P M N A"
_symmetry_group_IT_number 53
_symmetry_cell_setting 'orthorhombic'
loop_
_space_group_symop_operation_xyz
x,y,z
1/2-x,-y,1/2+z
x,-y,-z
1/2-x,y,1/2-z
-x,-y,-z
1/2+x,y,1/2-z
-x,y,z
1/2+x,-y,1/2+z
loop_
_atom_site_type_symbol
_atom_site_label
_atom_site_fract_x
_atom_site_fract_y
_atom_site_fract_z
Si Si1 0.680631 0.642854 0.411356
Si Si2 0.177083 0.254588 0.593198
Si Si3 0.822960 0.551310 0.593844
Si Si4 0.177674 0.139846 0.590772
Si Si5 0.680079 0.049698 0.407287
O O1 0.750000 0.635910 0.250000
O O2 0.500000 0.641542 0.398573
O O3 0.735449 0.697581 0.485166
O O4 0.735047 0.597712 0.516454
O O5 0.250000 0.249051 0.750000
O O6 0.199323 0.197782 0.521081
O O7 0.000000 0.269678 0.605873
O O8 0.800370 0.500000 0.500000
O O9 0.750000 0.540515 0.750000
O O10 0.000000 0.566213 0.610922
O O11 0.250000 0.133921 0.750000
O O12 0.257144 0.101771 0.478603
O O13 0.000000 0.126004 0.606184
O O14 0.750000 0.041861 0.250000
O O15 0.500000 0.054536 0.394263
O O16 0.730936 0.000000 0.500000
#
# Coordination Sequence:
#
# PCOD8220402 Si02
#       5
#     8   8   8   8   8
#     4  11  21  35  58  86 117 152 190 233 279 329
#     4   9  17  31  53  82 114 148 188 230 275 328
#     4  11  24  41  61  85 114 148 187 232 282 336
#     4  10  20  35  58  86 116 150 188 232 278 329
#     4  11  24  40  59  83 112 147 186 231 282 336
#
# _framework density 19.387001999999999
#
# number of rings (size 3 to 8) (size 9 to 14) (size 15 to 20)
#    0.000    1.600    0.000    6.600    0.000    8.800 
#    0.000    1.000    0.000    4.800    0.000    0.000 
#    0.000    0.000    0.000    0.000    0.000    0.000 
#
# Total GULP energy -495934.209152 kJ/mol
# GULP energy per Si atom -12398.355229 kJ/mol
# Density = 1.934288 g / cm^3
# Si number density = 19.387002 Si / 1000 Ang^3
#
#
#
# Elastic Constant Matrix: (Units=GPa)
#
#
# Indices 1 2 3 4 5 6 
#
# 1 148.3143 79.7924 62.2931 0.0000 0.0000 0.0000
# 2 79.7924 141.8362 57.7300 0.0000 0.0000 0.0000
# 3 62.2931 57.7300 106.2583 0.0000 0.0000 0.0000
# 4 0.0000 0.0000 0.0000 37.9758 0.0000 0.0000
# 5 0.0000 0.0000 0.0000 0.0000 31.4204 0.0000
# 6 0.0000 0.0000 0.0000 0.0000 0.0000 41.7800
#
#
#
# Elastic Compliance Matrix: (Units=1/GPa)
#
#
# Indices 1 2 3 4 5 6 
#
# 1 0.010789 -0.004488 -0.003887 0.000000 0.000000 0.000000
# 2 -0.004488 0.010919 -0.003301 0.000000 0.000000 0.000000
# 3 -0.003887 -0.003301 0.013483 0.000000 0.000000 0.000000
# 4 0.000000 0.000000 0.000000 0.026333 0.000000 0.000000
# 5 0.000000 0.000000 0.000000 0.000000 0.031826 0.000000
# 6 0.000000 0.000000 0.000000 0.000000 0.000000 0.023935
#
#
# Mechanical properties :
#
#
# Convention : Reuss Voigt Hill
#
# Bulk Modulus (GPa) = 84.46310 88.44885 86.45597
# Shear Modulus (GPa) = 34.58205 35.34145 34.96175
#
# Velocity S-wave (km/s) = 4.22806 4.27423 4.25121
# Velocity P-wave (km/s) = 8.21564 8.37141 8.29389
#
# Compressibility (1/GPa) = 0.01183949
#
# Stress axis : x y z
#
# Youngs Moduli (GPa) = 92.68395 91.58641 74.16555
#
# Poissons Ratio (x) = 0.41101 0.28829
# Poissons Ratio (y) = 0.41593 0.24484
# Poissons Ratio (z) = 0.36027 0.30235
#
# Static dielectric constant tensor:
#      x y z
#    x 3.796210 0.000000 0.000000 
#    y 0.000000 4.291240 0.000000 
#    z 0.000000 0.000000 3.278690 
# 
# 
# High freq. dielectric constant tensor:
#      x y z
#    x 1.777030 0.000000 0.000000 
#    y 0.000000 1.780810 0.000000 
#    z 0.000000 0.000000 1.725380 
# 
# From -- ./inp_files/6301.got.cif
#   From: 2010.03.12/outbox.cif.g09.slc.cpg/sg53_4_cif.got.tgz:6301.got - 2010.04.16 14:36:59.
