data_PCOD8220869
_publ_section_title
;
Structure prediction by ZEFSAII (Michael W. Deem and Ramdas Pophale) SiO2 
 PCOD8220869
Probable space group: P M N A
;
_chemical_formula_sum "Si O2"
_cell_formula_units_Z 64
_cell_length_a 8.797531
_cell_length_b 23.461926
_cell_length_c 15.368839
_cell_angle_alpha 90.000000
_cell_angle_beta 90.000000
_cell_angle_gamma 90.000000
_cell_volume 3172.236279
_symmetry_space_group_name_H-M "P M N A"
_symmetry_group_IT_number 53
_symmetry_cell_setting 'orthorhombic'
loop_
_space_group_symop_operation_xyz
x,y,z
1/2-x,-y,1/2+z
x,-y,-z
1/2-x,y,1/2-z
-x,-y,-z
1/2+x,y,1/2-z
-x,y,z
1/2+x,-y,1/2+z
loop_
_atom_site_type_symbol
_atom_site_label
_atom_site_fract_x
_atom_site_fract_y
_atom_site_fract_z
Si Si1 0.321144 0.889091 0.838231
Si Si2 0.821536 0.378474 0.838799
Si Si3 0.321225 0.812534 0.998405
Si Si4 0.820832 0.390609 0.162662
Si Si5 0.823368 0.693029 0.992099
Si Si6 0.679218 0.873168 0.340782
Si Si7 0.177947 0.001966 0.899446
Si Si8 0.179856 0.495355 0.599695
O O1 0.250000 0.863551 0.750000
O O2 0.500000 0.885724 0.829906
O O3 0.262066 0.852093 0.919539
O O4 0.270864 0.954404 0.848260
O O5 0.750000 0.353633 0.750000
O O6 0.786699 0.332865 0.913722
O O7 0.741878 0.437667 0.859972
O O8 0.000000 0.388967 0.828323
O O9 0.500000 0.819303 0.011563
O O10 0.279606 0.747954 0.976470
O O11 0.237298 0.830529 0.085945
O O12 0.750000 0.362939 0.250000
O O13 0.751459 0.453051 0.152659
O O14 0.000000 0.395431 0.172001
O O15 0.774171 0.352318 0.080630
O O16 0.000000 0.709506 0.983412
O O17 0.750000 0.853460 0.250000
O O18 0.500000 0.867869 0.335708
O O19 0.730444 0.937467 0.361858
O O20 0.000000 0.990575 0.885997
O O21 0.223455 0.000000 0.000000
O O22 0.232328 0.500000 0.500000
O O23 0.000000 0.497160 0.609601
#
# Coordination Sequence:
#
# PCOD8220869 Si02
#       8
#     8   8   8   8   8   8   8   8
#     4  11  24  40  62  92 125 163 204 251 306 365
#     4  11  23  41  64  92 124 160 202 247 303 363
#     4  11  25  43  64  90 121 160 208 258 307 360
#     4  11  23  41  64  92 125 162 203 250 304 363
#     4  10  24  44  65  87 119 163 206 253 308 361
#     4  11  23  40  64  92 126 162 203 250 304 366
#     4  10  20  37  63  94 125 162 200 245 306 366
#     4  11  22  37  62  94 126 162 201 246 302 362
#
# _framework density 20.175042000000001
#
# number of rings (size 3 to 8) (size 9 to 14) (size 15 to 20)
#    0.000    1.250    2.500    3.000    0.000    7.250 
#    0.000    3.750    0.000    0.000    0.000    0.000 
#    0.000    0.000    0.000    0.000    0.000    0.000 
#
# Total GULP energy -794068.614631 kJ/mol
# GULP energy per Si atom -12407.322104 kJ/mol
# Density = 2.012912 g / cm^3
# Si number density = 20.175042 Si / 1000 Ang^3
#
#
#
# Elastic Constant Matrix: (Units=GPa)
#
#
# Indices 1 2 3 4 5 6 
#
# 1 69.6581 26.1723 37.3019 0.0000 0.0000 0.0000
# 2 26.1723 79.7451 17.6495 0.0000 0.0000 0.0000
# 3 37.3019 17.6495 128.6955 0.0000 0.0000 0.0000
# 4 0.0000 0.0000 0.0000 12.0358 0.0000 0.0000
# 5 0.0000 0.0000 0.0000 0.0000 35.4444 0.0000
# 6 0.0000 0.0000 0.0000 0.0000 0.0000 26.0015
#
#
#
# Elastic Compliance Matrix: (Units=1/GPa)
#
#
# Indices 1 2 3 4 5 6 
#
# 1 0.018828 -0.005127 -0.004754 0.000000 0.000000 0.000000
# 2 -0.005127 0.014329 -0.000479 0.000000 0.000000 0.000000
# 3 -0.004754 -0.000479 0.009214 0.000000 0.000000 0.000000
# 4 0.000000 0.000000 0.000000 0.083086 0.000000 0.000000
# 5 0.000000 0.000000 0.000000 0.000000 0.028213 0.000000
# 6 0.000000 0.000000 0.000000 0.000000 0.000000 0.038459
#
#
# Mechanical properties :
#
#
# Convention : Reuss Voigt Hill
#
# Bulk Modulus (GPa) = 46.18892 48.92734 47.55813
# Shear Modulus (GPa) = 22.72046 27.82800 25.27423
#
# Velocity S-wave (km/s) = 3.35948 3.71796 3.54326
# Velocity P-wave (km/s) = 6.16376 6.53720 6.35323
#
# Compressibility (1/GPa) = 0.02165022
#
# Stress axis : x y z
#
# Youngs Moduli (GPa) = 53.11221 69.78997 108.53145
#
# Poissons Ratio (x) = 0.35783 0.51597
# Poissons Ratio (y) = 0.27232 0.05198
# Poissons Ratio (z) = 0.25250 0.03343
#
# Static dielectric constant tensor:
#      x y z
#    x 3.635800 0.000000 0.000000 
#    y 0.000000 3.556560 0.000000 
#    z 0.000000 0.000000 4.149960 
# 
# 
# High freq. dielectric constant tensor:
#      x y z
#    x 1.792990 0.000000 0.000000 
#    y 0.000000 1.781710 0.000000 
#    z 0.000000 0.000000 1.808380 
# 
# From -- ./inp_files/20875.got.cif
#   From: 2010.03.12/outbox.cif.g09.slc.cpg/sg53_11_cif.got.tgz:20875.got - 2010.04.16 14:36:59.
