data_PCOD8220620
_publ_section_title
;
Structure prediction by ZEFSAII (Michael W. Deem and Ramdas Pophale) SiO2 
 PCOD8220620
Probable space group: P M N A
;
_chemical_formula_sum "Si O2"
_cell_formula_units_Z 52
_cell_length_a 12.843584
_cell_length_b 9.353733
_cell_length_c 20.586401
_cell_angle_alpha 90.000000
_cell_angle_beta 90.000000
_cell_angle_gamma 90.000000
_cell_volume 2473.156661
_symmetry_space_group_name_H-M "P M N A"
_symmetry_group_IT_number 53
_symmetry_cell_setting 'orthorhombic'
loop_
_space_group_symop_operation_xyz
x,y,z
1/2-x,-y,1/2+z
x,-y,-z
1/2-x,y,1/2-z
-x,-y,-z
1/2+x,y,1/2-z
-x,y,z
1/2+x,-y,1/2+z
loop_
_atom_site_type_symbol
_atom_site_label
_atom_site_fract_x
_atom_site_fract_y
_atom_site_fract_z
Si Si1 0.881858 0.689203 0.640299
Si Si2 0.336583 0.302414 0.670406
Si Si3 0.250000 0.173075 0.250000
Si Si4 0.881108 0.643437 0.031611
Si Si5 0.384214 0.017261 0.346407
Si Si6 0.885570 0.625026 0.311290
Si Si7 0.258493 0.133914 0.039655
O O1 0.802528 0.730771 0.696036
O O2 0.878562 0.517453 0.644613
O O3 0.843693 0.759353 0.572007
O O4 0.000000 0.742511 0.652088
O O5 0.372412 0.390564 0.607934
O O6 0.391981 0.151157 0.664740
O O7 0.210800 0.274727 0.668182
O O8 0.373126 0.395167 0.732937
O O9 0.340998 0.077026 0.279150
O O10 0.000000 0.673977 0.010807
O O11 0.837125 0.500000 0.000000
O O12 0.811661 0.777716 0.010731
O O13 0.500000 0.076725 0.358990
O O14 0.313390 0.063750 0.405902
O O15 0.000000 0.694743 0.324415
O O16 0.310208 0.000000 0.000000
#
# Coordination Sequence:
#
# PCOD8220620 Si02
#       7
#     8   8   4   8   8   8   8
#     4  10  22  40  62  89 122 161 206 257 310 370
#     4  11  21  36  58  86 117 155 201 251 301 368
#     4  10  20  36  58  88 118 152 198 252 308 370
#     4  11  23  38  60  91 125 162 210 262 308 363
#     4  11  22  36  59  89 123 162 203 251 308 366
#     4  10  21  38  60  85 118 157 198 251 315 371
#     4  11  23  41  63  88 124 172 210 256 307 369
#
# _framework density 21.025760999999999
#
# number of rings (size 3 to 8) (size 9 to 14) (size 15 to 20)
#    0.000    1.385    1.538    5.077    0.000    2.154 
#    0.000    6.923    0.000    2.769    0.000    0.000 
#    0.000    0.000    0.000    0.000    0.000    0.000 
#
# Total GULP energy -644463.850054 kJ/mol
# GULP energy per Si atom -12393.535578 kJ/mol
# Density = 2.097791 g / cm^3
# Si number density = 21.025761 Si / 1000 Ang^3
#
#
#
# Elastic Constant Matrix: (Units=GPa)
#
#
# Indices 1 2 3 4 5 6 
#
# 1 115.3021 10.3503 3.9615 0.0000 0.0000 0.0000
# 2 10.3503 54.1149 19.7333 0.0000 0.0000 0.0000
# 3 3.9615 19.7333 63.0997 0.0000 0.0000 0.0000
# 4 0.0000 0.0000 0.0000 32.2630 0.0000 0.0000
# 5 0.0000 0.0000 0.0000 0.0000 68.9828 0.0000
# 6 0.0000 0.0000 0.0000 0.0000 0.0000 32.0350
#
#
#
# Elastic Compliance Matrix: (Units=1/GPa)
#
#
# Indices 1 2 3 4 5 6 
#
# 1 0.008824 -0.001677 -0.000030 0.000000 0.000000 0.000000
# 2 -0.001677 0.021177 -0.006517 0.000000 0.000000 0.000000
# 3 -0.000030 -0.006517 0.017888 0.000000 0.000000 0.000000
# 4 0.000000 0.000000 0.000000 0.030995 0.000000 0.000000
# 5 0.000000 0.000000 0.000000 0.000000 0.014496 0.000000
# 6 0.000000 0.000000 0.000000 0.000000 0.000000 0.031216
#
#
# Mechanical properties :
#
#
# Convention : Reuss Voigt Hill
#
# Bulk Modulus (GPa) = 31.80545 33.40078 32.60311
# Shear Modulus (GPa) = 32.99796 39.88760 36.44278
#
# Velocity S-wave (km/s) = 3.96587 4.36028 4.16774
# Velocity P-wave (km/s) = 6.01087 6.42413 6.22093
#
# Compressibility (1/GPa) = 0.03144116
#
# Stress axis : x y z
#
# Youngs Moduli (GPa) = 113.32185 47.22210 55.90350
#
# Poissons Ratio (x) = 0.07919 0.00165
# Poissons Ratio (y) = 0.19005 0.36434
# Poissons Ratio (z) = 0.00335 0.30776
#
# Static dielectric constant tensor:
#      x y z
#    x 4.069300 0.000000 0.000000 
#    y 0.000000 3.652320 0.000000 
#    z 0.000000 0.000000 4.760950 
# 
# 
# High freq. dielectric constant tensor:
#      x y z
#    x 1.829890 0.000000 0.000000 
#    y 0.000000 1.809690 0.000000 
#    z 0.000000 0.000000 1.825040 
# 
# From -- ./inp_files/32348.got.cif
#   From: 2010.03.12/outbox.cif.g09.slc.cpg/sg53_17_cif.got.tgz:32348.got - 2010.04.16 14:36:59.
