data_PCOD8220585
_publ_section_title
;
Structure prediction by ZEFSAII (Michael W. Deem and Ramdas Pophale) SiO2 
 PCOD8220585
Probable space group: P M N A
;
_chemical_formula_sum "Si O2"
_cell_formula_units_Z 48
_cell_length_a 8.464044
_cell_length_b 11.325800
_cell_length_c 23.715870
_cell_angle_alpha 90.000000
_cell_angle_beta 90.000000
_cell_angle_gamma 90.000000
_cell_volume 2273.452379
_symmetry_space_group_name_H-M "P M N A"
_symmetry_group_IT_number 53
_symmetry_cell_setting 'orthorhombic'
loop_
_space_group_symop_operation_xyz
x,y,z
1/2-x,-y,1/2+z
x,-y,-z
1/2-x,y,1/2-z
-x,-y,-z
1/2+x,y,1/2-z
-x,y,z
1/2+x,-y,1/2+z
loop_
_atom_site_type_symbol
_atom_site_label
_atom_site_fract_x
_atom_site_fract_y
_atom_site_fract_z
Si Si1 0.186065 0.131777 0.687717
Si Si2 0.683328 0.226555 0.467193
Si Si3 0.813263 0.724107 0.418431
Si Si4 0.316623 0.544254 0.916749
Si Si5 0.684582 0.350671 0.309623
Si Si6 0.814477 0.120989 0.358174
O O1 0.250000 0.158733 0.750000
O O2 0.246795 0.229288 0.642536
O O3 0.000000 0.134945 0.692078
O O4 0.242895 0.006082 0.663363
O O5 0.500000 0.200439 0.459173
O O6 0.735649 0.199069 0.531267
O O7 0.718008 0.364463 0.454494
O O8 0.777262 0.140799 0.424391
O O9 0.761068 0.589012 0.427831
O O10 0.000000 0.739823 0.422265
O O11 0.500000 0.561144 0.931829
O O12 0.286277 0.570031 0.851619
O O13 0.750000 0.389746 0.250000
O O14 0.500000 0.377886 0.315710
O O15 0.715862 0.212863 0.320810
O O16 0.000000 0.140657 0.348140
#
# Coordination Sequence:
#
# PCOD8220585 Si02
#       6
#     8   8   8   8   8   8
#     4  10  23  41  61  84 112 149 189 230 276 330
#     4  11  22  36  58  88 117 145 184 234 283 330
#     4  10  22  40  59  82 114 152 189 225 275 336
#     4  10  20  36  58  82 112 150 189 231 281 337
#     4  11  21  34  54  81 113 146 187 237 285 335
#     4  10  20  37  60  84 112 146 185 231 284 336
#
# _framework density 21.113263
#
# number of rings (size 3 to 8) (size 9 to 14) (size 15 to 20)
#    0.000    1.667    0.000    7.000    0.000    8.000 
#    0.000    5.000    0.000    0.000    0.000    0.000 
#    0.000    0.000    0.000    0.000    0.000    0.000 
#
# Total GULP energy -595224.632694 kJ/mol
# GULP energy per Si atom -12400.513181 kJ/mol
# Density = 2.106521 g / cm^3
# Si number density = 21.113263 Si / 1000 Ang^3
#
#
#
# Elastic Constant Matrix: (Units=GPa)
#
#
# Indices 1 2 3 4 5 6 
#
# 1 39.2969 13.8368 9.6348 0.0000 0.0000 0.0000
# 2 13.8368 24.4465 17.3544 0.0000 0.0000 0.0000
# 3 9.6348 17.3544 157.1117 0.0000 0.0000 0.0000
# 4 0.0000 0.0000 0.0000 -33.3854 0.0000 0.0000
# 5 0.0000 0.0000 0.0000 0.0000 34.3612 0.0000
# 6 0.0000 0.0000 0.0000 0.0000 0.0000 15.7994
#
#
#
# Elastic Compliance Matrix: (Units=1/GPa)
#
#
# Indices 1 2 3 4 5 6 
#
# 1 0.031781 -0.018018 0.000041 0.000000 0.000000 0.000000
# 2 -0.018018 0.054601 -0.004926 0.000000 0.000000 0.000000
# 3 0.000041 -0.004926 0.006907 0.000000 0.000000 0.000000
# 4 0.000000 0.000000 0.000000 -0.029953 0.000000 0.000000
# 5 0.000000 0.000000 0.000000 0.000000 0.029103 0.000000
# 6 0.000000 0.000000 0.000000 0.000000 0.000000 0.063294
#
#
# Mechanical properties :
#
#
# Convention : Reuss Voigt Hill
#
# Bulk Modulus (GPa) = 21.06000 33.61190 27.33595
# Shear Modulus (GPa) = 23.00284 15.35698 19.17991
#
# Velocity S-wave (km/s) = 3.30433 2.69989 3.01729
# Velocity P-wave (km/s) = 4.95526 5.06691 5.01139
#
# Compressibility (1/GPa) = 0.04748338
#
# Stress axis : x y z
#
# Youngs Moduli (GPa) = 31.46503 18.31479 144.79079
#
# Poissons Ratio (x) = 0.32999 -0.00597
# Poissons Ratio (y) = 0.56692 0.71327
# Poissons Ratio (z) = -0.00130 0.09022
#
# Static dielectric constant tensor:
#      x y z
#    x 3.704240 0.000000 0.000000 
#    y 0.000000 3.822780 0.000000 
#    z 0.000000 0.000000 4.052740 
# 
# 
# High freq. dielectric constant tensor:
#      x y z
#    x 1.820990 0.000000 0.000000 
#    y 0.000000 1.812300 0.000000 
#    z 0.000000 0.000000 1.845120 
# 
# From -- ./inp_files/33929.got.cif
#   From: 2010.03.12/outbox.cif.g09.slc.cpg/sg53_17_cif.got.tgz:33929.got - 2010.04.16 14:36:59.
