data_PCOD8220730
_publ_section_title
;
Structure prediction by ZEFSAII (Michael W. Deem and Ramdas Pophale) SiO2 
 PCOD8220730
Probable space group: P M N A
;
_chemical_formula_sum "Si O2"
_cell_formula_units_Z 64
_cell_length_a 8.656708
_cell_length_b 19.646586
_cell_length_c 20.011982
_cell_angle_alpha 90.000000
_cell_angle_beta 90.000000
_cell_angle_gamma 90.000000
_cell_volume 3403.533000
_symmetry_space_group_name_H-M "P M N A"
_symmetry_group_IT_number 53
_symmetry_cell_setting 'orthorhombic'
loop_
_space_group_symop_operation_xyz
x,y,z
1/2-x,-y,1/2+z
x,-y,-z
1/2-x,y,1/2-z
-x,-y,-z
1/2+x,y,1/2-z
-x,y,z
1/2+x,-y,1/2+z
loop_
_atom_site_type_symbol
_atom_site_label
_atom_site_fract_x
_atom_site_fract_y
_atom_site_fract_z
Si Si1 0.683373 0.402772 0.179684
Si Si2 0.179546 0.972609 0.926419
Si Si3 0.818280 0.071963 0.679849
Si Si4 0.320578 0.557485 0.181634
Si Si5 0.820798 0.187287 0.900560
Si Si6 0.681993 0.692261 0.567020
Si Si7 0.823546 0.340553 0.917614
Si Si8 0.181391 0.166309 0.457098
O O1 0.750000 0.376244 0.250000
O O2 0.500000 0.393422 0.177647
O O3 0.736643 0.480643 0.168149
O O4 0.762539 0.360054 0.121960
O O5 0.230449 0.894471 0.919701
O O6 0.000000 0.980378 0.908389
O O7 0.280114 0.015829 0.875163
O O8 0.216236 0.000000 0.000000
O O9 0.750000 0.046891 0.750000
O O10 0.739608 0.144230 0.661914
O O11 0.000000 0.082236 0.685413
O O12 0.250000 0.587140 0.250000
O O13 0.500000 0.557559 0.192818
O O14 0.280147 0.604021 0.118846
O O15 0.797243 0.266759 0.884150
O O16 0.000000 0.171237 0.915684
O O17 0.724176 0.165609 0.965096
O O18 0.500000 0.705285 0.571076
O O19 0.726965 0.661746 0.494873
O O20 0.767098 0.763863 0.578158
O O21 0.000000 0.363674 0.910410
O O22 0.000000 0.155993 0.448838
#
# Coordination Sequence:
#
# PCOD8220730 Si02
#       8
#     8   8   8   8   8   8   8   8
#     4  10  21  38  59  84 112 148 192 238 289 347
#     4  11  22  38  63  88 116 153 193 237 285 340
#     4  12  25  40  59  85 118 154 195 241 291 345
#     4  10  21  36  56  80 111 149 192 238 286 343
#     4  10  20  37  57  81 113 151 192 234 283 339
#     4  10  21  38  59  85 117 152 189 236 289 342
#     4   9  20  36  56  82 115 151 190 234 283 338
#     4  11  21  35  59  89 117 147 189 236 282 338
#
# _framework density 18.803989999999999
#
# number of rings (size 3 to 8) (size 9 to 14) (size 15 to 20)
#    0.000    1.625    1.250    4.875    0.000    6.000 
#    0.000    3.125    0.000    0.000    0.000    0.000 
#    0.000    0.000    0.000    0.000    0.000    0.000 
#
# Total GULP energy -793906.607804 kJ/mol
# GULP energy per Si atom -12404.790747 kJ/mol
# Density = 1.876119 g / cm^3
# Si number density = 18.803990 Si / 1000 Ang^3
#
#
#
# Elastic Constant Matrix: (Units=GPa)
#
#
# Indices 1 2 3 4 5 6 
#
# 1 65.8697 31.3414 28.7731 0.0000 0.0000 0.0000
# 2 31.3414 100.2476 55.9579 0.0000 0.0000 0.0000
# 3 28.7731 55.9579 95.2023 0.0000 0.0000 0.0000
# 4 0.0000 0.0000 0.0000 24.3329 0.0000 0.0000
# 5 0.0000 0.0000 0.0000 0.0000 34.4110 0.0000
# 6 0.0000 0.0000 0.0000 0.0000 0.0000 33.5181
#
#
#
# Elastic Compliance Matrix: (Units=1/GPa)
#
#
# Indices 1 2 3 4 5 6 
#
# 1 0.018490 -0.003961 -0.003260 0.000000 0.000000 0.000000
# 2 -0.003961 0.015695 -0.008028 0.000000 0.000000 0.000000
# 3 -0.003260 -0.008028 0.016208 0.000000 0.000000 0.000000
# 4 0.000000 0.000000 0.000000 0.041097 0.000000 0.000000
# 5 0.000000 0.000000 0.000000 0.000000 0.029060 0.000000
# 6 0.000000 0.000000 0.000000 0.000000 0.000000 0.029835
#
#
# Mechanical properties :
#
#
# Convention : Reuss Voigt Hill
#
# Bulk Modulus (GPa) = 50.26427 54.82937 52.54682
# Shear Modulus (GPa) = 26.66460 28.13555 27.40007
#
# Velocity S-wave (km/s) = 3.76976 3.87234 3.82139
# Velocity P-wave (km/s) = 6.76290 7.01534 6.89028
#
# Compressibility (1/GPa) = 0.01989485
#
# Stress axis : x y z
#
# Youngs Moduli (GPa) = 54.08253 63.71517 61.69820
#
# Poissons Ratio (x) = 0.25237 0.20115
# Poissons Ratio (y) = 0.21422 0.49531
# Poissons Ratio (z) = 0.17632 0.51150
#
# Static dielectric constant tensor:
#      x y z
#    x 3.495530 0.000000 0.000000 
#    y 0.000000 3.574450 0.000000 
#    z 0.000000 0.000000 3.310780 
# 
# 
# High freq. dielectric constant tensor:
#      x y z
#    x 1.744370 0.000000 0.000000 
#    y 0.000000 1.735930 0.000000 
#    z 0.000000 0.000000 1.718270 
# 
# From -- ./inp_files/26872.got.cif
#   From: 2010.03.12/outbox.cif.g09.slc.cpg/sg53_14_cif.got.tgz:26872.got - 2010.04.16 14:36:59.
