data_PCOD8220912
_publ_section_title
;
Structure prediction by ZEFSAII (Michael W. Deem and Ramdas Pophale) SiO2 
 PCOD8220912
Probable space group: P M N A
;
_chemical_formula_sum "Si O2"
_cell_formula_units_Z 64
_cell_length_a 25.322882
_cell_length_b 14.311424
_cell_length_c 9.143136
_cell_angle_alpha 90.000000
_cell_angle_beta 90.000000
_cell_angle_gamma 90.000000
_cell_volume 3313.531928
_symmetry_space_group_name_H-M "P M N A"
_symmetry_group_IT_number 53
_symmetry_cell_setting 'orthorhombic'
loop_
_space_group_symop_operation_xyz
x,y,z
1/2-x,-y,1/2+z
x,-y,-z
1/2-x,y,1/2-z
-x,-y,-z
1/2+x,y,1/2-z
-x,y,z
1/2+x,-y,1/2+z
loop_
_atom_site_type_symbol
_atom_site_label
_atom_site_fract_x
_atom_site_fract_y
_atom_site_fract_z
Si Si1 0.939435 0.234753 0.076086
Si Si2 0.848249 0.098133 0.077411
Si Si3 0.107591 0.591596 0.085992
Si Si4 0.439761 0.766188 0.912081
Si Si5 0.768433 0.592999 0.083794
Si Si6 0.348822 0.096476 0.082295
Si Si7 0.061297 0.585930 0.399626
Si Si8 0.250860 0.777803 0.921957
O O1 0.904072 0.145023 0.034708
O O2 0.929103 0.263803 0.244364
O O3 0.000000 0.206376 0.048369
O O4 0.925016 0.321410 0.974895
O O5 0.844360 0.075860 0.247390
O O6 0.802147 0.168903 0.028680
O O7 0.841498 0.000000 0.000000
O O8 0.169331 0.607658 0.065734
O O9 0.096420 0.579986 0.256312
O O10 0.088216 0.500000 0.000000
O O11 0.500000 0.798121 0.934417
O O12 0.403493 0.852741 0.958213
O O13 0.425102 0.679609 0.013492
O O14 0.750000 0.585376 0.250000
O O15 0.749680 0.500000 0.000000
O O16 0.741239 0.681565 0.008129
O O17 0.300197 0.159492 0.030786
O O18 0.346600 0.000000 0.000000
O O19 0.078128 0.500000 0.500000
O O20 0.000000 0.580448 0.356128
O O21 0.250000 0.755362 0.750000
#
# Coordination Sequence:
#
# PCOD8220912 Si02
#       8
#     8   8   8   8   8   8   8   8
#     4  10  20  38  61  86 118 157 199 242 295 349
#     4  10  21  38  59  85 120 152 191 247 298 348
#     4  11  23  38  59  87 118 153 196 240 292 349
#     4   9  20  38  59  85 121 158 195 242 294 348
#     4  11  25  42  60  89 122 156 193 240 293 351
#     4  10  22  37  60  89 113 154 199 239 298 353
#     4  10  21  37  57  86 120 155 196 240 286 342
#     4  10  21  41  64  86 117 153 197 246 294 350
#
# _framework density 19.314737999999998
#
# number of rings (size 3 to 8) (size 9 to 14) (size 15 to 20)
#    0.000    1.875    1.250    1.875    1.750    5.000 
#    0.000    0.000    0.000    0.000    0.000    0.000 
#    0.000    0.000    0.000    0.000    0.000    0.000 
#
# Total GULP energy -793917.329409 kJ/mol
# GULP energy per Si atom -12404.958272 kJ/mol
# Density = 1.927078 g / cm^3
# Si number density = 19.314738 Si / 1000 Ang^3
#
#
#
# Elastic Constant Matrix: (Units=GPa)
#
#
# Indices 1 2 3 4 5 6 
#
# 1 100.1451 63.0281 38.8219 0.0000 0.0000 0.0000
# 2 63.0281 165.5271 75.1745 0.0000 0.0000 0.0000
# 3 38.8219 75.1745 90.1053 0.0000 0.0000 0.0000
# 4 0.0000 0.0000 0.0000 40.9664 0.0000 0.0000
# 5 0.0000 0.0000 0.0000 0.0000 22.7294 0.0000
# 6 0.0000 0.0000 0.0000 0.0000 0.0000 21.5395
#
#
#
# Elastic Compliance Matrix: (Units=1/GPa)
#
#
# Indices 1 2 3 4 5 6 
#
# 1 0.013461 -0.004012 -0.002453 0.000000 0.000000 0.000000
# 2 -0.004012 0.010922 -0.007384 0.000000 0.000000 0.000000
# 3 -0.002453 -0.007384 0.018315 0.000000 0.000000 0.000000
# 4 0.000000 0.000000 0.000000 0.024410 0.000000 0.000000
# 5 0.000000 0.000000 0.000000 0.000000 0.043996 0.000000
# 6 0.000000 0.000000 0.000000 0.000000 0.000000 0.046426
#
#
# Mechanical properties :
#
#
# Convention : Reuss Voigt Hill
#
# Bulk Modulus (GPa) = 66.65848 78.86961 72.76404
# Shear Modulus (GPa) = 26.28412 28.96393 27.62402
#
# Velocity S-wave (km/s) = 3.69295 3.87664 3.78591
# Velocity P-wave (km/s) = 7.26433 7.80771 7.54091
#
# Compressibility (1/GPa) = 0.01500184
#
# Stress axis : x y z
#
# Youngs Moduli (GPa) = 74.28758 91.55575 54.59902
#
# Poissons Ratio (x) = 0.36729 0.13392
# Poissons Ratio (y) = 0.29802 0.40316
# Poissons Ratio (z) = 0.18221 0.67605
#
# Static dielectric constant tensor:
#      x y z
#    x 3.669650 0.000000 0.000000 
#    y 0.000000 3.478530 0.000000 
#    z 0.000000 0.000000 3.443020 
# 
# 
# High freq. dielectric constant tensor:
#      x y z
#    x 1.761750 0.000000 0.000000 
#    y 0.000000 1.755910 0.000000 
#    z 0.000000 0.000000 1.750210 
# 
# From -- ./inp_files/11921.got.cif
#   From: 2010.03.12/outbox.cif.g09.slc.cpg/sg53_6_cif.got.tgz:11921.got - 2010.04.16 14:36:59.
