data_PCOD8220297
_publ_section_title
;
Structure prediction by ZEFSAII (Michael W. Deem and Ramdas Pophale) SiO2 
 PCOD8220297
Probable space group: P M N A
;
_chemical_formula_sum "Si O2"
_cell_formula_units_Z 48
_cell_length_a 8.716849
_cell_length_b 9.107632
_cell_length_c 30.960971
_cell_angle_alpha 90.000000
_cell_angle_beta 90.000000
_cell_angle_gamma 90.000000
_cell_volume 2457.986933
_symmetry_space_group_name_H-M "P M N A"
_symmetry_group_IT_number 53
_symmetry_cell_setting 'orthorhombic'
loop_
_space_group_symop_operation_xyz
x,y,z
1/2-x,-y,1/2+z
x,-y,-z
1/2-x,y,1/2-z
-x,-y,-z
1/2+x,y,1/2-z
-x,y,z
1/2+x,-y,1/2+z
loop_
_atom_site_type_symbol
_atom_site_label
_atom_site_fract_x
_atom_site_fract_y
_atom_site_fract_z
Si Si1 0.667271 0.084774 0.291335
Si Si2 0.183513 0.094045 0.114110
Si Si3 0.670999 0.432065 0.292730
Si Si4 0.178902 0.587744 0.042880
Si Si5 0.180231 0.591271 0.617886
Si Si6 0.177779 0.101391 0.540807
O O1 0.750000 0.013334 0.250000
O O2 0.500000 0.014259 0.290750
O O3 0.742289 0.048713 0.337785
O O4 0.659470 0.258813 0.286409
O O5 0.230715 0.261174 0.104350
O O6 0.000000 0.082507 0.109642
O O7 0.269884 0.983988 0.083105
O O8 0.750000 0.501438 0.250000
O O9 0.500000 0.498412 0.297861
O O10 0.769084 0.469588 0.335304
O O11 0.279498 0.531352 0.082787
O O12 0.218430 0.756396 0.034616
O O13 0.000000 0.570044 0.053879
O O14 0.224509 0.500000 0.000000
O O15 0.000000 0.623218 0.618352
O O16 0.000000 0.145361 0.544852
O O17 0.209088 0.000000 0.500000
#
# Coordination Sequence:
#
# PCOD8220297 Si02
#       6
#     8   8   8   8   8   8
#     4   8  15  26  44  72 105 140 178 221 264 310
#     4  10  20  35  55  81 113 148 187 228 273 327
#     4   9  16  28  47  75 110 146 186 229 274 324
#     4  11  24  41  61  83 109 144 184 226 276 335
#     4  11  21  34  55  83 115 149 186 231 281 329
#     4  11  24  40  59  84 112 142 179 225 277 332
#
# _framework density 19.528175999999998
#
# number of rings (size 3 to 8) (size 9 to 14) (size 15 to 20)
#    0.000    2.000    0.000    5.500    0.000   10.000 
#    0.000    0.000    0.000    1.000    0.000    4.667 
#    0.000    0.000    0.000    0.000    0.000    0.000 
#
# Total GULP energy -595161.351981 kJ/mol
# GULP energy per Si atom -12399.194833 kJ/mol
# Density = 1.948373 g / cm^3
# Si number density = 19.528176 Si / 1000 Ang^3
#
#
#
# Elastic Constant Matrix: (Units=GPa)
#
#
# Indices 1 2 3 4 5 6 
#
# 1 60.6863 6.3576 46.4142 0.0000 0.0000 0.0000
# 2 6.3576 57.0616 42.1226 0.0000 0.0000 0.0000
# 3 46.4142 42.1226 146.4003 0.0000 0.0000 0.0000
# 4 0.0000 0.0000 0.0000 23.8788 0.0000 0.0000
# 5 0.0000 0.0000 0.0000 0.0000 33.4756 0.0000
# 6 0.0000 0.0000 0.0000 0.0000 0.0000 26.3518
#
#
#
# Elastic Compliance Matrix: (Units=1/GPa)
#
#
# Indices 1 2 3 4 5 6 
#
# 1 0.022281 0.003469 -0.008062 0.000000 0.000000 0.000000
# 2 0.003469 0.022791 -0.007657 0.000000 0.000000 0.000000
# 3 -0.008062 -0.007657 0.011590 0.000000 0.000000 0.000000
# 4 0.000000 0.000000 0.000000 0.041878 0.000000 0.000000
# 5 0.000000 0.000000 0.000000 0.000000 0.029873 0.000000
# 6 0.000000 0.000000 0.000000 0.000000 0.000000 0.037948
#
#
# Mechanical properties :
#
#
# Convention : Reuss Voigt Hill
#
# Bulk Modulus (GPa) = 31.09385 50.43744 40.76565
# Shear Modulus (GPa) = 24.80397 28.02481 26.41439
#
# Velocity S-wave (km/s) = 3.56780 3.79238 3.68180
# Velocity P-wave (km/s) = 5.73841 6.71269 6.24458
#
# Compressibility (1/GPa) = 0.03216070
#
# Stress axis : x y z
#
# Youngs Moduli (GPa) = 44.88201 43.87712 86.28419
#
# Poissons Ratio (x) = -0.15220 0.69561
# Poissons Ratio (y) = -0.15568 0.66069
# Poissons Ratio (z) = 0.36183 0.33597
#
# Static dielectric constant tensor:
#      x y z
#    x 3.716980 0.000000 0.000000 
#    y 0.000000 3.157320 0.000000 
#    z 0.000000 0.000000 3.837640 
# 
# 
# High freq. dielectric constant tensor:
#      x y z
#    x 1.770740 0.000000 0.000000 
#    y 0.000000 1.714850 0.000000 
#    z 0.000000 0.000000 1.782160 
# 
# From -- ./inp_files/37676.got.cif
#   From: 2010.03.12/outbox.cif.g09.slc.cpg/sg53_19_cif.got.tgz:37676.got - 2010.04.16 14:36:59.
