data_PCOD8220305
_publ_section_title
;
Structure prediction by ZEFSAII (Michael W. Deem and Ramdas Pophale) SiO2 
 PCOD8220305
Probable space group: P M N A
;
_chemical_formula_sum "Si O2"
_cell_formula_units_Z 48
_cell_length_a 7.700611
_cell_length_b 15.954137
_cell_length_c 20.831397
_cell_angle_alpha 90.000000
_cell_angle_beta 90.000000
_cell_angle_gamma 90.000000
_cell_volume 2559.274669
_symmetry_space_group_name_H-M "P M N A"
_symmetry_group_IT_number 53
_symmetry_cell_setting 'orthorhombic'
loop_
_space_group_symop_operation_xyz
x,y,z
1/2-x,-y,1/2+z
x,-y,-z
1/2-x,y,1/2-z
-x,-y,-z
1/2+x,y,1/2-z
-x,y,z
1/2+x,-y,1/2+z
loop_
_atom_site_type_symbol
_atom_site_label
_atom_site_fract_x
_atom_site_fract_y
_atom_site_fract_z
Si Si1 0.307166 0.034476 0.678084
Si Si2 0.303814 0.942856 0.944907
Si Si3 0.000000 0.636446 0.969068
Si Si4 0.300107 0.208731 0.867406
Si Si5 0.296723 0.609379 0.178203
Si Si6 0.296589 0.234042 0.016404
Si Si7 0.000000 0.467502 0.901813
O O1 0.250000 0.012494 0.750000
O O2 0.500000 0.000759 0.668878
O O3 0.304409 0.133896 0.665912
O O4 0.196128 0.984743 0.625195
O O5 0.500000 0.931307 0.968657
O O6 0.230977 0.847965 0.944081
O O7 0.209635 0.000000 0.000000
O O8 0.824084 0.689995 0.960698
O O9 0.000000 0.566379 0.914394
O O10 0.000000 0.591019 0.036731
O O11 0.500000 0.188586 0.854957
O O12 0.242626 0.294504 0.833678
O O13 0.258458 0.214343 0.942266
O O14 0.250000 0.585002 0.250000
O O15 0.500000 0.594549 0.162050
O O16 0.178812 0.549875 0.135099
O O17 0.500000 0.257630 0.027587
#
# Coordination Sequence:
#
# PCOD8220305 Si02
#       7
#     8   8   4   8   8   8   4
#     4  12  25  36  54  83 121 165 204 248 294 355
#     4  10  20  37  60  85 119 157 201 250 296 347
#     4  11  24  40  63  86 128 154 201 249 296 375
#     4  10  20  35  55  85 125 159 191 234 296 358
#     4  11  22  37  61  90 123 159 196 240 297 369
#     4  10  21  37  61  89 121 159 201 253 297 349
#     4  11  24  40  60  94 122 161 190 248 310 353
#
# _framework density 18.755313000000001
#
# number of rings (size 3 to 8) (size 9 to 14) (size 15 to 20)
#    0.000    1.333    4.167    2.000    3.500    2.333 
#    0.000    1.667    0.000    1.000    0.000    0.000 
#    0.000    0.000    0.000    0.000    0.000    0.000 
#
# Total GULP energy -595162.821889 kJ/mol
# GULP energy per Si atom -12399.225456 kJ/mol
# Density = 1.871263 g / cm^3
# Si number density = 18.755313 Si / 1000 Ang^3
#
#
#
# Elastic Constant Matrix: (Units=GPa)
#
#
# Indices 1 2 3 4 5 6 
#
# 1 90.3500 48.9080 26.0298 0.0000 0.0000 0.0000
# 2 48.9080 130.7421 58.0096 0.0000 0.0000 0.0000
# 3 26.0298 58.0096 103.3442 0.0000 0.0000 0.0000
# 4 0.0000 0.0000 0.0000 12.5561 0.0000 0.0000
# 5 0.0000 0.0000 0.0000 0.0000 15.1680 0.0000
# 6 0.0000 0.0000 0.0000 0.0000 0.0000 6.6580
#
#
#
# Elastic Compliance Matrix: (Units=1/GPa)
#
#
# Indices 1 2 3 4 5 6 
#
# 1 0.013925 -0.004864 -0.000777 0.000000 0.000000 0.000000
# 2 -0.004864 0.011885 -0.005446 0.000000 0.000000 0.000000
# 3 -0.000777 -0.005446 0.012929 0.000000 0.000000 0.000000
# 4 0.000000 0.000000 0.000000 0.079643 0.000000 0.000000
# 5 0.000000 0.000000 0.000000 0.000000 0.065928 0.000000
# 6 0.000000 0.000000 0.000000 0.000000 0.000000 0.150194
#
#
# Mechanical properties :
#
#
# Convention : Reuss Voigt Hill
#
# Bulk Modulus (GPa) = 60.37067 65.59236 62.98152
# Shear Modulus (GPa) = 13.80453 19.64235 16.72344
#
# Velocity S-wave (km/s) = 2.71594 3.23970 2.98931
# Velocity P-wave (km/s) = 6.48795 7.00306 6.75042
#
# Compressibility (1/GPa) = 0.01656433
#
# Stress axis : x y z
#
# Youngs Moduli (GPa) = 71.81296 84.14218 77.34551
#
# Poissons Ratio (x) = 0.40930 0.06009
# Poissons Ratio (y) = 0.34933 0.42122
# Poissons Ratio (z) = 0.05579 0.45823
#
# Static dielectric constant tensor:
#      x y z
#    x 3.458930 0.000000 0.000000 
#    y 0.000000 3.419610 0.000000 
#    z 0.000000 0.000000 3.325450 
# 
# 
# High freq. dielectric constant tensor:
#      x y z
#    x 1.735500 0.000000 0.000000 
#    y 0.000000 1.714210 0.000000 
#    z 0.000000 0.000000 1.716480 
# 
# From -- ./inp_files/26339.got.cif
#   From: 2010.03.12/outbox.cif.g09.slc.cpg/sg53_14_cif.got.tgz:26339.got - 2010.04.16 14:36:59.
