data_PCOD8220288
_publ_section_title
;
Structure prediction by ZEFSAII (Michael W. Deem and Ramdas Pophale) SiO2 
 PCOD8220288
Probable space group: P M N A
;
_chemical_formula_sum "Si O2"
_cell_formula_units_Z 64
_cell_length_a 9.106705
_cell_length_b 21.543383
_cell_length_c 16.034242
_cell_angle_alpha 90.000000
_cell_angle_beta 90.000000
_cell_angle_gamma 90.000000
_cell_volume 3145.745651
_symmetry_space_group_name_H-M "P M N A"
_symmetry_group_IT_number 53
_symmetry_cell_setting 'orthorhombic'
loop_
_space_group_symop_operation_xyz
x,y,z
1/2-x,-y,1/2+z
x,-y,-z
1/2-x,y,1/2-z
-x,-y,-z
1/2+x,y,1/2-z
-x,y,z
1/2+x,-y,1/2+z
loop_
_atom_site_type_symbol
_atom_site_label
_atom_site_fract_x
_atom_site_fract_y
_atom_site_fract_z
Si Si1 0.331637 0.426728 0.994888
Si Si2 0.829827 0.127778 0.832202
Si Si3 0.334123 0.250349 0.572887
Si Si4 0.825330 0.999406 0.092810
Si Si5 0.169640 0.371327 0.835696
Si Si6 0.167892 0.760927 0.585333
Si Si7 0.331213 0.365585 0.165841
Si Si8 0.826058 0.129715 0.164853
O O1 0.500000 0.404427 0.982666
O O2 0.237018 0.405480 0.915821
O O3 0.320585 0.500000 0.000000
O O4 0.268853 0.399041 0.082429
O O5 0.750000 0.150328 0.750000
O O6 0.801189 0.179713 0.901357
O O7 0.763377 0.061736 0.861692
O O8 0.000000 0.120689 0.811863
O O9 0.500000 0.255983 0.537868
O O10 0.313849 0.297184 0.650432
O O11 0.218206 0.269586 0.501910
O O12 0.000000 0.996972 0.088880
O O13 0.771679 0.061092 0.139892
O O14 0.759733 0.000000 0.000000
O O15 0.250000 0.390407 0.750000
O O16 0.000000 0.391041 0.827422
O O17 0.187134 0.708820 0.656358
O O18 0.272735 0.820127 0.597974
O O19 0.000000 0.783165 0.579933
O O20 0.250000 0.387685 0.250000
O O21 0.500000 0.384478 0.177100
O O22 0.750000 0.149120 0.250000
O O23 0.000000 0.133023 0.173439
#
# Coordination Sequence:
#
# PCOD8220288 Si02
#       8
#     8   8   8   8   8   8   8   8
#     4  10  22  43  67  92 126 165 206 254 305 359
#     4  10  20  35  55  80 110 146 191 238 294 353
#     4  10  21  37  59  87 117 155 199 246 299 357
#     4   9  18  34  55  76 103 144 189 238 292 351
#     4  11  23  39  63  94 129 168 209 255 307 363
#     4  11  22  37  59  86 116 152 196 247 302 355
#     4  10  22  39  61  90 121 158 199 247 302 357
#     4  11  22  36  55  80 112 149 192 240 294 355
#
# _framework density 20.344939
#
# number of rings (size 3 to 8) (size 9 to 14) (size 15 to 20)
#    0.000    1.750    1.250    3.000    0.000    6.250 
#    0.000    1.875    0.000    2.625    0.000    0.000 
#    0.000    0.000    0.000    0.000    0.000    0.000 
#
# Total GULP energy -793682.461944 kJ/mol
# GULP energy per Si atom -12401.288468 kJ/mol
# Density = 2.029863 g / cm^3
# Si number density = 20.344939 Si / 1000 Ang^3
#
#
#
# Elastic Constant Matrix: (Units=GPa)
#
#
# Indices 1 2 3 4 5 6 
#
# 1 84.5393 35.8803 62.9982 0.0000 0.0000 0.0000
# 2 35.8803 84.4983 30.9644 0.0000 0.0000 0.0000
# 3 62.9982 30.9644 142.3527 0.0000 0.0000 0.0000
# 4 0.0000 0.0000 0.0000 21.9482 0.0000 0.0000
# 5 0.0000 0.0000 0.0000 0.0000 37.7260 0.0000
# 6 0.0000 0.0000 0.0000 0.0000 0.0000 12.0745
#
#
#
# Elastic Compliance Matrix: (Units=1/GPa)
#
#
# Indices 1 2 3 4 5 6 
#
# 1 0.019867 -0.005666 -0.007560 0.000000 0.000000 0.000000
# 2 -0.005666 0.014475 -0.000641 0.000000 0.000000 0.000000
# 3 -0.007560 -0.000641 0.010510 0.000000 0.000000 0.000000
# 4 0.000000 0.000000 0.000000 0.045562 0.000000 0.000000
# 5 0.000000 0.000000 0.000000 0.000000 0.026507 0.000000
# 6 0.000000 0.000000 0.000000 0.000000 0.000000 0.082819
#
#
# Mechanical properties :
#
#
# Convention : Reuss Voigt Hill
#
# Bulk Modulus (GPa) = 58.41582 63.45289 60.93435
# Shear Modulus (GPa) = 21.44269 26.45290 23.94779
#
# Velocity S-wave (km/s) = 3.24999 3.60977 3.43459
# Velocity P-wave (km/s) = 6.54663 6.97353 6.76345
#
# Compressibility (1/GPa) = 0.01711865
#
# Stress axis : x y z
#
# Youngs Moduli (GPa) = 50.33486 69.08268 95.14891
#
# Poissons Ratio (x) = 0.39141 0.71930
# Poissons Ratio (y) = 0.28519 0.06102
# Poissons Ratio (z) = 0.38052 0.04430
#
# Static dielectric constant tensor:
#      x y z
#    x 3.505190 0.000000 0.000000 
#    y 0.000000 3.737950 0.000000 
#    z 0.000000 0.000000 3.647540 
# 
# 
# High freq. dielectric constant tensor:
#      x y z
#    x 1.777590 0.000000 0.000000 
#    y 0.000000 1.801560 0.000000 
#    z 0.000000 0.000000 1.799230 
# 
# From -- ./inp_files/20922.got.cif
#   From: 2010.03.12/outbox.cif.g09.slc.cpg/sg53_11_cif.got.tgz:20922.got - 2010.04.16 14:36:59.
