data_PCOD8220775
_publ_section_title
;
Structure prediction by ZEFSAII (Michael W. Deem and Ramdas Pophale) SiO2 
 PCOD8220775
Probable space group: P M N A
;
_chemical_formula_sum "Si O2"
_cell_formula_units_Z 64
_cell_length_a 9.411652
_cell_length_b 12.288973
_cell_length_c 28.630875
_cell_angle_alpha 90.000000
_cell_angle_beta 90.000000
_cell_angle_gamma 90.000000
_cell_volume 3311.433755
_symmetry_space_group_name_H-M "P M N A"
_symmetry_group_IT_number 53
_symmetry_cell_setting 'orthorhombic'
loop_
_space_group_symop_operation_xyz
x,y,z
1/2-x,-y,1/2+z
x,-y,-z
1/2-x,y,1/2-z
-x,-y,-z
1/2+x,y,1/2-z
-x,y,z
1/2+x,-y,1/2+z
loop_
_atom_site_type_symbol
_atom_site_label
_atom_site_fract_x
_atom_site_fract_y
_atom_site_fract_z
Si Si1 0.827018 0.764123 0.299491
Si Si2 0.665911 0.607230 0.368266
Si Si3 0.160451 0.884108 0.516072
Si Si4 0.841705 0.919656 0.139961
Si Si5 0.159059 0.366997 0.152766
Si Si6 0.339011 0.769233 0.445547
Si Si7 0.254245 0.150061 0.119389
Si Si8 0.654966 0.232084 0.210330
O O1 0.750000 0.751533 0.250000
O O2 0.769784 0.664815 0.331189
O O3 0.774200 0.878477 0.322254
O O4 0.000000 0.762312 0.295800
O O5 0.500000 0.627764 0.354620
O O6 0.704265 0.479745 0.371519
O O7 0.694901 0.654924 0.420016
O O8 0.243928 0.785494 0.491483
O O9 0.162843 0.869982 0.571676
O O10 0.000000 0.877717 0.498223
O O11 0.226894 0.000000 0.500000
O O12 0.804384 0.865529 0.090581
O O13 0.000000 0.883504 0.156315
O O14 0.845735 0.048654 0.131842
O O15 0.167813 0.264722 0.116473
O O16 0.263117 0.344433 0.196764
O O17 0.000000 0.377014 0.172175
O O18 0.500000 0.773494 0.463119
O O19 0.361049 0.158237 0.163800
O O20 0.750000 0.172325 0.250000
O O21 0.500000 0.257451 0.230821
#
# Coordination Sequence:
#
# PCOD8220775 Si02
#       8
#     8   8   8   8   8   8   8   8
#     4  11  23  38  59  87 117 154 199 248 303 361
#     4   9  19  40  63  87 120 157 199 250 298 354
#     4  11  22  37  58  87 121 157 199 246 298 357
#     4  10  20  37  59  84 118 154 193 244 298 356
#     4   9  20  38  63  88 117 156 199 242 294 352
#     4   9  19  35  57  86 117 152 192 240 295 348
#     4  10  22  38  62  87 122 156 200 244 301 353
#     4  10  22  38  58  82 116 154 197 241 293 349
#
# _framework density 19.326975000000001
#
# number of rings (size 3 to 8) (size 9 to 14) (size 15 to 20)
#    0.750    1.375    1.250    3.000    0.000    5.750 
#    0.000    0.625    0.000    3.000    0.000    0.000 
#    0.000    0.000    0.000    0.000    0.000    0.000 
#
# Total GULP energy -792900.748139 kJ/mol
# GULP energy per Si atom -12389.074190 kJ/mol
# Density = 1.928299 g / cm^3
# Si number density = 19.326975 Si / 1000 Ang^3
#
#
#
# Elastic Constant Matrix: (Units=GPa)
#
#
# Indices 1 2 3 4 5 6 
#
# 1 116.8681 28.2260 45.8031 0.0000 0.0000 0.0000
# 2 28.2260 126.5779 35.9689 0.0000 0.0000 0.0000
# 3 45.8031 35.9689 105.2402 0.0000 0.0000 0.0000
# 4 0.0000 0.0000 0.0000 20.4430 0.0000 0.0000
# 5 0.0000 0.0000 0.0000 0.0000 28.8680 0.0000
# 6 0.0000 0.0000 0.0000 0.0000 0.0000 12.7898
#
#
#
# Elastic Compliance Matrix: (Units=1/GPa)
#
#
# Indices 1 2 3 4 5 6 
#
# 1 0.010466 -0.001151 -0.004161 0.000000 0.000000 0.000000
# 2 -0.001151 0.008877 -0.002533 0.000000 0.000000 0.000000
# 3 -0.004161 -0.002533 0.012179 0.000000 0.000000 0.000000
# 4 0.000000 0.000000 0.000000 0.048916 0.000000 0.000000
# 5 0.000000 0.000000 0.000000 0.000000 0.034640 0.000000
# 6 0.000000 0.000000 0.000000 0.000000 0.000000 0.078188
#
#
# Mechanical properties :
#
#
# Convention : Reuss Voigt Hill
#
# Bulk Modulus (GPa) = 63.17013 63.18691 63.17852
# Shear Modulus (GPa) = 23.33902 28.33271 25.83586
#
# Velocity S-wave (km/s) = 3.47881 3.83295 3.66016
# Velocity P-wave (km/s) = 6.99228 7.23556 7.11496
#
# Compressibility (1/GPa) = 0.01583027
#
# Stress axis : x y z
#
# Youngs Moduli (GPa) = 95.55055 112.65411 82.10919
#
# Poissons Ratio (x) = 0.12969 0.34169
# Poissons Ratio (y) = 0.11000 0.20797
# Poissons Ratio (z) = 0.39763 0.28533
#
# Static dielectric constant tensor:
#      x y z
#    x 3.398230 0.000000 0.000000 
#    y 0.000000 3.504050 0.000000 
#    z 0.000000 0.000000 3.374960 
# 
# 
# High freq. dielectric constant tensor:
#      x y z
#    x 1.749210 0.000000 0.000000 
#    y 0.000000 1.740140 0.000000 
#    z 0.000000 0.000000 1.741030 
# 
# From -- ./inp_files/38422.got.cif
#   From: 2010.03.12/outbox.cif.g09.slc.cpg/sg53_20_cif.got.tgz:38422.got - 2010.04.16 14:36:59.
