data_PCOD8220737
_publ_section_title
;
Structure prediction by ZEFSAII (Michael W. Deem and Ramdas Pophale) SiO2 
 PCOD8220737
Probable space group: P M N A
;
_chemical_formula_sum "Si O2"
_cell_formula_units_Z 64
_cell_length_a 19.666817
_cell_length_b 18.225976
_cell_length_c 9.662681
_cell_angle_alpha 90.000000
_cell_angle_beta 90.000000
_cell_angle_gamma 90.000000
_cell_volume 3463.558385
_symmetry_space_group_name_H-M "P M N A"
_symmetry_group_IT_number 53
_symmetry_cell_setting 'orthorhombic'
loop_
_space_group_symop_operation_xyz
x,y,z
1/2-x,-y,1/2+z
x,-y,-z
1/2-x,y,1/2-z
-x,-y,-z
1/2+x,y,1/2-z
-x,y,z
1/2+x,-y,1/2+z
loop_
_atom_site_type_symbol
_atom_site_label
_atom_site_fract_x
_atom_site_fract_y
_atom_site_fract_z
Si Si1 0.669534 0.571101 0.411236
Si Si2 0.814959 0.091101 0.340297
Si Si3 0.685538 0.079000 0.839917
Si Si4 0.576065 0.807600 0.215679
Si Si5 0.424148 0.695226 0.983629
Si Si6 0.672667 0.429630 0.908873
Si Si7 0.578174 0.207296 0.263304
Si Si8 0.920605 0.292115 0.966234
O O1 0.651202 0.500000 0.500000
O O2 0.748625 0.591554 0.425847
O O3 0.652275 0.555676 0.250354
O O4 0.624819 0.635452 0.477411
O O5 0.750000 0.114325 0.250000
O O6 0.800052 0.103568 0.502492
O O7 0.877700 0.138622 0.286215
O O8 0.832593 0.005961 0.319987
O O9 0.750000 0.102015 0.750000
O O10 0.621819 0.120887 0.775812
O O11 0.500000 0.833949 0.250495
O O12 0.599391 0.745292 0.322330
O O13 0.581621 0.771627 0.065467
O O14 0.500000 0.661506 0.001674
O O15 0.409613 0.719083 0.826653
O O16 0.369221 0.637797 0.032548
O O17 0.653708 0.500000 0.000000
O O18 0.500000 0.181545 0.253711
O O19 0.598137 0.232590 0.417001
O O20 0.000000 0.314629 0.973792
#
# Coordination Sequence:
#
# PCOD8220737 Si02
#       8
#     8   8   8   8   8   8   8   8
#     4  10  22  39  57  80 113 149 184 226 278 337
#     4  10  22  39  57  84 117 151 189 233 283 338
#     4  10  22  38  59  84 115 151 190 234 282 338
#     4  10  20  37  60  85 111 146 191 236 280 333
#     4  10  20  37  58  81 111 143 185 234 278 328
#     4  10  22  38  57  83 112 144 186 233 277 329
#     4  10  22  39  58  84 116 149 188 237 284 333
#     4  10  22  39  58  83 115 148 186 231 282 339
#
# _framework density 18.478106
#
# number of rings (size 3 to 8) (size 9 to 14) (size 15 to 20)
#    0.000    2.000    2.500    0.000    3.500    3.000 
#    0.000    1.250    0.000    2.250    0.000    0.000 
#    0.000    0.000    0.000    0.000    0.000    0.000 
#
# Total GULP energy -793703.450653 kJ/mol
# GULP energy per Si atom -12401.616416 kJ/mol
# Density = 1.843605 g / cm^3
# Si number density = 18.478106 Si / 1000 Ang^3
#
#
#
# Elastic Constant Matrix: (Units=GPa)
#
#
# Indices 1 2 3 4 5 6 
#
# 1 101.6866 73.7287 45.9322 0.0000 0.0000 0.0000
# 2 73.7287 92.4368 36.1592 0.0000 0.0000 0.0000
# 3 45.9322 36.1592 75.2396 0.0000 0.0000 0.0000
# 4 0.0000 0.0000 0.0000 25.9280 0.0000 0.0000
# 5 0.0000 0.0000 0.0000 0.0000 27.8216 0.0000
# 6 0.0000 0.0000 0.0000 0.0000 0.0000 -817.8705
#
#
#
# Elastic Compliance Matrix: (Units=1/GPa)
#
#
# Indices 1 2 3 4 5 6 
#
# 1 0.026248 -0.018063 -0.007343 0.000000 0.000000 0.000000
# 2 -0.018063 0.025754 -0.001350 0.000000 0.000000 0.000000
# 3 -0.007343 -0.001350 0.018422 0.000000 0.000000 0.000000
# 4 0.000000 0.000000 0.000000 0.038568 0.000000 0.000000
# 5 0.000000 0.000000 0.000000 0.000000 0.035943 0.000000
# 6 0.000000 0.000000 0.000000 0.000000 0.000000 -0.001223
#
#
# Mechanical properties :
#
#
# Convention : Reuss Voigt Hill
#
# Bulk Modulus (GPa) = 59.12880 64.55592 61.84236
# Shear Modulus (GPa) = 24.64740 -145.25465 -60.30363
#
# Velocity S-wave (km/s) = 3.65618 -8.87579 -5.71892
# Velocity P-wave (km/s) = 7.06346 8.36823 3.17293
#
# Compressibility (1/GPa) = 0.01691223
#
# Stress axis : x y z
#
# Youngs Moduli (GPa) = 38.09842 38.82949 54.28265
#
# Poissons Ratio (x) = 0.70139 0.39859
# Poissons Ratio (y) = 0.68818 0.07326
# Poissons Ratio (z) = 0.27975 0.05240
#
# Static dielectric constant tensor:
#      x y z
#    x 3.384120 0.000000 0.000000 
#    y 0.000000 3.181960 0.000000 
#    z 0.000000 0.000000 3.680980 
# 
# 
# High freq. dielectric constant tensor:
#      x y z
#    x 1.716650 0.000000 0.000000 
#    y 0.000000 1.708080 0.000000 
#    z 0.000000 0.000000 1.733840 
# 
# From -- ./inp_files/11213.got.cif
#   From: 2010.03.12/outbox.cif.g09.slc.cpg/sg53_6_cif.got.tgz:11213.got - 2010.04.16 14:36:59.
