data_PCOD8220633
_publ_section_title
;
Structure prediction by ZEFSAII (Michael W. Deem and Ramdas Pophale) SiO2 
 PCOD8220633
Probable space group: P M N A
;
_chemical_formula_sum "Si O2"
_cell_formula_units_Z 40
_cell_length_a 9.057556
_cell_length_b 7.432010
_cell_length_c 29.492840
_cell_angle_alpha 90.000000
_cell_angle_beta 90.000000
_cell_angle_gamma 90.000000
_cell_volume 1985.335498
_symmetry_space_group_name_H-M "P M N A"
_symmetry_group_IT_number 53
_symmetry_cell_setting 'orthorhombic'
loop_
_space_group_symop_operation_xyz
x,y,z
1/2-x,-y,1/2+z
x,-y,-z
1/2-x,y,1/2-z
-x,-y,-z
1/2+x,y,1/2-z
-x,y,z
1/2+x,-y,1/2+z
loop_
_atom_site_type_symbol
_atom_site_label
_atom_site_fract_x
_atom_site_fract_y
_atom_site_fract_z
Si Si1 0.175961 0.820344 0.891166
Si Si2 0.171705 0.807372 0.384080
Si Si3 0.161545 0.205596 0.208010
Si Si4 0.669198 0.474502 0.051946
Si Si5 0.165211 0.220393 0.793278
O O1 0.229415 0.748437 0.841473
O O2 0.224499 0.678496 0.928604
O O3 0.000000 0.847881 0.891372
O O4 0.251014 0.011242 0.901526
O O5 0.195492 0.662878 0.423368
O O6 0.245893 0.729334 0.338576
O O7 0.000000 0.845739 0.374314
O O8 0.250000 0.291618 0.250000
O O9 0.000000 0.290914 0.211591
O O10 0.155359 0.992185 0.212534
O O11 0.500000 0.410556 0.057224
O O12 0.713329 0.500000 0.000000
O O13 0.250000 0.304525 0.750000
O O14 0.000000 0.302027 0.796290
#
# Coordination Sequence:
#
# PCOD8220633 Si02
#       5
#     8   8   8   8   8
#     4  10  21  37  58  85 116 149 186 231 283 338
#     4  10  20  36  59  84 113 150 189 231 281 335
#     4   8  15  27  46  75 108 142 178 216 261 315
#     4  10  23  42  61  82 109 144 189 239 289 342
#     4   9  16  28  49  79 114 149 187 227 270 326
#
# _framework density 20.147725999999999
#
# number of rings (size 3 to 8) (size 9 to 14) (size 15 to 20)
#    0.000    2.600    0.000    3.000    0.000    8.400 
#    0.000    5.000    0.000    2.400    0.000    0.000 
#    0.000    0.000    0.000    0.000    0.000    0.000 
#
# Total GULP energy -495929.703342 kJ/mol
# GULP energy per Si atom -12398.242584 kJ/mol
# Density = 2.010187 g / cm^3
# Si number density = 20.147726 Si / 1000 Ang^3
#
#
#
# Elastic Constant Matrix: (Units=GPa)
#
#
# Indices 1 2 3 4 5 6 
#
# 1 130.0472 46.4954 75.5182 0.0000 0.0000 0.0000
# 2 46.4954 71.2042 55.0355 0.0000 0.0000 0.0000
# 3 75.5182 55.0355 168.4909 0.0000 0.0000 0.0000
# 4 0.0000 0.0000 0.0000 65.1356 0.0000 0.0000
# 5 0.0000 0.0000 0.0000 0.0000 34.0374 0.0000
# 6 0.0000 0.0000 0.0000 0.0000 0.0000 -8.1495
#
#
#
# Elastic Compliance Matrix: (Units=1/GPa)
#
#
# Indices 1 2 3 4 5 6 
#
# 1 0.011462 -0.004700 -0.003602 0.000000 0.000000 0.000000
# 2 -0.004700 0.020715 -0.004660 0.000000 0.000000 0.000000
# 3 -0.003602 -0.004660 0.009071 0.000000 0.000000 0.000000
# 4 0.000000 0.000000 0.000000 0.015353 0.000000 0.000000
# 5 0.000000 0.000000 0.000000 0.000000 0.029379 0.000000
# 6 0.000000 0.000000 0.000000 0.000000 0.000000 -0.122706
#
#
# Mechanical properties :
#
#
# Convention : Reuss Voigt Hill
#
# Bulk Modulus (GPa) = 65.25535 80.42673 72.84104
# Shear Modulus (GPa) = -877.96847 31.05089 -423.45879
#
# Velocity S-wave (km/s) = -20.89764 3.93002 -14.51321
# Velocity P-wave (km/s) = 23.44831 7.78451 15.64009
#
# Compressibility (1/GPa) = 0.01532441
#
# Stress axis : x y z
#
# Youngs Moduli (GPa) = 87.24804 48.27457 110.23688
#
# Poissons Ratio (x) = 0.22691 0.39705
# Poissons Ratio (y) = 0.41009 0.51365
# Poissons Ratio (z) = 0.31425 0.22494
#
# Static dielectric constant tensor:
#      x y z
#    x 3.844590 0.000000 0.000000 
#    y 0.000000 3.282380 0.000000 
#    z 0.000000 0.000000 3.785440 
# 
# 
# High freq. dielectric constant tensor:
#      x y z
#    x 1.791560 0.000000 0.000000 
#    y 0.000000 1.768120 0.000000 
#    z 0.000000 0.000000 1.789590 
# 
# From -- ./inp_files/33608.got.cif
#   From: 2010.03.12/outbox.cif.g09.slc.cpg/sg53_17_cif.got.tgz:33608.got - 2010.04.16 14:36:59.
