data_PCOD8220289
_publ_section_title
;
Structure prediction by ZEFSAII (Michael W. Deem and Ramdas Pophale) SiO2 
 PCOD8220289
Probable space group: P M N A
;
_chemical_formula_sum "Si O2"
_cell_formula_units_Z 64
_cell_length_a 8.682061
_cell_length_b 17.779021
_cell_length_c 20.235520
_cell_angle_alpha 90.000000
_cell_angle_beta 90.000000
_cell_angle_gamma 90.000000
_cell_volume 3123.525421
_symmetry_space_group_name_H-M "P M N A"
_symmetry_group_IT_number 53
_symmetry_cell_setting 'orthorhombic'
loop_
_space_group_symop_operation_xyz
x,y,z
1/2-x,-y,1/2+z
x,-y,-z
1/2-x,y,1/2-z
-x,-y,-z
1/2+x,y,1/2-z
-x,y,z
1/2+x,-y,1/2+z
loop_
_atom_site_type_symbol
_atom_site_label
_atom_site_fract_x
_atom_site_fract_y
_atom_site_fract_z
Si Si1 0.166638 0.890895 0.310072
Si Si2 0.180672 0.331647 0.935835
Si Si3 0.818974 0.511374 0.425120
Si Si4 0.167967 0.279115 0.687386
Si Si5 0.680796 0.099887 0.060612
Si Si6 0.822538 0.050881 0.926319
Si Si7 0.819038 0.738562 0.925108
Si Si8 0.318565 0.390970 0.324215
O O1 0.250000 0.934377 0.250000
O O2 0.136495 0.805549 0.290201
O O3 0.290655 0.892042 0.368228
O O4 0.000000 0.928672 0.326819
O O5 0.273798 0.403734 0.909531
O O6 0.224458 0.274030 0.877867
O O7 0.000000 0.348536 0.938833
O O8 0.239380 0.301733 0.007187
O O9 0.756234 0.500000 0.500000
O O10 0.741148 0.458166 0.370576
O O11 0.000000 0.497123 0.421289
O O12 0.250000 0.320825 0.750000
O O13 0.000000 0.317169 0.673671
O O14 0.500000 0.095627 0.073119
O O15 0.737954 0.181339 0.084629
O O16 0.767555 0.031959 0.098699
O O17 0.719414 0.084054 0.984706
O O18 0.000000 0.050348 0.948008
O O19 0.776626 0.686974 0.861862
O O20 0.000000 0.752635 0.930970
O O21 0.250000 0.391971 0.250000
O O22 0.500000 0.400288 0.317243
#
# Coordination Sequence:
#
# PCOD8220289 Si02
#       8
#     8   8   8   8   8   8   8   8
#     4  10  20  35  55  80 111 150 193 238 289 349
#     4  11  22  37  61  89 120 157 197 243 295 355
#     4  11  23  40  64  93 123 156 199 248 297 355
#     4  10  21  36  54  81 118 157 197 243 296 354
#     4  11  22  36  58  86 117 151 194 248 300 355
#     4  11  21  36  57  82 116 154 196 245 299 357
#     4  10  22  40  62  89 121 158 199 243 301 365
#     4  11  24  44  68  94 126 163 204 250 304 363
#
# _framework density 20.489667000000001
#
# number of rings (size 3 to 8) (size 9 to 14) (size 15 to 20)
#    0.000    1.375    1.250    5.625    0.000    6.500 
#    0.000    3.125    0.000    1.500    0.000    0.000 
#    0.000    0.000    0.000    0.000    0.000    0.000 
#
# Total GULP energy -793091.132926 kJ/mol
# GULP energy per Si atom -12392.048952 kJ/mol
# Density = 2.044303 g / cm^3
# Si number density = 20.489667 Si / 1000 Ang^3
#
#
#
# Elastic Constant Matrix: (Units=GPa)
#
#
# Indices 1 2 3 4 5 6 
#
# 1 85.0704 24.1733 40.4584 0.0000 0.0000 0.0000
# 2 24.1733 84.7287 25.6585 0.0000 0.0000 0.0000
# 3 40.4584 25.6585 130.1113 0.0000 0.0000 0.0000
# 4 0.0000 0.0000 0.0000 24.5236 0.0000 0.0000
# 5 0.0000 0.0000 0.0000 0.0000 31.8752 0.0000
# 6 0.0000 0.0000 0.0000 0.0000 0.0000 30.2705
#
#
#
# Elastic Compliance Matrix: (Units=1/GPa)
#
#
# Indices 1 2 3 4 5 6 
#
# 1 0.014451 -0.002938 -0.003914 0.000000 0.000000 0.000000
# 2 -0.002938 0.013149 -0.001680 0.000000 0.000000 0.000000
# 3 -0.003914 -0.001680 0.009234 0.000000 0.000000 0.000000
# 4 0.000000 0.000000 0.000000 0.040777 0.000000 0.000000
# 5 0.000000 0.000000 0.000000 0.000000 0.031372 0.000000
# 6 0.000000 0.000000 0.000000 0.000000 0.000000 0.033036
#
#
# Mechanical properties :
#
#
# Convention : Reuss Voigt Hill
#
# Bulk Modulus (GPa) = 50.57803 53.38786 51.98295
# Shear Modulus (GPa) = 30.17990 31.30852 30.74421
#
# Velocity S-wave (km/s) = 3.84204 3.91322 3.87780
# Velocity P-wave (km/s) = 6.66483 6.82131 6.74353
#
# Compressibility (1/GPa) = 0.01977143
#
# Stress axis : x y z
#
# Youngs Moduli (GPa) = 69.19770 76.05070 108.29384
#
# Poissons Ratio (x) = 0.22341 0.42390
# Poissons Ratio (y) = 0.20328 0.18189
# Poissons Ratio (z) = 0.27087 0.12773
#
# Static dielectric constant tensor:
#      x y z
#    x 3.955810 0.000000 0.000000 
#    y 0.000000 3.747030 0.000000 
#    z 0.000000 0.000000 3.745430 
# 
# 
# High freq. dielectric constant tensor:
#      x y z
#    x 1.814910 0.000000 0.000000 
#    y 0.000000 1.790370 0.000000 
#    z 0.000000 0.000000 1.796660 
# 
# From -- ./inp_files/31259.got.cif
#   From: 2010.03.12/outbox.cif.g09.slc.cpg/sg53_16_cif.got.tgz:31259.got - 2010.04.16 14:36:59.
