data_PCOD8220684
_publ_section_title
;
Structure prediction by ZEFSAII (Michael W. Deem and Ramdas Pophale) SiO2 
 PCOD8220684
Probable space group: P M N A
;
_chemical_formula_sum "Si O2"
_cell_formula_units_Z 64
_cell_length_a 8.801774
_cell_length_b 23.640176
_cell_length_c 15.376329
_cell_angle_alpha 90.000000
_cell_angle_beta 90.000000
_cell_angle_gamma 90.000000
_cell_volume 3199.437137
_symmetry_space_group_name_H-M "P M N A"
_symmetry_group_IT_number 53
_symmetry_cell_setting 'orthorhombic'
loop_
_space_group_symop_operation_xyz
x,y,z
1/2-x,-y,1/2+z
x,-y,-z
1/2-x,y,1/2-z
-x,-y,-z
1/2+x,y,1/2-z
-x,y,z
1/2+x,-y,1/2+z
loop_
_atom_site_type_symbol
_atom_site_label
_atom_site_fract_x
_atom_site_fract_y
_atom_site_fract_z
Si Si1 0.826137 0.754908 0.412876
Si Si2 0.679168 0.634892 0.658241
Si Si3 0.678398 0.757797 0.595651
Si Si4 0.321954 0.635453 0.159894
Si Si5 0.175173 0.875656 0.339954
Si Si6 0.320646 0.130764 0.161419
Si Si7 0.175688 0.066406 0.003314
Si Si8 0.322585 0.434180 0.006039
O O1 0.717376 0.763852 0.494554
O O2 0.772547 0.699782 0.360234
O O3 0.809379 0.808222 0.349720
O O4 0.000000 0.748030 0.445798
O O5 0.750000 0.617726 0.750000
O O6 0.500000 0.632325 0.666024
O O7 0.734470 0.697267 0.630486
O O8 0.732370 0.589939 0.587488
O O9 0.500000 0.766765 0.608465
O O10 0.766383 0.804938 0.649943
O O11 0.250000 0.614901 0.250000
O O12 0.500000 0.629667 0.170716
O O13 0.263223 0.595513 0.082070
O O14 0.250000 0.894602 0.250000
O O15 0.265604 0.907179 0.414694
O O16 0.000000 0.894655 0.342151
O O17 0.250000 0.105905 0.250000
O O18 0.500000 0.129641 0.167929
O O19 0.270117 0.091490 0.082578
O O20 0.000000 0.082362 0.016129
O O21 0.202409 0.000000 0.000000
O O22 0.500000 0.421768 0.020039
O O23 0.286432 0.500000 0.000000
#
# Coordination Sequence:
#
# PCOD8220684 Si02
#       8
#     8   8   8   8   8   8   8   8
#     4  10  20  36  60  90 122 161 199 246 307 366
#     4  11  24  40  62  92 123 162 204 251 308 367
#     4  11  22  37  62  94 126 162 202 249 309 371
#     4  10  21  37  59  87 121 158 199 248 301 363
#     4  11  23  39  63  94 126 164 206 250 307 368
#     4  12  25  42  66  95 128 165 206 253 309 371
#     4  11  25  45  67  92 124 163 209 260 310 362
#     4  10  22  41  63  87 119 161 207 256 310 362
#
# _framework density 20.003519000000001
#
# number of rings (size 3 to 8) (size 9 to 14) (size 15 to 20)
#    0.000    1.250    2.500    3.375    0.000    6.250 
#    0.000    1.250    0.000    0.000    0.000    0.000 
#    0.000    0.000    0.000    0.000    0.000    0.000 
#
# Total GULP energy -794020.324570 kJ/mol
# GULP energy per Si atom -12406.567571 kJ/mol
# Density = 1.995799 g / cm^3
# Si number density = 20.003519 Si / 1000 Ang^3
#
#
#
# Elastic Constant Matrix: (Units=GPa)
#
#
# Indices 1 2 3 4 5 6 
#
# 1 98.1512 44.4098 47.0159 0.0000 0.0000 0.0000
# 2 44.4098 100.6311 42.4570 0.0000 0.0000 0.0000
# 3 47.0159 42.4570 152.6281 0.0000 0.0000 0.0000
# 4 0.0000 0.0000 0.0000 -3.2149 0.0000 0.0000
# 5 0.0000 0.0000 0.0000 0.0000 38.6655 0.0000
# 6 0.0000 0.0000 0.0000 0.0000 0.0000 36.6925
#
#
#
# Elastic Compliance Matrix: (Units=1/GPa)
#
#
# Indices 1 2 3 4 5 6 
#
# 1 0.013771 -0.004858 -0.002891 0.000000 0.000000 0.000000
# 2 -0.004858 0.012972 -0.002112 0.000000 0.000000 0.000000
# 3 -0.002891 -0.002112 0.008030 0.000000 0.000000 0.000000
# 4 0.000000 0.000000 0.000000 -0.311055 0.000000 0.000000
# 5 0.000000 0.000000 0.000000 0.000000 0.025863 0.000000
# 6 0.000000 0.000000 0.000000 0.000000 0.000000 0.027254
#
#
# Mechanical properties :
#
#
# Convention : Reuss Voigt Hill
#
# Bulk Modulus (GPa) = 66.43686 68.79731 67.61709
# Shear Modulus (GPa) = -25.19811 28.93048 1.86618
#
# Velocity S-wave (km/s) = -3.55305 3.80711 0.96693
# Velocity P-wave (km/s) = 4.05616 7.33435 5.92643
#
# Compressibility (1/GPa) = 0.01505188
#
# Stress axis : x y z
#
# Youngs Moduli (GPa) = 72.61630 77.08816 124.53457
#
# Poissons Ratio (x) = 0.37447 0.36000
# Poissons Ratio (y) = 0.35275 0.26303
# Poissons Ratio (z) = 0.20992 0.16282
#
# Static dielectric constant tensor:
#      x y z
#    x 3.640760 0.000000 0.000000 
#    y 0.000000 3.734970 0.000000 
#    z 0.000000 0.000000 3.557920 
# 
# 
# High freq. dielectric constant tensor:
#      x y z
#    x 1.784520 0.000000 0.000000 
#    y 0.000000 1.781050 0.000000 
#    z 0.000000 0.000000 1.793000 
# 
# From -- ./inp_files/20805.got.cif
#   From: 2010.03.12/outbox.cif.g09.slc.cpg/sg53_11_cif.got.tgz:20805.got - 2010.04.16 14:36:59.
