data_PCOD8220955
_publ_section_title
;
Structure prediction by ZEFSAII (Michael W. Deem and Ramdas Pophale) SiO2 
 PCOD8220955
Probable space group: P M N A
;
_chemical_formula_sum "Si O2"
_cell_formula_units_Z 56
_cell_length_a 13.707757
_cell_length_b 12.703063
_cell_length_c 14.904856
_cell_angle_alpha 90.000000
_cell_angle_beta 90.000000
_cell_angle_gamma 90.000000
_cell_volume 2595.390039
_symmetry_space_group_name_H-M "P M N A"
_symmetry_group_IT_number 53
_symmetry_cell_setting 'orthorhombic'
loop_
_space_group_symop_operation_xyz
x,y,z
1/2-x,-y,1/2+z
x,-y,-z
1/2-x,y,1/2-z
-x,-y,-z
1/2+x,y,1/2-z
-x,y,z
1/2+x,-y,1/2+z
loop_
_atom_site_type_symbol
_atom_site_label
_atom_site_fract_x
_atom_site_fract_y
_atom_site_fract_z
Si Si1 0.733388 0.162607 0.147574
Si Si2 0.887006 0.217869 0.006596
Si Si3 0.235068 0.229391 0.643820
Si Si4 0.388808 0.651381 0.815821
Si Si5 0.391329 0.968735 0.102317
Si Si6 0.793880 0.463915 0.597911
Si Si7 0.108150 0.587198 0.876964
O O1 0.750000 0.186403 0.250000
O O2 0.826306 0.150240 0.081148
O O3 0.671356 0.267505 0.120596
O O4 0.672317 0.055836 0.151575
O O5 0.882196 0.340196 0.034905
O O6 0.000000 0.178319 0.002940
O O7 0.836723 0.206712 0.909009
O O8 0.250000 0.222200 0.750000
O O9 0.155906 0.145218 0.612880
O O10 0.189623 0.341427 0.616302
O O11 0.500000 0.673709 0.839613
O O12 0.360862 0.530573 0.834796
O O13 0.369599 0.663362 0.708385
O O14 0.500000 0.966240 0.144255
O O15 0.396574 0.000000 0.000000
O O16 0.827491 0.500000 0.500000
O O17 0.680353 0.489533 0.615513
O O18 0.000000 0.538666 0.868877
#
# Coordination Sequence:
#
# PCOD8220955 Si02
#       7
#     8   8   8   8   8   8   8
#     4  12  21  42  73 104 140 174 228 294 361 426
#     4  11  23  42  69 105 140 174 223 287 355 419
#     4  12  26  47  70  98 144 191 242 290 354 431
#     4  11  22  37  63 100 135 174 225 284 349 413
#     4  11  26  47  71  96 132 188 242 291 352 423
#     4  12  23  41  64  96 137 182 229 289 349 419
#     4  10  20  38  64  99 136 172 217 273 344 418
#
# _framework density 21.576718
#
# number of rings (size 3 to 8) (size 9 to 14) (size 15 to 20)
#    0.000    0.714    5.714    2.143    0.000    2.857 
#    0.000    1.429    0.000    0.000    0.000    0.000 
#    0.000    0.000    0.000    0.000    0.000    0.000 
#
# Total GULP energy -694341.852494 kJ/mol
# GULP energy per Si atom -12398.961652 kJ/mol
# Density = 2.152761 g / cm^3
# Si number density = 21.576718 Si / 1000 Ang^3
#
#
#
# Elastic Constant Matrix: (Units=GPa)
#
#
# Indices 1 2 3 4 5 6 
#
# 1 128.0466 58.6800 59.9800 0.0000 0.0000 0.0000
# 2 58.6800 140.4222 22.2470 0.0000 0.0000 0.0000
# 3 59.9800 22.2470 115.8764 0.0000 0.0000 0.0000
# 4 0.0000 0.0000 0.0000 17.6277 0.0000 0.0000
# 5 0.0000 0.0000 0.0000 0.0000 30.6425 0.0000
# 6 0.0000 0.0000 0.0000 0.0000 0.0000 17.9378
#
#
#
# Elastic Compliance Matrix: (Units=1/GPa)
#
#
# Indices 1 2 3 4 5 6 
#
# 1 0.012398 -0.004295 -0.005593 0.000000 0.000000 0.000000
# 2 -0.004295 0.008833 0.000527 0.000000 0.000000 0.000000
# 3 -0.005593 0.000527 0.011424 0.000000 0.000000 0.000000
# 4 0.000000 0.000000 0.000000 0.056729 0.000000 0.000000
# 5 0.000000 0.000000 0.000000 0.000000 0.032634 0.000000
# 6 0.000000 0.000000 0.000000 0.000000 0.000000 0.055748
#
#
# Mechanical properties :
#
#
# Convention : Reuss Voigt Hill
#
# Bulk Modulus (GPa) = 71.76995 74.01768 72.89381
# Shear Modulus (GPa) = 24.85960 29.47083 27.16521
#
# Velocity S-wave (km/s) = 3.39801 3.69977 3.55210
# Velocity P-wave (km/s) = 6.98070 7.25465 7.11899
#
# Compressibility (1/GPa) = 0.01393341
#
# Stress axis : x y z
#
# Youngs Moduli (GPa) = 80.66142 113.21812 87.53855
#
# Poissons Ratio (x) = 0.48623 0.48957
# Poissons Ratio (y) = 0.34641 -0.04616
# Poissons Ratio (z) = 0.45111 -0.05969
#
# Static dielectric constant tensor:
#      x y z
#    x 4.102310 0.000000 0.000000 
#    y 0.000000 4.971700 0.000000 
#    z 0.000000 0.000000 3.945840 
# 
# 
# High freq. dielectric constant tensor:
#      x y z
#    x 1.850080 0.000000 0.000000 
#    y 0.000000 1.836760 0.000000 
#    z 0.000000 0.000000 1.849980 
# 
# From -- ./inp_files/22812.got.cif
#   From: 2010.03.12/outbox.cif.g09.slc.cpg/sg53_12_cif.got.tgz:22812.got - 2010.04.16 14:36:59.
