data_PCOD8220526
_publ_section_title
;
Structure prediction by ZEFSAII (Michael W. Deem and Ramdas Pophale) SiO2 
 PCOD8220526
Probable space group: P M N A
;
_chemical_formula_sum "Si O2"
_cell_formula_units_Z 48
_cell_length_a 10.030256
_cell_length_b 27.950965
_cell_length_c 8.757573
_cell_angle_alpha 90.000000
_cell_angle_beta 90.000000
_cell_angle_gamma 90.000000
_cell_volume 2455.232307
_symmetry_space_group_name_H-M "P M N A"
_symmetry_group_IT_number 53
_symmetry_cell_setting 'orthorhombic'
loop_
_space_group_symop_operation_xyz
x,y,z
1/2-x,-y,1/2+z
x,-y,-z
1/2-x,y,1/2-z
-x,-y,-z
1/2+x,y,1/2-z
-x,y,z
1/2+x,-y,1/2+z
loop_
_atom_site_type_symbol
_atom_site_label
_atom_site_fract_x
_atom_site_fract_y
_atom_site_fract_z
Si Si1 0.245479 0.894847 0.930700
Si Si2 0.844159 0.192177 0.895454
Si Si3 0.500000 0.446400 0.063813
Si Si4 0.344998 0.698621 0.392669
Si Si5 0.754543 0.610756 0.929760
Si Si6 0.000000 0.550911 0.926637
Si Si7 0.500000 0.051359 0.571804
Si Si8 0.500000 0.053748 0.935695
O O1 0.250000 0.902528 0.750000
O O2 0.218590 0.839066 0.967635
O O3 0.128864 0.923037 0.010620
O O4 0.377101 0.915522 0.005742
O O5 0.750000 0.182809 0.750000
O O6 0.835159 0.246905 0.950283
O O7 0.000000 0.178630 0.859775
O O8 0.623485 0.414819 0.003636
O O9 0.500000 0.451955 0.244879
O O10 0.500000 0.500000 0.000000
O O11 0.250000 0.690332 0.250000
O O12 0.500000 0.685871 0.356371
O O13 0.280279 0.665135 0.520893
O O14 0.750000 0.611778 0.750000
O O15 0.873330 0.578397 0.991918
O O16 0.000000 0.500000 0.000000
O O17 0.500000 0.050053 0.754031
O O18 0.500000 0.000000 0.500000
O O19 0.500000 0.000000 0.000000
#
# Coordination Sequence:
#
# PCOD8220526 Si02
#       8
#     8   8   4   8   8   4   4   4
#     4  12  25  42  65  97 130 166 213 264 314 376
#     4  10  22  42  66  93 126 166 209 258 316 377
#     4  10  22  36  55  86 117 150 199 250 300 366
#     4  10  22  40  63  92 124 160 205 254 305 367
#     4  10  21  38  59  84 118 159 198 247 307 364
#     4  10  20  36  57  80 113 156 199 246 304 362
#     4  12  24  44  67  92 129 170 215 262 316 378
#     4  12  26  44  67  96 129 172 213 260 320 376
#
# _framework density 19.550084999999999
#
# number of rings (size 3 to 8) (size 9 to 14) (size 15 to 20)
#    0.000    1.333    1.667    4.000    2.333    2.000 
#    0.000    0.000    0.000    0.000    0.000    0.000 
#    0.000    0.000    0.000    0.000    0.000    0.000 
#
# Total GULP energy -595041.499357 kJ/mol
# GULP energy per Si atom -12396.697903 kJ/mol
# Density = 1.950559 g / cm^3
# Si number density = 19.550085 Si / 1000 Ang^3
#
#
#
# Elastic Constant Matrix: (Units=GPa)
#
#
# Indices 1 2 3 4 5 6 
#
# 1 184.1885 78.2617 55.6717 0.0000 0.0000 0.0000
# 2 78.2617 142.1401 54.6895 0.0000 0.0000 0.0000
# 3 55.6717 54.6895 105.7890 0.0000 0.0000 0.0000
# 4 0.0000 0.0000 0.0000 41.2971 0.0000 0.0000
# 5 0.0000 0.0000 0.0000 0.0000 20.0256 0.0000
# 6 0.0000 0.0000 0.0000 0.0000 0.0000 63.6170
#
#
#
# Elastic Compliance Matrix: (Units=1/GPa)
#
#
# Indices 1 2 3 4 5 6 
#
# 1 0.007497 -0.003258 -0.002261 0.000000 0.000000 0.000000
# 2 -0.003258 0.010198 -0.003558 0.000000 0.000000 0.000000
# 3 -0.002261 -0.003558 0.012482 0.000000 0.000000 0.000000
# 4 0.000000 0.000000 0.000000 0.024215 0.000000 0.000000
# 5 0.000000 0.000000 0.000000 0.000000 0.049936 0.000000
# 6 0.000000 0.000000 0.000000 0.000000 0.000000 0.015719
#
#
# Mechanical properties :
#
#
# Convention : Reuss Voigt Hill
#
# Bulk Modulus (GPa) = 83.16893 89.92927 86.54910
# Shear Modulus (GPa) = 35.15998 41.22092 38.19045
#
# Velocity S-wave (km/s) = 4.24542 4.59680 4.42460
# Velocity P-wave (km/s) = 8.16488 8.61820 8.39460
#
# Compressibility (1/GPa) = 0.01202372
#
# Stress axis : x y z
#
# Youngs Moduli (GPa) = 133.38898 98.06023 80.11660
#
# Poissons Ratio (x) = 0.31946 0.18115
# Poissons Ratio (y) = 0.43455 0.28502
# Poissons Ratio (z) = 0.30160 0.34885
#
# Static dielectric constant tensor:
#      x y z
#    x 3.949900 0.000000 0.000000 
#    y 0.000000 3.625600 0.000000 
#    z 0.000000 0.000000 3.535050 
# 
# 
# High freq. dielectric constant tensor:
#      x y z
#    x 1.786600 0.000000 0.000000 
#    y 0.000000 1.780690 0.000000 
#    z 0.000000 0.000000 1.747780 
# 
# From -- ./inp_files/6872.got.cif
#   From: 2010.03.12/outbox.cif.g09.slc.cpg/sg53_4_cif.got.tgz:6872.got - 2010.04.16 14:36:59.
