data_PCOD8220325
_publ_section_title
;
Structure prediction by ZEFSAII (Michael W. Deem and Ramdas Pophale) SiO2 
 PCOD8220325
Probable space group: P M N A
;
_chemical_formula_sum "Si O2"
_cell_formula_units_Z 64
_cell_length_a 8.618860
_cell_length_b 20.087355
_cell_length_c 19.253085
_cell_angle_alpha 90.000000
_cell_angle_beta 90.000000
_cell_angle_gamma 90.000000
_cell_volume 3333.288541
_symmetry_space_group_name_H-M "P M N A"
_symmetry_group_IT_number 53
_symmetry_cell_setting 'orthorhombic'
loop_
_space_group_symop_operation_xyz
x,y,z
1/2-x,-y,1/2+z
x,-y,-z
1/2-x,y,1/2-z
-x,-y,-z
1/2+x,y,1/2-z
-x,y,z
1/2+x,-y,1/2+z
loop_
_atom_site_type_symbol
_atom_site_label
_atom_site_fract_x
_atom_site_fract_y
_atom_site_fract_z
Si Si1 0.828936 0.004216 0.417424
Si Si2 0.318085 0.498489 0.080414
Si Si3 0.181333 0.245204 0.323106
Si Si4 0.678497 0.862111 0.580026
Si Si5 0.820246 0.394444 0.823849
Si Si6 0.817969 0.139927 0.569468
Si Si7 0.179766 0.761017 0.176484
Si Si8 0.682600 0.386611 0.324355
O O1 0.777356 0.930405 0.391825
O O2 0.000000 0.022010 0.388498
O O3 0.834348 0.000000 0.500000
O O4 0.712473 0.062426 0.393536
O O5 0.500000 0.487216 0.089539
O O6 0.268872 0.568086 0.114811
O O7 0.228719 0.438372 0.116635
O O8 0.269436 0.500000 0.000000
O O9 0.250000 0.221196 0.250000
O O10 0.214318 0.189148 0.379374
O O11 0.256310 0.314504 0.347295
O O12 0.000000 0.256647 0.314927
O O13 0.500000 0.845610 0.594206
O O14 0.716064 0.853636 0.499373
O O15 0.750000 0.415971 0.750000
O O16 0.795754 0.316702 0.837661
O O17 0.000000 0.414713 0.824160
O O18 0.775737 0.200767 0.618418
O O19 0.000000 0.141658 0.550031
O O20 0.250000 0.781857 0.250000
O O21 0.000000 0.781206 0.174038
O O22 0.750000 0.408976 0.250000
O O23 0.500000 0.383706 0.317178
#
# Coordination Sequence:
#
# PCOD8220325 Si02
#       8
#     8   8   8   8   8   8   8   8
#     4   8  16  32  52  76 107 144 185 227 274 328
#     4  11  24  40  58  83 115 148 183 226 275 323
#     4  11  22  39  60  83 113 146 184 228 276 328
#     4  11  21  34  55  83 112 145 186 229 276 329
#     4  10  21  38  60  83 109 144 184 225 270 325
#     4  10  20  35  56  81 111 147 186 230 279 329
#     4  10  21  37  57  82 112 145 184 229 278 332
#     4  11  22  39  62  85 112 146 186 226 269 327
#
# _framework density 19.200258000000002
#
# number of rings (size 3 to 8) (size 9 to 14) (size 15 to 20)
#    0.000    1.750    0.000    6.750    0.000    6.250 
#    0.000    3.125    0.000    3.000    0.000    0.000 
#    0.000    0.000    0.000    0.000    0.000    0.000 
#
# Total GULP energy -793746.830586 kJ/mol
# GULP energy per Si atom -12402.294228 kJ/mol
# Density = 1.915656 g / cm^3
# Si number density = 19.200258 Si / 1000 Ang^3
#
#
#
# Elastic Constant Matrix: (Units=GPa)
#
#
# Indices 1 2 3 4 5 6 
#
# 1 119.3699 40.5816 38.9316 0.0000 0.0000 0.0000
# 2 40.5816 99.5758 54.4050 0.0000 0.0000 0.0000
# 3 38.9316 54.4050 86.1865 0.0000 0.0000 0.0000
# 4 0.0000 0.0000 0.0000 42.7559 0.0000 0.0000
# 5 0.0000 0.0000 0.0000 0.0000 31.1526 0.0000
# 6 0.0000 0.0000 0.0000 0.0000 0.0000 31.8510
#
#
#
# Elastic Compliance Matrix: (Units=1/GPa)
#
#
# Indices 1 2 3 4 5 6 
#
# 1 0.010219 -0.002507 -0.003033 0.000000 0.000000 0.000000
# 2 -0.002507 0.015945 -0.008933 0.000000 0.000000 0.000000
# 3 -0.003033 -0.008933 0.018612 0.000000 0.000000 0.000000
# 4 0.000000 0.000000 0.000000 0.023389 0.000000 0.000000
# 5 0.000000 0.000000 0.000000 0.000000 0.032100 0.000000
# 6 0.000000 0.000000 0.000000 0.000000 0.000000 0.031396
#
#
# Mechanical properties :
#
#
# Convention : Reuss Voigt Hill
#
# Bulk Modulus (GPa) = 63.17508 63.66318 63.41913
# Shear Modulus (GPa) = 30.14166 32.56616 31.35391
#
# Velocity S-wave (km/s) = 3.96644 4.12288 4.04542
# Velocity P-wave (km/s) = 7.34517 7.47620 7.41098
#
# Compressibility (1/GPa) = 0.01582903
#
# Stress axis : x y z
#
# Youngs Moduli (GPa) = 97.85653 62.71574 53.72994
#
# Poissons Ratio (x) = 0.15726 0.16298
# Poissons Ratio (y) = 0.24537 0.47995
# Poissons Ratio (z) = 0.29683 0.56021
#
# Static dielectric constant tensor:
#      x y z
#    x 3.693950 0.000000 0.000000 
#    y 0.000000 3.743990 0.000000 
#    z 0.000000 0.000000 3.367600 
# 
# 
# High freq. dielectric constant tensor:
#      x y z
#    x 1.761840 0.000000 0.000000 
#    y 0.000000 1.760190 0.000000 
#    z 0.000000 0.000000 1.726150 
# 
# From -- ./inp_files/27001.got.cif
#   From: 2010.03.12/outbox.cif.g09.slc.cpg/sg53_14_cif.got.tgz:27001.got - 2010.04.16 14:36:59.
