data_PCOD8220749
_publ_section_title
;
Structure prediction by ZEFSAII (Michael W. Deem and Ramdas Pophale) SiO2 
 PCOD8220749
Probable space group: P M N A
;
_chemical_formula_sum "Si O2"
_cell_formula_units_Z 48
_cell_length_a 8.731520
_cell_length_b 30.177488
_cell_length_c 9.545475
_cell_angle_alpha 90.000000
_cell_angle_beta 90.000000
_cell_angle_gamma 90.000000
_cell_volume 2515.188181
_symmetry_space_group_name_H-M "P M N A"
_symmetry_group_IT_number 53
_symmetry_cell_setting 'orthorhombic'
loop_
_space_group_symop_operation_xyz
x,y,z
1/2-x,-y,1/2+z
x,-y,-z
1/2-x,y,1/2-z
-x,-y,-z
1/2+x,y,1/2-z
-x,y,z
1/2+x,-y,1/2+z
loop_
_atom_site_type_symbol
_atom_site_label
_atom_site_fract_x
_atom_site_fract_y
_atom_site_fract_z
Si Si1 0.679161 0.463327 0.103117
Si Si2 0.679547 0.883441 0.895449
Si Si3 0.319053 0.040278 0.903275
Si Si4 0.819160 0.362961 0.401253
Si Si5 0.682065 0.710405 0.403902
Si Si6 0.681464 0.217759 0.101985
O O1 0.750000 0.474643 0.250000
O O2 0.500000 0.469446 0.116691
O O3 0.719269 0.413444 0.055034
O O4 0.750089 0.500000 0.000000
O O5 0.750000 0.900450 0.750000
O O6 0.500000 0.887766 0.876868
O O7 0.728251 0.833044 0.927409
O O8 0.736827 0.914150 0.023136
O O9 0.250000 0.036563 0.750000
O O10 0.500000 0.038921 0.887588
O O11 0.260643 0.000000 0.000000
O O12 0.750000 0.351589 0.250000
O O13 0.738315 0.333055 0.516108
O O14 0.000000 0.353501 0.397522
O O15 0.750000 0.709157 0.250000
O O16 0.500000 0.711272 0.397680
O O17 0.743029 0.754340 0.478929
O O18 0.750000 0.233792 0.250000
O O19 0.500000 0.225091 0.103931
#
# Coordination Sequence:
#
# PCOD8220749 Si02
#       6
#     8   8   8   8   8   8
#     4   9  19  35  55  81 111 143 180 221 265 316
#     4   9  19  35  56  82 110 141 179 222 265 316
#     4  10  21  36  54  79 110 143 181 223 268 319
#     4  10  20  37  59  82 110 145 185 225 268 321
#     4  12  25  40  57  80 110 143 181 226 277 326
#     4  10  20  37  59  83 111 144 183 223 268 323
#
# _framework density 19.084057000000001
#
# number of rings (size 3 to 8) (size 9 to 14) (size 15 to 20)
#    0.000    2.000    0.000    3.500    0.000    4.000 
#    0.000    3.333    0.000    0.000    0.000    0.000 
#    0.000    0.000    0.000    0.000    0.000    0.000 
#
# Total GULP energy -595283.495514 kJ/mol
# GULP energy per Si atom -12401.739490 kJ/mol
# Density = 1.904062 g / cm^3
# Si number density = 19.084057 Si / 1000 Ang^3
#
#
#
# Elastic Constant Matrix: (Units=GPa)
#
#
# Indices 1 2 3 4 5 6 
#
# 1 81.0842 49.5546 66.3127 0.0000 0.0000 0.0000
# 2 49.5546 135.5531 102.9440 0.0000 0.0000 0.0000
# 3 66.3127 102.9440 173.6495 0.0000 0.0000 0.0000
# 4 0.0000 0.0000 0.0000 47.5523 0.0000 0.0000
# 5 0.0000 0.0000 0.0000 0.0000 38.0880 0.0000
# 6 0.0000 0.0000 0.0000 0.0000 0.0000 23.8902
#
#
#
# Elastic Compliance Matrix: (Units=1/GPa)
#
#
# Indices 1 2 3 4 5 6 
#
# 1 0.018398 -0.002529 -0.005527 0.000000 0.000000 0.000000
# 2 -0.002529 0.013766 -0.007195 0.000000 0.000000 0.000000
# 3 -0.005527 -0.007195 0.012135 0.000000 0.000000 0.000000
# 4 0.000000 0.000000 0.000000 0.021029 0.000000 0.000000
# 5 0.000000 0.000000 0.000000 0.000000 0.026255 0.000000
# 6 0.000000 0.000000 0.000000 0.000000 0.000000 0.041858
#
#
# Mechanical properties :
#
#
# Convention : Reuss Voigt Hill
#
# Bulk Modulus (GPa) = 72.47615 91.98993 82.23304
# Shear Modulus (GPa) = 29.66627 33.33782 31.50204
#
# Velocity S-wave (km/s) = 3.94700 4.18412 4.06729
# Velocity P-wave (km/s) = 7.67017 8.46461 8.07716
#
# Compressibility (1/GPa) = 0.01379764
#
# Stress axis : x y z
#
# Youngs Moduli (GPa) = 54.35323 72.64366 82.40812
#
# Poissons Ratio (x) = 0.18369 0.45545
# Poissons Ratio (y) = 0.13744 0.59294
# Poissons Ratio (z) = 0.30040 0.52268
#
# Static dielectric constant tensor:
#      x y z
#    x 3.509530 0.000000 0.000000 
#    y 0.000000 3.845790 0.000000 
#    z 0.000000 0.000000 3.559540 
# 
# 
# High freq. dielectric constant tensor:
#      x y z
#    x 1.744800 0.000000 0.000000 
#    y 0.000000 1.757980 0.000000 
#    z 0.000000 0.000000 1.742620 
# 
# From -- ./inp_files/6662.got.cif
#   From: 2010.03.12/outbox.cif.g09.slc.cpg/sg53_4_cif.got.tgz:6662.got - 2010.04.16 14:36:59.
