data_PCOD8220678
_publ_section_title
;
Structure prediction by ZEFSAII (Michael W. Deem and Ramdas Pophale) SiO2 
 PCOD8220678
Probable space group: P M N A
;
_chemical_formula_sum "Si O2"
_cell_formula_units_Z 64
_cell_length_a 14.647141
_cell_length_b 9.238883
_cell_length_c 23.383268
_cell_angle_alpha 90.000000
_cell_angle_beta 90.000000
_cell_angle_gamma 90.000000
_cell_volume 3164.299166
_symmetry_space_group_name_H-M "P M N A"
_symmetry_group_IT_number 53
_symmetry_cell_setting 'orthorhombic'
loop_
_space_group_symop_operation_xyz
x,y,z
1/2-x,-y,1/2+z
x,-y,-z
1/2-x,y,1/2-z
-x,-y,-z
1/2+x,y,1/2-z
-x,y,z
1/2+x,-y,1/2+z
loop_
_atom_site_type_symbol
_atom_site_label
_atom_site_fract_x
_atom_site_fract_y
_atom_site_fract_z
Si Si1 0.724016 0.665697 0.512588
Si Si2 0.898653 0.122851 0.955010
Si Si3 0.099600 0.841669 0.245951
Si Si4 0.302933 0.415319 0.694598
Si Si5 0.604096 0.168835 0.988830
Si Si6 0.889992 0.324502 0.125743
Si Si7 0.329035 0.017170 0.348621
Si Si8 0.323993 0.183970 0.865200
O O1 0.744256 0.500000 0.500000
O O2 0.676105 0.747369 0.458530
O O3 0.821802 0.741204 0.526481
O O4 0.649615 0.680241 0.562171
O O5 0.902485 0.055674 0.891584
O O6 0.000000 0.181784 0.969457
O O7 0.868501 0.000000 0.000000
O O8 0.118004 0.683214 0.221056
O O9 0.167868 0.953861 0.215623
O O10 0.105916 0.844375 0.314049
O O11 0.000000 0.892160 0.228005
O O12 0.250000 0.480062 0.750000
O O13 0.352377 0.538235 0.658890
O O14 0.238790 0.321811 0.652081
O O15 0.500000 0.212288 0.005684
O O16 0.620010 0.213839 0.922771
O O17 0.619785 0.000000 0.000000
O O18 0.000000 0.323069 0.124225
O O19 0.847408 0.186345 0.157500
O O20 0.231537 0.966969 0.374170
#
# Coordination Sequence:
#
# PCOD8220678 Si02
#       8
#     8   8   8   8   8   8   8   8
#     4  12  25  40  58  88 125 159 201 251 301 360
#     4  11  21  37  58  83 120 163 200 236 290 360
#     4  10  20  36  60  88 114 151 203 252 299 360
#     4   9  21  39  60  84 120 162 203 245 303 356
#     4  11  23  42  67  90 116 158 205 253 308 366
#     4  12  24  38  58  89 125 162 201 244 303 368
#     4  11  21  36  57  85 122 154 194 246 306 357
#     4  10  20  40  62  87 115 157 200 253 301 362
#
# _framework density 20.225648
#
# number of rings (size 3 to 8) (size 9 to 14) (size 15 to 20)
#    0.000    1.250    2.500    5.250    1.750    2.250 
#    0.000    0.000    0.000    1.500    0.000    0.000 
#    0.000    0.000    0.000    0.000    0.000    0.000 
#
# Total GULP energy -793312.721464 kJ/mol
# GULP energy per Si atom -12395.511273 kJ/mol
# Density = 2.017961 g / cm^3
# Si number density = 20.225648 Si / 1000 Ang^3
#
#
#
# Elastic Constant Matrix: (Units=GPa)
#
#
# Indices 1 2 3 4 5 6 
#
# 1 107.3428 47.1862 5.9068 0.0000 0.0000 0.0000
# 2 47.1862 116.7948 24.0193 0.0000 0.0000 0.0000
# 3 5.9068 24.0193 75.3362 0.0000 0.0000 0.0000
# 4 0.0000 0.0000 0.0000 19.7928 0.0000 0.0000
# 5 0.0000 0.0000 0.0000 0.0000 21.4833 0.0000
# 6 0.0000 0.0000 0.0000 0.0000 0.0000 3.4511
#
#
#
# Elastic Compliance Matrix: (Units=1/GPa)
#
#
# Indices 1 2 3 4 5 6 
#
# 1 0.011354 -0.004713 0.000612 0.000000 0.000000 0.000000
# 2 -0.004713 0.011119 -0.003176 0.000000 0.000000 0.000000
# 3 0.000612 -0.003176 0.014238 0.000000 0.000000 0.000000
# 4 0.000000 0.000000 0.000000 0.050523 0.000000 0.000000
# 5 0.000000 0.000000 0.000000 0.000000 0.046548 0.000000
# 6 0.000000 0.000000 0.000000 0.000000 0.000000 0.289763
#
#
# Mechanical properties :
#
#
# Convention : Reuss Voigt Hill
#
# Bulk Modulus (GPa) = 45.12821 50.41092 47.76957
# Shear Modulus (GPa) = 11.22372 23.76954 17.49663
#
# Velocity S-wave (km/s) = 2.35824 3.43186 2.94440
# Velocity P-wave (km/s) = 5.45673 6.37824 5.93539
#
# Compressibility (1/GPa) = 0.02215909
#
# Stress axis : x y z
#
# Youngs Moduli (GPa) = 88.07434 89.93432 70.23319
#
# Poissons Ratio (x) = 0.42387 -0.04301
# Poissons Ratio (y) = 0.41510 0.22303
# Poissons Ratio (z) = -0.05394 0.28559
#
# Static dielectric constant tensor:
#      x y z
#    x 3.690930 0.000000 0.000000 
#    y 0.000000 3.680040 0.000000 
#    z 0.000000 0.000000 3.724880 
# 
# 
# High freq. dielectric constant tensor:
#      x y z
#    x 1.792670 0.000000 0.000000 
#    y 0.000000 1.775460 0.000000 
#    z 0.000000 0.000000 1.793100 
# 
# From -- ./inp_files/35385.got.cif
#   From: 2010.03.12/outbox.cif.g09.slc.cpg/sg53_18_cif.got.tgz:35385.got - 2010.04.16 14:36:59.
