data_PCOD8220739
_publ_section_title
;
Structure prediction by ZEFSAII (Michael W. Deem and Ramdas Pophale) SiO2 
 PCOD8220739
Probable space group: P M N A
;
_chemical_formula_sum "Si O2"
_cell_formula_units_Z 48
_cell_length_a 8.653219
_cell_length_b 14.890857
_cell_length_c 19.433398
_cell_angle_alpha 90.000000
_cell_angle_beta 90.000000
_cell_angle_gamma 90.000000
_cell_volume 2504.068087
_symmetry_space_group_name_H-M "P M N A"
_symmetry_group_IT_number 53
_symmetry_cell_setting 'orthorhombic'
loop_
_space_group_symop_operation_xyz
x,y,z
1/2-x,-y,1/2+z
x,-y,-z
1/2-x,y,1/2-z
-x,-y,-z
1/2+x,y,1/2-z
-x,y,z
1/2+x,-y,1/2+z
loop_
_atom_site_type_symbol
_atom_site_label
_atom_site_fract_x
_atom_site_fract_y
_atom_site_fract_z
Si Si1 0.817414 0.962248 0.928893
Si Si2 0.318732 0.631095 0.678591
Si Si3 0.681852 0.726456 0.090343
Si Si4 0.317252 0.889884 0.325431
Si Si5 0.316969 0.759434 0.557288
Si Si6 0.316933 0.574395 0.322675
O O1 0.769380 0.859151 0.918366
O O2 0.000000 0.972596 0.932406
O O3 0.754459 0.022241 0.865838
O O4 0.745341 0.000000 0.000000
O O5 0.250000 0.667322 0.750000
O O6 0.500000 0.639889 0.684887
O O7 0.258048 0.691968 0.616153
O O8 0.268242 0.528718 0.664852
O O9 0.500000 0.736083 0.099820
O O10 0.766124 0.801551 0.134770
O O11 0.738814 0.629669 0.116168
O O12 0.726420 0.734489 0.011124
O O13 0.250000 0.891623 0.250000
O O14 0.500000 0.889265 0.320621
O O15 0.500000 0.751962 0.543508
O O16 0.250000 0.608755 0.250000
O O17 0.500000 0.588074 0.323366
#
# Coordination Sequence:
#
# PCOD8220739 Si02
#       6
#     8   8   8   8   8   8
#     4   9  17  34  60  83 107 148 190 225 273 330
#     4   9  20  37  60  85 113 148 188 233 281 335
#     4  12  24  37  55  84 115 149 189 236 288 336
#     4  11  22  38  59  85 116 150 189 234 281 338
#     4  10  20  38  61  85 113 151 192 230 279 341
#     4  10  20  37  58  82 112 150 189 231 282 337
#
# _framework density 19.168807000000001
#
# number of rings (size 3 to 8) (size 9 to 14) (size 15 to 20)
#    0.000    1.833    1.667    3.000    0.000    2.667 
#    0.000    5.833    0.000    0.000    0.000    0.000 
#    0.000    0.000    0.000    0.000    0.000    0.000 
#
# Total GULP energy -595330.508928 kJ/mol
# GULP energy per Si atom -12402.718936 kJ/mol
# Density = 1.912518 g / cm^3
# Si number density = 19.168807 Si / 1000 Ang^3
#
#
#
# Elastic Constant Matrix: (Units=GPa)
#
#
# Indices 1 2 3 4 5 6 
#
# 1 53.0752 25.0529 34.2418 0.0000 0.0000 0.0000
# 2 25.0529 118.3358 80.1860 0.0000 0.0000 0.0000
# 3 34.2418 80.1860 165.8598 0.0000 0.0000 0.0000
# 4 0.0000 0.0000 0.0000 38.0843 0.0000 0.0000
# 5 0.0000 0.0000 0.0000 0.0000 31.3345 0.0000
# 6 0.0000 0.0000 0.0000 0.0000 0.0000 11.2594
#
#
#
# Elastic Compliance Matrix: (Units=1/GPa)
#
#
# Indices 1 2 3 4 5 6 
#
# 1 0.022174 -0.002368 -0.003433 0.000000 0.000000 0.000000
# 2 -0.002368 0.012821 -0.005709 0.000000 0.000000 0.000000
# 3 -0.003433 -0.005709 0.009498 0.000000 0.000000 0.000000
# 4 0.000000 0.000000 0.000000 0.026258 0.000000 0.000000
# 5 0.000000 0.000000 0.000000 0.000000 0.031914 0.000000
# 6 0.000000 0.000000 0.000000 0.000000 0.000000 0.088814
#
#
# Mechanical properties :
#
#
# Convention : Reuss Voigt Hill
#
# Bulk Modulus (GPa) = 46.57292 68.47023 57.52157
# Shear Modulus (GPa) = 22.55747 29.32167 25.93957
#
# Velocity S-wave (km/s) = 3.43414 3.91532 3.68260
# Velocity P-wave (km/s) = 6.33036 7.49912 6.93939
#
# Compressibility (1/GPa) = 0.02147171
#
# Stress axis : x y z
#
# Youngs Moduli (GPa) = 45.09834 77.99947 105.28453
#
# Poissons Ratio (x) = 0.18473 0.36142
# Poissons Ratio (y) = 0.10681 0.60110
# Poissons Ratio (z) = 0.15481 0.44532
#
# Static dielectric constant tensor:
#      x y z
#    x 3.340350 0.000000 0.000000 
#    y 0.000000 3.814870 0.000000 
#    z 0.000000 0.000000 3.685930 
# 
# 
# High freq. dielectric constant tensor:
#      x y z
#    x 1.731150 0.000000 0.000000 
#    y 0.000000 1.755880 0.000000 
#    z 0.000000 0.000000 1.752750 
# 
# From -- ./inp_files/26273.got.cif
#   From: 2010.03.12/outbox.cif.g09.slc.cpg/sg53_14_cif.got.tgz:26273.got - 2010.04.16 14:36:59.
