data_PCOD8220071
_publ_section_title
;
Structure prediction by ZEFSAII (Michael W. Deem and Ramdas Pophale) SiO2 
 PCOD8220071
Probable space group: P M N A
;
_chemical_formula_sum "Si O2"
_cell_formula_units_Z 64
_cell_length_a 8.902751
_cell_length_b 22.434280
_cell_length_c 17.423523
_cell_angle_alpha 90.000000
_cell_angle_beta 90.000000
_cell_angle_gamma 90.000000
_cell_volume 3479.944645
_symmetry_space_group_name_H-M "P M N A"
_symmetry_group_IT_number 53
_symmetry_cell_setting 'orthorhombic'
loop_
_space_group_symop_operation_xyz
x,y,z
1/2-x,-y,1/2+z
x,-y,-z
1/2-x,y,1/2-z
-x,-y,-z
1/2+x,y,1/2-z
-x,y,z
1/2+x,-y,1/2+z
loop_
_atom_site_type_symbol
_atom_site_label
_atom_site_fract_x
_atom_site_fract_y
_atom_site_fract_z
Si Si1 0.823444 0.135214 0.472625
Si Si2 0.177868 0.256299 0.991063
Si Si3 0.327838 0.375779 0.031159
Si Si4 0.674032 0.701592 0.326966
Si Si5 0.176950 0.948218 0.669486
Si Si6 0.172488 0.457888 0.325027
Si Si7 0.676763 0.426089 0.610972
Si Si8 0.330816 0.042900 0.572393
O O1 0.757422 0.201194 0.467699
O O2 0.782049 0.102093 0.393214
O O3 0.752018 0.103246 0.547041
O O4 0.000000 0.136958 0.485156
O O5 0.231709 0.315532 0.034344
O O6 0.000000 0.250706 0.000172
O O7 0.225625 0.260433 0.901345
O O8 0.500000 0.361143 0.010146
O O9 0.313779 0.406517 0.112821
O O10 0.261066 0.422302 0.970169
O O11 0.750000 0.726535 0.250000
O O12 0.500000 0.709776 0.314292
O O13 0.716357 0.632509 0.339646
O O14 0.250000 0.928947 0.750000
O O15 0.000000 0.955162 0.679801
O O16 0.243399 0.011829 0.642545
O O17 0.250000 0.430316 0.250000
O O18 0.264372 0.516973 0.344804
O O19 0.000000 0.475789 0.310634
O O20 0.500000 0.430857 0.595398
O O21 0.500000 0.057925 0.599054
O O22 0.331000 0.000000 0.500000
#
# Coordination Sequence:
#
# PCOD8220071 Si02
#       8
#     8   8   8   8   8   8   8   8
#     4  10  20  35  56  81 108 141 182 223 263 312
#     4  10  21  37  56  78 104 138 182 224 264 315
#     4  10  21  37  55  76 103 136 176 220 267 320
#     4   9  19  33  50  75 103 131 165 208 258 311
#     4  10  20  34  54  82 114 144 178 221 267 314
#     4  11  23  36  52  76 105 136 172 217 269 324
#     4  10  20  34  54  79 105 134 170 212 263 325
#     4   9  17  31  53  79 107 139 172 208 255 308
#
# _framework density 18.391098
#
# number of rings (size 3 to 8) (size 9 to 14) (size 15 to 20)
#    0.000    2.125    0.000    4.125    0.000   10.500 
#    0.000    1.250    0.000    1.500    0.000    0.000 
#    0.000    0.000    0.000    0.000    0.000    0.000 
#
# Total GULP energy -793732.657582 kJ/mol
# GULP energy per Si atom -12402.072775 kJ/mol
# Density = 1.834924 g / cm^3
# Si number density = 18.391098 Si / 1000 Ang^3
#
#
#
# Elastic Constant Matrix: (Units=GPa)
#
#
# Indices 1 2 3 4 5 6 
#
# 1 90.3351 32.2467 54.4401 0.0000 0.0000 0.0000
# 2 32.2467 70.2117 38.2889 0.0000 0.0000 0.0000
# 3 54.4401 38.2889 103.8804 0.0000 0.0000 0.0000
# 4 0.0000 0.0000 0.0000 13.6046 0.0000 0.0000
# 5 0.0000 0.0000 0.0000 0.0000 34.3240 0.0000
# 6 0.0000 0.0000 0.0000 0.0000 0.0000 25.9781
#
#
#
# Elastic Compliance Matrix: (Units=1/GPa)
#
#
# Indices 1 2 3 4 5 6 
#
# 1 0.016903 -0.003670 -0.007506 0.000000 0.000000 0.000000
# 2 -0.003670 0.018623 -0.004941 0.000000 0.000000 0.000000
# 3 -0.007506 -0.004941 0.015381 0.000000 0.000000 0.000000
# 4 0.000000 0.000000 0.000000 0.073505 0.000000 0.000000
# 5 0.000000 0.000000 0.000000 0.000000 0.029134 0.000000
# 6 0.000000 0.000000 0.000000 0.000000 0.000000 0.038494
#
#
# Mechanical properties :
#
#
# Convention : Reuss Voigt Hill
#
# Bulk Modulus (GPa) = 53.55068 57.15317 55.35193
# Shear Modulus (GPa) = 21.69225 24.07811 22.88518
#
# Velocity S-wave (km/s) = 3.43811 3.62225 3.53138
# Velocity P-wave (km/s) = 6.70386 6.97411 6.84032
#
# Compressibility (1/GPa) = 0.01867390
#
# Stress axis : x y z
#
# Youngs Moduli (GPa) = 59.16016 53.69830 65.01566
#
# Poissons Ratio (x) = 0.19709 0.48798
# Poissons Ratio (y) = 0.21713 0.32121
# Poissons Ratio (z) = 0.44403 0.26530
#
# Static dielectric constant tensor:
#      x y z
#    x 3.554720 0.000000 0.000000 
#    y 0.000000 3.247670 0.000000 
#    z 0.000000 0.000000 3.381660 
# 
# 
# High freq. dielectric constant tensor:
#      x y z
#    x 1.730460 0.000000 0.000000 
#    y 0.000000 1.698300 0.000000 
#    z 0.000000 0.000000 1.706100 
# 
# From -- ./inp_files/20971.got.cif
#   From: 2010.03.12/outbox.cif.g09.slc.cpg/sg53_11_cif.got.tgz:20971.got - 2010.04.16 14:36:59.
