data_PCOD8220487
_publ_section_title
;
Structure prediction by ZEFSAII (Michael W. Deem and Ramdas Pophale) SiO2 
 PCOD8220487
Probable space group: P M N A
;
_chemical_formula_sum "Si O2"
_cell_formula_units_Z 40
_cell_length_a 8.716965
_cell_length_b 25.293215
_cell_length_c 9.605444
_cell_angle_alpha 90.000000
_cell_angle_beta 90.000000
_cell_angle_gamma 90.000000
_cell_volume 2117.808964
_symmetry_space_group_name_H-M "P M N A"
_symmetry_group_IT_number 53
_symmetry_cell_setting 'orthorhombic'
loop_
_space_group_symop_operation_xyz
x,y,z
1/2-x,-y,1/2+z
x,-y,-z
1/2-x,y,1/2-z
-x,-y,-z
1/2+x,y,1/2-z
-x,y,z
1/2+x,-y,1/2+z
loop_
_atom_site_type_symbol
_atom_site_label
_atom_site_fract_x
_atom_site_fract_y
_atom_site_fract_z
Si Si1 0.681286 0.047927 0.402977
Si Si2 0.320246 0.138555 0.604506
Si Si3 0.818052 0.656203 0.598200
Si Si4 0.818640 0.259213 0.896718
Si Si5 0.319108 0.452018 0.400246
O O1 0.750000 0.043616 0.250000
O O2 0.500000 0.046484 0.387023
O O3 0.737664 0.102018 0.477447
O O4 0.739191 0.000000 0.500000
O O5 0.250000 0.118969 0.750000
O O6 0.500000 0.132778 0.623111
O O7 0.272880 0.198684 0.570898
O O8 0.750000 0.663476 0.750000
O O9 0.761837 0.705793 0.511653
O O10 0.754957 0.601130 0.534843
O O11 0.000000 0.654697 0.603357
O O12 0.750000 0.277102 0.750000
O O13 0.000000 0.268125 0.897384
O O14 0.275102 0.500000 0.500000
O O15 0.250000 0.464777 0.250000
O O16 0.500000 0.443825 0.386539
#
# Coordination Sequence:
#
# PCOD8220487 Si02
#       5
#     8   8   8   8   8
#     4  10  21  36  54  79 109 140 178 221 266 318
#     4   9  19  35  55  79 107 140 177 220 266 316
#     4  11  22  37  57  80 109 144 181 223 272 322
#     4  10  20  36  56  80 110 142 181 224 269 321
#     4  10  21  37  57  81 109 141 179 222 268 320
#
# _framework density 18.887445
#
# number of rings (size 3 to 8) (size 9 to 14) (size 15 to 20)
#    0.000    2.000    0.000    4.800    0.000    5.200 
#    0.000    4.000    0.000    0.000    0.000    0.000 
#    0.000    0.000    0.000    0.000    0.000    0.000 
#
# Total GULP energy -496062.382992 kJ/mol
# GULP energy per Si atom -12401.559575 kJ/mol
# Density = 1.884446 g / cm^3
# Si number density = 18.887445 Si / 1000 Ang^3
#
#
#
# Elastic Constant Matrix: (Units=GPa)
#
#
# Indices 1 2 3 4 5 6 
#
# 1 88.1489 53.3873 49.3128 0.0000 0.0000 0.0000
# 2 53.3873 135.0438 89.3482 0.0000 0.0000 0.0000
# 3 49.3128 89.3482 126.5994 0.0000 0.0000 0.0000
# 4 0.0000 0.0000 0.0000 41.8687 0.0000 0.0000
# 5 0.0000 0.0000 0.0000 0.0000 36.5721 0.0000
# 6 0.0000 0.0000 0.0000 0.0000 0.0000 16.3686
#
#
#
# Elastic Compliance Matrix: (Units=1/GPa)
#
#
# Indices 1 2 3 4 5 6 
#
# 1 0.015590 -0.004025 -0.003232 0.000000 0.000000 0.000000
# 2 -0.004025 0.014931 -0.008970 0.000000 0.000000 0.000000
# 3 -0.003232 -0.008970 0.015488 0.000000 0.000000 0.000000
# 4 0.000000 0.000000 0.000000 0.023884 0.000000 0.000000
# 5 0.000000 0.000000 0.000000 0.000000 0.027343 0.000000
# 6 0.000000 0.000000 0.000000 0.000000 0.000000 0.061093
#
#
# Mechanical properties :
#
#
# Convention : Reuss Voigt Hill
#
# Bulk Modulus (GPa) = 73.76850 81.54320 77.65585
# Shear Modulus (GPa) = 25.60145 29.47811 27.53978
#
# Velocity S-wave (km/s) = 3.68567 3.95489 3.82265
# Velocity P-wave (km/s) = 7.56663 8.00761 7.79024
#
# Compressibility (1/GPa) = 0.01355592
#
# Stress axis : x y z
#
# Youngs Moduli (GPa) = 64.14269 66.97594 64.56489
#
# Poissons Ratio (x) = 0.26957 0.20868
# Poissons Ratio (y) = 0.25817 0.57913
# Poissons Ratio (z) = 0.20731 0.60075
#
# Static dielectric constant tensor:
#      x y z
#    x 3.502570 0.000000 0.000000 
#    y 0.000000 3.819500 0.000000 
#    z 0.000000 0.000000 3.526390 
# 
# 
# High freq. dielectric constant tensor:
#      x y z
#    x 1.740780 0.000000 0.000000 
#    y 0.000000 1.747670 0.000000 
#    z 0.000000 0.000000 1.732480 
# 
# From -- ./inp_files/6272.got.cif
#   From: 2010.03.12/outbox.cif.g09.slc.cpg/sg53_4_cif.got.tgz:6272.got - 2010.04.16 14:36:59.
