data_PCOD8220274
_publ_section_title
;
Structure prediction by ZEFSAII (Michael W. Deem and Ramdas Pophale) SiO2 
 PCOD8220274
Probable space group: P M N A
;
_chemical_formula_sum "Si O2"
_cell_formula_units_Z 48
_cell_length_a 8.741998
_cell_length_b 30.209242
_cell_length_c 9.372888
_cell_angle_alpha 90.000000
_cell_angle_beta 90.000000
_cell_angle_gamma 90.000000
_cell_volume 2475.277867
_symmetry_space_group_name_H-M "P M N A"
_symmetry_group_IT_number 53
_symmetry_cell_setting 'orthorhombic'
loop_
_space_group_symop_operation_xyz
x,y,z
1/2-x,-y,1/2+z
x,-y,-z
1/2-x,y,1/2-z
-x,-y,-z
1/2+x,y,1/2-z
-x,y,z
1/2+x,-y,1/2+z
loop_
_atom_site_type_symbol
_atom_site_label
_atom_site_fract_x
_atom_site_fract_y
_atom_site_fract_z
Si Si1 0.177331 0.538440 0.902958
Si Si2 0.821834 0.956790 0.405117
Si Si3 0.677332 0.364044 0.403139
Si Si4 0.181107 0.807917 0.401196
Si Si5 0.181912 0.119819 0.093573
Si Si6 0.178512 0.706498 0.396111
O O1 0.250000 0.535364 0.750000
O O2 0.202995 0.587237 0.973275
O O3 0.000000 0.528931 0.881810
O O4 0.251905 0.500000 0.000000
O O5 0.750000 0.965125 0.250000
O O6 0.734502 0.917458 0.483376
O O7 0.000000 0.944516 0.388606
O O8 0.798440 0.000000 0.500000
O O9 0.750000 0.366136 0.250000
O O10 0.500000 0.351857 0.393874
O O11 0.762815 0.325113 0.482117
O O12 0.250000 0.824266 0.250000
O O13 0.257274 0.833766 0.532427
O O14 0.225751 0.756981 0.428610
O O15 0.000000 0.815996 0.399109
O O16 0.250000 0.110860 0.250000
O O17 0.000000 0.120341 0.105184
O O18 0.250000 0.689589 0.250000
O O19 0.000000 0.701906 0.381554
#
# Coordination Sequence:
#
# PCOD8220274 Si02
#       6
#     8   8   8   8   8   8
#     4   9  19  35  53  76 105 138 178 222 270 325
#     4  11  24  42  65  92 123 159 198 240 287 339
#     4  10  20  35  55  78 108 144 182 226 275 330
#     4  10  21  39  61  85 114 149 189 232 281 335
#     4  12  25  41  62  88 120 155 194 240 287 338
#     4  10  21  37  58  83 112 146 185 230 278 332
#
# _framework density 19.391762
#
# number of rings (size 3 to 8) (size 9 to 14) (size 15 to 20)
#    0.000    1.667    0.000    4.500    0.000    7.000 
#    0.000    1.667    0.000    0.000    0.000    0.000 
#    0.000    0.000    0.000    0.000    0.000    0.000 
#
# Total GULP energy -595245.282727 kJ/mol
# GULP energy per Si atom -12400.943390 kJ/mol
# Density = 1.934763 g / cm^3
# Si number density = 19.391762 Si / 1000 Ang^3
#
#
#
# Elastic Constant Matrix: (Units=GPa)
#
#
# Indices 1 2 3 4 5 6 
#
# 1 89.4848 40.4657 37.7465 0.0000 0.0000 0.0000
# 2 40.4657 97.4688 46.9115 0.0000 0.0000 0.0000
# 3 37.7465 46.9115 100.4588 0.0000 0.0000 0.0000
# 4 0.0000 0.0000 0.0000 38.1774 0.0000 0.0000
# 5 0.0000 0.0000 0.0000 0.0000 38.6946 0.0000
# 6 0.0000 0.0000 0.0000 0.0000 0.0000 29.6098
#
#
#
# Elastic Compliance Matrix: (Units=1/GPa)
#
#
# Indices 1 2 3 4 5 6 
#
# 1 0.014620 -0.004419 -0.003430 0.000000 0.000000 0.000000
# 2 -0.004419 0.014570 -0.005143 0.000000 0.000000 0.000000
# 3 -0.003430 -0.005143 0.013645 0.000000 0.000000 0.000000
# 4 0.000000 0.000000 0.000000 0.026194 0.000000 0.000000
# 5 0.000000 0.000000 0.000000 0.000000 0.025843 0.000000
# 6 0.000000 0.000000 0.000000 0.000000 0.000000 0.033773
#
#
# Mechanical properties :
#
#
# Convention : Reuss Voigt Hill
#
# Bulk Modulus (GPa) = 59.34542 59.73999 59.54271
# Shear Modulus (GPa) = 31.20214 32.11560 31.65887
#
# Velocity S-wave (km/s) = 4.01564 4.07399 4.04492
# Velocity P-wave (km/s) = 7.22290 7.28036 7.25169
#
# Compressibility (1/GPa) = 0.01685050
#
# Stress axis : x y z
#
# Youngs Moduli (GPa) = 68.39870 68.63528 73.28781
#
# Poissons Ratio (x) = 0.30330 0.25137
# Poissons Ratio (y) = 0.30225 0.37694
# Poissons Ratio (z) = 0.23460 0.35301
#
# Static dielectric constant tensor:
#      x y z
#    x 3.688150 0.000000 0.000000 
#    y 0.000000 3.916110 0.000000 
#    z 0.000000 0.000000 3.340160 
# 
# 
# High freq. dielectric constant tensor:
#      x y z
#    x 1.769320 0.000000 0.000000 
#    y 0.000000 1.770210 0.000000 
#    z 0.000000 0.000000 1.753420 
# 
# From -- ./inp_files/6720.got.cif
#   From: 2010.03.12/outbox.cif.g09.slc.cpg/sg53_4_cif.got.tgz:6720.got - 2010.04.16 14:36:59.
