data_PCOD8220065
_publ_section_title
;
Structure prediction by ZEFSAII (Michael W. Deem and Ramdas Pophale) SiO2 
 PCOD8220065
Probable space group: P M N A
;
_chemical_formula_sum "Si O2"
_cell_formula_units_Z 48
_cell_length_a 8.849348
_cell_length_b 18.059778
_cell_length_c 16.457666
_cell_angle_alpha 90.000000
_cell_angle_beta 90.000000
_cell_angle_gamma 90.000000
_cell_volume 2630.219091
_symmetry_space_group_name_H-M "P M N A"
_symmetry_group_IT_number 53
_symmetry_cell_setting 'orthorhombic'
loop_
_space_group_symop_operation_xyz
x,y,z
1/2-x,-y,1/2+z
x,-y,-z
1/2-x,y,1/2-z
-x,-y,-z
1/2+x,y,1/2-z
-x,y,z
1/2+x,-y,1/2+z
loop_
_atom_site_type_symbol
_atom_site_label
_atom_site_fract_x
_atom_site_fract_y
_atom_site_fract_z
Si Si1 0.675914 0.576406 0.668454
Si Si2 0.820731 0.906276 0.165180
Si Si3 0.166004 0.951026 0.920408
Si Si4 0.669995 0.549658 0.079561
Si Si5 0.324037 0.674280 0.511713
Si Si6 0.677240 0.170230 0.987954
O O1 0.750000 0.609464 0.750000
O O2 0.500000 0.563361 0.681564
O O3 0.750888 0.496677 0.650820
O O4 0.707531 0.634434 0.597057
O O5 0.750000 0.880481 0.250000
O O6 0.758522 0.853155 0.094980
O O7 0.000000 0.897200 0.167310
O O8 0.775153 0.992593 0.149338
O O9 0.000000 0.918570 0.898033
O O10 0.280917 0.883911 0.936601
O O11 0.149669 0.000000 0.000000
O O12 0.500000 0.571371 0.105775
O O13 0.766277 0.623542 0.062578
O O14 0.667796 0.500000 0.000000
O O15 0.500000 0.691335 0.498625
O O16 0.228519 0.748680 0.513174
O O17 0.500000 0.167504 0.973674
#
# Coordination Sequence:
#
# PCOD8220065 Si02
#       6
#     8   8   8   8   8   8
#     4  10  20  34  54  78 104 136 173 215 261 307
#     4  10  20  35  55  78 105 136 172 215 262 309
#     4   8  16  32  52  73  99 132 168 207 251 300
#     4   9  17  31  52  76 101 130 167 208 249 300
#     4  10  20  35  54  76 105 140 176 213 258 310
#     4  11  21  33  53  79 106 138 176 214 257 311
#
# _framework density 18.24943
#
# number of rings (size 3 to 8) (size 9 to 14) (size 15 to 20)
#    0.000    2.333    0.000    4.500    0.000    7.667 
#    0.000    1.667    0.000    0.000    0.000    0.000 
#    0.000    0.000    0.000    0.000    0.000    0.000 
#
# Total GULP energy -595139.321444 kJ/mol
# GULP energy per Si atom -12398.735863 kJ/mol
# Density = 1.820789 g / cm^3
# Si number density = 18.249430 Si / 1000 Ang^3
#
#
#
# Elastic Constant Matrix: (Units=GPa)
#
#
# Indices 1 2 3 4 5 6 
#
# 1 116.8798 45.4152 41.8888 0.0000 0.0000 0.0000
# 2 45.4152 91.4337 26.4852 0.0000 0.0000 0.0000
# 3 41.8888 26.4852 72.6245 0.0000 0.0000 0.0000
# 4 0.0000 0.0000 0.0000 15.3011 0.0000 0.0000
# 5 0.0000 0.0000 0.0000 0.0000 28.1294 0.0000
# 6 0.0000 0.0000 0.0000 0.0000 0.0000 31.4032
#
#
#
# Elastic Compliance Matrix: (Units=1/GPa)
#
#
# Indices 1 2 3 4 5 6 
#
# 1 0.012253 -0.004516 -0.005421 0.000000 0.000000 0.000000
# 2 -0.004516 0.013893 -0.002462 0.000000 0.000000 0.000000
# 3 -0.005421 -0.002462 0.017794 0.000000 0.000000 0.000000
# 4 0.000000 0.000000 0.000000 0.065355 0.000000 0.000000
# 5 0.000000 0.000000 0.000000 0.000000 0.035550 0.000000
# 6 0.000000 0.000000 0.000000 0.000000 0.000000 0.031844
#
#
# Mechanical properties :
#
#
# Convention : Reuss Voigt Hill
#
# Bulk Modulus (GPa) = 52.23778 56.50181 54.36980
# Shear Modulus (GPa) = 24.05388 26.10999 25.08194
#
# Velocity S-wave (km/s) = 3.63445 3.78660 3.71131
# Velocity P-wave (km/s) = 6.80432 7.08138 6.94423
#
# Compressibility (1/GPa) = 0.01914323
#
# Stress axis : x y z
#
# Youngs Moduli (GPa) = 81.61095 71.97804 56.19939
#
# Poissons Ratio (x) = 0.32506 0.30463
# Poissons Ratio (y) = 0.36856 0.13835
# Poissons Ratio (z) = 0.44238 0.17720
#
# Static dielectric constant tensor:
#      x y z
#    x 3.491150 0.000000 0.000000 
#    y 0.000000 3.360350 0.000000 
#    z 0.000000 0.000000 3.367850 
# 
# 
# High freq. dielectric constant tensor:
#      x y z
#    x 1.721640 0.000000 0.000000 
#    y 0.000000 1.696080 0.000000 
#    z 0.000000 0.000000 1.686840 
# 
# From -- ./inp_files/26396.got.cif
#   From: 2010.03.12/outbox.cif.g09.slc.cpg/sg53_14_cif.got.tgz:26396.got - 2010.04.16 14:36:59.
