data_PCOD8220013
_publ_section_title
;
Structure prediction by ZEFSAII (Michael W. Deem and Ramdas Pophale) SiO2 
 PCOD8220013
Probable space group: P M N A
;
_chemical_formula_sum "Si O2"
_cell_formula_units_Z 64
_cell_length_a 9.044153
_cell_length_b 23.227844
_cell_length_c 17.402793
_cell_angle_alpha 90.000000
_cell_angle_beta 90.000000
_cell_angle_gamma 90.000000
_cell_volume 3655.912188
_symmetry_space_group_name_H-M "P M N A"
_symmetry_group_IT_number 53
_symmetry_cell_setting 'orthorhombic'
loop_
_space_group_symop_operation_xyz
x,y,z
1/2-x,-y,1/2+z
x,-y,-z
1/2-x,y,1/2-z
-x,-y,-z
1/2+x,y,1/2-z
-x,y,z
1/2+x,-y,1/2+z
loop_
_atom_site_type_symbol
_atom_site_label
_atom_site_fract_x
_atom_site_fract_y
_atom_site_fract_z
Si Si1 0.323034 0.432976 0.169148
Si Si2 0.171075 0.936298 0.594508
Si Si3 0.338925 0.462954 0.923880
Si Si4 0.330705 0.871337 0.459897
Si Si5 0.823452 0.636248 0.521421
Si Si6 0.668966 0.041936 0.670293
Si Si7 0.332423 0.179532 0.174433
Si Si8 0.824204 0.766188 0.517081
O O1 0.250000 0.416738 0.250000
O O2 0.500000 0.433845 0.177264
O O3 0.262300 0.496289 0.140707
O O4 0.272672 0.385459 0.105949
O O5 0.241634 0.913068 0.516448
O O6 0.186640 0.888715 0.661414
O O7 0.000000 0.950561 0.578443
O O8 0.255283 0.992955 0.619844
O O9 0.500000 0.446064 0.891085
O O10 0.360212 0.500000 0.000000
O O11 0.256406 0.404141 0.952085
O O12 0.500000 0.866669 0.488078
O O13 0.321933 0.897881 0.374935
O O14 0.256735 0.807907 0.456224
O O15 0.769461 0.700955 0.505415
O O16 0.000000 0.632112 0.518452
O O17 0.750000 0.051007 0.750000
O O18 0.500000 0.023663 0.685669
O O19 0.250000 0.200195 0.250000
O O20 0.500000 0.197154 0.187378
O O21 0.270555 0.214029 0.101320
O O22 0.000000 0.773231 0.507653
#
# Coordination Sequence:
#
# PCOD8220013 Si02
#       8
#     8   8   8   8   8   8   8   8
#     4   9  16  26  43  69  99 125 150 185 230 278
#     4  10  20  34  53  75  98 126 161 198 237 286
#     4   7  11  22  42  65  86 114 153 189 218 255
#     4  10  21  36  52  72  99 128 159 198 243 289
#     4   8  14  27  47  67  87 118 162 201 226 265
#     4  11  23  36  52  75 100 125 155 195 244 295
#     4   9  18  29  41  62  91 121 151 184 224 272
#     4   9  18  32  49  68  89 119 163 205 237 275
#
# _framework density 17.505891999999999
#
# number of rings (size 3 to 8) (size 9 to 14) (size 15 to 20)
#    0.000    2.875    0.000    4.125    0.000    7.500 
#    0.000    0.625    0.000    4.875    0.000    3.500 
#    0.000    0.000    0.000    0.000    0.000    0.000 
#
# Total GULP energy -793064.089302 kJ/mol
# GULP energy per Si atom -12391.626395 kJ/mol
# Density = 1.746605 g / cm^3
# Si number density = 17.505892 Si / 1000 Ang^3
#
#
#
# Elastic Constant Matrix: (Units=GPa)
#
#
# Indices 1 2 3 4 5 6 
#
# 1 70.4450 39.9088 28.7978 0.0000 0.0000 0.0000
# 2 39.9088 132.4981 40.6249 0.0000 0.0000 0.0000
# 3 28.7978 40.6249 53.8609 0.0000 0.0000 0.0000
# 4 0.0000 0.0000 0.0000 15.4945 0.0000 0.0000
# 5 0.0000 0.0000 0.0000 0.0000 21.7494 0.0000
# 6 0.0000 0.0000 0.0000 0.0000 0.0000 18.2410
#
#
#
# Elastic Compliance Matrix: (Units=1/GPa)
#
#
# Indices 1 2 3 4 5 6 
#
# 1 0.019305 -0.003447 -0.007722 0.000000 0.000000 0.000000
# 2 -0.003447 0.010433 -0.006026 0.000000 0.000000 0.000000
# 3 -0.007722 -0.006026 0.027240 0.000000 0.000000 0.000000
# 4 0.000000 0.000000 0.000000 0.064539 0.000000 0.000000
# 5 0.000000 0.000000 0.000000 0.000000 0.045978 0.000000
# 6 0.000000 0.000000 0.000000 0.000000 0.000000 0.054821
#
#
# Mechanical properties :
#
#
# Convention : Reuss Voigt Hill
#
# Bulk Modulus (GPa) = 44.27092 52.82967 48.55030
# Shear Modulus (GPa) = 18.92239 20.92849 19.92544
#
# Velocity S-wave (km/s) = 3.29130 3.46137 3.37740
# Velocity P-wave (km/s) = 6.30774 6.79842 6.55767
#
# Compressibility (1/GPa) = 0.02258819
#
# Stress axis : x y z
#
# Youngs Moduli (GPa) = 51.80004 95.84720 36.71034
#
# Poissons Ratio (x) = 0.33040 0.28347
# Poissons Ratio (y) = 0.17856 0.22123
# Poissons Ratio (z) = 0.39999 0.57760
#
# Static dielectric constant tensor:
#      x y z
#    x 3.058160 0.000000 0.000000 
#    y 0.000000 3.514890 0.000000 
#    z 0.000000 0.000000 3.171900 
# 
# 
# High freq. dielectric constant tensor:
#      x y z
#    x 1.653220 0.000000 0.000000 
#    y 0.000000 1.674460 0.000000 
#    z 0.000000 0.000000 1.657150 
# 
# From -- ./inp_files/27035.got.cif
#   From: 2010.03.12/outbox.cif.g09.slc.cpg/sg53_14_cif.got.tgz:27035.got - 2010.04.16 14:36:59.
