data_PCOD8220706
_publ_section_title
;
Structure prediction by ZEFSAII (Michael W. Deem and Ramdas Pophale) SiO2 
 PCOD8220706
Probable space group: P M N A
;
_chemical_formula_sum "Si O2"
_cell_formula_units_Z 32
_cell_length_a 15.169467
_cell_length_b 8.735314
_cell_length_c 10.989987
_cell_angle_alpha 90.000000
_cell_angle_beta 90.000000
_cell_angle_gamma 90.000000
_cell_volume 1456.283809
_symmetry_space_group_name_H-M "P M N A"
_symmetry_group_IT_number 53
_symmetry_cell_setting 'orthorhombic'
loop_
_space_group_symop_operation_xyz
x,y,z
1/2-x,-y,1/2+z
x,-y,-z
1/2-x,y,1/2-z
-x,-y,-z
1/2+x,y,1/2-z
-x,y,z
1/2+x,-y,1/2+z
loop_
_atom_site_type_symbol
_atom_site_label
_atom_site_fract_x
_atom_site_fract_y
_atom_site_fract_z
Si Si1 0.500000 0.306025 0.381077
Si Si2 0.767802 0.500000 0.500000
Si Si3 0.500000 0.662476 0.336098
Si Si4 0.163532 0.261377 0.672717
Si Si5 0.810306 0.238226 0.141467
Si Si6 0.291177 0.000000 0.000000
O O1 0.500000 0.479926 0.336716
O O2 0.500000 0.278251 0.525883
O O3 0.586487 0.223415 0.324547
O O4 0.829568 0.574329 0.396070
O O5 0.699492 0.631326 0.539721
O O6 0.416345 0.730547 0.266040
O O7 0.250000 0.225701 0.750000
O O8 0.149600 0.125681 0.571967
O O9 0.750000 0.298643 0.250000
O O10 0.773132 0.076708 0.098125
#
# Coordination Sequence:
#
# PCOD8220706 Si02
#       6
#     4   4   4   8   8   4
#     4  11  22  37  64  99 122 154 212 262 312 377
#     4  10  20  36  62  90 124 166 208 256 314 378
#     4  11  22  38  66  96 124 161 208 264 318 370
#     4  11  22  40  63  90 127 168 211 264 319 370
#     4  11  22  40  63  90 126 163 204 258 313 369
#     4  10  24  42  60  86 126 172 212 250 310 382
#
# _framework density 21.973738999999998
#
# number of rings (size 3 to 8) (size 9 to 14) (size 15 to 20)
#    0.000    1.250    0.000    9.000    0.000    1.500 
#    0.000   10.000    0.000    0.000    0.000    0.000 
#    0.000    0.000    0.000    0.000    0.000    0.000 
#
# Total GULP energy -396811.729452 kJ/mol
# GULP energy per Si atom -12400.366545 kJ/mol
# Density = 2.192373 g / cm^3
# Si number density = 21.973739 Si / 1000 Ang^3
#
#
#
# Elastic Constant Matrix: (Units=GPa)
#
#
# Indices 1 2 3 4 5 6 
#
# 1 170.5366 24.1939 60.0680 0.0000 0.0000 0.0000
# 2 24.1939 92.8003 27.8333 0.0000 0.0000 0.0000
# 3 60.0680 27.8333 93.0620 0.0000 0.0000 0.0000
# 4 0.0000 0.0000 0.0000 30.5384 0.0000 0.0000
# 5 0.0000 0.0000 0.0000 0.0000 38.7686 0.0000
# 6 0.0000 0.0000 0.0000 0.0000 0.0000 15.5022
#
#
#
# Elastic Compliance Matrix: (Units=1/GPa)
#
#
# Indices 1 2 3 4 5 6 
#
# 1 0.007616 -0.000562 -0.004748 0.000000 0.000000 0.000000
# 2 -0.000562 0.011879 -0.003190 0.000000 0.000000 0.000000
# 3 -0.004748 -0.003190 0.014764 0.000000 0.000000 0.000000
# 4 0.000000 0.000000 0.000000 0.032746 0.000000 0.000000
# 5 0.000000 0.000000 0.000000 0.000000 0.025794 0.000000
# 6 0.000000 0.000000 0.000000 0.000000 0.000000 0.064507
#
#
# Mechanical properties :
#
#
# Convention : Reuss Voigt Hill
#
# Bulk Modulus (GPa) = 57.93829 64.50993 61.22411
# Shear Modulus (GPa) = 27.76876 33.24875 30.50875
#
# Velocity S-wave (km/s) = 3.55875 3.89410 3.73019
# Velocity P-wave (km/s) = 6.58107 7.04557 6.81728
#
# Compressibility (1/GPa) = 0.01725974
#
# Stress axis : x y z
#
# Youngs Moduli (GPa) = 131.30571 84.18140 67.73119
#
# Poissons Ratio (x) = 0.04727 0.32157
# Poissons Ratio (y) = 0.07373 0.21609
# Poissons Ratio (z) = 0.62341 0.26857
#
# Static dielectric constant tensor:
#      x y z
#    x 4.006510 0.000000 0.000000 
#    y 0.000000 3.929720 0.000000 
#    z 0.000000 0.000000 4.285710 
# 
# 
# High freq. dielectric constant tensor:
#      x y z
#    x 1.848030 0.000000 0.000000 
#    y 0.000000 1.866550 0.000000 
#    z 0.000000 0.000000 1.871550 
# 
# From -- ./inp_files/15493.got.cif
#   From: 2010.03.12/outbox.cif.g09.slc.cpg/sg53_8_cif.got.tgz:15493.got - 2010.04.16 14:36:59.
