data_PCOD8220745
_publ_section_title
;
Structure prediction by ZEFSAII (Michael W. Deem and Ramdas Pophale) SiO2 
 PCOD8220745
Probable space group: P M N A
;
_chemical_formula_sum "Si O2"
_cell_formula_units_Z 48
_cell_length_a 9.235771
_cell_length_b 18.680935
_cell_length_c 14.692555
_cell_angle_alpha 90.000000
_cell_angle_beta 90.000000
_cell_angle_gamma 90.000000
_cell_volume 2534.948208
_symmetry_space_group_name_H-M "P M N A"
_symmetry_group_IT_number 53
_symmetry_cell_setting 'orthorhombic'
loop_
_space_group_symop_operation_xyz
x,y,z
1/2-x,-y,1/2+z
x,-y,-z
1/2-x,y,1/2-z
-x,-y,-z
1/2+x,y,1/2-z
-x,y,z
1/2+x,-y,1/2+z
loop_
_atom_site_type_symbol
_atom_site_label
_atom_site_fract_x
_atom_site_fract_y
_atom_site_fract_z
Si Si1 0.165304 0.486152 0.398415
Si Si2 0.671222 0.107764 0.511016
Si Si3 0.334242 0.731521 0.483004
Si Si4 0.334389 0.644122 0.162498
Si Si5 0.335342 0.350532 0.333876
Si Si6 0.671846 0.010137 0.347312
O O1 0.221439 0.500000 0.500000
O O2 0.179243 0.558745 0.341352
O O3 0.267357 0.427483 0.354568
O O4 0.000000 0.458120 0.400319
O O5 0.500000 0.107768 0.505095
O O6 0.729908 0.188285 0.522423
O O7 0.725016 0.073781 0.415094
O O8 0.718501 0.062813 0.600224
O O9 0.500000 0.727789 0.447859
O O10 0.234554 0.678822 0.426220
O O11 0.323723 0.706272 0.586189
O O12 0.250000 0.673508 0.250000
O O13 0.500000 0.668698 0.169212
O O14 0.250000 0.315190 0.250000
O O15 0.500000 0.365184 0.305874
O O16 0.750000 0.015713 0.250000
O O17 0.500000 0.012688 0.330370
#
# Coordination Sequence:
#
# PCOD8220745 Si02
#       6
#     8   8   8   8   8   8
#     4  10  20  37  59  80 105 138 179 230 279 323
#     4   8  17  35  56  78 109 146 178 212 262 319
#     4  10  21  38  57  79 109 145 184 223 267 323
#     4  11  23  38  57  80 108 142 181 226 276 325
#     4  11  23  36  55  80 108 143 183 227 275 327
#     4   9  17  33  58  83 108 141 178 217 260 310
#
# _framework density 18.935296999999998
#
# number of rings (size 3 to 8) (size 9 to 14) (size 15 to 20)
#    0.000    2.167    1.667    2.500    0.000    5.000 
#    0.000    5.000    0.000    0.000    0.000    0.000 
#    0.000    0.000    0.000    0.000    0.000    0.000 
#
# Total GULP energy -595169.012962 kJ/mol
# GULP energy per Si atom -12399.354437 kJ/mol
# Density = 1.889220 g / cm^3
# Si number density = 18.935297 Si / 1000 Ang^3
#
#
#
# Elastic Constant Matrix: (Units=GPa)
#
#
# Indices 1 2 3 4 5 6 
#
# 1 88.6622 23.5161 39.4397 0.0000 0.0000 0.0000
# 2 23.5161 71.8121 0.4933 0.0000 0.0000 0.0000
# 3 39.4397 0.4933 94.7180 0.0000 0.0000 0.0000
# 4 0.0000 0.0000 0.0000 12.0504 0.0000 0.0000
# 5 0.0000 0.0000 0.0000 0.0000 37.9229 0.0000
# 6 0.0000 0.0000 0.0000 0.0000 0.0000 14.2226
#
#
#
# Elastic Compliance Matrix: (Units=1/GPa)
#
#
# Indices 1 2 3 4 5 6 
#
# 1 0.015462 -0.005019 -0.006412 0.000000 0.000000 0.000000
# 2 -0.005019 0.015555 0.002009 0.000000 0.000000 0.000000
# 3 -0.006412 0.002009 0.013217 0.000000 0.000000 0.000000
# 4 0.000000 0.000000 0.000000 0.082985 0.000000 0.000000
# 5 0.000000 0.000000 0.000000 0.000000 0.026369 0.000000
# 6 0.000000 0.000000 0.000000 0.000000 0.000000 0.070310
#
#
# Mechanical properties :
#
#
# Convention : Reuss Voigt Hill
#
# Bulk Modulus (GPa) = 39.38644 42.45452 40.92048
# Shear Modulus (GPa) = 19.90385 25.62207 22.76296
#
# Velocity S-wave (km/s) = 3.24566 3.68249 3.47096
# Velocity P-wave (km/s) = 5.90690 6.36793 6.14174
#
# Compressibility (1/GPa) = 0.02538945
#
# Stress axis : x y z
#
# Youngs Moduli (GPa) = 64.67281 64.28750 75.65901
#
# Poissons Ratio (x) = 0.32268 0.48515
# Poissons Ratio (y) = 0.32462 -0.15200
# Poissons Ratio (z) = 0.41470 -0.12915
#
# Static dielectric constant tensor:
#      x y z
#    x 3.369010 0.000000 0.000000 
#    y 0.000000 3.692380 0.000000 
#    z 0.000000 0.000000 3.583440 
# 
# 
# High freq. dielectric constant tensor:
#      x y z
#    x 1.719860 0.000000 0.000000 
#    y 0.000000 1.729350 0.000000 
#    z 0.000000 0.000000 1.746870 
# 
# From -- ./inp_files/20156.got.cif
#   From: 2010.03.12/outbox.cif.g09.slc.cpg/sg53_11_cif.got.tgz:20156.got - 2010.04.16 14:36:59.
