data_PCOD8220453
_publ_section_title
;
Structure prediction by ZEFSAII (Michael W. Deem and Ramdas Pophale) SiO2 
 PCOD8220453
Probable space group: P M N A
;
_chemical_formula_sum "Si O2"
_cell_formula_units_Z 40
_cell_length_a 8.740343
_cell_length_b 25.387987
_cell_length_c 9.997805
_cell_angle_alpha 90.000000
_cell_angle_beta 90.000000
_cell_angle_gamma 90.000000
_cell_volume 2218.510075
_symmetry_space_group_name_H-M "P M N A"
_symmetry_group_IT_number 53
_symmetry_cell_setting 'orthorhombic'
loop_
_space_group_symop_operation_xyz
x,y,z
1/2-x,-y,1/2+z
x,-y,-z
1/2-x,y,1/2-z
-x,-y,-z
1/2+x,y,1/2-z
-x,y,z
1/2+x,-y,1/2+z
loop_
_atom_site_type_symbol
_atom_site_label
_atom_site_fract_x
_atom_site_fract_y
_atom_site_fract_z
Si Si1 0.818654 0.237682 0.398465
Si Si2 0.680842 0.840706 0.391328
Si Si3 0.820377 0.961384 0.112324
Si Si4 0.321379 0.458082 0.395405
Si Si5 0.178667 0.342063 0.105305
O O1 0.750000 0.232067 0.250000
O O2 0.757071 0.190767 0.488590
O O3 0.764324 0.293211 0.466848
O O4 0.000000 0.235392 0.390876
O O5 0.750000 0.821768 0.250000
O O6 0.500000 0.831354 0.389380
O O7 0.725432 0.901287 0.418565
O O8 0.750000 0.981098 0.250000
O O9 0.000000 0.967592 0.123214
O O10 0.752248 0.000000 0.000000
O O11 0.250873 0.500000 0.500000
O O12 0.250000 0.466007 0.250000
O O13 0.500000 0.467937 0.376118
O O14 0.291921 0.399685 0.459221
O O15 0.250000 0.346300 0.250000
O O16 0.000000 0.328538 0.113423
#
# Coordination Sequence:
#
# PCOD8220453 Si02
#       5
#     8   8   8   8   8
#     4  11  21  34  53  77 103 132 171 214 255 300
#     4  10  20  36  55  76 105 138 171 207 253 305
#     4   9  19  35  54  77 104 134 168 206 248 296
#     4   9  18  32  50  73 100 130 164 204 249 297
#     4   9  16  29  49  71  98 130 165 206 251 297
#
# _framework density 18.030118000000002
#
# number of rings (size 3 to 8) (size 9 to 14) (size 15 to 20)
#    0.000    2.400    0.000    4.200    0.000    3.200 
#    0.000    3.000    0.000    2.400    0.000    0.000 
#    0.000    0.000    0.000    0.000    0.000    0.000 
#
# Total GULP energy -495782.572150 kJ/mol
# GULP energy per Si atom -12394.564304 kJ/mol
# Density = 1.798908 g / cm^3
# Si number density = 18.030118 Si / 1000 Ang^3
#
#
#
# Elastic Constant Matrix: (Units=GPa)
#
#
# Indices 1 2 3 4 5 6 
#
# 1 89.9225 50.2341 44.3755 0.0000 0.0000 0.0000
# 2 50.2341 127.6315 82.2779 0.0000 0.0000 0.0000
# 3 44.3755 82.2779 107.3297 0.0000 0.0000 0.0000
# 4 0.0000 0.0000 0.0000 35.7870 0.0000 0.0000
# 5 0.0000 0.0000 0.0000 0.0000 28.2063 0.0000
# 6 0.0000 0.0000 0.0000 0.0000 0.0000 18.7172
#
#
#
# Elastic Compliance Matrix: (Units=1/GPa)
#
#
# Indices 1 2 3 4 5 6 
#
# 1 0.014814 -0.003721 -0.003272 0.000000 0.000000 0.000000
# 2 -0.003721 0.016425 -0.011052 0.000000 0.000000 0.000000
# 3 -0.003272 -0.011052 0.019143 0.000000 0.000000 0.000000
# 4 0.000000 0.000000 0.000000 0.027943 0.000000 0.000000
# 5 0.000000 0.000000 0.000000 0.000000 0.035453 0.000000
# 6 0.000000 0.000000 0.000000 0.000000 0.000000 0.053427
#
#
# Mechanical properties :
#
#
# Convention : Reuss Voigt Hill
#
# Bulk Modulus (GPa) = 69.98033 75.40652 72.69343
# Shear Modulus (GPa) = 24.03150 26.40849 25.22000
#
# Velocity S-wave (km/s) = 3.65479 3.83128 3.74407
# Velocity P-wave (km/s) = 7.53042 7.84123 7.68740
#
# Compressibility (1/GPa) = 0.01428973
#
# Stress axis : x y z
#
# Youngs Moduli (GPa) = 67.50206 60.88396 52.23907
#
# Poissons Ratio (x) = 0.22656 0.17094
# Poissons Ratio (y) = 0.25119 0.57737
# Poissons Ratio (z) = 0.22089 0.67292
#
# Static dielectric constant tensor:
#      x y z
#    x 3.394510 0.000000 0.000000 
#    y 0.000000 4.097570 0.000000 
#    z 0.000000 0.000000 3.112110 
# 
# 
# High freq. dielectric constant tensor:
#      x y z
#    x 1.706730 0.000000 0.000000 
#    y 0.000000 1.714340 0.000000 
#    z 0.000000 0.000000 1.670610 
# 
# From -- ./inp_files/6425.got.cif
#   From: 2010.03.12/outbox.cif.g09.slc.cpg/sg53_4_cif.got.tgz:6425.got - 2010.04.16 14:36:59.
