data_PCOD8220805
_publ_section_title
;
Structure prediction by ZEFSAII (Michael W. Deem and Ramdas Pophale) SiO2 
 PCOD8220805
Probable space group: P M N A
;
_chemical_formula_sum "Si O2"
_cell_formula_units_Z 48
_cell_length_a 9.535469
_cell_length_b 28.761307
_cell_length_c 9.030673
_cell_angle_alpha 90.000000
_cell_angle_beta 90.000000
_cell_angle_gamma 90.000000
_cell_volume 2476.685110
_symmetry_space_group_name_H-M "P M N A"
_symmetry_group_IT_number 53
_symmetry_cell_setting 'orthorhombic'
loop_
_space_group_symop_operation_xyz
x,y,z
1/2-x,-y,1/2+z
x,-y,-z
1/2-x,y,1/2-z
-x,-y,-z
1/2+x,y,1/2-z
-x,y,z
1/2+x,-y,1/2+z
loop_
_atom_site_type_symbol
_atom_site_label
_atom_site_fract_x
_atom_site_fract_y
_atom_site_fract_z
Si Si1 0.837135 0.212939 0.603971
Si Si2 0.841216 0.039547 0.107171
Si Si3 0.160053 0.703300 0.616028
Si Si4 0.000000 0.449001 0.929905
Si Si5 0.753092 0.399582 0.421931
Si Si6 0.835412 0.855784 0.901857
Si Si7 0.000000 0.450504 0.575968
O O1 0.750000 0.223335 0.750000
O O2 0.837482 0.261134 0.517497
O O3 0.749108 0.173615 0.520986
O O4 0.000000 0.197276 0.632121
O O5 0.750000 0.036639 0.250000
O O6 0.830774 0.091241 0.038618
O O7 0.000000 0.027628 0.151065
O O8 0.780994 0.000000 0.000000
O O9 0.250000 0.725609 0.750000
O O10 0.236297 0.655944 0.568146
O O11 0.000000 0.693127 0.667311
O O12 0.000000 0.454661 0.753177
O O13 0.000000 0.500000 0.000000
O O14 0.876802 0.417640 0.988453
O O15 0.750000 0.416030 0.250000
O O16 0.872510 0.421746 0.517392
O O17 0.750000 0.850330 0.750000
O O18 0.000000 0.840112 0.882542
O O19 0.000000 0.500000 0.500000
#
# Coordination Sequence:
#
# PCOD8220805 Si02
#       7
#     8   8   8   4   8   8   4
#     4  11  24  41  60  89 124 160 200 251 307 362
#     4   9  19  35  55  82 116 154 199 249 303 362
#     4  10  23  42  66  92 120 157 199 242 296 358
#     4  12  26  42  64  96 124 166 206 246 309 358
#     4  11  23  43  65  93 124 159 204 251 301 362
#     4  10  20  37  60  86 117 158 206 254 304 366
#     4  12  24  42  66  90 128 162 200 254 299 364
#
# _framework density 19.380745000000001
#
# number of rings (size 3 to 8) (size 9 to 14) (size 15 to 20)
#    0.000    1.500    0.833    4.000    3.500    5.667 
#    0.000    1.667    0.000    0.000    0.000    0.000 
#    0.000    0.000    0.000    0.000    0.000    0.000 
#
# Total GULP energy -594938.715684 kJ/mol
# GULP energy per Si atom -12394.556577 kJ/mol
# Density = 1.933663 g / cm^3
# Si number density = 19.380745 Si / 1000 Ang^3
#
#
#
# Elastic Constant Matrix: (Units=GPa)
#
#
# Indices 1 2 3 4 5 6 
#
# 1 160.7705 55.0589 63.6202 0.0000 0.0000 0.0000
# 2 55.0589 91.9024 53.7501 0.0000 0.0000 0.0000
# 3 63.6202 53.7501 131.4529 0.0000 0.0000 0.0000
# 4 0.0000 0.0000 0.0000 36.9121 0.0000 0.0000
# 5 0.0000 0.0000 0.0000 0.0000 37.6505 0.0000
# 6 0.0000 0.0000 0.0000 0.0000 0.0000 35.1589
#
#
#
# Elastic Compliance Matrix: (Units=1/GPa)
#
#
# Indices 1 2 3 4 5 6 
#
# 1 0.008481 -0.003523 -0.002664 0.000000 0.000000 0.000000
# 2 -0.003523 0.015764 -0.004741 0.000000 0.000000 0.000000
# 3 -0.002664 -0.004741 0.010835 0.000000 0.000000 0.000000
# 4 0.000000 0.000000 0.000000 0.027091 0.000000 0.000000
# 5 0.000000 0.000000 0.000000 0.000000 0.026560 0.000000
# 6 0.000000 0.000000 0.000000 0.000000 0.000000 0.028442
#
#
# Mechanical properties :
#
#
# Convention : Reuss Voigt Hill
#
# Bulk Modulus (GPa) = 75.61600 80.99825 78.30712
# Shear Modulus (GPa) = 34.85829 36.05741 35.45785
#
# Velocity S-wave (km/s) = 4.24560 4.31800 4.28195
# Velocity P-wave (km/s) = 7.94570 8.16971 8.05848
#
# Compressibility (1/GPa) = 0.01322471
#
# Stress axis : x y z
#
# Youngs Moduli (GPa) = 117.91514 63.43397 92.29173
#
# Poissons Ratio (x) = 0.22346 0.24587
# Poissons Ratio (y) = 0.41538 0.43756
# Poissons Ratio (z) = 0.31413 0.30074
#
# Static dielectric constant tensor:
#      x y z
#    x 3.865280 0.000000 0.000000 
#    y 0.000000 4.110430 0.000000 
#    z 0.000000 0.000000 5.773540 
# 
# 
# High freq. dielectric constant tensor:
#      x y z
#    x 1.777920 0.000000 0.000000 
#    y 0.000000 1.766790 0.000000 
#    z 0.000000 0.000000 1.750910 
# 
# From -- ./inp_files/6837.got.cif
#   From: 2010.03.12/outbox.cif.g09.slc.cpg/sg53_4_cif.got.tgz:6837.got - 2010.04.16 14:36:59.
