data_PCOD8220568
_publ_section_title
;
Structure prediction by ZEFSAII (Michael W. Deem and Ramdas Pophale) SiO2 
 PCOD8220568
Probable space group: P M N A
;
_chemical_formula_sum "Si O2"
_cell_formula_units_Z 48
_cell_length_a 9.112964
_cell_length_b 9.018087
_cell_length_c 30.904898
_cell_angle_alpha 90.000000
_cell_angle_beta 90.000000
_cell_angle_gamma 90.000000
_cell_volume 2539.810942
_symmetry_space_group_name_H-M "P M N A"
_symmetry_group_IT_number 53
_symmetry_cell_setting 'orthorhombic'
loop_
_space_group_symop_operation_xyz
x,y,z
1/2-x,-y,1/2+z
x,-y,-z
1/2-x,y,1/2-z
-x,-y,-z
1/2+x,y,1/2-z
-x,y,z
1/2+x,-y,1/2+z
loop_
_atom_site_type_symbol
_atom_site_label
_atom_site_fract_x
_atom_site_fract_y
_atom_site_fract_z
Si Si1 0.825937 0.573346 0.619861
Si Si2 0.174253 0.091223 0.377922
Si Si3 0.828868 0.585999 0.292911
Si Si4 0.668364 0.100834 0.958179
Si Si5 0.172547 0.073465 0.706801
Si Si6 0.672660 0.593154 0.457823
O O1 0.767810 0.741577 0.616578
O O2 0.777711 0.510880 0.666413
O O3 0.749426 0.476893 0.583509
O O4 0.000000 0.561295 0.613382
O O5 0.000000 0.092215 0.377604
O O6 0.230804 0.991624 0.417559
O O7 0.233655 0.022309 0.333226
O O8 0.750000 0.525186 0.250000
O O9 0.785119 0.756057 0.302115
O O10 0.000000 0.569201 0.284661
O O11 0.500000 0.150773 0.950232
O O12 0.769507 0.242037 0.965158
O O13 0.680590 0.000000 0.000000
O O14 0.250000 0.013850 0.750000
O O15 0.000000 0.052963 0.712648
O O16 0.715514 0.500000 0.500000
O O17 0.500000 0.596504 0.449891
#
# Coordination Sequence:
#
# PCOD8220568 Si02
#       6
#     8   8   8   8   8   8
#     4  10  20  36  58  81 106 141 184 225 265 313
#     4   9  18  33  54  80 107 134 172 223 268 307
#     4   9  18  32  52  77 106 141 179 221 267 316
#     4  10  20  36  60  85 106 135 178 222 264 317
#     4   9  17  31  49  71 102 137 174 215 259 308
#     4  11  24  39  55  79 112 145 176 217 271 326
#
# _framework density 18.899042999999999
#
# number of rings (size 3 to 8) (size 9 to 14) (size 15 to 20)
#    0.000    2.333    0.000    2.500    0.000    7.000 
#    0.000    5.833    0.000    0.000    0.000    0.000 
#    0.000    0.000    0.000    0.000    0.000    0.000 
#
# Total GULP energy -595333.895004 kJ/mol
# GULP energy per Si atom -12402.789479 kJ/mol
# Density = 1.885603 g / cm^3
# Si number density = 18.899043 Si / 1000 Ang^3
#
#
#
# Elastic Constant Matrix: (Units=GPa)
#
#
# Indices 1 2 3 4 5 6 
#
# 1 38.0599 31.7407 43.7877 0.0000 0.0000 0.0000
# 2 31.7407 109.2374 58.0475 0.0000 0.0000 0.0000
# 3 43.7877 58.0475 145.1994 0.0000 0.0000 0.0000
# 4 0.0000 0.0000 0.0000 36.5242 0.0000 0.0000
# 5 0.0000 0.0000 0.0000 0.0000 30.7380 0.0000
# 6 0.0000 0.0000 0.0000 0.0000 0.0000 -145.7105
#
#
#
# Elastic Compliance Matrix: (Units=1/GPa)
#
#
# Indices 1 2 3 4 5 6 
#
# 1 0.044446 -0.007354 -0.010463 0.000000 0.000000 0.000000
# 2 -0.007354 0.012841 -0.002916 0.000000 0.000000 0.000000
# 3 -0.010463 -0.002916 0.011208 0.000000 0.000000 0.000000
# 4 0.000000 0.000000 0.000000 0.027379 0.000000 0.000000
# 5 0.000000 0.000000 0.000000 0.000000 0.032533 0.000000
# 6 0.000000 0.000000 0.000000 0.000000 0.000000 -0.006863
#
#
# Mechanical properties :
#
#
# Convention : Reuss Voigt Hill
#
# Bulk Modulus (GPa) = 36.99885 62.18317 49.59101
# Shear Modulus (GPa) = 29.06655 -5.09493 11.98581
#
# Velocity S-wave (km/s) = 3.92598 -1.64369 2.52107
# Velocity P-wave (km/s) = 6.33803 5.41959 5.89672
#
# Compressibility (1/GPa) = 0.02702787
#
# Stress axis : x y z
#
# Youngs Moduli (GPa) = 22.49943 77.87815 89.22145
#
# Poissons Ratio (x) = 0.57274 0.93355
# Poissons Ratio (y) = 0.16547 0.26013
# Poissons Ratio (z) = 0.23542 0.22706
#
# Static dielectric constant tensor:
#      x y z
#    x 3.245620 0.000000 0.000000 
#    y 0.000000 3.596830 0.000000 
#    z 0.000000 0.000000 2.937390 
# 
# 
# High freq. dielectric constant tensor:
#      x y z
#    x 1.705890 0.000000 0.000000 
#    y 0.000000 1.740770 0.000000 
#    z 0.000000 0.000000 1.752390 
# 
# From -- ./inp_files/37742.got.cif
#   From: 2010.03.12/outbox.cif.g09.slc.cpg/sg53_19_cif.got.tgz:37742.got - 2010.04.16 14:36:59.
