data_PCOD8220719
_publ_section_title
;
Structure prediction by ZEFSAII (Michael W. Deem and Ramdas Pophale) SiO2 
 PCOD8220719
Probable space group: P M N A
;
_chemical_formula_sum "Si O2"
_cell_formula_units_Z 28
_cell_length_a 12.546544
_cell_length_b 8.724879
_cell_length_c 13.349862
_cell_angle_alpha 90.000000
_cell_angle_beta 90.000000
_cell_angle_gamma 90.000000
_cell_volume 1461.370388
_symmetry_space_group_name_H-M "P M N A"
_symmetry_group_IT_number 53
_symmetry_cell_setting 'orthorhombic'
loop_
_space_group_symop_operation_xyz
x,y,z
1/2-x,-y,1/2+z
x,-y,-z
1/2-x,y,1/2-z
-x,-y,-z
1/2+x,y,1/2-z
-x,y,z
1/2+x,-y,1/2+z
loop_
_atom_site_type_symbol
_atom_site_label
_atom_site_fract_x
_atom_site_fract_y
_atom_site_fract_z
Si Si1 0.750000 0.902572 0.250000
Si Si2 0.876729 0.323599 0.890579
Si Si3 0.119659 0.821919 0.687640
Si Si4 0.816539 0.668116 0.886892
O O1 0.685247 0.802093 0.328173
O O2 0.832787 0.006581 0.312753
O O3 0.825316 0.487672 0.867410
O O4 0.000000 0.324296 0.859074
O O5 0.867175 0.283910 0.007779
O O6 0.191166 0.712465 0.616932
O O7 0.120511 0.759859 0.801393
O O8 0.000000 0.823415 0.645128
#
# Coordination Sequence:
#
# PCOD8220719 Si02
#       4
#     4   8   8   8
#     4  10  22  34  52  82 108 138 182 214 258 322
#     4  11  20  36  57  81 107 136 174 226 267 307
#     4  10  20  37  54  77 111 145 173 216 263 310
#     4   9  20  35  58  82 104 136 183 216 261 323
#
# _framework density 19.160098000000001
#
# number of rings (size 3 to 8) (size 9 to 14) (size 15 to 20)
#    0.000    2.286    0.000    6.000    0.000    4.571 
#    0.000   15.714    0.000    0.000    0.000    0.000 
#    0.000    0.000    0.000    0.000    0.000    0.000 
#
# Total GULP energy -347209.552831 kJ/mol
# GULP energy per Si atom -12400.341173 kJ/mol
# Density = 1.911649 g / cm^3
# Si number density = 19.160098 Si / 1000 Ang^3
#
#
#
# Elastic Constant Matrix: (Units=GPa)
#
#
# Indices 1 2 3 4 5 6 
#
# 1 162.3134 69.0598 17.0238 0.0000 0.0000 0.0000
# 2 69.0598 137.2818 49.2840 0.0000 0.0000 0.0000
# 3 17.0238 49.2840 51.9925 0.0000 0.0000 0.0000
# 4 0.0000 0.0000 0.0000 9.5751 0.0000 0.0000
# 5 0.0000 0.0000 0.0000 0.0000 20.9294 0.0000
# 6 0.0000 0.0000 0.0000 0.0000 0.0000 16.9773
#
#
#
# Elastic Compliance Matrix: (Units=1/GPa)
#
#
# Indices 1 2 3 4 5 6 
#
# 1 0.007948 -0.004645 0.001800 0.000000 0.000000 0.000000
# 2 -0.004645 0.013756 -0.011519 0.000000 0.000000 0.000000
# 3 0.001800 -0.011519 0.029563 0.000000 0.000000 0.000000
# 4 0.000000 0.000000 0.000000 0.104437 0.000000 0.000000
# 5 0.000000 0.000000 0.000000 0.000000 0.047780 0.000000
# 6 0.000000 0.000000 0.000000 0.000000 0.000000 0.058902
#
#
# Mechanical properties :
#
#
# Convention : Reuss Voigt Hill
#
# Bulk Modulus (GPa) = 44.36396 69.14699 56.75548
# Shear Modulus (GPa) = 16.74337 23.91103 20.32720
#
# Velocity S-wave (km/s) = 2.95933 3.53648 3.26070
# Velocity P-wave (km/s) = 5.90605 7.26932 6.62286
#
# Compressibility (1/GPa) = 0.02254082
#
# Stress axis : x y z
#
# Youngs Moduli (GPa) = 125.81327 72.69591 33.82658
#
# Poissons Ratio (x) = 0.33765 -0.06090
# Poissons Ratio (y) = 0.58436 0.38963
# Poissons Ratio (z) = -0.22649 0.83735
#
# Static dielectric constant tensor:
#      x y z
#    x 3.615600 0.000000 0.000000 
#    y 0.000000 3.616420 0.000000 
#    z 0.000000 0.000000 3.395870 
# 
# 
# High freq. dielectric constant tensor:
#      x y z
#    x 1.751670 0.000000 0.000000 
#    y 0.000000 1.755200 0.000000 
#    z 0.000000 0.000000 1.727000 
# 
# From -- ./inp_files/21273.got.cif
#   From: 2010.03.12/outbox.cif.g09.slc.cpg/sg53_11_cif.got.tgz:21273.got - 2010.04.16 14:36:59.
