data_PCOD8220189
_publ_section_title
;
Structure prediction by ZEFSAII (Michael W. Deem and Ramdas Pophale) SiO2 
 PCOD8220189
Probable space group: P M N A
;
_chemical_formula_sum "Si O2"
_cell_formula_units_Z 64
_cell_length_a 18.540176
_cell_length_b 15.626770
_cell_length_c 11.521925
_cell_angle_alpha 90.000000
_cell_angle_beta 90.000000
_cell_angle_gamma 90.000000
_cell_volume 3338.167439
_symmetry_space_group_name_H-M "P M N A"
_symmetry_group_IT_number 53
_symmetry_cell_setting 'orthorhombic'
loop_
_space_group_symop_operation_xyz
x,y,z
1/2-x,-y,1/2+z
x,-y,-z
1/2-x,y,1/2-z
-x,-y,-z
1/2+x,y,1/2-z
-x,y,z
1/2+x,-y,1/2+z
loop_
_atom_site_type_symbol
_atom_site_label
_atom_site_fract_x
_atom_site_fract_y
_atom_site_fract_z
Si Si1 0.309460 0.591854 0.471127
Si Si2 0.789948 0.260551 0.129632
Si Si3 0.580059 0.350257 0.711070
Si Si4 0.082456 0.832848 0.766188
Si Si5 0.853517 0.412105 0.562506
Si Si6 0.582974 0.985490 0.371097
Si Si7 0.081557 0.840710 0.297280
Si Si8 0.147769 0.776212 0.524972
O O1 0.342427 0.500000 0.500000
O O2 0.303223 0.642514 0.591356
O O3 0.364559 0.642436 0.392517
O O4 0.231641 0.583508 0.409732
O O5 0.750000 0.265192 0.250000
O O6 0.866443 0.213355 0.139726
O O7 0.734450 0.213462 0.041130
O O8 0.500000 0.378793 0.672914
O O9 0.603870 0.410173 0.817210
O O10 0.581209 0.251651 0.741716
O O11 0.103665 0.810474 0.635068
O O12 0.000000 0.804461 0.789400
O O13 0.092459 0.933165 0.788109
O O14 0.878476 0.500000 0.500000
O O15 0.871912 0.325020 0.490797
O O16 0.500000 0.961922 0.393888
O O17 0.616796 0.906678 0.296414
O O18 0.618663 0.000000 0.500000
O O19 0.127681 0.835647 0.415670
O O20 0.000000 0.869665 0.329176
#
# Coordination Sequence:
#
# PCOD8220189 Si02
#       8
#     8   8   8   8   8   8   8   8
#     4  10  21  35  55  78 105 146 192 228 266 325
#     4   9  20  37  56  76 112 147 180 226 280 330
#     4  10  21  34  53  83 114 142 175 232 291 325
#     4  10  20  34  58  83 107 143 186 229 275 334
#     4   9  19  37  59  78 105 151 196 226 261 329
#     4   9  19  34  55  82 108 144 188 221 260 331
#     4   9  18  34  57  82 111 145 184 229 273 326
#     4   9  18  35  57  81 111 142 184 235 281 319
#
# _framework density 19.172196
#
# number of rings (size 3 to 8) (size 9 to 14) (size 15 to 20)
#    0.000    2.625    0.000    0.750    1.750    6.000 
#    0.000    3.125    8.250    0.000    0.000    0.000 
#    0.000    0.000    0.000    0.000    0.000    0.250 
#
# Total GULP energy -793300.893444 kJ/mol
# GULP energy per Si atom -12395.326460 kJ/mol
# Density = 1.912856 g / cm^3
# Si number density = 19.172196 Si / 1000 Ang^3
#
#
#
# Elastic Constant Matrix: (Units=GPa)
#
#
# Indices 1 2 3 4 5 6 
#
# 1 87.6916 37.7194 36.4532 0.0000 0.0000 0.0000
# 2 37.7194 87.5977 47.6414 0.0000 0.0000 0.0000
# 3 36.4532 47.6414 91.6795 0.0000 0.0000 0.0000
# 4 0.0000 0.0000 0.0000 32.9378 0.0000 0.0000
# 5 0.0000 0.0000 0.0000 0.0000 27.1825 0.0000
# 6 0.0000 0.0000 0.0000 0.0000 0.0000 21.3969
#
#
#
# Elastic Compliance Matrix: (Units=1/GPa)
#
#
# Indices 1 2 3 4 5 6 
#
# 1 0.014796 -0.004421 -0.003586 0.000000 0.000000 0.000000
# 2 -0.004421 0.017234 -0.007198 0.000000 0.000000 0.000000
# 3 -0.003586 -0.007198 0.016074 0.000000 0.000000 0.000000
# 4 0.000000 0.000000 0.000000 0.030360 0.000000 0.000000
# 5 0.000000 0.000000 0.000000 0.000000 0.036788 0.000000
# 6 0.000000 0.000000 0.000000 0.000000 0.000000 0.046736
#
#
# Mechanical properties :
#
#
# Convention : Reuss Voigt Hill
#
# Bulk Modulus (GPa) = 56.51448 56.73295 56.62372
# Shear Modulus (GPa) = 25.21494 25.98045 25.59770
#
# Velocity S-wave (km/s) = 3.63048 3.68518 3.65793
# Velocity P-wave (km/s) = 6.86405 6.91107 6.88760
#
# Compressibility (1/GPa) = 0.01769458
#
# Stress axis : x y z
#
# Youngs Moduli (GPa) = 67.58699 58.02429 62.21332
#
# Poissons Ratio (x) = 0.25652 0.22308
# Poissons Ratio (y) = 0.29879 0.44781
# Poissons Ratio (z) = 0.24235 0.41766
#
# Static dielectric constant tensor:
#      x y z
#    x 3.644180 0.000000 0.000000 
#    y 0.000000 3.528270 0.000000 
#    z 0.000000 0.000000 3.596250 
# 
# 
# High freq. dielectric constant tensor:
#      x y z
#    x 1.734230 0.000000 0.000000 
#    y 0.000000 1.741810 0.000000 
#    z 0.000000 0.000000 1.746000 
# 
# From -- ./inp_files/17193.got.cif
#   From: 2010.03.12/outbox.cif.g09.slc.cpg/sg53_9_cif.got.tgz:17193.got - 2010.04.16 14:36:59.
