data_PCOD8220715
_publ_section_title
;
Structure prediction by ZEFSAII (Michael W. Deem and Ramdas Pophale) SiO2 
 PCOD8220715
Probable space group: P M N A
;
_chemical_formula_sum "Si O2"
_cell_formula_units_Z 48
_cell_length_a 34.485247
_cell_length_b 8.147514
_cell_length_c 7.862451
_cell_angle_alpha 90.000000
_cell_angle_beta 90.000000
_cell_angle_gamma 90.000000
_cell_volume 2209.105252
_symmetry_space_group_name_H-M "P M N A"
_symmetry_group_IT_number 53
_symmetry_cell_setting 'orthorhombic'
loop_
_space_group_symop_operation_xyz
x,y,z
1/2-x,-y,1/2+z
x,-y,-z
1/2-x,y,1/2-z
-x,-y,-z
1/2+x,y,1/2-z
-x,y,z
1/2+x,-y,1/2+z
loop_
_atom_site_type_symbol
_atom_site_label
_atom_site_fract_x
_atom_site_fract_y
_atom_site_fract_z
Si Si1 0.102363 0.355916 0.890582
Si Si2 0.895167 0.811333 0.778436
Si Si3 0.956366 0.564943 0.688597
Si Si4 0.673100 0.667901 0.906217
Si Si5 0.250000 0.235273 0.250000
Si Si6 0.348469 0.876124 0.208068
Si Si7 0.791318 0.000000 0.000000
O O1 0.062595 0.428023 0.812237
O O2 0.131674 0.299227 0.745292
O O3 0.122105 0.500000 0.000000
O O4 0.096460 0.198367 0.017924
O O5 0.933392 0.738608 0.687377
O O6 0.859188 0.689443 0.738542
O O7 0.883458 0.990174 0.706365
O O8 0.956099 0.500000 0.500000
O O9 0.000000 0.596459 0.752944
O O10 0.714969 0.653441 0.817634
O O11 0.664596 0.500000 0.000000
O O12 0.671241 0.834815 0.025364
O O13 0.263957 0.131800 0.412076
O O14 0.317356 0.921735 0.351254
#
# Coordination Sequence:
#
# PCOD8220715 Si02
#       7
#     8   8   8   8   4   8   4
#     4  10  20  36  64  95 133 170 221 269 323 392
#     4  11  21  40  64  99 127 172 225 268 327 401
#     4  10  22  41  65  98 138 178 218 270 334 397
#     4  12  26  43  67  95 133 175 224 281 340 401
#     4  12  26  44  64  96 130 174 224 280 342 398
#     4  12  22  41  68  98 129 178 224 277 331 405
#     4  12  24  42  66  94 133 172 221 286 338 402
#
# _framework density 21.728254
#
# number of rings (size 3 to 8) (size 9 to 14) (size 15 to 20)
#    0.000    0.833    3.333    5.000    0.000    4.333 
#    0.000    3.333    0.000    9.000    0.000    0.000 
#    0.000    0.000    0.000    0.000    0.000    0.000 
#
# Total GULP energy -594860.735141 kJ/mol
# GULP energy per Si atom -12392.931982 kJ/mol
# Density = 2.167880 g / cm^3
# Si number density = 21.728254 Si / 1000 Ang^3
#
#
#
# Elastic Constant Matrix: (Units=GPa)
#
#
# Indices 1 2 3 4 5 6 
#
# 1 134.8068 25.2902 31.7470 0.0000 0.0000 0.0000
# 2 25.2902 72.3929 9.8251 0.0000 0.0000 0.0000
# 3 31.7470 9.8251 88.1655 0.0000 0.0000 0.0000
# 4 0.0000 0.0000 0.0000 31.8337 0.0000 0.0000
# 5 0.0000 0.0000 0.0000 0.0000 39.9826 0.0000
# 6 0.0000 0.0000 0.0000 0.0000 0.0000 38.5672
#
#
#
# Elastic Compliance Matrix: (Units=1/GPa)
#
#
# Indices 1 2 3 4 5 6 
#
# 1 0.008566 -0.002613 -0.002793 0.000000 0.000000 0.000000
# 2 -0.002613 0.014823 -0.000711 0.000000 0.000000 0.000000
# 3 -0.002793 -0.000711 0.012427 0.000000 0.000000 0.000000
# 4 0.000000 0.000000 0.000000 0.031413 0.000000 0.000000
# 5 0.000000 0.000000 0.000000 0.000000 0.025011 0.000000
# 6 0.000000 0.000000 0.000000 0.000000 0.000000 0.025929
#
#
# Mechanical properties :
#
#
# Convention : Reuss Voigt Hill
#
# Bulk Modulus (GPa) = 42.40634 47.67662 45.04148
# Shear Modulus (GPa) = 36.16249 37.31024 36.73636
#
# Velocity S-wave (km/s) = 4.08402 4.14832 4.11630
# Velocity P-wave (km/s) = 6.46514 6.70333 6.58531
#
# Compressibility (1/GPa) = 0.02358138
#
# Stress axis : x y z
#
# Youngs Moduli (GPa) = 116.73881 67.46289 80.46784
#
# Poissons Ratio (x) = 0.17631 0.22477
# Poissons Ratio (y) = 0.30509 0.05720
# Poissons Ratio (z) = 0.32608 0.04795
#
# Static dielectric constant tensor:
#      x y z
#    x 3.997490 0.000000 0.000000 
#    y 0.000000 3.921990 0.000000 
#    z 0.000000 0.000000 4.343230 
# 
# 
# High freq. dielectric constant tensor:
#      x y z
#    x 1.838010 0.000000 0.000000 
#    y 0.000000 1.847480 0.000000 
#    z 0.000000 0.000000 1.877780 
# 
# From -- ./inp_files/13092.got.cif
#   From: 2010.03.12/outbox.cif.g09.slc.cpg/sg53_7_cif.got.tgz:13092.got - 2010.04.16 14:36:59.
