data_PCOD8220823
_publ_section_title
;
Structure prediction by ZEFSAII (Michael W. Deem and Ramdas Pophale) SiO2 
 PCOD8220823
Probable space group: P M N A
;
_chemical_formula_sum "Si O2"
_cell_formula_units_Z 64
_cell_length_a 8.600053
_cell_length_b 21.525028
_cell_length_c 17.841964
_cell_angle_alpha 90.000000
_cell_angle_beta 90.000000
_cell_angle_gamma 90.000000
_cell_volume 3302.839817
_symmetry_space_group_name_H-M "P M N A"
_symmetry_group_IT_number 53
_symmetry_cell_setting 'orthorhombic'
loop_
_space_group_symop_operation_xyz
x,y,z
1/2-x,-y,1/2+z
x,-y,-z
1/2-x,y,1/2-z
-x,-y,-z
1/2+x,y,1/2-z
-x,y,z
1/2+x,-y,1/2+z
loop_
_atom_site_type_symbol
_atom_site_label
_atom_site_fract_x
_atom_site_fract_y
_atom_site_fract_z
Si Si1 0.182820 0.370573 0.171756
Si Si2 0.682044 0.008462 0.167761
Si Si3 0.316685 0.884659 0.085055
Si Si4 0.181155 0.878442 0.921523
Si Si5 0.817383 0.566049 0.532171
Si Si6 0.322044 0.249172 0.103707
Si Si7 0.676325 0.312987 0.946763
Si Si8 0.181430 0.769852 0.170080
O O1 0.250000 0.395591 0.250000
O O2 0.255221 0.303356 0.155349
O O3 0.000000 0.363666 0.176381
O O4 0.226749 0.420960 0.108835
O O5 0.750000 0.013280 0.250000
O O6 0.500000 0.004692 0.176535
O O7 0.725481 0.067585 0.118912
O O8 0.742449 0.947073 0.125484
O O9 0.500000 0.885771 0.067540
O O10 0.277795 0.827992 0.139419
O O11 0.223542 0.877172 0.008547
O O12 0.225378 0.813410 0.882471
O O13 0.000000 0.890742 0.911194
O O14 0.764678 0.500000 0.500000
O O15 0.773697 0.617671 0.470342
O O16 0.000000 0.569003 0.550365
O O17 0.500000 0.237651 0.126574
O O18 0.308247 0.267068 0.016914
O O19 0.500000 0.312196 0.916158
O O20 0.792953 0.289969 0.882737
O O21 0.250000 0.751874 0.250000
O O22 0.000000 0.786203 0.174621
#
# Coordination Sequence:
#
# PCOD8220823 Si02
#       8
#     8   8   8   8   8   8   8   8
#     4  11  22  37  59  89 125 160 203 249 297 352
#     4  11  25  43  61  82 113 152 195 245 301 357
#     4  11  23  41  63  86 115 152 196 244 297 355
#     4  12  24  38  61  90 118 152 196 242 293 356
#     4   9  19  38  64  91 121 161 203 244 295 353
#     4  10  20  37  61  86 117 153 192 239 295 350
#     4   9  18  35  59  85 117 151 188 236 288 347
#     4  12  24  37  58  86 118 153 195 244 298 355
#
# _framework density 19.377264
#
# number of rings (size 3 to 8) (size 9 to 14) (size 15 to 20)
#    0.000    1.375    1.250    6.000    0.000    7.250 
#    0.000    3.125    0.000    0.000    0.000    0.000 
#    0.000    0.000    0.000    0.000    0.000    0.000 
#
# Total GULP energy -793953.835753 kJ/mol
# GULP energy per Si atom -12405.528684 kJ/mol
# Density = 1.933316 g / cm^3
# Si number density = 19.377264 Si / 1000 Ang^3
#
#
#
# Elastic Constant Matrix: (Units=GPa)
#
#
# Indices 1 2 3 4 5 6 
#
# 1 47.4167 6.6901 20.7877 0.0000 0.0000 0.0000
# 2 6.6901 115.9389 42.5246 0.0000 0.0000 0.0000
# 3 20.7877 42.5246 86.4400 0.0000 0.0000 0.0000
# 4 0.0000 0.0000 0.0000 19.5373 0.0000 0.0000
# 5 0.0000 0.0000 0.0000 0.0000 31.1072 0.0000
# 6 0.0000 0.0000 0.0000 0.0000 0.0000 19.3477
#
#
#
# Elastic Compliance Matrix: (Units=1/GPa)
#
#
# Indices 1 2 3 4 5 6 
#
# 1 0.023649 0.000880 -0.006120 0.000000 0.000000 0.000000
# 2 0.000880 0.010557 -0.005405 0.000000 0.000000 0.000000
# 3 -0.006120 -0.005405 0.015700 0.000000 0.000000 0.000000
# 4 0.000000 0.000000 0.000000 0.051184 0.000000 0.000000
# 5 0.000000 0.000000 0.000000 0.000000 0.032147 0.000000
# 6 0.000000 0.000000 0.000000 0.000000 0.000000 0.051686
#
#
# Mechanical properties :
#
#
# Convention : Reuss Voigt Hill
#
# Bulk Modulus (GPa) = 34.94701 43.31116 39.12908
# Shear Modulus (GPa) = 23.17486 25.98464 24.57975
#
# Velocity S-wave (km/s) = 3.46205 3.66592 3.56544
# Velocity P-wave (km/s) = 5.83569 6.34970 6.09811
#
# Compressibility (1/GPa) = 0.02861475
#
# Stress axis : x y z
#
# Youngs Moduli (GPa) = 42.28584 94.72380 63.69545
#
# Poissons Ratio (x) = -0.08338 0.38983
# Poissons Ratio (y) = -0.03722 0.34429
# Poissons Ratio (z) = 0.25880 0.51201
#
# Static dielectric constant tensor:
#      x y z
#    x 3.560120 0.000000 0.000000 
#    y 0.000000 3.665680 0.000000 
#    z 0.000000 0.000000 3.574680 
# 
# 
# High freq. dielectric constant tensor:
#      x y z
#    x 1.761320 0.000000 0.000000 
#    y 0.000000 1.754620 0.000000 
#    z 0.000000 0.000000 1.753880 
# 
# From -- ./inp_files/20910.got.cif
#   From: 2010.03.12/outbox.cif.g09.slc.cpg/sg53_11_cif.got.tgz:20910.got - 2010.04.16 14:36:59.
