data_PCOD8220277
_publ_section_title
;
Structure prediction by ZEFSAII (Michael W. Deem and Ramdas Pophale) SiO2 
 PCOD8220277
Probable space group: P M N A
;
_chemical_formula_sum "Si O2"
_cell_formula_units_Z 48
_cell_length_a 9.106225
_cell_length_b 11.567503
_cell_length_c 25.373580
_cell_angle_alpha 90.000000
_cell_angle_beta 90.000000
_cell_angle_gamma 90.000000
_cell_volume 2672.758655
_symmetry_space_group_name_H-M "P M N A"
_symmetry_group_IT_number 53
_symmetry_cell_setting 'orthorhombic'
loop_
_space_group_symop_operation_xyz
x,y,z
1/2-x,-y,1/2+z
x,-y,-z
1/2-x,y,1/2-z
-x,-y,-z
1/2+x,y,1/2-z
-x,y,z
1/2+x,-y,1/2+z
loop_
_atom_site_type_symbol
_atom_site_label
_atom_site_fract_x
_atom_site_fract_y
_atom_site_fract_z
Si Si1 0.168757 0.757312 0.593984
Si Si2 0.171484 0.373698 0.303367
Si Si3 0.327089 0.360820 0.804008
Si Si4 0.829179 0.370745 0.001148
Si Si5 0.171667 0.769102 0.103077
Si Si6 0.668835 0.013228 0.939361
O O1 0.229334 0.707326 0.649233
O O2 0.253708 0.702841 0.545859
O O3 0.000000 0.721600 0.587357
O O4 0.189493 0.894667 0.592585
O O5 0.250000 0.333621 0.250000
O O6 0.210211 0.506099 0.317750
O O7 0.000000 0.357275 0.293761
O O8 0.250000 0.324622 0.750000
O O9 0.500000 0.340352 0.798904
O O10 0.262751 0.277770 0.848091
O O11 0.794484 0.314741 0.945287
O O12 0.000000 0.372407 0.014479
O O13 0.764429 0.500000 0.000000
O O14 0.225863 0.896950 0.089400
O O15 0.000000 0.772860 0.117014
O O16 0.500000 0.055894 0.937451
O O17 0.718844 0.000000 0.000000
#
# Coordination Sequence:
#
# PCOD8220277 Si02
#       6
#     8   8   8   8   8   8
#     4  10  20  35  55  79 106 139 184 226 268 322
#     4   9  19  35  56  82 109 140 176 220 270 324
#     4  10  20  36  58  82 110 142 178 220 271 324
#     4  10  21  34  50  77 111 142 173 218 275 329
#     4  11  22  35  54  80 110 143 183 225 270 326
#     4  10  20  36  56  77 106 148 188 226 274 322
#
# _framework density 17.958974000000001
#
# number of rings (size 3 to 8) (size 9 to 14) (size 15 to 20)
#    0.000    2.000    1.667    2.000    0.000    3.333 
#    0.000    0.833    0.000    2.000    0.000    0.000 
#    0.000    0.000    0.000    0.000    0.000    0.000 
#
# Total GULP energy -595386.705476 kJ/mol
# GULP energy per Si atom -12403.889697 kJ/mol
# Density = 1.791810 g / cm^3
# Si number density = 17.958974 Si / 1000 Ang^3
#
#
#
# Elastic Constant Matrix: (Units=GPa)
#
#
# Indices 1 2 3 4 5 6 
#
# 1 66.7663 46.2324 71.2175 0.0000 0.0000 0.0000
# 2 46.2324 92.3111 50.3762 0.0000 0.0000 0.0000
# 3 71.2175 50.3762 105.1403 0.0000 0.0000 0.0000
# 4 0.0000 0.0000 0.0000 37.6833 0.0000 0.0000
# 5 0.0000 0.0000 0.0000 0.0000 34.5657 0.0000
# 6 0.0000 0.0000 0.0000 0.0000 0.0000 28.0081
#
#
#
# Elastic Compliance Matrix: (Units=1/GPa)
#
#
# Indices 1 2 3 4 5 6 
#
# 1 0.061067 -0.010847 -0.036167 0.000000 0.000000 0.000000
# 2 -0.010847 0.016595 -0.000604 0.000000 0.000000 0.000000
# 3 -0.036167 -0.000604 0.034298 0.000000 0.000000 0.000000
# 4 0.000000 0.000000 0.000000 0.026537 0.000000 0.000000
# 5 0.000000 0.000000 0.000000 0.000000 0.028930 0.000000
# 6 0.000000 0.000000 0.000000 0.000000 0.000000 0.035704
#
#
# Mechanical properties :
#
#
# Convention : Reuss Voigt Hill
#
# Bulk Modulus (GPa) = 59.79260 66.65223 63.22241
# Shear Modulus (GPa) = 16.45054 26.47751 21.46403
#
# Velocity S-wave (km/s) = 3.02984 3.84387 3.46087
# Velocity P-wave (km/s) = 6.75324 7.54285 7.15894
#
# Compressibility (1/GPa) = 0.01672448
#
# Stress axis : x y z
#
# Youngs Moduli (GPa) = 16.37557 60.25877 29.15611
#
# Poissons Ratio (x) = 0.65364 1.05448
# Poissons Ratio (y) = 0.17763 0.01760
# Poissons Ratio (z) = 0.59225 0.03638
#
# Static dielectric constant tensor:
#      x y z
#    x 3.322850 0.000000 0.000000 
#    y 0.000000 3.393710 0.000000 
#    z 0.000000 0.000000 3.734470 
# 
# 
# High freq. dielectric constant tensor:
#      x y z
#    x 1.696610 0.000000 0.000000 
#    y 0.000000 1.695540 0.000000 
#    z 0.000000 0.000000 1.698330 
# 
# From -- ./inp_files/33836.got.cif
#   From: 2010.03.12/outbox.cif.g09.slc.cpg/sg53_17_cif.got.tgz:33836.got - 2010.04.16 14:36:59.
