data_PCOD8220208
_publ_section_title
;
Structure prediction by ZEFSAII (Michael W. Deem and Ramdas Pophale) SiO2 
 PCOD8220208
Probable space group: P M N A
;
_chemical_formula_sum "Si O2"
_cell_formula_units_Z 24
_cell_length_a 29.515047
_cell_length_b 7.251390
_cell_length_c 4.926608
_cell_angle_alpha 90.000000
_cell_angle_beta 90.000000
_cell_angle_gamma 90.000000
_cell_volume 1054.417852
_symmetry_space_group_name_H-M "P M N A"
_symmetry_group_IT_number 53
_symmetry_cell_setting 'orthorhombic'
loop_
_space_group_symop_operation_xyz
x,y,z
1/2-x,-y,1/2+z
x,-y,-z
1/2-x,y,1/2-z
-x,-y,-z
1/2+x,y,1/2-z
-x,y,z
1/2+x,-y,1/2+z
loop_
_atom_site_type_symbol
_atom_site_label
_atom_site_fract_x
_atom_site_fract_y
_atom_site_fract_z
Si Si1 0.594346 0.793102 0.093448
Si Si2 0.651130 0.700234 0.593287
Si Si3 0.500000 0.137327 0.758276
Si Si4 0.778875 0.000000 0.000000
O O1 0.626740 0.799142 0.347182
O O2 0.544502 0.730208 0.205636
O O3 0.616530 0.673434 0.848684
O O4 0.589638 0.000000 0.000000
O O5 0.668371 0.500000 0.500000
O O6 0.693392 0.834474 0.648548
O O7 0.500000 0.000000 0.500000
O O8 0.500000 0.000000 0.000000
O O9 0.750000 0.915811 0.250000
#
# Coordination Sequence:
#
# PCOD8220208 Si02
#       4
#     8   8   4   4
#     4  11  20  41  66  95 136 180 221 270 320 388
#     4  12  25  43  68 100 133 171 219 272 334 399
#     4  10  20  34  63 102 131 179 236 269 313 380
#     4  12  26  46  72  95 128 169 216 276 340 404
#
# _framework density 22.761378000000001
#
# number of rings (size 3 to 8) (size 9 to 14) (size 15 to 20)
#    0.000    0.667    3.333    7.000    0.000    1.333 
#    0.000    5.000    0.000    0.000    0.000    0.000 
#    0.000    0.000    0.000    0.000    0.000    0.000 
#
# Total GULP energy -297365.886572 kJ/mol
# GULP energy per Si atom -12390.245274 kJ/mol
# Density = 2.270957 g / cm^3
# Si number density = 22.761378 Si / 1000 Ang^3
#
#
#
# Elastic Constant Matrix: (Units=GPa)
#
#
# Indices 1 2 3 4 5 6 
#
# 1 120.0147 44.4788 47.3740 0.0000 0.0000 0.0000
# 2 44.4788 72.3815 7.4346 0.0000 0.0000 0.0000
# 3 47.3740 7.4346 151.8781 0.0000 0.0000 0.0000
# 4 0.0000 0.0000 0.0000 35.0850 0.0000 0.0000
# 5 0.0000 0.0000 0.0000 0.0000 33.4780 0.0000
# 6 0.0000 0.0000 0.0000 0.0000 0.0000 14.5002
#
#
#
# Elastic Compliance Matrix: (Units=1/GPa)
#
#
# Indices 1 2 3 4 5 6 
#
# 1 0.012414 -0.007267 -0.003516 0.000000 0.000000 0.000000
# 2 -0.007267 0.018140 0.001379 0.000000 0.000000 0.000000
# 3 -0.003516 0.001379 0.007614 0.000000 0.000000 0.000000
# 4 0.000000 0.000000 0.000000 0.028502 0.000000 0.000000
# 5 0.000000 0.000000 0.000000 0.000000 0.029870 0.000000
# 6 0.000000 0.000000 0.000000 0.000000 0.000000 0.068965
#
#
# Mechanical properties :
#
#
# Convention : Reuss Voigt Hill
#
# Bulk Modulus (GPa) = 51.65912 60.31658 55.98785
# Shear Modulus (GPa) = 26.21014 32.94509 29.57761
#
# Velocity S-wave (km/s) = 3.39708 3.80861 3.60872
# Velocity P-wave (km/s) = 6.17512 6.77479 6.48189
#
# Compressibility (1/GPa) = 0.01935766
#
# Stress axis : x y z
#
# Youngs Moduli (GPa) = 80.55699 55.12770 131.34475
#
# Poissons Ratio (x) = 0.40061 0.46185
# Poissons Ratio (y) = 0.58541 -0.18110
# Poissons Ratio (z) = 0.28326 -0.07601
#
# Static dielectric constant tensor:
#      x y z
#    x 6.625050 0.000000 0.000000 
#    y 0.000000 3.648790 0.000000 
#    z 0.000000 0.000000 4.349750 
# 
# 
# High freq. dielectric constant tensor:
#      x y z
#    x 1.907700 0.000000 0.000000 
#    y 0.000000 1.867080 0.000000 
#    z 0.000000 0.000000 1.917370 
# 
# From -- ./inp_files/4096.got.cif
#   From: 2010.03.12/outbox.cif.g09.slc.cpg/sg53_3_cif.got.tgz:4096.got - 2010.04.16 14:36:59.
