data_PCOD8220924
_publ_section_title
;
Structure prediction by ZEFSAII (Michael W. Deem and Ramdas Pophale) SiO2 
 PCOD8220924
Probable space group: P M N A
;
_chemical_formula_sum "Si O2"
_cell_formula_units_Z 40
_cell_length_a 8.842068
_cell_length_b 9.038972
_cell_length_c 25.520314
_cell_angle_alpha 90.000000
_cell_angle_beta 90.000000
_cell_angle_gamma 90.000000
_cell_volume 2039.665289
_symmetry_space_group_name_H-M "P M N A"
_symmetry_group_IT_number 53
_symmetry_cell_setting 'orthorhombic'
loop_
_space_group_symop_operation_xyz
x,y,z
1/2-x,-y,1/2+z
x,-y,-z
1/2-x,y,1/2-z
-x,-y,-z
1/2+x,y,1/2-z
-x,y,z
1/2+x,-y,1/2+z
loop_
_atom_site_type_symbol
_atom_site_label
_atom_site_fract_x
_atom_site_fract_y
_atom_site_fract_z
Si Si1 0.678580 0.828486 0.304123
Si Si2 0.675410 0.354398 0.402408
Si Si3 0.826549 0.170310 0.993728
Si Si4 0.676862 0.665561 0.099816
Si Si5 0.178093 0.164908 0.196267
O O1 0.750000 0.771589 0.250000
O O2 0.500000 0.815427 0.299979
O O3 0.735200 0.723501 0.349844
O O4 0.730842 0.997005 0.315470
O O5 0.500000 0.400134 0.397516
O O6 0.701866 0.247345 0.451073
O O7 0.776320 0.497724 0.411136
O O8 0.733049 0.268966 0.350816
O O9 0.000000 0.189912 0.975116
O O10 0.717077 0.238236 0.950660
O O11 0.784193 0.000000 0.000000
O O12 0.500000 0.675837 0.110571
O O13 0.250000 0.224600 0.250000
O O14 0.000000 0.171099 0.202419
#
# Coordination Sequence:
#
# PCOD8220924 Si02
#       5
#     8   8   8   8   8
#     4  10  20  38  62  87 115 149 192 238 285 338
#     4  10  21  38  59  83 114 152 191 233 284 339
#     4  10  21  40  65  87 109 145 192 239 289 344
#     4  12  25  38  55  84 120 155 190 232 284 339
#     4   9  19  36  60  87 113 145 187 234 282 336
#
# _framework density 19.611059999999998
#
# number of rings (size 3 to 8) (size 9 to 14) (size 15 to 20)
#    0.000    1.800    0.000    4.200    0.000    9.200 
#    0.000    4.000    0.000    0.000    0.000    0.000 
#    0.000    0.000    0.000    0.000    0.000    0.000 
#
# Total GULP energy -496224.362564 kJ/mol
# GULP energy per Si atom -12405.609064 kJ/mol
# Density = 1.956642 g / cm^3
# Si number density = 19.611060 Si / 1000 Ang^3
#
#
#
# Elastic Constant Matrix: (Units=GPa)
#
#
# Indices 1 2 3 4 5 6 
#
# 1 69.4209 35.4825 39.5782 0.0000 0.0000 0.0000
# 2 35.4825 115.1475 57.0223 0.0000 0.0000 0.0000
# 3 39.5782 57.0223 127.0546 0.0000 0.0000 0.0000
# 4 0.0000 0.0000 0.0000-2205.1404 0.0000 0.0000
# 5 0.0000 0.0000 0.0000 0.0000 36.1976 0.0000
# 6 0.0000 0.0000 0.0000 0.0000 0.0000 18.3948
#
#
#
# Elastic Compliance Matrix: (Units=1/GPa)
#
#
# Indices 1 2 3 4 5 6 
#
# 1 0.018662 -0.003692 -0.004156 0.000000 0.000000 0.000000
# 2 -0.003692 0.011897 -0.004189 0.000000 0.000000 0.000000
# 3 -0.004156 -0.004189 0.011045 0.000000 0.000000 0.000000
# 4 0.000000 0.000000 0.000000 -0.000453 0.000000 0.000000
# 5 0.000000 0.000000 0.000000 0.000000 0.027626 0.000000
# 6 0.000000 0.000000 0.000000 0.000000 0.000000 0.054363
#
#
# Mechanical properties :
#
#
# Convention : Reuss Voigt Hill
#
# Bulk Modulus (GPa) = 57.04947 63.97656 60.51301
# Shear Modulus (GPa) = 32.66743 -418.14029 -192.73643
#
# Velocity S-wave (km/s) = 4.08581 -14.61778 -9.92435
# Velocity P-wave (km/s) = 7.17022 15.88120 10.01999
#
# Compressibility (1/GPa) = 0.01752865
#
# Stress axis : x y z
#
# Youngs Moduli (GPa) = 53.58597 84.05605 90.53607
#
# Poissons Ratio (x) = 0.31037 0.37627
# Poissons Ratio (y) = 0.19786 0.37926
# Poissons Ratio (z) = 0.22270 0.35212
#
# Static dielectric constant tensor:
#      x y z
#    x 3.389450 0.000000 0.000000 
#    y 0.000000 3.657240 0.000000 
#    z 0.000000 0.000000 3.800410 
# 
# 
# High freq. dielectric constant tensor:
#      x y z
#    x 1.755730 0.000000 0.000000 
#    y 0.000000 1.769460 0.000000 
#    z 0.000000 0.000000 1.779580 
# 
# From -- ./inp_files/33620.got.cif
#   From: 2010.03.12/outbox.cif.g09.slc.cpg/sg53_17_cif.got.tgz:33620.got - 2010.04.16 14:36:59.
