data_PCOD8220846
_publ_section_title
;
Structure prediction by ZEFSAII (Michael W. Deem and Ramdas Pophale) SiO2 
 PCOD8220846
Probable space group: P M N A
;
_chemical_formula_sum "Si O2"
_cell_formula_units_Z 48
_cell_length_a 8.711958
_cell_length_b 14.970013
_cell_length_c 19.001571
_cell_angle_alpha 90.000000
_cell_angle_beta 90.000000
_cell_angle_gamma 90.000000
_cell_volume 2478.149253
_symmetry_space_group_name_H-M "P M N A"
_symmetry_group_IT_number 53
_symmetry_cell_setting 'orthorhombic'
loop_
_space_group_symop_operation_xyz
x,y,z
1/2-x,-y,1/2+z
x,-y,-z
1/2-x,y,1/2-z
-x,-y,-z
1/2+x,y,1/2-z
-x,y,z
1/2+x,-y,1/2+z
loop_
_atom_site_type_symbol
_atom_site_label
_atom_site_fract_x
_atom_site_fract_y
_atom_site_fract_z
Si Si1 0.320976 0.528288 0.326662
Si Si2 0.682199 0.870614 0.450395
Si Si3 0.181113 0.946531 0.903036
Si Si4 0.319189 0.780343 0.676662
Si Si5 0.318624 0.631388 0.915594
Si Si6 0.179239 0.672222 0.059508
O O1 0.250000 0.538567 0.250000
O O2 0.500000 0.506473 0.319774
O O3 0.242580 0.448983 0.368841
O O4 0.290533 0.620316 0.368072
O O5 0.500000 0.864314 0.449445
O O6 0.745822 0.898664 0.526879
O O7 0.746356 0.772850 0.429736
O O8 0.739068 0.950146 0.396789
O O9 0.226553 0.884662 0.836556
O O10 0.000000 0.949006 0.911796
O O11 0.250000 0.747684 0.750000
O O12 0.500000 0.765651 0.678099
O O13 0.249560 0.723572 0.613405
O O14 0.500000 0.632914 0.910994
O O15 0.266509 0.621394 0.996451
O O16 0.000000 0.672935 0.039728
#
# Coordination Sequence:
#
# PCOD8220846 Si02
#       6
#     8   8   8   8   8   8
#     4  11  24  41  60  82 112 150 188 231 281 337
#     4   8  13  27  53  84 107 135 181 226 267 317
#     4   8  14  26  51  80 108 140 180 225 266 319
#     4  11  21  35  54  80 115 152 189 233 283 339
#     4  12  24  38  58  84 113 146 186 236 287 339
#     4  10  20  37  62  88 113 145 189 234 277 333
#
# _framework density 19.369294
#
# number of rings (size 3 to 8) (size 9 to 14) (size 15 to 20)
#    0.000    2.000    1.667    4.500    0.000    3.333 
#    0.000    0.833    0.000    3.000    0.000    0.000 
#    0.000    0.000    0.000    0.000    0.000    0.000 
#
# Total GULP energy -594928.591257 kJ/mol
# GULP energy per Si atom -12394.345651 kJ/mol
# Density = 1.932521 g / cm^3
# Si number density = 19.369294 Si / 1000 Ang^3
#
#
#
# Elastic Constant Matrix: (Units=GPa)
#
#
# Indices 1 2 3 4 5 6 
#
# 1 90.0974 45.2753 37.8772 0.0000 0.0000 0.0000
# 2 45.2753 138.7036 60.7548 0.0000 0.0000 0.0000
# 3 37.8772 60.7548 70.1086 0.0000 0.0000 0.0000
# 4 0.0000 0.0000 0.0000 26.8516 0.0000 0.0000
# 5 0.0000 0.0000 0.0000 0.0000 26.4265 0.0000
# 6 0.0000 0.0000 0.0000 0.0000 0.0000 10.5146
#
#
#
# Elastic Compliance Matrix: (Units=1/GPa)
#
#
# Indices 1 2 3 4 5 6 
#
# 1 0.014742 -0.002133 -0.006116 0.000000 0.000000 0.000000
# 2 -0.002133 0.011929 -0.009185 0.000000 0.000000 0.000000
# 3 -0.006116 -0.009185 0.025528 0.000000 0.000000 0.000000
# 4 0.000000 0.000000 0.000000 0.037242 0.000000 0.000000
# 5 0.000000 0.000000 0.000000 0.000000 0.037841 0.000000
# 6 0.000000 0.000000 0.000000 0.000000 0.000000 0.095106
#
#
# Mechanical properties :
#
#
# Convention : Reuss Voigt Hill
#
# Bulk Modulus (GPa) = 57.70294 65.19156 61.44725
# Shear Modulus (GPa) = 19.00902 23.09203 21.05053
#
# Velocity S-wave (km/s) = 3.13613 3.45657 3.30024
# Velocity P-wave (km/s) = 6.55510 7.04704 6.80551
#
# Compressibility (1/GPa) = 0.01733014
#
# Stress axis : x y z
#
# Youngs Moduli (GPa) = 67.83200 83.82809 39.17323
#
# Poissons Ratio (x) = 0.17882 0.23959
# Poissons Ratio (y) = 0.14469 0.35981
# Poissons Ratio (z) = 0.41488 0.76997
#
# Static dielectric constant tensor:
#      x y z
#    x 3.249170 0.000000 0.000000 
#    y 0.000000 4.122590 0.000000 
#    z 0.000000 0.000000 3.422170 
# 
# 
# High freq. dielectric constant tensor:
#      x y z
#    x 1.723700 0.000000 0.000000 
#    y 0.000000 1.773600 0.000000 
#    z 0.000000 0.000000 1.736570 
# 
# From -- ./inp_files/26254.got.cif
#   From: 2010.03.12/outbox.cif.g09.slc.cpg/sg53_14_cif.got.tgz:26254.got - 2010.04.16 14:36:59.
