data_PCOD8220394
_publ_section_title
;
Structure prediction by ZEFSAII (Michael W. Deem and Ramdas Pophale) SiO2 
 PCOD8220394
Probable space group: P M N A
;
_chemical_formula_sum "Si O2"
_cell_formula_units_Z 48
_cell_length_a 8.622456
_cell_length_b 11.794742
_cell_length_c 25.302781
_cell_angle_alpha 90.000000
_cell_angle_beta 90.000000
_cell_angle_gamma 90.000000
_cell_volume 2573.283818
_symmetry_space_group_name_H-M "P M N A"
_symmetry_group_IT_number 53
_symmetry_cell_setting 'orthorhombic'
loop_
_space_group_symop_operation_xyz
x,y,z
1/2-x,-y,1/2+z
x,-y,-z
1/2-x,y,1/2-z
-x,-y,-z
1/2+x,y,1/2-z
-x,y,z
1/2+x,-y,1/2+z
loop_
_atom_site_type_symbol
_atom_site_label
_atom_site_fract_x
_atom_site_fract_y
_atom_site_fract_z
Si Si1 0.817359 0.003676 0.441083
Si Si2 0.682110 0.378546 0.306156
Si Si3 0.318884 0.619444 0.194476
Si Si4 0.318174 0.240496 0.100741
Si Si5 0.680731 0.242108 0.907529
Si Si6 0.320234 0.631127 0.504218
O O1 0.754861 0.113203 0.409755
O O2 0.000000 0.017945 0.446876
O O3 0.743825 0.000000 0.500000
O O4 0.772741 0.890192 0.409380
O O5 0.750000 0.340535 0.250000
O O6 0.500000 0.388458 0.301036
O O7 0.746623 0.500536 0.323993
O O8 0.725879 0.285005 0.348932
O O9 0.250000 0.661804 0.250000
O O10 0.500000 0.599875 0.201639
O O11 0.280777 0.714403 0.151067
O O12 0.500000 0.243794 0.113247
O O13 0.286129 0.316238 0.049509
O O14 0.500000 0.259387 0.921906
O O15 0.784195 0.310734 0.948587
O O16 0.276978 0.500000 0.500000
O O17 0.500000 0.648681 0.518760
#
# Coordination Sequence:
#
# PCOD8220394 Si02
#       6
#     8   8   8   8   8   8
#     4   9  17  34  58  81 107 146 188 227 272 324
#     4  11  22  38  59  83 114 146 185 228 277 330
#     4  10  20  35  58  84 112 145 184 225 275 332
#     4  11  21  36  59  82 110 146 187 228 274 330
#     4  10  20  36  57  81 107 143 188 228 272 332
#     4  11  23  35  50  78 114 146 178 226 282 331
#
# _framework density 18.653210000000001
#
# number of rings (size 3 to 8) (size 9 to 14) (size 15 to 20)
#    0.000    1.667    1.667    5.000    0.000    5.333 
#    0.000    3.333    0.000    2.000    0.000    0.000 
#    0.000    0.000    0.000    0.000    0.000    0.000 
#
# Total GULP energy -595363.495386 kJ/mol
# GULP energy per Si atom -12403.406154 kJ/mol
# Density = 1.861075 g / cm^3
# Si number density = 18.653210 Si / 1000 Ang^3
#
#
#
# Elastic Constant Matrix: (Units=GPa)
#
#
# Indices 1 2 3 4 5 6 
#
# 1 74.7513 34.9503 38.2510 0.0000 0.0000 0.0000
# 2 34.9503 153.0760 81.8669 0.0000 0.0000 0.0000
# 3 38.2510 81.8669 129.9231 0.0000 0.0000 0.0000
# 4 0.0000 0.0000 0.0000 14.5869 0.0000 0.0000
# 5 0.0000 0.0000 0.0000 0.0000 31.9741 0.0000
# 6 0.0000 0.0000 0.0000 0.0000 0.0000 15.9364
#
#
#
# Elastic Compliance Matrix: (Units=1/GPa)
#
#
# Indices 1 2 3 4 5 6 
#
# 1 0.016044 -0.001715 -0.003643 0.000000 0.000000 0.000000
# 2 -0.001715 0.010036 -0.005819 0.000000 0.000000 0.000000
# 3 -0.003643 -0.005819 0.012436 0.000000 0.000000 0.000000
# 4 0.000000 0.000000 0.000000 0.068555 0.000000 0.000000
# 5 0.000000 0.000000 0.000000 0.000000 0.031275 0.000000
# 6 0.000000 0.000000 0.000000 0.000000 0.000000 0.062750
#
#
# Mechanical properties :
#
#
# Convention : Reuss Voigt Hill
#
# Bulk Modulus (GPa) = 61.87259 74.20967 68.04113
# Shear Modulus (GPa) = 21.84960 26.01162 23.93061
#
# Velocity S-wave (km/s) = 3.42622 3.73833 3.58568
# Velocity P-wave (km/s) = 6.99242 7.64877 7.32795
#
# Compressibility (1/GPa) = 0.01616224
#
# Stress axis : x y z
#
# Youngs Moduli (GPa) = 62.33028 99.63676 80.41020
#
# Poissons Ratio (x) = 0.17086 0.29293
# Poissons Ratio (y) = 0.10688 0.46793
# Poissons Ratio (z) = 0.22706 0.57982
#
# Static dielectric constant tensor:
#      x y z
#    x 3.336000 0.000000 0.000000 
#    y 0.000000 3.582140 0.000000 
#    z 0.000000 0.000000 3.472160 
# 
# 
# High freq. dielectric constant tensor:
#      x y z
#    x 1.718960 0.000000 0.000000 
#    y 0.000000 1.726300 0.000000 
#    z 0.000000 0.000000 1.725570 
# 
# From -- ./inp_files/36149.got.cif
#   From: 2010.03.12/outbox.cif.g09.slc.cpg/sg53_19_cif.got.tgz:36149.got - 2010.04.16 14:36:59.
