data_PCOD8220326
_publ_section_title
;
Structure prediction by ZEFSAII (Michael W. Deem and Ramdas Pophale) SiO2 
 PCOD8220326
Probable space group: P M N A
;
_chemical_formula_sum "Si O2"
_cell_formula_units_Z 64
_cell_length_a 9.036893
_cell_length_b 11.842398
_cell_length_c 31.246731
_cell_angle_alpha 90.000000
_cell_angle_beta 90.000000
_cell_angle_gamma 90.000000
_cell_volume 3343.977769
_symmetry_space_group_name_H-M "P M N A"
_symmetry_group_IT_number 53
_symmetry_cell_setting 'orthorhombic'
loop_
_space_group_symop_operation_xyz
x,y,z
1/2-x,-y,1/2+z
x,-y,-z
1/2-x,y,1/2-z
-x,-y,-z
1/2+x,y,1/2-z
-x,y,z
1/2+x,-y,1/2+z
loop_
_atom_site_type_symbol
_atom_site_label
_atom_site_fract_x
_atom_site_fract_y
_atom_site_fract_z
Si Si1 0.668770 0.621744 0.520559
Si Si2 0.829244 0.649864 0.608250
Si Si3 0.329791 0.993133 0.049179
Si Si4 0.327182 0.728814 0.292486
Si Si5 0.824490 0.125508 0.124015
Si Si6 0.830878 0.401047 0.635019
Si Si7 0.168841 0.262751 0.551920
Si Si8 0.674096 0.986726 0.293428
O O1 0.686681 0.500000 0.500000
O O2 0.500000 0.646848 0.534092
O O3 0.775213 0.628348 0.560594
O O4 0.720949 0.716249 0.487219
O O5 0.734857 0.747943 0.630668
O O6 0.807192 0.535248 0.634947
O O7 0.000000 0.685992 0.606866
O O8 0.500000 0.032918 0.051199
O O9 0.310500 0.866221 0.066910
O O10 0.236455 0.075197 0.079582
O O11 0.273467 0.000000 0.000000
O O12 0.250000 0.682620 0.250000
O O13 0.500000 0.719054 0.285691
O O14 0.280070 0.649461 0.330895
O O15 0.278687 0.857436 0.301741
O O16 0.000000 0.125869 0.121021
O O17 0.769299 0.055467 0.165281
O O18 0.786655 0.347235 0.589712
O O19 0.000000 0.369407 0.646333
O O20 0.000000 0.284540 0.537124
O O21 0.750000 0.032792 0.250000
O O22 0.500000 0.000151 0.287263
#
# Coordination Sequence:
#
# PCOD8220326 Si02
#       8
#     8   8   8   8   8   8   8   8
#     4  11  22  35  54  82 114 149 191 237 285 335
#     4  11  23  39  58  79 111 154 198 237 278 334
#     4  10  21  36  55  82 114 151 195 237 284 345
#     4  10  20  36  60  87 116 146 178 223 280 339
#     4  11  23  39  59  85 118 152 193 242 297 349
#     4  10  21  36  55  81 110 145 188 230 275 329
#     4  10  20  35  56  81 112 149 189 234 280 334
#     4   9  20  38  61  90 118 147 184 231 286 347
#
# _framework density 19.138884000000001
#
# number of rings (size 3 to 8) (size 9 to 14) (size 15 to 20)
#    0.000    1.750    1.250    3.000    0.000    5.250 
#    0.000    0.625    0.000    1.500    0.000    0.000 
#    0.000    0.000    0.000    0.000    0.000    0.000 
#
# Total GULP energy -793866.777228 kJ/mol
# GULP energy per Si atom -12404.168394 kJ/mol
# Density = 1.909532 g / cm^3
# Si number density = 19.138884 Si / 1000 Ang^3
#
#
#
# Elastic Constant Matrix: (Units=GPa)
#
#
# Indices 1 2 3 4 5 6 
#
# 1 69.6694 38.3261 47.5628 0.0000 0.0000 0.0000
# 2 38.3261 88.9526 42.6369 0.0000 0.0000 0.0000
# 3 47.5628 42.6369 105.0254 0.0000 0.0000 0.0000
# 4 0.0000 0.0000 0.0000 26.2633 0.0000 0.0000
# 5 0.0000 0.0000 0.0000 0.0000 36.2435 0.0000
# 6 0.0000 0.0000 0.0000 0.0000 0.0000 23.7531
#
#
#
# Elastic Compliance Matrix: (Units=1/GPa)
#
#
# Indices 1 2 3 4 5 6 
#
# 1 0.023212 -0.006161 -0.008011 0.000000 0.000000 0.000000
# 2 -0.006161 0.015593 -0.003540 0.000000 0.000000 0.000000
# 3 -0.008011 -0.003540 0.014586 0.000000 0.000000 0.000000
# 4 0.000000 0.000000 0.000000 0.038076 0.000000 0.000000
# 5 0.000000 0.000000 0.000000 0.000000 0.027591 0.000000
# 6 0.000000 0.000000 0.000000 0.000000 0.000000 0.042100
#
#
# Mechanical properties :
#
#
# Convention : Reuss Voigt Hill
#
# Bulk Modulus (GPa) = 55.65615 57.85547 56.75581
# Shear Modulus (GPa) = 24.68261 26.26009 25.47135
#
# Velocity S-wave (km/s) = 3.59508 3.70818 3.65207
# Velocity P-wave (km/s) = 6.81000 6.97345 6.89221
#
# Compressibility (1/GPa) = 0.01796747
#
# Stress axis : x y z
#
# Youngs Moduli (GPa) = 43.08170 64.12933 68.55686
#
# Poissons Ratio (x) = 0.39512 0.54918
# Poissons Ratio (y) = 0.26544 0.24270
# Poissons Ratio (z) = 0.34511 0.22703
#
# Static dielectric constant tensor:
#      x y z
#    x 3.485450 0.000000 0.000000 
#    y 0.000000 3.712000 0.000000 
#    z 0.000000 0.000000 3.504390 
# 
# 
# High freq. dielectric constant tensor:
#      x y z
#    x 1.746240 0.000000 0.000000 
#    y 0.000000 1.748780 0.000000 
#    z 0.000000 0.000000 1.736960 
# 
# From -- ./inp_files/38291.got.cif
#   From: 2010.03.12/outbox.cif.g09.slc.cpg/sg53_20_cif.got.tgz:38291.got - 2010.04.16 14:36:59.
