data_PCOD8220757
_publ_section_title
;
Structure prediction by ZEFSAII (Michael W. Deem and Ramdas Pophale) SiO2 
 PCOD8220757
Probable space group: P M N A
;
_chemical_formula_sum "Si O2"
_cell_formula_units_Z 48
_cell_length_a 8.651687
_cell_length_b 30.349516
_cell_length_c 9.546848
_cell_angle_alpha 90.000000
_cell_angle_beta 90.000000
_cell_angle_gamma 90.000000
_cell_volume 2506.758965
_symmetry_space_group_name_H-M "P M N A"
_symmetry_group_IT_number 53
_symmetry_cell_setting 'orthorhombic'
loop_
_space_group_symop_operation_xyz
x,y,z
1/2-x,-y,1/2+z
x,-y,-z
1/2-x,y,1/2-z
-x,-y,-z
1/2+x,y,1/2-z
-x,y,z
1/2+x,-y,1/2+z
loop_
_atom_site_type_symbol
_atom_site_label
_atom_site_fract_x
_atom_site_fract_y
_atom_site_fract_z
Si Si1 0.316962 0.536828 0.103008
Si Si2 0.316642 0.863782 0.901175
Si Si3 0.683639 0.790985 0.405607
Si Si4 0.683330 0.286304 0.094660
Si Si5 0.181623 0.364730 0.601982
Si Si6 0.181902 0.036245 0.395854
O O1 0.250000 0.522628 0.250000
O O2 0.500000 0.535331 0.106994
O O3 0.259541 0.586088 0.062227
O O4 0.248855 0.500000 0.000000
O O5 0.250000 0.849136 0.750000
O O6 0.500000 0.856412 0.899050
O O7 0.268899 0.914067 0.935292
O O8 0.240274 0.836397 0.025976
O O9 0.750000 0.786002 0.250000
O O10 0.500000 0.789929 0.397871
O O11 0.743868 0.752027 0.502891
O O12 0.750000 0.285174 0.250000
O O13 0.500000 0.279994 0.100269
O O14 0.732434 0.332381 0.022790
O O15 0.250000 0.348650 0.750000
O O16 0.000000 0.364091 0.622002
O O17 0.250000 0.021853 0.250000
O O18 0.000000 0.032940 0.388737
O O19 0.252100 0.000000 0.500000
#
# Coordination Sequence:
#
# PCOD8220757 Si02
#       6
#     8   8   8   8   8   8
#     4   9  18  33  52  76 107 141 178 220 266 317
#     4  10  20  37  59  83 113 148 186 227 273 323
#     4  12  25  41  60  83 111 143 181 224 273 326
#     4  11  23  39  58  82 111 143 181 223 271 324
#     4   9  19  35  55  78 106 141 179 221 268 319
#     4   9  19  35  55  81 112 146 184 225 269 319
#
# _framework density 19.148230000000002
#
# number of rings (size 3 to 8) (size 9 to 14) (size 15 to 20)
#    0.000    2.000    0.000    3.500    0.000    5.333 
#    0.000    1.667    0.000    0.000    0.000    0.000 
#    0.000    0.000    0.000    0.000    0.000    0.000 
#
# Total GULP energy -595180.316323 kJ/mol
# GULP energy per Si atom -12399.589923 kJ/mol
# Density = 1.910465 g / cm^3
# Si number density = 19.148230 Si / 1000 Ang^3
#
#
#
# Elastic Constant Matrix: (Units=GPa)
#
#
# Indices 1 2 3 4 5 6 
#
# 1 68.5562 42.7698 54.2522 0.0000 0.0000 0.0000
# 2 42.7698 135.6256 108.9907 0.0000 0.0000 0.0000
# 3 54.2522 108.9907 180.8090 0.0000 0.0000 0.0000
# 4 0.0000 0.0000 0.0000 43.2456 0.0000 0.0000
# 5 0.0000 0.0000 0.0000 0.0000 37.0601 0.0000
# 6 0.0000 0.0000 0.0000 0.0000 0.0000 19.2123
#
#
#
# Elastic Compliance Matrix: (Units=1/GPa)
#
#
# Indices 1 2 3 4 5 6 
#
# 1 0.019674 -0.002832 -0.004196 0.000000 0.000000 0.000000
# 2 -0.002832 0.014708 -0.008016 0.000000 0.000000 0.000000
# 3 -0.004196 -0.008016 0.011622 0.000000 0.000000 0.000000
# 4 0.000000 0.000000 0.000000 0.023124 0.000000 0.000000
# 5 0.000000 0.000000 0.000000 0.000000 0.026983 0.000000
# 6 0.000000 0.000000 0.000000 0.000000 0.000000 0.052050
#
#
# Mechanical properties :
#
#
# Convention : Reuss Voigt Hill
#
# Bulk Modulus (GPa) = 62.83301 88.55736 75.69519
# Shear Modulus (GPa) = 27.23969 31.83547 29.53758
#
# Velocity S-wave (km/s) = 3.77579 4.08190 3.93182
# Velocity P-wave (km/s) = 7.20375 8.28037 7.76075
#
# Compressibility (1/GPa) = 0.01591520
#
# Stress axis : x y z
#
# Youngs Moduli (GPa) = 50.82845 67.98811 86.04440
#
# Poissons Ratio (x) = 0.19256 0.36104
# Poissons Ratio (y) = 0.14396 0.68976
# Poissons Ratio (z) = 0.21327 0.54502
#
# Static dielectric constant tensor:
#      x y z
#    x 3.510540 0.000000 0.000000 
#    y 0.000000 4.009460 0.000000 
#    z 0.000000 0.000000 3.714480 
# 
# 
# High freq. dielectric constant tensor:
#      x y z
#    x 1.746420 0.000000 0.000000 
#    y 0.000000 1.760550 0.000000 
#    z 0.000000 0.000000 1.746790 
# 
# From -- ./inp_files/6666.got.cif
#   From: 2010.03.12/outbox.cif.g09.slc.cpg/sg53_4_cif.got.tgz:6666.got - 2010.04.16 14:36:59.
