data_PCOD8220985
_publ_section_title
;
Structure prediction by ZEFSAII (Michael W. Deem and Ramdas Pophale) SiO2 
 PCOD8220985
Probable space group: P M N A
;
_chemical_formula_sum "Si O2"
_cell_formula_units_Z 64
_cell_length_a 25.511600
_cell_length_b 14.761410
_cell_length_c 7.990969
_cell_angle_alpha 90.000000
_cell_angle_beta 90.000000
_cell_angle_gamma 90.000000
_cell_volume 3009.296540
_symmetry_space_group_name_H-M "P M N A"
_symmetry_group_IT_number 53
_symmetry_cell_setting 'orthorhombic'
loop_
_space_group_symop_operation_xyz
x,y,z
1/2-x,-y,1/2+z
x,-y,-z
1/2-x,y,1/2-z
-x,-y,-z
1/2+x,y,1/2-z
-x,y,z
1/2+x,-y,1/2+z
loop_
_atom_site_type_symbol
_atom_site_label
_atom_site_fract_x
_atom_site_fract_y
_atom_site_fract_z
Si Si1 0.148424 0.593410 0.417358
Si Si2 0.906405 0.681554 0.711480
Si Si3 0.440425 0.510408 0.307868
Si Si4 0.165555 0.222670 0.036743
Si Si5 0.855311 0.858058 0.314672
Si Si6 0.058146 0.861601 0.574691
Si Si7 0.773285 0.259804 0.583134
Si Si8 0.871373 0.959709 0.826799
O O1 0.165508 0.500000 0.500000
O O2 0.131226 0.666573 0.554308
O O3 0.102422 0.576268 0.280135
O O4 0.202053 0.642449 0.358703
O O5 0.939880 0.590066 0.731226
O O6 0.871716 0.703202 0.875716
O O7 0.944117 0.764604 0.668365
O O8 0.424716 0.500000 0.500000
O O9 0.500000 0.549025 0.284978
O O10 0.164850 0.127655 0.137601
O O11 0.144505 0.209070 0.847122
O O12 0.225217 0.262876 0.048839
O O13 0.912647 0.858934 0.396617
O O14 0.817436 0.816336 0.460225
O O15 0.838030 0.959680 0.261305
O O16 0.081997 0.934657 0.701890
O O17 0.000000 0.893048 0.532621
O O18 0.750000 0.215401 0.750000
O O19 0.895169 0.000000 0.000000
#
# Coordination Sequence:
#
# PCOD8220985 Si02
#       8
#     8   8   8   8   8   8   8   8
#     4  10  22  42  61  92 127 161 208 257 313 376
#     4  10  21  40  63  89 124 161 207 261 311 378
#     4  10  23  40  65  94 125 168 212 262 319 381
#     4   9  21  40  64  86 124 163 203 260 315 370
#     4  10  20  39  61  87 124 158 207 255 311 377
#     4  11  22  37  62  89 120 163 204 256 318 378
#     4  10  21  40  63  88 121 161 203 258 312 368
#     4   9  20  40  59  86 121 159 202 257 309 376
#
# _framework density 21.267427999999999
#
# number of rings (size 3 to 8) (size 9 to 14) (size 15 to 20)
#    0.000    2.125    1.250    0.750    3.500    4.500 
#    4.500   15.625    0.000    0.000    0.000    0.000 
#    0.000    0.000    0.000    0.000    0.000    0.000 
#
# Total GULP energy -792931.811411 kJ/mol
# GULP energy per Si atom -12389.559553 kJ/mol
# Density = 2.121902 g / cm^3
# Si number density = 21.267428 Si / 1000 Ang^3
#
#
#
# Elastic Constant Matrix: (Units=GPa)
#
#
# Indices 1 2 3 4 5 6 
#
# 1 136.2003 50.8849 49.1392 0.0000 0.0000 0.0000
# 2 50.8849 89.7145 23.5567 0.0000 0.0000 0.0000
# 3 49.1392 23.5567 95.2953 0.0000 0.0000 0.0000
# 4 0.0000 0.0000 0.0000 32.3965 0.0000 0.0000
# 5 0.0000 0.0000 0.0000 0.0000 27.7079 0.0000
# 6 0.0000 0.0000 0.0000 0.0000 0.0000 19.5288
#
#
#
# Elastic Compliance Matrix: (Units=1/GPa)
#
#
# Indices 1 2 3 4 5 6 
#
# 1 0.010756 -0.004967 -0.004318 0.000000 0.000000 0.000000
# 2 -0.004967 0.014214 -0.000953 0.000000 0.000000 0.000000
# 3 -0.004318 -0.000953 0.012956 0.000000 0.000000 0.000000
# 4 0.000000 0.000000 0.000000 0.030868 0.000000 0.000000
# 5 0.000000 0.000000 0.000000 0.000000 0.036091 0.000000
# 6 0.000000 0.000000 0.000000 0.000000 0.000000 0.051206
#
#
# Mechanical properties :
#
#
# Convention : Reuss Voigt Hill
#
# Bulk Modulus (GPa) = 57.30627 63.15242 60.22935
# Shear Modulus (GPa) = 27.41501 29.10193 28.25847
#
# Velocity S-wave (km/s) = 3.59424 3.70318 3.64912
# Velocity P-wave (km/s) = 6.65048 6.93135 6.79236
#
# Compressibility (1/GPa) = 0.01745010
#
# Stress axis : x y z
#
# Youngs Moduli (GPa) = 92.97382 70.35538 77.18440
#
# Poissons Ratio (x) = 0.34943 0.33332
# Poissons Ratio (y) = 0.46176 0.07352
# Poissons Ratio (z) = 0.40151 0.06701
#
# Static dielectric constant tensor:
#      x y z
#    x 3.764110 0.000000 0.000000 
#    y 0.000000 3.964630 0.000000 
#    z 0.000000 0.000000 3.951920 
# 
# 
# High freq. dielectric constant tensor:
#      x y z
#    x 1.815270 0.000000 0.000000 
#    y 0.000000 1.842400 0.000000 
#    z 0.000000 0.000000 1.835340 
# 
# From -- ./inp_files/11945.got.cif
#   From: 2010.03.12/outbox.cif.g09.slc.cpg/sg53_6_cif.got.tgz:11945.got - 2010.04.16 14:36:59.
