data_PCOD8220362
_publ_section_title
;
Structure prediction by ZEFSAII (Michael W. Deem and Ramdas Pophale) SiO2 
 PCOD8220362
Probable space group: P M N A
;
_chemical_formula_sum "Si O2"
_cell_formula_units_Z 48
_cell_length_a 8.780636
_cell_length_b 30.685662
_cell_length_c 9.117326
_cell_angle_alpha 90.000000
_cell_angle_beta 90.000000
_cell_angle_gamma 90.000000
_cell_volume 2456.568930
_symmetry_space_group_name_H-M "P M N A"
_symmetry_group_IT_number 53
_symmetry_cell_setting 'orthorhombic'
loop_
_space_group_symop_operation_xyz
x,y,z
1/2-x,-y,1/2+z
x,-y,-z
1/2-x,y,1/2-z
-x,-y,-z
1/2+x,y,1/2-z
-x,y,z
1/2+x,-y,1/2+z
loop_
_atom_site_type_symbol
_atom_site_label
_atom_site_fract_x
_atom_site_fract_y
_atom_site_fract_z
Si Si1 0.820252 0.040973 0.591936
Si Si2 0.180487 0.876629 0.593432
Si Si3 0.319800 0.374355 0.091109
Si Si4 0.820440 0.458688 0.590619
Si Si5 0.322171 0.786414 0.595340
Si Si6 0.677809 0.702406 0.409271
O O1 0.750000 0.038265 0.750000
O O2 0.767034 0.085893 0.517567
O O3 0.000000 0.038807 0.605305
O O4 0.757930 0.000000 0.500000
O O5 0.250000 0.888484 0.750000
O O6 0.245955 0.830706 0.536144
O O7 0.000000 0.873495 0.607121
O O8 0.250000 0.381378 0.250000
O O9 0.500000 0.370444 0.105242
O O10 0.269413 0.415035 0.992058
O O11 0.255379 0.330836 0.019962
O O12 0.757875 0.500000 0.500000
O O13 0.750000 0.458800 0.750000
O O14 0.000000 0.461404 0.607626
O O15 0.250000 0.771681 0.750000
O O16 0.500000 0.794296 0.621965
O O17 0.291611 0.750404 0.472097
O O18 0.750000 0.698218 0.250000
O O19 0.500000 0.691664 0.398381
#
# Coordination Sequence:
#
# PCOD8220362 Si02
#       6
#     8   8   8   8   8   8
#     4  10  22  38  56  81 111 144 183 225 272 326
#     4  10  20  35  57  83 111 144 183 227 274 327
#     4  11  23  39  61  87 116 151 192 237 285 339
#     4  10  22  39  59  86 118 152 191 234 282 336
#     4  10  21  37  58  83 111 146 186 228 277 332
#     4  11  24  40  59  84 115 151 190 235 286 338
#
# _framework density 19.539449000000001
#
# number of rings (size 3 to 8) (size 9 to 14) (size 15 to 20)
#    0.000    1.667    0.000    5.000    0.000    9.333 
#    0.000    3.333    0.000    0.000    0.000    0.000 
#    0.000    0.000    0.000    0.000    0.000    0.000 
#
# Total GULP energy -595413.933473 kJ/mol
# GULP energy per Si atom -12404.456947 kJ/mol
# Density = 1.949498 g / cm^3
# Si number density = 19.539449 Si / 1000 Ang^3
#
#
#
# Elastic Constant Matrix: (Units=GPa)
#
#
# Indices 1 2 3 4 5 6 
#
# 1 79.4678 55.9471 52.4306 0.0000 0.0000 0.0000
# 2 55.9471 136.6788 81.7508 0.0000 0.0000 0.0000
# 3 52.4306 81.7508 159.4847 0.0000 0.0000 0.0000
# 4 0.0000 0.0000 0.0000 51.8959 0.0000 0.0000
# 5 0.0000 0.0000 0.0000 0.0000 36.3596 0.0000
# 6 0.0000 0.0000 0.0000 0.0000 0.0000 15.2049
#
#
#
# Elastic Compliance Matrix: (Units=1/GPa)
#
#
# Indices 1 2 3 4 5 6 
#
# 1 0.018757 -0.005754 -0.003217 0.000000 0.000000 0.000000
# 2 -0.005754 0.012316 -0.004422 0.000000 0.000000 0.000000
# 3 -0.003217 -0.004422 0.009594 0.000000 0.000000 0.000000
# 4 0.000000 0.000000 0.000000 0.019269 0.000000 0.000000
# 5 0.000000 0.000000 0.000000 0.000000 0.027503 0.000000
# 6 0.000000 0.000000 0.000000 0.000000 0.000000 0.065768
#
#
# Mechanical properties :
#
#
# Convention : Reuss Voigt Hill
#
# Bulk Modulus (GPa) = 72.03201 83.98759 78.00980
# Shear Modulus (GPa) = 27.08257 33.05894 30.07075
#
# Velocity S-wave (km/s) = 3.72700 4.11774 3.92724
# Velocity P-wave (km/s) = 7.44753 8.10461 7.78300
#
# Compressibility (1/GPa) = 0.01388272
#
# Stress axis : x y z
#
# Youngs Moduli (GPa) = 53.31367 81.19304 104.22771
#
# Poissons Ratio (x) = 0.46715 0.33531
# Poissons Ratio (y) = 0.30675 0.46087
# Poissons Ratio (z) = 0.17151 0.35902
#
# Static dielectric constant tensor:
#      x y z
#    x 3.624320 0.000000 0.000000 
#    y 0.000000 3.927270 0.000000 
#    z 0.000000 0.000000 3.566530 
# 
# 
# High freq. dielectric constant tensor:
#      x y z
#    x 1.768140 0.000000 0.000000 
#    y 0.000000 1.780230 0.000000 
#    z 0.000000 0.000000 1.767750 
# 
# From -- ./inp_files/6728.got.cif
#   From: 2010.03.12/outbox.cif.g09.slc.cpg/sg53_4_cif.got.tgz:6728.got - 2010.04.16 14:36:59.
