data_PCOD8220821
_publ_section_title
;
Structure prediction by ZEFSAII (Michael W. Deem and Ramdas Pophale) SiO2 
 PCOD8220821
Probable space group: P M N A
;
_chemical_formula_sum "Si O2"
_cell_formula_units_Z 64
_cell_length_a 17.896641
_cell_length_b 14.813039
_cell_length_c 12.100537
_cell_angle_alpha 90.000000
_cell_angle_beta 90.000000
_cell_angle_gamma 90.000000
_cell_volume 3207.896418
_symmetry_space_group_name_H-M "P M N A"
_symmetry_group_IT_number 53
_symmetry_cell_setting 'orthorhombic'
loop_
_space_group_symop_operation_xyz
x,y,z
1/2-x,-y,1/2+z
x,-y,-z
1/2-x,y,1/2-z
-x,-y,-z
1/2+x,y,1/2-z
-x,y,z
1/2+x,-y,1/2+z
loop_
_atom_site_type_symbol
_atom_site_label
_atom_site_fract_x
_atom_site_fract_y
_atom_site_fract_z
Si Si1 0.583989 0.358234 0.678846
Si Si2 0.413979 0.727185 0.097114
Si Si3 0.817032 0.598664 0.549980
Si Si4 0.084878 0.559963 0.757573
Si Si5 0.911535 0.930334 0.409915
Si Si6 0.154330 0.667986 0.949256
Si Si7 0.411574 0.857903 0.541551
Si Si8 0.911719 0.965061 0.168379
O O1 0.500000 0.349638 0.630975
O O2 0.598141 0.280760 0.770435
O O3 0.596204 0.453148 0.738777
O O4 0.641038 0.348890 0.578772
O O5 0.500000 0.705818 0.068017
O O6 0.391660 0.827652 0.057367
O O7 0.362918 0.654837 0.038373
O O8 0.802150 0.500000 0.500000
O O9 0.861445 0.598842 0.664288
O O10 0.740135 0.648656 0.576644
O O11 0.103475 0.601789 0.876598
O O12 0.000000 0.584545 0.726193
O O13 0.875993 0.950582 0.289398
O O14 0.000000 0.943424 0.403723
O O15 0.877458 0.000000 0.500000
O O16 0.134308 0.770776 0.920291
O O17 0.500000 0.837457 0.544052
O O18 0.385394 0.888518 0.418670
O O19 0.389109 0.935768 0.627255
O O20 0.000000 0.957863 0.174562
#
# Coordination Sequence:
#
# PCOD8220821 Si02
#       8
#     8   8   8   8   8   8   8   8
#     4  10  20  37  61  86 115 151 201 256 298 345
#     4  10  21  38  63  90 115 158 214 255 295 352
#     4  12  25  42  60  82 122 165 203 247 300 372
#     4  11  23  40  62  84 112 154 203 256 305 354
#     4   9  17  30  52  85 119 146 186 247 300 342
#     4  12  24  36  57  91 126 155 194 246 314 368
#     4   9  17  32  56  86 116 152 195 243 296 360
#     4   8  15  30  55  84 117 152 192 245 303 348
#
# _framework density 19.950769000000001
#
# number of rings (size 3 to 8) (size 9 to 14) (size 15 to 20)
#    0.000    1.875    1.250    4.500    0.000    5.000 
#    0.000    2.500    2.750    0.000    0.000    0.000 
#    0.000    0.000    0.000    0.000    0.000    0.000 
#
# Total GULP energy -793661.099871 kJ/mol
# GULP energy per Si atom -12400.954685 kJ/mol
# Density = 1.990536 g / cm^3
# Si number density = 19.950769 Si / 1000 Ang^3
#
#
#
# Elastic Constant Matrix: (Units=GPa)
#
#
# Indices 1 2 3 4 5 6 
#
# 1 79.4557 40.4660 18.8443 0.0000 0.0000 0.0000
# 2 40.4660 107.3490 25.4056 0.0000 0.0000 0.0000
# 3 18.8443 25.4056 68.1696 0.0000 0.0000 0.0000
# 4 0.0000 0.0000 0.0000 32.2820 0.0000 0.0000
# 5 0.0000 0.0000 0.0000 0.0000 44.4848 0.0000
# 6 0.0000 0.0000 0.0000 0.0000 0.0000 15.2731
#
#
#
# Elastic Compliance Matrix: (Units=1/GPa)
#
#
# Indices 1 2 3 4 5 6 
#
# 1 0.015919 -0.005439 -0.002373 0.000000 0.000000 0.000000
# 2 -0.005439 0.012075 -0.002997 0.000000 0.000000 0.000000
# 3 -0.002373 -0.002997 0.016442 0.000000 0.000000 0.000000
# 4 0.000000 0.000000 0.000000 0.030977 0.000000 0.000000
# 5 0.000000 0.000000 0.000000 0.000000 0.022480 0.000000
# 6 0.000000 0.000000 0.000000 0.000000 0.000000 0.065475
#
#
# Mechanical properties :
#
#
# Convention : Reuss Voigt Hill
#
# Bulk Modulus (GPa) = 43.82564 47.15624 45.49094
# Shear Modulus (GPa) = 25.96184 29.75855 27.86020
#
# Velocity S-wave (km/s) = 3.61126 3.86631 3.74096
# Velocity P-wave (km/s) = 6.27717 6.60445 6.44289
#
# Compressibility (1/GPa) = 0.02281769
#
# Stress axis : x y z
#
# Youngs Moduli (GPa) = 62.81998 82.81697 60.81931
#
# Poissons Ratio (x) = 0.45043 0.14435
# Poissons Ratio (y) = 0.34167 0.18225
# Poissons Ratio (z) = 0.14910 0.24817
#
# Static dielectric constant tensor:
#      x y z
#    x 3.291870 0.000000 0.000000 
#    y 0.000000 3.733660 0.000000 
#    z 0.000000 0.000000 3.830420 
# 
# 
# High freq. dielectric constant tensor:
#      x y z
#    x 1.740590 0.000000 0.000000 
#    y 0.000000 1.789510 0.000000 
#    z 0.000000 0.000000 1.784180 
# 
# From -- ./inp_files/17142.got.cif
#   From: 2010.03.12/outbox.cif.g09.slc.cpg/sg53_9_cif.got.tgz:17142.got - 2010.04.16 14:36:59.
