data_PCOD8220561
_publ_section_title
;
Structure prediction by ZEFSAII (Michael W. Deem and Ramdas Pophale) SiO2 
 PCOD8220561
Probable space group: P M N A
;
_chemical_formula_sum "Si O2"
_cell_formula_units_Z 56
_cell_length_a 19.732891
_cell_length_b 13.539883
_cell_length_c 11.433793
_cell_angle_alpha 90.000000
_cell_angle_beta 90.000000
_cell_angle_gamma 90.000000
_cell_volume 3054.892652
_symmetry_space_group_name_H-M "P M N A"
_symmetry_group_IT_number 53
_symmetry_cell_setting 'orthorhombic'
loop_
_space_group_symop_operation_xyz
x,y,z
1/2-x,-y,1/2+z
x,-y,-z
1/2-x,y,1/2-z
-x,-y,-z
1/2+x,y,1/2-z
-x,y,z
1/2+x,-y,1/2+z
loop_
_atom_site_type_symbol
_atom_site_label
_atom_site_fract_x
_atom_site_fract_y
_atom_site_fract_z
Si Si1 0.822555 0.119445 0.273336
Si Si2 0.339173 0.709660 0.592610
Si Si3 0.922257 0.013402 0.867443
Si Si4 0.673464 0.654839 0.207222
Si Si5 0.811399 0.727373 0.538832
Si Si6 0.171739 0.430122 0.278485
Si Si7 0.923103 0.238907 0.880241
O O1 0.750000 0.065568 0.250000
O O2 0.823186 0.216983 0.197289
O O3 0.827347 0.162527 0.407121
O O4 0.881775 0.045504 0.233300
O O5 0.268601 0.702287 0.521955
O O6 0.363012 0.607133 0.656008
O O7 0.399719 0.752173 0.514625
O O8 0.915976 0.127607 0.834271
O O9 0.000000 0.976236 0.864282
O O10 0.893298 0.000000 0.000000
O O11 0.750000 0.666275 0.250000
O O12 0.653391 0.540928 0.185721
O O13 0.623210 0.689797 0.306433
O O14 0.658891 0.720231 0.091981
O O15 0.847736 0.641437 0.614092
O O16 0.250000 0.417522 0.250000
O O17 0.000000 0.275135 0.871667
#
# Coordination Sequence:
#
# PCOD8220561 Si02
#       7
#     8   8   8   8   8   8   8
#     4   9  18  33  56  85 111 137 178 237 281 320
#     4   9  16  33  53  79 111 137 175 227 285 327
#     4  10  20  36  58  80 104 141 187 229 276 338
#     4  11  20  33  54  80 110 151 189 224 271 330
#     4   9  17  33  55  81 110 142 182 230 274 325
#     4   8  17  30  54  82 107 138 184 230 271 330
#     4  11  23  36  53  79 113 145 182 232 281 331
#
# _framework density 18.331251000000002
#
# number of rings (size 3 to 8) (size 9 to 14) (size 15 to 20)
#    0.000    2.429    2.857    2.143    0.000    1.143 
#    0.000    2.857    0.000    5.143    0.000    0.000 
#    0.000    0.000    0.000    0.000    0.000    0.000 
#
# Total GULP energy -693974.208392 kJ/mol
# GULP energy per Si atom -12392.396578 kJ/mol
# Density = 1.828953 g / cm^3
# Si number density = 18.331251 Si / 1000 Ang^3
#
#
#
# Elastic Constant Matrix: (Units=GPa)
#
#
# Indices 1 2 3 4 5 6 
#
# 1 80.4825 36.6080 26.5619 0.0000 0.0000 0.0000
# 2 36.6080 65.1262 27.8415 0.0000 0.0000 0.0000
# 3 26.5619 27.8415 66.6152 0.0000 0.0000 0.0000
# 4 0.0000 0.0000 0.0000 26.0201 0.0000 0.0000
# 5 0.0000 0.0000 0.0000 0.0000 24.7203 0.0000
# 6 0.0000 0.0000 0.0000 0.0000 0.0000 8.4484
#
#
#
# Elastic Compliance Matrix: (Units=1/GPa)
#
#
# Indices 1 2 3 4 5 6 
#
# 1 0.017322 -0.008260 -0.003455 0.000000 0.000000 0.000000
# 2 -0.008260 0.022634 -0.006166 0.000000 0.000000 0.000000
# 3 -0.003455 -0.006166 0.018966 0.000000 0.000000 0.000000
# 4 0.000000 0.000000 0.000000 0.038432 0.000000 0.000000
# 5 0.000000 0.000000 0.000000 0.000000 0.040453 0.000000
# 6 0.000000 0.000000 0.000000 0.000000 0.000000 0.118366
#
#
# Mechanical properties :
#
#
# Convention : Reuss Voigt Hill
#
# Bulk Modulus (GPa) = 43.17702 43.80519 43.49111
# Shear Modulus (GPa) = 16.68585 19.91859 18.30222
#
# Velocity S-wave (km/s) = 3.02029 3.29993 3.16320
# Velocity P-wave (km/s) = 5.98062 6.20223 6.09243
#
# Compressibility (1/GPa) = 0.02316047
#
# Stress axis : x y z
#
# Youngs Moduli (GPa) = 57.72859 44.18144 52.72524
#
# Poissons Ratio (x) = 0.36495 0.18216
# Poissons Ratio (y) = 0.47685 0.32511
# Poissons Ratio (z) = 0.19944 0.27243
#
# Static dielectric constant tensor:
#      x y z
#    x 3.190420 0.000000 0.000000 
#    y 0.000000 3.408340 0.000000 
#    z 0.000000 0.000000 3.342710 
# 
# 
# High freq. dielectric constant tensor:
#      x y z
#    x 1.673620 0.000000 0.000000 
#    y 0.000000 1.705850 0.000000 
#    z 0.000000 0.000000 1.709060 
# 
# From -- ./inp_files/17838.got.cif
#   From: 2010.03.12/outbox.cif.g09.slc.cpg/sg53_9_cif.got.tgz:17838.got - 2010.04.16 14:36:59.
