data_PCOD8220766
_publ_section_title
;
Structure prediction by ZEFSAII (Michael W. Deem and Ramdas Pophale) SiO2 
 PCOD8220766
Probable space group: P M N A
;
_chemical_formula_sum "Si O2"
_cell_formula_units_Z 48
_cell_length_a 8.605525
_cell_length_b 30.316986
_cell_length_c 9.498479
_cell_angle_alpha 90.000000
_cell_angle_beta 90.000000
_cell_angle_gamma 90.000000
_cell_volume 2478.092200
_symmetry_space_group_name_H-M "P M N A"
_symmetry_group_IT_number 53
_symmetry_cell_setting 'orthorhombic'
loop_
_space_group_symop_operation_xyz
x,y,z
1/2-x,-y,1/2+z
x,-y,-z
1/2-x,y,1/2-z
-x,-y,-z
1/2+x,y,1/2-z
-x,y,z
1/2+x,-y,1/2+z
loop_
_atom_site_type_symbol
_atom_site_label
_atom_site_fract_x
_atom_site_fract_y
_atom_site_fract_z
Si Si1 0.816157 0.959636 0.905048
Si Si2 0.182142 0.540368 0.399504
Si Si3 0.816015 0.632685 0.095416
Si Si4 0.317176 0.117283 0.602485
Si Si5 0.684180 0.217574 0.600222
Si Si6 0.316014 0.290752 0.094615
O O1 0.750000 0.963471 0.750000
O O2 0.000000 0.960785 0.894580
O O3 0.757356 0.914177 0.977038
O O4 0.754611 0.000000 0.000000
O O5 0.220448 0.500000 0.500000
O O6 0.250000 0.526604 0.250000
O O7 0.266765 0.584107 0.457114
O O8 0.000000 0.550323 0.387058
O O9 0.750000 0.642141 0.250000
O O10 0.000000 0.637238 0.098744
O O11 0.746264 0.667252 0.987938
O O12 0.250000 0.100138 0.750000
O O13 0.500000 0.114431 0.616319
O O14 0.263763 0.167241 0.571164
O O15 0.750000 0.233875 0.750000
O O16 0.500000 0.223708 0.600047
O O17 0.759310 0.245898 0.477186
O O18 0.250000 0.292377 0.250000
O O19 0.500000 0.291865 0.098638
#
# Coordination Sequence:
#
# PCOD8220766 Si02
#       6
#     8   8   8   8   8   8
#     4  10  21  36  54  79 110 144 184 228 275 328
#     4  10  21  37  58  85 116 150 190 234 280 332
#     4  11  22  39  62  86 114 150 191 233 279 333
#     4   9  19  35  56  82 111 143 182 227 272 325
#     4  10  20  37  59  84 113 147 187 228 275 331
#     4  12  25  41  59  83 114 147 186 232 284 335
#
# _framework density 19.36974
#
# number of rings (size 3 to 8) (size 9 to 14) (size 15 to 20)
#    0.000    1.667    0.000    6.000    0.000    4.333 
#    0.000    3.333    0.000    0.000    0.000    0.000 
#    0.000    0.000    0.000    0.000    0.000    0.000 
#
# Total GULP energy -595359.704295 kJ/mol
# GULP energy per Si atom -12403.327173 kJ/mol
# Density = 1.932565 g / cm^3
# Si number density = 19.369740 Si / 1000 Ang^3
#
#
#
# Elastic Constant Matrix: (Units=GPa)
#
#
# Indices 1 2 3 4 5 6 
#
# 1 110.5501 51.1958 54.7713 0.0000 0.0000 0.0000
# 2 51.1958 133.9360 99.4153 0.0000 0.0000 0.0000
# 3 54.7713 99.4153 158.7874 0.0000 0.0000 0.0000
# 4 0.0000 0.0000 0.0000 102.2287 0.0000 0.0000
# 5 0.0000 0.0000 0.0000 0.0000 37.0689 0.0000
# 6 0.0000 0.0000 0.0000 0.0000 0.0000 47.5006
#
#
#
# Elastic Compliance Matrix: (Units=1/GPa)
#
#
# Indices 1 2 3 4 5 6 
#
# 1 0.011406 -0.002689 -0.002251 0.000000 0.000000 0.000000
# 2 -0.002689 0.014582 -0.008202 0.000000 0.000000 0.000000
# 3 -0.002251 -0.008202 0.012209 0.000000 0.000000 0.000000
# 4 0.000000 0.000000 0.000000 0.009782 0.000000 0.000000
# 5 0.000000 0.000000 0.000000 0.000000 0.026977 0.000000
# 6 0.000000 0.000000 0.000000 0.000000 0.000000 0.021052
#
#
# Mechanical properties :
#
#
# Convention : Reuss Voigt Hill
#
# Bulk Modulus (GPa) = 83.93815 90.44869 87.19342
# Shear Modulus (GPa) = 39.59931 50.55238 45.07585
#
# Velocity S-wave (km/s) = 4.52640 5.11422 4.82926
# Velocity P-wave (km/s) = 8.41109 9.03720 8.72976
#
# Compressibility (1/GPa) = 0.01191353
#
# Stress axis : x y z
#
# Youngs Moduli (GPa) = 87.67190 68.57553 81.90413
#
# Poissons Ratio (x) = 0.18443 0.18433
# Poissons Ratio (y) = 0.23578 0.67180
# Poissons Ratio (z) = 0.19731 0.56248
#
# Static dielectric constant tensor:
#      x y z
#    x 3.624840 0.000000 0.000000 
#    y 0.000000 3.861430 0.000000 
#    z 0.000000 0.000000 2.492450 
# 
# 
# High freq. dielectric constant tensor:
#      x y z
#    x 1.763560 0.000000 0.000000 
#    y 0.000000 1.770160 0.000000 
#    z 0.000000 0.000000 1.754130 
# 
# From -- ./inp_files/6611.got.cif
#   From: 2010.03.12/outbox.cif.g09.slc.cpg/sg53_4_cif.got.tgz:6611.got - 2010.04.16 14:36:59.
