data_PCOD8220152
_publ_section_title
;
Structure prediction by ZEFSAII (Michael W. Deem and Ramdas Pophale) SiO2 
 PCOD8220152
Probable space group: P M N A
;
_chemical_formula_sum "Si O2"
_cell_formula_units_Z 64
_cell_length_a 8.756313
_cell_length_b 17.381305
_cell_length_c 22.173501
_cell_angle_alpha 90.000000
_cell_angle_beta 90.000000
_cell_angle_gamma 90.000000
_cell_volume 3374.721416
_symmetry_space_group_name_H-M "P M N A"
_symmetry_group_IT_number 53
_symmetry_cell_setting 'orthorhombic'
loop_
_space_group_symop_operation_xyz
x,y,z
1/2-x,-y,1/2+z
x,-y,-z
1/2-x,y,1/2-z
-x,-y,-z
1/2+x,y,1/2-z
-x,y,z
1/2+x,-y,1/2+z
loop_
_atom_site_type_symbol
_atom_site_label
_atom_site_fract_x
_atom_site_fract_y
_atom_site_fract_z
Si Si1 0.821089 0.401984 0.149982
Si Si2 0.674440 0.319973 0.909702
Si Si3 0.680225 0.854694 0.585617
Si Si4 0.828277 0.988868 0.429000
Si Si5 0.320554 0.833594 0.446888
Si Si6 0.179601 0.571155 0.187440
Si Si7 0.325691 0.581374 0.973860
Si Si8 0.819699 0.751028 0.688483
O O1 0.763397 0.485045 0.172560
O O2 0.787007 0.394323 0.079208
O O3 0.725613 0.338619 0.186192
O O4 0.000000 0.388478 0.161210
O O5 0.500000 0.319416 0.887824
O O6 0.738299 0.234080 0.910728
O O7 0.771021 0.371259 0.864518
O O8 0.690347 0.353410 0.976381
O O9 0.500000 0.856010 0.594261
O O10 0.745566 0.938773 0.602169
O O11 0.726062 0.831976 0.517411
O O12 0.752611 0.792828 0.630123
O O13 0.000000 0.981838 0.403343
O O14 0.830736 0.000000 0.500000
O O15 0.733825 0.911914 0.414593
O O16 0.500000 0.825262 0.439035
O O17 0.250000 0.599515 0.250000
O O18 0.000000 0.572945 0.192597
O O19 0.500000 0.574936 0.950028
O O20 0.270723 0.500000 0.000000
O O21 0.750000 0.786729 0.750000
O O22 0.000000 0.760842 0.689167
#
# Coordination Sequence:
#
# PCOD8220152 Si02
#       8
#     8   8   8   8   8   8   8   8
#     4  11  23  38  58  83 111 146 187 234 284 336
#     4  11  22  36  56  81 112 147 186 230 280 332
#     4  10  20  36  58  85 117 151 186 227 279 335
#     4   9  17  31  54  84 116 148 182 219 266 325
#     4  10  20  34  55  85 119 150 185 230 281 335
#     4  11  24  40  58  78 103 140 186 233 280 330
#     4  10  20  35  55  81 112 147 184 228 282 337
#     4  12  25  40  58  80 111 150 194 240 284 336
#
# _framework density 18.964528000000001
#
# number of rings (size 3 to 8) (size 9 to 14) (size 15 to 20)
#    0.000    1.500    1.250    4.500    0.000    8.750 
#    0.000    0.000    0.000    0.750    0.000    5.250 
#    0.000    0.000    0.000    0.000    0.000    0.000 
#
# Total GULP energy -793918.063167 kJ/mol
# GULP energy per Si atom -12404.969737 kJ/mol
# Density = 1.892136 g / cm^3
# Si number density = 18.964528 Si / 1000 Ang^3
#
#
#
# Elastic Constant Matrix: (Units=GPa)
#
#
# Indices 1 2 3 4 5 6 
#
# 1 73.3604 28.9904 33.0855 0.0000 0.0000 0.0000
# 2 28.9904 112.3099 22.2122 0.0000 0.0000 0.0000
# 3 33.0855 22.2122 62.0856 0.0000 0.0000 0.0000
# 4 0.0000 0.0000 0.0000 9.1151 0.0000 0.0000
# 5 0.0000 0.0000 0.0000 0.0000 28.1072 0.0000
# 6 0.0000 0.0000 0.0000 0.0000 0.0000 34.7448
#
#
#
# Elastic Compliance Matrix: (Units=1/GPa)
#
#
# Indices 1 2 3 4 5 6 
#
# 1 0.018900 -0.003106 -0.008961 0.000000 0.000000 0.000000
# 2 -0.003106 0.010093 -0.001955 0.000000 0.000000 0.000000
# 3 -0.008961 -0.001955 0.021581 0.000000 0.000000 0.000000
# 4 0.000000 0.000000 0.000000 0.109708 0.000000 0.000000
# 5 0.000000 0.000000 0.000000 0.000000 0.035578 0.000000
# 6 0.000000 0.000000 0.000000 0.000000 0.000000 0.028781
#
#
# Mechanical properties :
#
#
# Convention : Reuss Voigt Hill
#
# Bulk Modulus (GPa) = 44.38642 46.25916 45.32279
# Shear Modulus (GPa) = 19.21626 25.29126 22.25376
#
# Velocity S-wave (km/s) = 3.18665 3.65582 3.42927
# Velocity P-wave (km/s) = 6.08239 6.50119 6.29527
#
# Compressibility (1/GPa) = 0.02252941
#
# Stress axis : x y z
#
# Youngs Moduli (GPa) = 52.90965 99.08321 46.33618
#
# Poissons Ratio (x) = 0.30780 0.41520
# Poissons Ratio (y) = 0.16436 0.09060
# Poissons Ratio (z) = 0.47410 0.19374
#
# Static dielectric constant tensor:
#      x y z
#    x 3.556410 0.000000 0.000000 
#    y 0.000000 3.581280 0.000000 
#    z 0.000000 0.000000 3.412410 
# 
# 
# High freq. dielectric constant tensor:
#      x y z
#    x 1.750560 0.000000 0.000000 
#    y 0.000000 1.742120 0.000000 
#    z 0.000000 0.000000 1.712200 
# 
# From -- ./inp_files/31123.got.cif
#   From: 2010.03.12/outbox.cif.g09.slc.cpg/sg53_16_cif.got.tgz:31123.got - 2010.04.16 14:36:59.
