data_PCOD8220229
_publ_section_title
;
Structure prediction by ZEFSAII (Michael W. Deem and Ramdas Pophale) SiO2 
 PCOD8220229
Probable space group: P M N A
;
_chemical_formula_sum "Si O2"
_cell_formula_units_Z 56
_cell_length_a 8.964369
_cell_length_b 17.211044
_cell_length_c 19.568738
_cell_angle_alpha 90.000000
_cell_angle_beta 90.000000
_cell_angle_gamma 90.000000
_cell_volume 3019.185233
_symmetry_space_group_name_H-M "P M N A"
_symmetry_group_IT_number 53
_symmetry_cell_setting 'orthorhombic'
loop_
_space_group_symop_operation_xyz
x,y,z
1/2-x,-y,1/2+z
x,-y,-z
1/2-x,y,1/2-z
-x,-y,-z
1/2+x,y,1/2-z
-x,y,z
1/2+x,-y,1/2+z
loop_
_atom_site_type_symbol
_atom_site_label
_atom_site_fract_x
_atom_site_fract_y
_atom_site_fract_z
Si Si1 0.176791 0.497305 0.176207
Si Si2 0.673329 0.621822 0.919782
Si Si3 0.828534 0.381071 0.938721
Si Si4 0.325479 0.088650 0.680670
Si Si5 0.172582 0.797110 0.062479
Si Si6 0.828478 0.197567 0.424283
Si Si7 0.674929 0.086845 0.319893
O O1 0.250000 0.511308 0.250000
O O2 0.239161 0.419222 0.141742
O O3 0.221996 0.568066 0.126099
O O4 0.000000 0.490305 0.185659
O O5 0.500000 0.599512 0.916815
O O6 0.700149 0.712679 0.907064
O O7 0.734584 0.596217 0.994060
O O8 0.802648 0.292224 0.916602
O O9 0.000000 0.397370 0.957671
O O10 0.250000 0.116271 0.750000
O O11 0.500000 0.093674 0.692177
O O12 0.272205 0.148198 0.623250
O O13 0.276888 0.001061 0.660655
O O14 0.000000 0.812620 0.043005
O O15 0.279254 0.820239 0.000897
O O16 0.725839 0.145105 0.377646
O O17 0.000000 0.174424 0.414483
O O18 0.750000 0.113632 0.250000
O O19 0.500000 0.093594 0.310323
#
# Coordination Sequence:
#
# PCOD8220229 Si02
#       7
#     8   8   8   8   8   8   8
#     4  11  23  37  54  79 109 139 174 214 257 306
#     4  10  21  37  57  79 104 136 174 215 260 311
#     4   9  19  36  57  79 105 139 175 211 255 308
#     4   9  19  34  53  77 105 139 177 214 256 308
#     4   9  18  35  56  78 106 139 174 212 256 306
#     4  10  21  36  54  79 106 134 173 217 261 309
#     4  10  20  35  54  76 104 139 176 214 259 310
#
# _framework density 18.548051999999998
#
# number of rings (size 3 to 8) (size 9 to 14) (size 15 to 20)
#    0.000    2.286    0.000    2.143    0.000    7.429 
#    0.000    2.857    0.000    0.000    0.000    0.000 
#    0.000    0.000    0.000    0.000    0.000    0.000 
#
# Total GULP energy -694547.887264 kJ/mol
# GULP energy per Si atom -12402.640844 kJ/mol
# Density = 1.850584 g / cm^3
# Si number density = 18.548052 Si / 1000 Ang^3
#
#
#
# Elastic Constant Matrix: (Units=GPa)
#
#
# Indices 1 2 3 4 5 6 
#
# 1 65.6522 34.5106 42.6687 0.0000 0.0000 0.0000
# 2 34.5106 78.6818 62.2894 0.0000 0.0000 0.0000
# 3 42.6687 62.2894 114.0585 0.0000 0.0000 0.0000
# 4 0.0000 0.0000 0.0000 75.5661 0.0000 0.0000
# 5 0.0000 0.0000 0.0000 0.0000 39.4534 0.0000
# 6 0.0000 0.0000 0.0000 0.0000 0.0000 25.3351
#
#
#
# Elastic Compliance Matrix: (Units=1/GPa)
#
#
# Indices 1 2 3 4 5 6 
#
# 1 0.021332 -0.005353 -0.005057 0.000000 0.000000 0.000000
# 2 -0.005353 0.023733 -0.010958 0.000000 0.000000 0.000000
# 3 -0.005057 -0.010958 0.016644 0.000000 0.000000 0.000000
# 4 0.000000 0.000000 0.000000 0.013233 0.000000 0.000000
# 5 0.000000 0.000000 0.000000 0.000000 0.025346 0.000000
# 6 0.000000 0.000000 0.000000 0.000000 0.000000 0.039471
#
#
# Mechanical properties :
#
#
# Convention : Reuss Voigt Hill
#
# Bulk Modulus (GPa) = 52.70917 59.70331 56.20624
# Shear Modulus (GPa) = 26.48029 35.99917 31.23973
#
# Velocity S-wave (km/s) = 3.78254 4.41030 4.10843
# Velocity P-wave (km/s) = 6.89609 7.62841 7.27148
#
# Compressibility (1/GPa) = 0.01897203
#
# Stress axis : x y z
#
# Youngs Moduli (GPa) = 46.87728 42.13616 60.08321
#
# Poissons Ratio (x) = 0.22557 0.30383
# Poissons Ratio (y) = 0.25095 0.65840
# Poissons Ratio (z) = 0.23705 0.46173
#
# Static dielectric constant tensor:
#      x y z
#    x 3.448890 0.000000 0.000000 
#    y 0.000000 3.531120 0.000000 
#    z 0.000000 0.000000 3.562460 
# 
# 
# High freq. dielectric constant tensor:
#      x y z
#    x 1.725620 0.000000 0.000000 
#    y 0.000000 1.725410 0.000000 
#    z 0.000000 0.000000 1.718320 
# 
# From -- ./inp_files/30834.got.cif
#   From: 2010.03.12/outbox.cif.g09.slc.cpg/sg53_16_cif.got.tgz:30834.got - 2010.04.16 14:36:59.
