data_PCOD8220988
_publ_section_title
;
Structure prediction by ZEFSAII (Michael W. Deem and Ramdas Pophale) SiO2 
 PCOD8220988
Probable space group: P M N A
;
_chemical_formula_sum "Si O2"
_cell_formula_units_Z 32
_cell_length_a 10.194081
_cell_length_b 16.527958
_cell_length_c 9.937318
_cell_angle_alpha 90.000000
_cell_angle_beta 90.000000
_cell_angle_gamma 90.000000
_cell_volume 1674.312303
_symmetry_space_group_name_H-M "P M N A"
_symmetry_group_IT_number 53
_symmetry_cell_setting 'orthorhombic'
loop_
_space_group_symop_operation_xyz
x,y,z
1/2-x,-y,1/2+z
x,-y,-z
1/2-x,y,1/2-z
-x,-y,-z
1/2+x,y,1/2-z
-x,y,z
1/2+x,-y,1/2+z
loop_
_atom_site_type_symbol
_atom_site_label
_atom_site_fract_x
_atom_site_fract_y
_atom_site_fract_z
Si Si1 0.000000 0.923174 0.402492
Si Si2 0.750000 0.421886 0.750000
Si Si3 0.000000 0.234811 0.433696
Si Si4 0.500000 0.299128 0.349062
Si Si5 0.231691 0.279641 0.951949
Si Si6 0.750000 0.139735 0.750000
Si Si7 0.000000 0.514245 0.836935
O O1 0.000000 0.855940 0.515961
O O2 0.130708 0.916189 0.307574
O O3 0.000000 0.000000 0.500000
O O4 0.726386 0.364552 0.623098
O O5 0.623486 0.478706 0.744232
O O6 0.123947 0.280667 0.490828
O O7 0.000000 0.236720 0.273698
O O8 0.370514 0.279113 0.429595
O O9 0.500000 0.391462 0.302955
O O10 0.195695 0.200399 0.864120
O O11 0.000000 0.500000 0.000000
#
# Coordination Sequence:
#
# PCOD8220988 Si02
#       7
#     4   4   4   4   8   4   4
#     4  10  21  44  65  99 128 158 199 248 303 367
#     4  11  22  40  60  83 116 162 212 259 304 364
#     4  10  23  38  61  89 120 157 198 250 306 363
#     4  12  23  38  56  88 124 156 201 261 306 363
#     4  10  20  39  63  84 115 163 211 242 302 365
#     4   9  20  40  68  89 120 162 204 247 288 372
#     4  12  25  38  56  85 122 157 208 264 315 353
#
# _framework density 19.112324000000001
#
# number of rings (size 3 to 8) (size 9 to 14) (size 15 to 20)
#    0.000    1.500    2.500    2.250    3.500    4.000 
#    9.000    2.500    0.000    0.000    0.000    0.000 
#    0.000    0.000    0.000    0.000    0.000    0.000 
#
# Total GULP energy -396581.677230 kJ/mol
# GULP energy per Si atom -12393.177413 kJ/mol
# Density = 1.906882 g / cm^3
# Si number density = 19.112324 Si / 1000 Ang^3
#
#
#
# Elastic Constant Matrix: (Units=GPa)
#
#
# Indices 1 2 3 4 5 6 
#
# 1 143.7358 58.6543 43.7191 0.0000 0.0000 0.0000
# 2 58.6543 77.9997 35.5256 0.0000 0.0000 0.0000
# 3 43.7191 35.5256 99.8450 0.0000 0.0000 0.0000
# 4 0.0000 0.0000 0.0000 22.3362 0.0000 0.0000
# 5 0.0000 0.0000 0.0000 0.0000 44.9028 0.0000
# 6 0.0000 0.0000 0.0000 0.0000 0.0000 -12.9000
#
#
#
# Elastic Compliance Matrix: (Units=1/GPa)
#
#
# Indices 1 2 3 4 5 6 
#
# 1 0.010398 -0.006857 -0.002113 0.000000 0.000000 0.000000
# 2 -0.006857 0.019821 -0.004050 0.000000 0.000000 0.000000
# 3 -0.002113 -0.004050 0.012382 0.000000 0.000000 0.000000
# 4 0.000000 0.000000 0.000000 0.044770 0.000000 0.000000
# 5 0.000000 0.000000 0.000000 0.000000 0.022270 0.000000
# 6 0.000000 0.000000 0.000000 0.000000 0.000000 -0.077519
#
#
# Mechanical properties :
#
#
# Convention : Reuss Voigt Hill
#
# Bulk Modulus (GPa) = 60.38312 66.37539 63.37925
# Shear Modulus (GPa) = 78.51372 23.11325 50.81349
#
# Velocity S-wave (km/s) = 6.41633 3.48133 5.16183
# Velocity P-wave (km/s) = 9.30349 7.13891 8.29213
#
# Compressibility (1/GPa) = 0.01656092
#
# Stress axis : x y z
#
# Youngs Moduli (GPa) = 96.17281 50.45088 80.76233
#
# Poissons Ratio (x) = 0.34592 0.17068
# Poissons Ratio (y) = 0.65941 0.32711
# Poissons Ratio (z) = 0.20325 0.20434
#
# Static dielectric constant tensor:
#      x y z
#    x 3.716730 0.000000 0.000000 
#    y 0.000000 3.409660 0.000000 
#    z 0.000000 0.000000 4.301120 
# 
# 
# High freq. dielectric constant tensor:
#      x y z
#    x 1.761700 0.000000 0.000000 
#    y 0.000000 1.733950 0.000000 
#    z 0.000000 0.000000 1.746930 
# 
# From -- ./inp_files/7365.got.cif
#   From: 2010.03.12/outbox.cif.g09.slc.cpg/sg53_4_cif.got.tgz:7365.got - 2010.04.16 14:36:59.
