data_PCOD8220501
_publ_section_title
;
Structure prediction by ZEFSAII (Michael W. Deem and Ramdas Pophale) SiO2 
 PCOD8220501
Probable space group: P M N A
;
_chemical_formula_sum "Si O2"
_cell_formula_units_Z 48
_cell_length_a 17.917134
_cell_length_b 14.647117
_cell_length_c 9.361834
_cell_angle_alpha 90.000000
_cell_angle_beta 90.000000
_cell_angle_gamma 90.000000
_cell_volume 2456.866896
_symmetry_space_group_name_H-M "P M N A"
_symmetry_group_IT_number 53
_symmetry_cell_setting 'orthorhombic'
loop_
_space_group_symop_operation_xyz
x,y,z
1/2-x,-y,1/2+z
x,-y,-z
1/2-x,y,1/2-z
-x,-y,-z
1/2+x,y,1/2-z
-x,y,z
1/2+x,-y,1/2+z
loop_
_atom_site_type_symbol
_atom_site_label
_atom_site_fract_x
_atom_site_fract_y
_atom_site_fract_z
Si Si1 0.662503 0.838212 0.263198
Si Si2 0.678310 0.528636 0.160160
Si Si3 0.318499 0.033908 0.344262
Si Si4 0.414450 0.300439 0.920208
Si Si5 0.087836 0.802035 0.945865
Si Si6 0.915190 0.640697 0.735734
O O1 0.750000 0.819006 0.250000
O O2 0.622111 0.794803 0.126983
O O3 0.630041 0.790799 0.404843
O O4 0.645501 0.946467 0.264510
O O5 0.750000 0.557794 0.250000
O O6 0.623404 0.614324 0.158449
O O7 0.638483 0.446053 0.243432
O O8 0.700773 0.500000 0.000000
O O9 0.250000 0.072354 0.250000
O O10 0.380733 0.111686 0.357738
O O11 0.289451 0.000000 0.500000
O O12 0.500000 0.302270 0.873543
O O13 0.403998 0.304590 0.089272
O O14 0.105287 0.708959 0.862829
O O15 0.000000 0.817637 0.968450
O O16 0.000000 0.605340 0.747814
#
# Coordination Sequence:
#
# PCOD8220501 Si02
#       6
#     8   8   8   8   8   8
#     4  10  21  36  54  80 111 143 181 224 271 324
#     4  10  21  36  55  78 106 139 176 219 267 321
#     4   9  20  36  55  78 109 146 182 223 273 326
#     4  10  20  36  57  78 106 143 180 221 269 322
#     4  10  21  37  58  83 111 144 184 228 272 323
#     4   9  20  37  55  78 106 139 178 218 266 319
#
# _framework density 19.537078000000001
#
# number of rings (size 3 to 8) (size 9 to 14) (size 15 to 20)
#    0.000    2.333    0.000    1.500    0.000   14.333 
#    0.000    0.000    0.000    7.500    0.000    0.000 
#    0.000    0.000    0.000    0.000    0.000    0.000 
#
# Total GULP energy -595309.338087 kJ/mol
# GULP energy per Si atom -12402.277877 kJ/mol
# Density = 1.949261 g / cm^3
# Si number density = 19.537078 Si / 1000 Ang^3
#
#
#
# Elastic Constant Matrix: (Units=GPa)
#
#
# Indices 1 2 3 4 5 6 
#
# 1 97.7619 17.0082 29.9076 0.0000 0.0000 0.0000
# 2 17.0082 43.8452 10.5319 0.0000 0.0000 0.0000
# 3 29.9076 10.5319 39.5262 0.0000 0.0000 0.0000
# 4 0.0000 0.0000 0.0000 31.8729 0.0000 0.0000
# 5 0.0000 0.0000 0.0000 0.0000 39.2578 0.0000
# 6 0.0000 0.0000 0.0000 0.0000 0.0000 6.1938
#
#
#
# Elastic Compliance Matrix: (Units=1/GPa)
#
#
# Indices 1 2 3 4 5 6 
#
# 1 0.013672 -0.003011 -0.009543 0.000000 0.000000 0.000000
# 2 -0.003011 0.025030 -0.004391 0.000000 0.000000 0.000000
# 3 -0.009543 -0.004391 0.033690 0.000000 0.000000 0.000000
# 4 0.000000 0.000000 0.000000 0.031375 0.000000 0.000000
# 5 0.000000 0.000000 0.000000 0.000000 0.025473 0.000000
# 6 0.000000 0.000000 0.000000 0.000000 0.000000 0.161452
#
#
# Mechanical properties :
#
#
# Convention : Reuss Voigt Hill
#
# Bulk Modulus (GPa) = 25.97214 32.89207 29.43210
# Shear Modulus (GPa) = 14.81850 23.71062 19.26456
#
# Velocity S-wave (km/s) = 2.75704 3.48749 3.14355
# Velocity P-wave (km/s) = 4.84331 5.75231 5.31727
#
# Compressibility (1/GPa) = 0.03850280
#
# Stress axis : x y z
#
# Youngs Moduli (GPa) = 73.14132 39.95146 29.68231
#
# Poissons Ratio (x) = 0.12031 0.28325
# Poissons Ratio (y) = 0.22026 0.13033
# Poissons Ratio (z) = 0.69796 0.17542
#
# Static dielectric constant tensor:
#      x y z
#    x 3.566730 0.000000 0.000000 
#    y 0.000000 3.592840 0.000000 
#    z 0.000000 0.000000 3.584840 
# 
# 
# High freq. dielectric constant tensor:
#      x y z
#    x 1.762450 0.000000 0.000000 
#    y 0.000000 1.764020 0.000000 
#    z 0.000000 0.000000 1.759870 
# 
# From -- ./inp_files/9907.got.cif
#   From: 2010.03.12/outbox.cif.g09.slc.cpg/sg53_5_cif.got.tgz:9907.got - 2010.04.16 14:36:59.
