data_PCOD8220120
_publ_section_title
;
Structure prediction by ZEFSAII (Michael W. Deem and Ramdas Pophale) SiO2 
 PCOD8220120
Probable space group: P M N A
;
_chemical_formula_sum "Si O2"
_cell_formula_units_Z 48
_cell_length_a 8.903587
_cell_length_b 15.268478
_cell_length_c 17.696187
_cell_angle_alpha 90.000000
_cell_angle_beta 90.000000
_cell_angle_gamma 90.000000
_cell_volume 2405.694378
_symmetry_space_group_name_H-M "P M N A"
_symmetry_group_IT_number 53
_symmetry_cell_setting 'orthorhombic'
loop_
_space_group_symop_operation_xyz
x,y,z
1/2-x,-y,1/2+z
x,-y,-z
1/2-x,y,1/2-z
-x,-y,-z
1/2+x,y,1/2-z
-x,y,z
1/2+x,-y,1/2+z
loop_
_atom_site_type_symbol
_atom_site_label
_atom_site_fract_x
_atom_site_fract_y
_atom_site_fract_z
Si Si1 0.175711 0.665602 0.405908
Si Si2 0.174984 0.517501 0.669503
Si Si3 0.321689 0.318190 0.076201
Si Si4 0.322847 0.152301 0.169735
Si Si5 0.324766 0.022436 0.914129
Si Si6 0.677523 0.175059 0.671202
O O1 0.207863 0.566713 0.381550
O O2 0.238717 0.677239 0.490710
O O3 0.267146 0.728395 0.350256
O O4 0.000000 0.689456 0.400078
O O5 0.250000 0.506522 0.750000
O O6 0.242888 0.601158 0.625320
O O7 0.000000 0.530551 0.683812
O O8 0.500000 0.324978 0.073733
O O9 0.266037 0.227457 0.112718
O O10 0.250000 0.169163 0.250000
O O11 0.500000 0.157694 0.178897
O O12 0.273061 0.058658 0.137514
O O13 0.500000 0.044122 0.903313
O O14 0.228467 0.106946 0.892754
O O15 0.288221 0.000000 0.000000
O O16 0.750000 0.145311 0.750000
O O17 0.500000 0.174589 0.679604
#
# Coordination Sequence:
#
# PCOD8220120 Si02
#       6
#     8   8   8   8   8   8
#     4  10  20  37  60  83 110 146 190 237 282 332
#     4  10  20  34  56  84 113 147 186 229 278 334
#     4   9  18  35  58  83 110 145 188 228 272 332
#     4  10  20  34  55  81 110 144 181 224 274 330
#     4  10  21  39  62  86 113 148 188 231 283 340
#     4  12  25  40  59  84 115 151 192 237 286 338
#
# _framework density 19.952659000000001
#
# number of rings (size 3 to 8) (size 9 to 14) (size 15 to 20)
#    0.000    1.833    0.000    4.500    0.000    9.000 
#    0.000    3.333    0.000    2.000    0.000    0.000 
#    0.000    0.000    0.000    0.000    0.000    0.000 
#
# Total GULP energy -595440.429064 kJ/mol
# GULP energy per Si atom -12405.008939 kJ/mol
# Density = 1.990725 g / cm^3
# Si number density = 19.952659 Si / 1000 Ang^3
#
#
#
# Elastic Constant Matrix: (Units=GPa)
#
#
# Indices 1 2 3 4 5 6 
#
# 1 61.4589 32.2450 28.0519 0.0000 0.0000 0.0000
# 2 32.2450 86.2832 13.9450 0.0000 0.0000 0.0000
# 3 28.0519 13.9450 107.4024 0.0000 0.0000 0.0000
# 4 0.0000 0.0000 0.0000 37.6017 0.0000 0.0000
# 5 0.0000 0.0000 0.0000 0.0000 27.9635 0.0000
# 6 0.0000 0.0000 0.0000 0.0000 0.0000 22.5862
#
#
#
# Elastic Compliance Matrix: (Units=1/GPa)
#
#
# Indices 1 2 3 4 5 6 
#
# 1 0.022499 -0.007618 -0.004887 0.000000 0.000000 0.000000
# 2 -0.007618 0.014418 0.000118 0.000000 0.000000 0.000000
# 3 -0.004887 0.000118 0.010572 0.000000 0.000000 0.000000
# 4 0.000000 0.000000 0.000000 0.026595 0.000000 0.000000
# 5 0.000000 0.000000 0.000000 0.000000 0.035761 0.000000
# 6 0.000000 0.000000 0.000000 0.000000 0.000000 0.044275
#
#
# Mechanical properties :
#
#
# Convention : Reuss Voigt Hill
#
# Bulk Modulus (GPa) = 44.02729 44.84759 44.43744
# Shear Modulus (GPa) = 26.81471 29.69043 28.25257
#
# Velocity S-wave (km/s) = 3.66992 3.86170 3.76703
# Velocity P-wave (km/s) = 6.33021 6.51225 6.42188
#
# Compressibility (1/GPa) = 0.02271319
#
# Stress axis : x y z
#
# Youngs Moduli (GPa) = 44.44714 69.35928 94.58993
#
# Poissons Ratio (x) = 0.52839 0.46228
# Poissons Ratio (y) = 0.33860 -0.01114
# Poissons Ratio (z) = 0.21722 -0.00817
#
# Static dielectric constant tensor:
#      x y z
#    x 3.324180 0.000000 0.000000 
#    y 0.000000 3.841620 0.000000 
#    z 0.000000 0.000000 3.794300 
# 
# 
# High freq. dielectric constant tensor:
#      x y z
#    x 1.744710 0.000000 0.000000 
#    y 0.000000 1.796440 0.000000 
#    z 0.000000 0.000000 1.795470 
# 
# From -- ./inp_files/26172.got.cif
#   From: 2010.03.12/outbox.cif.g09.slc.cpg/sg53_14_cif.got.tgz:26172.got - 2010.04.16 14:36:59.
