data_PCOD8220923
_publ_section_title
;
Structure prediction by ZEFSAII (Michael W. Deem and Ramdas Pophale) SiO2 
 PCOD8220923
Probable space group: P M N A
;
_chemical_formula_sum "Si O2"
_cell_formula_units_Z 48
_cell_length_a 8.656862
_cell_length_b 9.341936
_cell_length_c 30.561303
_cell_angle_alpha 90.000000
_cell_angle_beta 90.000000
_cell_angle_gamma 90.000000
_cell_volume 2471.549135
_symmetry_space_group_name_H-M "P M N A"
_symmetry_group_IT_number 53
_symmetry_cell_setting 'orthorhombic'
loop_
_space_group_symop_operation_xyz
x,y,z
1/2-x,-y,1/2+z
x,-y,-z
1/2-x,y,1/2-z
-x,-y,-z
1/2+x,y,1/2-z
-x,y,z
1/2+x,-y,1/2+z
loop_
_atom_site_type_symbol
_atom_site_label
_atom_site_fract_x
_atom_site_fract_y
_atom_site_fract_z
Si Si1 0.680101 0.335680 0.204775
Si Si2 0.181269 0.352474 0.547765
Si Si3 0.818680 0.655820 0.955742
Si Si4 0.678929 0.161743 0.372803
Si Si5 0.680611 0.829112 0.376894
Si Si6 0.816446 0.338821 0.703628
O O1 0.750000 0.277738 0.250000
O O2 0.500000 0.333469 0.211162
O O3 0.725061 0.232003 0.165797
O O4 0.735416 0.497528 0.194752
O O5 0.269798 0.498225 0.560115
O O6 0.228378 0.299419 0.499541
O O7 0.226121 0.231659 0.582128
O O8 0.000000 0.382739 0.549607
O O9 0.771611 0.768712 0.918737
O O10 0.000000 0.657818 0.965760
O O11 0.500000 0.190610 0.363261
O O12 0.719337 0.995822 0.374604
O O13 0.500000 0.800212 0.383699
O O14 0.737346 0.758199 0.332517
O O15 0.750000 0.286769 0.750000
O O16 0.000000 0.319408 0.702292
#
# Coordination Sequence:
#
# PCOD8220923 Si02
#       6
#     8   8   8   8   8   8
#     4  10  21  37  60  85 112 144 184 230 277 328
#     4  11  22  37  58  86 115 145 185 233 279 331
#     4  10  20  38  62  85 110 146 188 232 279 331
#     4  10  23  39  57  82 113 148 188 229 276 331
#     4  11  23  39  57  81 114 152 188 228 277 332
#     4  10  21  38  60  87 113 145 187 232 279 331
#
# _framework density 19.421016999999999
#
# number of rings (size 3 to 8) (size 9 to 14) (size 15 to 20)
#    0.000    1.667    0.000    5.500    0.000    8.667 
#    0.000    3.333    0.000    0.000    0.000    0.000 
#    0.000    0.000    0.000    0.000    0.000    0.000 
#
# Total GULP energy -595455.442286 kJ/mol
# GULP energy per Si atom -12405.321714 kJ/mol
# Density = 1.937681 g / cm^3
# Si number density = 19.421017 Si / 1000 Ang^3
#
#
#
# Elastic Constant Matrix: (Units=GPa)
#
#
# Indices 1 2 3 4 5 6 
#
# 1 53.3163 30.8179 41.6066 0.0000 0.0000 0.0000
# 2 30.8179 98.2666 78.0356 0.0000 0.0000 0.0000
# 3 41.6066 78.0356 134.8517 0.0000 0.0000 0.0000
# 4 0.0000 0.0000 0.0000 -30.9315 0.0000 0.0000
# 5 0.0000 0.0000 0.0000 0.0000 38.2102 0.0000
# 6 0.0000 0.0000 0.0000 0.0000 0.0000 43.0344
#
#
#
# Elastic Compliance Matrix: (Units=1/GPa)
#
#
# Indices 1 2 3 4 5 6 
#
# 1 0.025238 -0.003203 -0.005933 0.000000 0.000000 0.000000
# 2 -0.003203 0.019236 -0.010143 0.000000 0.000000 0.000000
# 3 -0.005933 -0.010143 0.015116 0.000000 0.000000 0.000000
# 4 0.000000 0.000000 0.000000 -0.032329 0.000000 0.000000
# 5 0.000000 0.000000 0.000000 0.000000 0.026171 0.000000
# 6 0.000000 0.000000 0.000000 0.000000 0.000000 0.023237
#
#
# Mechanical properties :
#
#
# Convention : Reuss Voigt Hill
#
# Bulk Modulus (GPa) = 47.55048 65.26165 56.40606
# Shear Modulus (GPa) = 40.90440 19.12758 30.01599
#
# Velocity S-wave (km/s) = 4.59431 3.14170 3.93560
# Velocity P-wave (km/s) = 7.25815 6.84375 7.05399
#
# Compressibility (1/GPa) = 0.02103028
#
# Stress axis : x y z
#
# Youngs Moduli (GPa) = 39.62355 51.98650 66.15702
#
# Poissons Ratio (x) = 0.16653 0.39250
# Poissons Ratio (y) = 0.12693 0.67103
# Poissons Ratio (z) = 0.23508 0.52730
#
# Static dielectric constant tensor:
#      x y z
#    x 3.625240 0.000000 0.000000 
#    y 0.000000 3.535880 0.000000 
#    z 0.000000 0.000000 3.699110 
# 
# 
# High freq. dielectric constant tensor:
#      x y z
#    x 1.767720 0.000000 0.000000 
#    y 0.000000 1.750590 0.000000 
#    z 0.000000 0.000000 1.770700 
# 
# From -- ./inp_files/37681.got.cif
#   From: 2010.03.12/outbox.cif.g09.slc.cpg/sg53_19_cif.got.tgz:37681.got - 2010.04.16 14:36:59.
