data_PCOD8220360
_publ_section_title
;
Structure prediction by ZEFSAII (Michael W. Deem and Ramdas Pophale) SiO2 
 PCOD8220360
Probable space group: P M N A
;
_chemical_formula_sum "Si O2"
_cell_formula_units_Z 48
_cell_length_a 8.813841
_cell_length_b 30.280324
_cell_length_c 9.502239
_cell_angle_alpha 90.000000
_cell_angle_beta 90.000000
_cell_angle_gamma 90.000000
_cell_volume 2536.014189
_symmetry_space_group_name_H-M "P M N A"
_symmetry_group_IT_number 53
_symmetry_cell_setting 'orthorhombic'
loop_
_space_group_symop_operation_xyz
x,y,z
1/2-x,-y,1/2+z
x,-y,-z
1/2-x,y,1/2-z
-x,-y,-z
1/2+x,y,1/2-z
-x,y,z
1/2+x,-y,1/2+z
loop_
_atom_site_type_symbol
_atom_site_label
_atom_site_fract_x
_atom_site_fract_y
_atom_site_fract_z
Si Si1 0.822017 0.536517 0.104486
Si Si2 0.178874 0.636544 0.100344
Si Si3 0.678593 0.039965 0.403485
Si Si4 0.677770 0.292676 0.098533
Si Si5 0.822096 0.787708 0.396234
Si Si6 0.320465 0.880305 0.398527
O O1 0.750000 0.523619 0.250000
O O2 0.778124 0.586271 0.059605
O O3 0.000000 0.531807 0.118590
O O4 0.754343 0.500000 0.000000
O O5 0.250000 0.649999 0.250000
O O6 0.000000 0.643996 0.110941
O O7 0.247316 0.665852 0.977432
O O8 0.750000 0.038060 0.250000
O O9 0.500000 0.035867 0.384356
O O10 0.725016 0.085299 0.480356
O O11 0.740200 0.000000 0.500000
O O12 0.750000 0.286683 0.250000
O O13 0.500000 0.301479 0.112162
O O14 0.713837 0.248318 0.013537
O O15 0.750000 0.771214 0.250000
O O16 0.746332 0.833303 0.445763
O O17 0.000000 0.795141 0.373708
O O18 0.250000 0.895698 0.250000
O O19 0.500000 0.876825 0.379625
#
# Coordination Sequence:
#
# PCOD8220360 Si02
#       6
#     8   8   8   8   8   8
#     4   9  19  35  54  79 109 141 178 219 265 317
#     4  10  20  36  58  81 108 143 183 225 268 321
#     4  10  22  38  56  81 111 144 182 222 267 318
#     4  11  24  39  56  80 110 144 181 225 276 325
#     4  10  21  37  58  82 108 142 181 220 267 322
#     4  10  20  35  57  83 110 141 179 222 266 316
#
# _framework density 18.927339
#
# number of rings (size 3 to 8) (size 9 to 14) (size 15 to 20)
#    0.000    2.000    0.000    4.000    0.000    8.000 
#    0.000    5.000    0.000    0.000    0.000    0.000 
#    0.000    0.000    0.000    0.000    0.000    0.000 
#
# Total GULP energy -595306.074402 kJ/mol
# GULP energy per Si atom -12402.209883 kJ/mol
# Density = 1.888426 g / cm^3
# Si number density = 18.927339 Si / 1000 Ang^3
#
#
#
# Elastic Constant Matrix: (Units=GPa)
#
#
# Indices 1 2 3 4 5 6 
#
# 1 80.3924 60.6093 67.7242 0.0000 0.0000 0.0000
# 2 60.6093 132.1739 106.9049 0.0000 0.0000 0.0000
# 3 67.7242 106.9049 170.2929 0.0000 0.0000 0.0000
# 4 0.0000 0.0000 0.0000 39.7497 0.0000 0.0000
# 5 0.0000 0.0000 0.0000 0.0000 36.8558 0.0000
# 6 0.0000 0.0000 0.0000 0.0000 0.0000 25.2255
#
#
#
# Elastic Compliance Matrix: (Units=1/GPa)
#
#
# Indices 1 2 3 4 5 6 
#
# 1 0.020650 -0.005743 -0.004607 0.000000 0.000000 0.000000
# 2 -0.005743 0.016967 -0.008368 0.000000 0.000000 0.000000
# 3 -0.004607 -0.008368 0.012957 0.000000 0.000000 0.000000
# 4 0.000000 0.000000 0.000000 0.025157 0.000000 0.000000
# 5 0.000000 0.000000 0.000000 0.000000 0.027133 0.000000
# 6 0.000000 0.000000 0.000000 0.000000 0.000000 0.039642
#
#
# Mechanical properties :
#
#
# Convention : Reuss Voigt Hill
#
# Bulk Modulus (GPa) = 76.10789 94.81511 85.46150
# Shear Modulus (GPa) = 27.12657 30.20758 28.66708
#
# Velocity S-wave (km/s) = 3.78986 3.99930 3.89599
# Velocity P-wave (km/s) = 7.71029 8.45748 8.09251
#
# Compressibility (1/GPa) = 0.01313924
#
# Stress axis : x y z
#
# Youngs Moduli (GPa) = 48.42699 58.93783 77.17640
#
# Poissons Ratio (x) = 0.33847 0.35556
# Poissons Ratio (y) = 0.27811 0.64578
# Poissons Ratio (z) = 0.22311 0.49317
#
# Static dielectric constant tensor:
#      x y z
#    x 3.534530 0.000000 0.000000 
#    y 0.000000 3.726540 0.000000 
#    z 0.000000 0.000000 3.436570 
# 
# 
# High freq. dielectric constant tensor:
#      x y z
#    x 1.744080 0.000000 0.000000 
#    y 0.000000 1.749830 0.000000 
#    z 0.000000 0.000000 1.735320 
# 
# From -- ./inp_files/6663.got.cif
#   From: 2010.03.12/outbox.cif.g09.slc.cpg/sg53_4_cif.got.tgz:6663.got - 2010.04.16 14:36:59.
