data_PCOD8220897
_publ_section_title
;
Structure prediction by ZEFSAII (Michael W. Deem and Ramdas Pophale) SiO2 
 PCOD8220897
Probable space group: P M N A
;
_chemical_formula_sum "Si O2"
_cell_formula_units_Z 48
_cell_length_a 8.909327
_cell_length_b 14.803941
_cell_length_c 19.303151
_cell_angle_alpha 90.000000
_cell_angle_beta 90.000000
_cell_angle_gamma 90.000000
_cell_volume 2545.953415
_symmetry_space_group_name_H-M "P M N A"
_symmetry_group_IT_number 53
_symmetry_cell_setting 'orthorhombic'
loop_
_space_group_symop_operation_xyz
x,y,z
1/2-x,-y,1/2+z
x,-y,-z
1/2-x,y,1/2-z
-x,-y,-z
1/2+x,y,1/2-z
-x,y,z
1/2+x,-y,1/2+z
loop_
_atom_site_type_symbol
_atom_site_label
_atom_site_fract_x
_atom_site_fract_y
_atom_site_fract_z
Si Si1 0.822276 0.137470 0.821907
Si Si2 0.674434 0.607607 0.676182
Si Si3 0.825641 0.451066 0.928867
Si Si4 0.174173 0.067987 0.180268
Si Si5 0.323235 0.227695 0.418219
Si Si6 0.677198 0.737987 0.063572
O O1 0.750000 0.170329 0.750000
O O2 0.757170 0.196247 0.883157
O O3 0.000000 0.150072 0.817756
O O4 0.775395 0.033859 0.837201
O O5 0.750000 0.602909 0.750000
O O6 0.500000 0.619127 0.689127
O O7 0.711420 0.516498 0.634785
O O8 0.732905 0.693146 0.632639
O O9 0.723502 0.363898 0.919049
O O10 0.000000 0.422323 0.930529
O O11 0.781741 0.500000 0.000000
O O12 0.250000 0.104680 0.250000
O O13 0.216575 0.131602 0.115963
O O14 0.000000 0.072719 0.195763
O O15 0.500000 0.237999 0.434976
O O16 0.229106 0.233645 0.487689
O O17 0.500000 0.748192 0.070298
#
# Coordination Sequence:
#
# PCOD8220897 Si02
#       6
#     8   8   8   8   8   8
#     4  10  21  40  62  86 116 153 195 243 292 348
#     4  10  21  36  59  87 116 150 188 233 287 344
#     4  10  20  40  63  81 110 155 195 234 289 349
#     4   9  19  35  60  87 116 154 195 239 292 345
#     4  10  20  38  59  84 118 157 194 232 285 354
#     4  12  25  38  58  88 117 153 195 245 295 342
#
# _framework density 18.853446999999999
#
# number of rings (size 3 to 8) (size 9 to 14) (size 15 to 20)
#    0.000    1.833    1.667    2.500    0.000    4.333 
#    0.000    5.000    0.000    0.000    0.000    0.000 
#    0.000    0.000    0.000    0.000    0.000    0.000 
#
# Total GULP energy -595375.547132 kJ/mol
# GULP energy per Si atom -12403.657232 kJ/mol
# Density = 1.881054 g / cm^3
# Si number density = 18.853447 Si / 1000 Ang^3
#
#
#
# Elastic Constant Matrix: (Units=GPa)
#
#
# Indices 1 2 3 4 5 6 
#
# 1 73.9219 43.4902 54.0286 0.0000 0.0000 0.0000
# 2 43.4902 104.6868 68.1808 0.0000 0.0000 0.0000
# 3 54.0286 68.1808 153.2647 0.0000 0.0000 0.0000
# 4 0.0000 0.0000 0.0000 183.1425 0.0000 0.0000
# 5 0.0000 0.0000 0.0000 0.0000 37.5750 0.0000
# 6 0.0000 0.0000 0.0000 0.0000 0.0000 21.0745
#
#
#
# Elastic Compliance Matrix: (Units=1/GPa)
#
#
# Indices 1 2 3 4 5 6 
#
# 1 0.020086 -0.005256 -0.004743 0.000000 0.000000 0.000000
# 2 -0.005256 0.014824 -0.004742 0.000000 0.000000 0.000000
# 3 -0.004743 -0.004742 0.010306 0.000000 0.000000 0.000000
# 4 0.000000 0.000000 0.000000 0.005460 0.000000 0.000000
# 5 0.000000 0.000000 0.000000 0.000000 0.026613 0.000000
# 6 0.000000 0.000000 0.000000 0.000000 0.000000 0.047451
#
#
# Mechanical properties :
#
#
# Convention : Reuss Voigt Hill
#
# Bulk Modulus (GPa) = 63.54940 73.69696 68.62318
# Shear Modulus (GPa) = 31.35463 59.43666 45.39565
#
# Velocity S-wave (km/s) = 4.08250 5.62086 4.91227
# Velocity P-wave (km/s) = 7.48349 9.01663 8.28560
#
# Compressibility (1/GPa) = 0.01573579
#
# Stress axis : x y z
#
# Youngs Moduli (GPa) = 49.78538 67.45860 97.03069
#
# Poissons Ratio (x) = 0.35453 0.46020
# Poissons Ratio (y) = 0.26165 0.46010
# Poissons Ratio (z) = 0.23612 0.31988
#
# Static dielectric constant tensor:
#      x y z
#    x 3.695640 0.000000 0.000000 
#    y 0.000000 3.758990 0.000000 
#    z 0.000000 0.000000 3.290250 
# 
# 
# High freq. dielectric constant tensor:
#      x y z
#    x 1.726610 0.000000 0.000000 
#    y 0.000000 1.743850 0.000000 
#    z 0.000000 0.000000 1.739860 
# 
# From -- ./inp_files/26180.got.cif
#   From: 2010.03.12/outbox.cif.g09.slc.cpg/sg53_14_cif.got.tgz:26180.got - 2010.04.16 14:36:59.
