data_PCOD8220201
_publ_section_title
;
Structure prediction by ZEFSAII (Michael W. Deem and Ramdas Pophale) SiO2 
 PCOD8220201
Probable space group: P M N A
;
_chemical_formula_sum "Si O2"
_cell_formula_units_Z 64
_cell_length_a 15.290945
_cell_length_b 22.352775
_cell_length_c 8.237192
_cell_angle_alpha 90.000000
_cell_angle_beta 90.000000
_cell_angle_gamma 90.000000
_cell_volume 2815.431477
_symmetry_space_group_name_H-M "P M N A"
_symmetry_group_IT_number 53
_symmetry_cell_setting 'orthorhombic'
loop_
_space_group_symop_operation_xyz
x,y,z
1/2-x,-y,1/2+z
x,-y,-z
1/2-x,y,1/2-z
-x,-y,-z
1/2+x,y,1/2-z
-x,y,z
1/2+x,-y,1/2+z
loop_
_atom_site_type_symbol
_atom_site_label
_atom_site_fract_x
_atom_site_fract_y
_atom_site_fract_z
Si Si1 0.150970 0.262520 0.299508
Si Si2 0.400897 0.134369 0.815480
Si Si3 0.246657 0.567039 0.058672
Si Si4 0.599546 0.649812 0.040163
Si Si5 0.351265 0.736721 0.279850
Si Si6 0.098415 0.657477 0.962187
Si Si7 0.900847 0.131385 0.323745
Si Si8 0.104133 0.068780 0.002954
O O1 0.250000 0.252696 0.250000
O O2 0.140270 0.285235 0.483913
O O3 0.099659 0.201050 0.277373
O O4 0.104183 0.322130 0.225283
O O5 0.500000 0.112017 0.828052
O O6 0.401943 0.204943 0.780001
O O7 0.356164 0.100087 0.661410
O O8 0.356990 0.120906 0.995117
O O9 0.250000 0.569606 0.250000
O O10 0.337764 0.594809 0.991737
O O11 0.163757 0.602759 0.991859
O O12 0.238373 0.500000 0.000000
O O13 0.500000 0.633978 0.993102
O O14 0.608548 0.670550 0.227601
O O15 0.250000 0.745880 0.250000
O O16 0.369531 0.723120 0.469243
O O17 0.000000 0.637489 0.005707
O O18 0.855993 0.096301 0.171639
O O19 0.000000 0.109179 0.336434
O O20 0.000000 0.078115 0.003106
O O21 0.131813 0.000000 0.000000
#
# Coordination Sequence:
#
# PCOD8220201 Si02
#       8
#     8   8   8   8   8   8   8   8
#     4  12  23  39  64  99 134 166 208 270 339 405
#     4  10  20  34  59  93 127 168 218 276 338 403
#     4  12  28  48  68  96 131 173 223 270 320 389
#     4  12  23  43  69  94 131 173 215 269 335 401
#     4  12  21  39  64  97 128 166 210 267 338 403
#     4  12  24  42  67  95 130 170 212 267 333 394
#     4  10  20  35  58  94 129 166 219 274 337 405
#     4   9  19  36  57  86 128 174 225 281 331 391
#
# _framework density 22.731860999999999
#
# number of rings (size 3 to 8) (size 9 to 14) (size 15 to 20)
#    0.000    0.875    5.000    3.000    1.750    2.000 
#    0.000    2.500    0.000    0.750    0.000    0.000 
#    0.000    0.000    0.000    0.000    0.000    0.000 
#
# Total GULP energy -792859.937160 kJ/mol
# GULP energy per Si atom -12388.436518 kJ/mol
# Density = 2.268012 g / cm^3
# Si number density = 22.731861 Si / 1000 Ang^3
#
#
#
# Elastic Constant Matrix: (Units=GPa)
#
#
# Indices 1 2 3 4 5 6 
#
# 1 97.5504 21.6694 30.2182 0.0000 0.0000 0.0000
# 2 21.6694 149.5387 77.6173 0.0000 0.0000 0.0000
# 3 30.2182 77.6173 109.2273 0.0000 0.0000 0.0000
# 4 0.0000 0.0000 0.0000 40.8909 0.0000 0.0000
# 5 0.0000 0.0000 0.0000 0.0000 23.6035 0.0000
# 6 0.0000 0.0000 0.0000 0.0000 0.0000 18.2955
#
#
#
# Elastic Compliance Matrix: (Units=1/GPa)
#
#
# Indices 1 2 3 4 5 6 
#
# 1 0.011212 -0.000023 -0.003085 0.000000 0.000000 0.000000
# 2 -0.000023 0.010595 -0.007522 0.000000 0.000000 0.000000
# 3 -0.003085 -0.007522 0.015354 0.000000 0.000000 0.000000
# 4 0.000000 0.000000 0.000000 0.024455 0.000000 0.000000
# 5 0.000000 0.000000 0.000000 0.000000 0.042367 0.000000
# 6 0.000000 0.000000 0.000000 0.000000 0.000000 0.054658
#
#
# Mechanical properties :
#
#
# Convention : Reuss Voigt Hill
#
# Bulk Modulus (GPa) = 62.89602 68.36958 65.63280
# Shear Modulus (GPa) = 26.99729 31.67872 29.33801
#
# Velocity S-wave (km/s) = 3.44996 3.73712 3.59641
# Velocity P-wave (km/s) = 6.60290 6.98307 6.79565
#
# Compressibility (1/GPa) = 0.01589926
#
# Stress axis : x y z
#
# Youngs Moduli (GPa) = 89.19000 94.38309 65.12839
#
# Poissons Ratio (x) = 0.00220 0.20094
# Poissons Ratio (y) = 0.00208 0.48993
# Poissons Ratio (z) = 0.27518 0.71000
#
# Static dielectric constant tensor:
#      x y z
#    x 3.670430 0.000000 0.000000 
#    y 0.000000 3.656160 0.000000 
#    z 0.000000 0.000000 4.760110 
# 
# 
# High freq. dielectric constant tensor:
#      x y z
#    x 1.872430 0.000000 0.000000 
#    y 0.000000 1.869770 0.000000 
#    z 0.000000 0.000000 1.939220 
# 
# From -- ./inp_files/8927.got.cif
#   From: 2010.03.12/outbox.cif.g09.slc.cpg/sg53_5_cif.got.tgz:8927.got - 2010.04.16 14:36:59.
