data_PCOD8220979
_publ_section_title
;
Structure prediction by ZEFSAII (Michael W. Deem and Ramdas Pophale) SiO2 
 PCOD8220979
Probable space group: P M N A
;
_chemical_formula_sum "Si O2"
_cell_formula_units_Z 64
_cell_length_a 9.238986
_cell_length_b 23.651907
_cell_length_c 15.109839
_cell_angle_alpha 90.000000
_cell_angle_beta 90.000000
_cell_angle_gamma 90.000000
_cell_volume 3301.796543
_symmetry_space_group_name_H-M "P M N A"
_symmetry_group_IT_number 53
_symmetry_cell_setting 'orthorhombic'
loop_
_space_group_symop_operation_xyz
x,y,z
1/2-x,-y,1/2+z
x,-y,-z
1/2-x,y,1/2-z
-x,-y,-z
1/2+x,y,1/2-z
-x,y,z
1/2+x,-y,1/2+z
loop_
_atom_site_type_symbol
_atom_site_label
_atom_site_fract_x
_atom_site_fract_y
_atom_site_fract_z
Si Si1 0.338203 0.112229 0.059316
Si Si2 0.671827 0.711778 0.509469
Si Si3 0.833146 0.777450 0.661111
Si Si4 0.163802 0.893711 0.107750
Si Si5 0.834069 0.002531 0.333274
Si Si6 0.663030 0.229119 0.667580
Si Si7 0.327669 0.499423 0.653421
Si Si8 0.829650 0.417431 0.000611
O O1 0.500000 0.119030 0.018673
O O2 0.317830 0.155915 0.139438
O O3 0.317744 0.047432 0.088617
O O4 0.215721 0.126164 0.988552
O O5 0.500000 0.718524 0.525512
O O6 0.760462 0.738684 0.588245
O O7 0.725036 0.744612 0.422217
O O8 0.721471 0.647096 0.500848
O O9 0.750000 0.764278 0.750000
O O10 0.000000 0.760098 0.671476
O O11 0.268284 0.942288 0.142106
O O12 0.173394 0.838939 0.169426
O O13 0.000000 0.916634 0.102147
O O14 0.750000 0.028187 0.250000
O O15 0.000000 0.992298 0.307406
O O16 0.750000 0.254062 0.750000
O O17 0.500000 0.249920 0.679389
O O18 0.250000 0.499311 0.750000
O O19 0.500000 0.499187 0.671087
O O20 0.276726 0.446364 0.591651
O O21 0.277971 0.553150 0.592749
O O22 0.000000 0.423306 0.999667
#
# Coordination Sequence:
#
# PCOD8220979 Si02
#       8
#     8   8   8   8   8   8   8   8
#     4  10  22  39  58  80 108 142 182 230 287 342
#     4  10  20  39  60  82 113 152 195 241 283 333
#     4  11  23  39  60  85 113 150 190 237 290 343
#     4  11  22  37  57  82 108 142 184 230 284 344
#     4  11  23  38  55  79 108 140 180 228 282 344
#     4  10  22  37  56  81 110 146 188 232 284 339
#     4   9  17  33  56  85 115 152 192 230 277 331
#     4   8  17  34  57  80 113 155 192 228 279 336
#
# _framework density 19.383388
#
# number of rings (size 3 to 8) (size 9 to 14) (size 15 to 20)
#    0.000    2.000    1.250    3.000    0.000    6.500 
#    0.000    3.750    0.000    0.000    0.000    0.000 
#    0.000    0.000    0.000    0.000    0.000    0.000 
#
# Total GULP energy -793411.388176 kJ/mol
# GULP energy per Si atom -12397.052940 kJ/mol
# Density = 1.933927 g / cm^3
# Si number density = 19.383388 Si / 1000 Ang^3
#
#
#
# Elastic Constant Matrix: (Units=GPa)
#
#
# Indices 1 2 3 4 5 6 
#
# 1 92.3958 34.6156 59.7245 0.0000 0.0000 0.0000
# 2 34.6156 104.4150 35.2590 0.0000 0.0000 0.0000
# 3 59.7245 35.2590 139.3982 0.0000 0.0000 0.0000
# 4 0.0000 0.0000 0.0000 10.1982 0.0000 0.0000
# 5 0.0000 0.0000 0.0000 0.0000 40.8718 0.0000
# 6 0.0000 0.0000 0.0000 0.0000 0.0000 20.3738
#
#
#
# Elastic Compliance Matrix: (Units=1/GPa)
#
#
# Indices 1 2 3 4 5 6 
#
# 1 0.015918 -0.003252 -0.005998 0.000000 0.000000 0.000000
# 2 -0.003252 0.011136 -0.001423 0.000000 0.000000 0.000000
# 3 -0.005998 -0.001423 0.010103 0.000000 0.000000 0.000000
# 4 0.000000 0.000000 0.000000 0.098057 0.000000 0.000000
# 5 0.000000 0.000000 0.000000 0.000000 0.024467 0.000000
# 6 0.000000 0.000000 0.000000 0.000000 0.000000 0.049083
#
#
# Mechanical properties :
#
#
# Convention : Reuss Voigt Hill
#
# Bulk Modulus (GPa) = 63.24445 66.15634 64.70039
# Shear Modulus (GPa) = 21.24225 28.06273 24.65249
#
# Velocity S-wave (km/s) = 3.31403 3.80909 3.57015
# Velocity P-wave (km/s) = 6.88060 7.31779 7.10256
#
# Compressibility (1/GPa) = 0.01581166
#
# Stress axis : x y z
#
# Youngs Moduli (GPa) = 62.82159 89.79962 98.97722
#
# Poissons Ratio (x) = 0.29202 0.59362
# Poissons Ratio (y) = 0.20429 0.14089
# Poissons Ratio (z) = 0.37677 0.12782
#
# Static dielectric constant tensor:
#      x y z
#    x 3.842690 0.000000 0.000000 
#    y 0.000000 3.791030 0.000000 
#    z 0.000000 0.000000 3.727590 
# 
# 
# High freq. dielectric constant tensor:
#      x y z
#    x 1.743560 0.000000 0.000000 
#    y 0.000000 1.752970 0.000000 
#    z 0.000000 0.000000 1.759770 
# 
# From -- ./inp_files/20813.got.cif
#   From: 2010.03.12/outbox.cif.g09.slc.cpg/sg53_11_cif.got.tgz:20813.got - 2010.04.16 14:36:59.
