data_PCOD8220356
_publ_section_title
;
Structure prediction by ZEFSAII (Michael W. Deem and Ramdas Pophale) SiO2 
 PCOD8220356
Probable space group: P M N A
;
_chemical_formula_sum "Si O2"
_cell_formula_units_Z 32
_cell_length_a 8.943371
_cell_length_b 12.272667
_cell_length_c 14.844734
_cell_angle_alpha 90.000000
_cell_angle_beta 90.000000
_cell_angle_gamma 90.000000
_cell_volume 1629.343369
_symmetry_space_group_name_H-M "P M N A"
_symmetry_group_IT_number 53
_symmetry_cell_setting 'orthorhombic'
loop_
_space_group_symop_operation_xyz
x,y,z
1/2-x,-y,1/2+z
x,-y,-z
1/2-x,y,1/2-z
-x,-y,-z
1/2+x,y,1/2-z
-x,y,z
1/2+x,-y,1/2+z
loop_
_atom_site_type_symbol
_atom_site_label
_atom_site_fract_x
_atom_site_fract_y
_atom_site_fract_z
Si Si1 0.673411 0.124689 0.006025
Si Si2 0.825791 0.267756 0.153613
Si Si3 0.824968 0.491830 0.846510
Si Si4 0.174944 0.717748 0.346448
O O1 0.500000 0.136097 0.031169
O O2 0.708587 0.179882 0.910246
O O3 0.766638 0.178794 0.085234
O O4 0.724026 0.000000 0.000000
O O5 0.750000 0.252918 0.250000
O O6 0.795289 0.388784 0.111089
O O7 0.000000 0.249743 0.169160
O O8 0.750000 0.492174 0.750000
O O9 0.745189 0.389945 0.896345
O O10 0.000000 0.467089 0.840224
O O11 0.250000 0.741474 0.250000
O O12 0.000000 0.698897 0.332093
#
# Coordination Sequence:
#
# PCOD8220356 Si02
#       4
#     8   8   8   8
#     4  10  23  41  57  78 110 147 190 234 273 321
#     4  10  21  37  59  85 113 146 181 224 276 328
#     4   9  17  31  53  82 113 141 175 219 270 330
#     4  10  20  35  57  82 110 144 180 224 276 328
#
# _framework density 19.639814999999999
#
# number of rings (size 3 to 8) (size 9 to 14) (size 15 to 20)
#    0.000    2.250    0.000    3.750    0.000    7.500 
#    0.000    7.500    0.000    0.000    0.000    0.000 
#    0.000    0.000    0.000    0.000    0.000    0.000 
#
# Total GULP energy -396618.423871 kJ/mol
# GULP energy per Si atom -12394.325746 kJ/mol
# Density = 1.959511 g / cm^3
# Si number density = 19.639815 Si / 1000 Ang^3
#
#
#
# Elastic Constant Matrix: (Units=GPa)
#
#
# Indices 1 2 3 4 5 6 
#
# 1 124.4217 84.0545 59.9400 0.0000 0.0000 0.0000
# 2 84.0545 189.3934 74.8469 0.0000 0.0000 0.0000
# 3 59.9400 74.8469 93.6322 0.0000 0.0000 0.0000
# 4 0.0000 0.0000 0.0000 33.8897 0.0000 0.0000
# 5 0.0000 0.0000 0.0000 0.0000 25.2119 0.0000
# 6 0.0000 0.0000 0.0000 0.0000 0.0000 37.2135
#
#
#
# Elastic Compliance Matrix: (Units=1/GPa)
#
#
# Indices 1 2 3 4 5 6 
#
# 1 0.013163 -0.003672 -0.005492 0.000000 0.000000 0.000000
# 2 -0.003672 0.008742 -0.004638 0.000000 0.000000 0.000000
# 3 -0.005492 -0.004638 0.017903 0.000000 0.000000 0.000000
# 4 0.000000 0.000000 0.000000 0.029507 0.000000 0.000000
# 5 0.000000 0.000000 0.000000 0.000000 0.039664 0.000000
# 6 0.000000 0.000000 0.000000 0.000000 0.000000 0.026872
#
#
# Mechanical properties :
#
#
# Convention : Reuss Voigt Hill
#
# Bulk Modulus (GPa) = 81.92537 93.90334 87.91436
# Shear Modulus (GPa) = 29.84663 31.83675 30.84169
#
# Velocity S-wave (km/s) = 3.90256 4.03057 3.96708
# Velocity P-wave (km/s) = 7.88106 8.34130 8.11444
#
# Compressibility (1/GPa) = 0.01220623
#
# Stress axis : x y z
#
# Youngs Moduli (GPa) = 75.96943 114.38438 55.85654
#
# Poissons Ratio (x) = 0.41999 0.30674
# Poissons Ratio (y) = 0.27894 0.25906
# Poissons Ratio (z) = 0.41719 0.53051
#
# Static dielectric constant tensor:
#      x y z
#    x 3.684720 0.000000 0.000000 
#    y 0.000000 4.257520 0.000000 
#    z 0.000000 0.000000 3.341260 
# 
# 
# High freq. dielectric constant tensor:
#      x y z
#    x 1.776120 0.000000 0.000000 
#    y 0.000000 1.775780 0.000000 
#    z 0.000000 0.000000 1.747670 
# 
# From -- ./inp_files/19500.got.cif
#   From: 2010.03.12/outbox.cif.g09.slc.cpg/sg53_10_cif.got.tgz:19500.got - 2010.04.16 14:36:59.
