data_PCOD8220880
_publ_section_title
;
Structure prediction by ZEFSAII (Michael W. Deem and Ramdas Pophale) SiO2 
 PCOD8220880
Probable space group: P M N A
;
_chemical_formula_sum "Si O2"
_cell_formula_units_Z 56
_cell_length_a 8.886559
_cell_length_b 16.803802
_cell_length_c 21.357268
_cell_angle_alpha 90.000000
_cell_angle_beta 90.000000
_cell_angle_gamma 90.000000
_cell_volume 3189.237644
_symmetry_space_group_name_H-M "P M N A"
_symmetry_group_IT_number 53
_symmetry_cell_setting 'orthorhombic'
loop_
_space_group_symop_operation_xyz
x,y,z
1/2-x,-y,1/2+z
x,-y,-z
1/2-x,y,1/2-z
-x,-y,-z
1/2+x,y,1/2-z
-x,y,z
1/2+x,-y,1/2+z
loop_
_atom_site_type_symbol
_atom_site_label
_atom_site_fract_x
_atom_site_fract_y
_atom_site_fract_z
Si Si1 0.322582 0.473906 0.090770
Si Si2 0.823823 0.204501 0.117636
Si Si3 0.678415 0.375083 0.973791
Si Si4 0.821522 0.048562 0.937988
Si Si5 0.825864 0.954649 0.815235
Si Si6 0.676602 0.348243 0.184010
Si Si7 0.679356 0.802344 0.012615
O O1 0.500000 0.473275 0.081608
O O2 0.267029 0.565675 0.082897
O O3 0.279667 0.436299 0.158044
O O4 0.257177 0.415514 0.037040
O O5 0.795633 0.138272 0.170811
O O6 0.737371 0.284197 0.135431
O O7 0.000000 0.221320 0.109076
O O8 0.755244 0.173367 0.052895
O O9 0.500000 0.369645 0.976041
O O10 0.739276 0.285288 0.966034
O O11 0.738164 0.133830 0.937118
O O12 0.000000 0.060799 0.937994
O O13 0.765704 0.004843 0.874731
O O14 0.771819 0.000000 0.000000
O O15 0.750000 0.979928 0.750000
O O16 0.000000 0.972197 0.806660
O O17 0.750000 0.334569 0.250000
O O18 0.500000 0.336764 0.190587
O O19 0.500000 0.805344 0.006592
#
# Coordination Sequence:
#
# PCOD8220880 Si02
#       7
#     8   8   8   8   8   8   8
#     4   8  14  27  48  70  97 131 167 203 246 299
#     4  11  21  35  52  74 107 146 176 207 262 322
#     4   8  14  27  48  74  99 126 162 208 256 298
#     4  10  20  38  56  74 106 145 178 211 267 329
#     4  10  22  38  56  75 101 140 179 217 259 316
#     4  11  21  33  49  74 104 139 175 211 254 309
#     4  11  20  31  53  84 109 132 173 226 265 306
#
# _framework density 17.559055000000001
#
# number of rings (size 3 to 8) (size 9 to 14) (size 15 to 20)
#    0.000    2.143    2.857    2.571    0.000    3.143 
#    0.000    0.000    0.000    5.143    0.000    4.000 
#    0.000    0.000    0.000    0.000    0.000    0.000 
#
# Total GULP energy -694029.997001 kJ/mol
# GULP energy per Si atom -12393.392804 kJ/mol
# Density = 1.751909 g / cm^3
# Si number density = 17.559055 Si / 1000 Ang^3
#
#
#
# Elastic Constant Matrix: (Units=GPa)
#
#
# Indices 1 2 3 4 5 6 
#
# 1 51.3418 30.5382 30.7194 0.0000 0.0000 0.0000
# 2 30.5382 113.8866 44.8045 0.0000 0.0000 0.0000
# 3 30.7194 44.8045 93.5073 0.0000 0.0000 0.0000
# 4 0.0000 0.0000 0.0000 24.8999 0.0000 0.0000
# 5 0.0000 0.0000 0.0000 0.0000 20.5718 0.0000
# 6 0.0000 0.0000 0.0000 0.0000 0.0000 12.3161
#
#
#
# Elastic Compliance Matrix: (Units=1/GPa)
#
#
# Indices 1 2 3 4 5 6 
#
# 1 0.025946 -0.004441 -0.006396 0.000000 0.000000 0.000000
# 2 -0.004441 0.011581 -0.004090 0.000000 0.000000 0.000000
# 3 -0.006396 -0.004090 0.014755 0.000000 0.000000 0.000000
# 4 0.000000 0.000000 0.000000 0.040161 0.000000 0.000000
# 5 0.000000 0.000000 0.000000 0.000000 0.048610 0.000000
# 6 0.000000 0.000000 0.000000 0.000000 0.000000 0.081195
#
#
# Mechanical properties :
#
#
# Convention : Reuss Voigt Hill
#
# Bulk Modulus (GPa) = 44.58724 52.31776 48.45250
# Shear Modulus (GPa) = 19.26213 21.73578 20.49896
#
# Velocity S-wave (km/s) = 3.31568 3.52215 3.42047
# Velocity P-wave (km/s) = 6.33294 6.81181 6.57674
#
# Compressibility (1/GPa) = 0.02242794
#
# Stress axis : x y z
#
# Youngs Moduli (GPa) = 38.54204 86.35192 67.77261
#
# Poissons Ratio (x) = 0.38349 0.43346
# Poissons Ratio (y) = 0.17117 0.27718
# Poissons Ratio (z) = 0.24651 0.35317
#
# Static dielectric constant tensor:
#      x y z
#    x 3.010430 0.000000 0.000000 
#    y 0.000000 3.591480 0.000000 
#    z 0.000000 0.000000 3.222960 
# 
# 
# High freq. dielectric constant tensor:
#      x y z
#    x 1.657010 0.000000 0.000000 
#    y 0.000000 1.684590 0.000000 
#    z 0.000000 0.000000 1.658450 
# 
# From -- ./inp_files/31025.got.cif
#   From: 2010.03.12/outbox.cif.g09.slc.cpg/sg53_16_cif.got.tgz:31025.got - 2010.04.16 14:36:59.
