data_PCOD8220627
_publ_section_title
;
Structure prediction by ZEFSAII (Michael W. Deem and Ramdas Pophale) SiO2 
 PCOD8220627
Probable space group: P M N A
;
_chemical_formula_sum "Si O2"
_cell_formula_units_Z 48
_cell_length_a 8.739959
_cell_length_b 18.621646
_cell_length_c 15.267438
_cell_angle_alpha 90.000000
_cell_angle_beta 90.000000
_cell_angle_gamma 90.000000
_cell_volume 2484.812521
_symmetry_space_group_name_H-M "P M N A"
_symmetry_group_IT_number 53
_symmetry_cell_setting 'orthorhombic'
loop_
_space_group_symop_operation_xyz
x,y,z
1/2-x,-y,1/2+z
x,-y,-z
1/2-x,y,1/2-z
-x,-y,-z
1/2+x,y,1/2-z
-x,y,z
1/2+x,-y,1/2+z
loop_
_atom_site_type_symbol
_atom_site_label
_atom_site_fract_x
_atom_site_fract_y
_atom_site_fract_z
Si Si1 0.681181 0.329958 0.843111
Si Si2 0.178870 0.170526 0.340409
Si Si3 0.322211 0.917935 0.505429
Si Si4 0.175582 0.584751 0.003279
Si Si5 0.318606 0.334291 0.157997
Si Si6 0.820628 0.178427 0.841443
O O1 0.750000 0.353012 0.750000
O O2 0.500000 0.326549 0.836095
O O3 0.743334 0.252349 0.872564
O O4 0.729639 0.388521 0.913603
O O5 0.250000 0.142112 0.250000
O O6 0.228130 0.120182 0.419133
O O7 0.231077 0.252059 0.360124
O O8 0.000000 0.166261 0.328817
O O9 0.500000 0.911239 0.529002
O O10 0.284448 0.882019 0.412581
O O11 0.268972 0.000000 0.500000
O O12 0.246206 0.616516 0.915653
O O13 0.000000 0.609386 0.012021
O O14 0.191275 0.500000 0.000000
O O15 0.250000 0.360568 0.250000
O O16 0.500000 0.343748 0.158594
O O17 0.750000 0.151603 0.750000
O O18 0.000000 0.192007 0.829178
#
# Coordination Sequence:
#
# PCOD8220627 Si02
#       6
#     8   8   8   8   8   8
#     4  11  22  38  61  86 113 145 187 234 280 333
#     4  10  21  37  59  85 111 144 186 231 278 329
#     4  10  22  38  55  80 115 152 187 227 278 332
#     4  11  24  40  58  83 116 152 188 228 278 334
#     4  10  21  38  61  87 114 147 188 233 280 331
#     4  10  20  36  59  83 111 146 186 233 280 329
#
# _framework density 19.317352
#
# number of rings (size 3 to 8) (size 9 to 14) (size 15 to 20)
#    0.000    1.667    0.000    5.500    0.000    9.000 
#    0.000    1.667    0.000    0.000    0.000    0.000 
#    0.000    0.000    0.000    0.000    0.000    0.000 
#
# Total GULP energy -595460.159233 kJ/mol
# GULP energy per Si atom -12405.419984 kJ/mol
# Density = 1.927339 g / cm^3
# Si number density = 19.317352 Si / 1000 Ang^3
#
#
#
# Elastic Constant Matrix: (Units=GPa)
#
#
# Indices 1 2 3 4 5 6 
#
# 1 119.5127 53.0059 65.7547 0.0000 0.0000 0.0000
# 2 53.0059 94.4840 72.1608 0.0000 0.0000 0.0000
# 3 65.7547 72.1608 138.3356 0.0000 0.0000 0.0000
# 4 0.0000 0.0000 0.0000 -35.6556 0.0000 0.0000
# 5 0.0000 0.0000 0.0000 0.0000 32.2021 0.0000
# 6 0.0000 0.0000 0.0000 0.0000 0.0000 27.8080
#
#
#
# Elastic Compliance Matrix: (Units=1/GPa)
#
#
# Indices 1 2 3 4 5 6 
#
# 1 0.012180 -0.004008 -0.003699 0.000000 0.000000 0.000000
# 2 -0.004008 0.018912 -0.007960 0.000000 0.000000 0.000000
# 3 -0.003699 -0.007960 0.013139 0.000000 0.000000 0.000000
# 4 0.000000 0.000000 0.000000 -0.028046 0.000000 0.000000
# 5 0.000000 0.000000 0.000000 0.000000 0.031054 0.000000
# 6 0.000000 0.000000 0.000000 0.000000 0.000000 0.035961
#
#
# Mechanical properties :
#
#
# Convention : Reuss Voigt Hill
#
# Bulk Modulus (GPa) = 77.53566 81.57499 79.55533
# Shear Modulus (GPa) = 42.07642 15.63163 28.85402
#
# Velocity S-wave (km/s) = 4.67215 2.84773 3.86901
# Velocity P-wave (km/s) = 8.32648 7.28926 7.82507
#
# Compressibility (1/GPa) = 0.01289729
#
# Stress axis : x y z
#
# Youngs Moduli (GPa) = 82.10194 52.87775 76.10971
#
# Poissons Ratio (x) = 0.21195 0.28150
# Poissons Ratio (y) = 0.32908 0.60581
# Poissons Ratio (z) = 0.30367 0.42089
#
# Static dielectric constant tensor:
#      x y z
#    x 3.668090 0.000000 0.000000 
#    y 0.000000 3.469020 0.000000 
#    z 0.000000 0.000000 3.490900 
# 
# 
# High freq. dielectric constant tensor:
#      x y z
#    x 1.766660 0.000000 0.000000 
#    y 0.000000 1.746260 0.000000 
#    z 0.000000 0.000000 1.766290 
# 
# From -- ./inp_files/20169.got.cif
#   From: 2010.03.12/outbox.cif.g09.slc.cpg/sg53_11_cif.got.tgz:20169.got - 2010.04.16 14:36:59.
