data_PCOD8220946
_publ_section_title
;
Structure prediction by ZEFSAII (Michael W. Deem and Ramdas Pophale) SiO2 
 PCOD8220946
Probable space group: P M N A
;
_chemical_formula_sum "Si O2"
_cell_formula_units_Z 48
_cell_length_a 17.394218
_cell_length_b 15.068454
_cell_length_c 9.453747
_cell_angle_alpha 90.000000
_cell_angle_beta 90.000000
_cell_angle_gamma 90.000000
_cell_volume 2477.864656
_symmetry_space_group_name_H-M "P M N A"
_symmetry_group_IT_number 53
_symmetry_cell_setting 'orthorhombic'
loop_
_space_group_symop_operation_xyz
x,y,z
1/2-x,-y,1/2+z
x,-y,-z
1/2-x,y,1/2-z
-x,-y,-z
1/2+x,y,1/2-z
-x,y,z
1/2+x,-y,1/2+z
loop_
_atom_site_type_symbol
_atom_site_label
_atom_site_fract_x
_atom_site_fract_y
_atom_site_fract_z
Si Si1 0.915941 0.153584 0.467036
Si Si2 0.912692 0.708235 0.283656
Si Si3 0.912846 0.687299 0.738775
Si Si4 0.824807 0.398947 0.504691
Si Si5 0.682772 0.268449 0.505416
Si Si6 0.256823 0.916916 0.915797
O O1 0.908483 0.210828 0.608075
O O2 0.908588 0.215959 0.330267
O O3 0.846762 0.084342 0.459515
O O4 0.000000 0.106037 0.464362
O O5 0.880720 0.619898 0.361559
O O6 0.000000 0.689237 0.235529
O O7 0.861718 0.738043 0.152107
O O8 0.868012 0.617035 0.642766
O O9 0.874632 0.691220 0.891251
O O10 0.000000 0.654190 0.755252
O O11 0.796546 0.500000 0.500000
O O12 0.753128 0.334521 0.522114
O O13 0.713135 0.172224 0.460167
O O14 0.250000 0.933904 0.750000
O O15 0.219711 0.000000 0.000000
#
# Coordination Sequence:
#
# PCOD8220946 Si02
#       6
#     8   8   8   8   8   8
#     4   9  19  39  62  84 114 157 204 245 296 363
#     4  10  22  38  62  90 120 163 205 249 309 366
#     4  10  20  38  64  85 117 163 202 248 306 366
#     4  11  23  39  63  91 123 163 209 253 304 371
#     4  12  22  40  62  92 127 156 203 264 313 364
#     4  12  25  40  64  93 124 164 208 255 312 369
#
# _framework density 19.371518999999999
#
# number of rings (size 3 to 8) (size 9 to 14) (size 15 to 20)
#    0.000    1.333    5.000    3.000    2.333    4.333 
#    0.000    0.000    0.000    5.500    0.000    0.000 
#    0.000    0.000    0.000    0.000    0.000    0.000 
#
# Total GULP energy -595221.039411 kJ/mol
# GULP energy per Si atom -12400.438321 kJ/mol
# Density = 1.932743 g / cm^3
# Si number density = 19.371519 Si / 1000 Ang^3
#
#
#
# Elastic Constant Matrix: (Units=GPa)
#
#
# Indices 1 2 3 4 5 6 
#
# 1 122.4037 28.9963 44.0068 0.0000 0.0000 0.0000
# 2 28.9963 98.3132 32.1520 0.0000 0.0000 0.0000
# 3 44.0068 32.1520 116.6051 0.0000 0.0000 0.0000
# 4 0.0000 0.0000 0.0000 17.5303 0.0000 0.0000
# 5 0.0000 0.0000 0.0000 0.0000 37.7865 0.0000
# 6 0.0000 0.0000 0.0000 0.0000 0.0000 -1.2875
#
#
#
# Elastic Compliance Matrix: (Units=1/GPa)
#
#
# Indices 1 2 3 4 5 6 
#
# 1 0.009745 -0.001837 -0.003171 0.000000 0.000000 0.000000
# 2 -0.001837 0.011526 -0.002485 0.000000 0.000000 0.000000
# 3 -0.003171 -0.002485 0.010458 0.000000 0.000000 0.000000
# 4 0.000000 0.000000 0.000000 0.057044 0.000000 0.000000
# 5 0.000000 0.000000 0.000000 0.000000 0.026464 0.000000
# 6 0.000000 0.000000 0.000000 0.000000 0.000000 -0.776699
#
#
# Mechanical properties :
#
#
# Convention : Reuss Voigt Hill
#
# Bulk Modulus (GPa) = 59.72738 60.84804 60.28771
# Shear Modulus (GPa) = -7.80159 26.28365 9.24103
#
# Velocity S-wave (km/s) = -2.00900 3.68750 2.18650
# Velocity P-wave (km/s) = 5.05154 7.04340 6.12893
#
# Compressibility (1/GPa) = 0.01674274
#
# Stress axis : x y z
#
# Youngs Moduli (GPa) = 102.61673 86.76023 95.62129
#
# Poissons Ratio (x) = 0.15938 0.30324
# Poissons Ratio (y) = 0.18851 0.23760
# Poissons Ratio (z) = 0.32542 0.21558
#
# Static dielectric constant tensor:
#      x y z
#    x 3.877120 0.000000 0.000000 
#    y 0.000000 3.238350 0.000000 
#    z 0.000000 0.000000 3.592470 
# 
# 
# High freq. dielectric constant tensor:
#      x y z
#    x 1.769560 0.000000 0.000000 
#    y 0.000000 1.730020 0.000000 
#    z 0.000000 0.000000 1.761330 
# 
# From -- ./inp_files/9918.got.cif
#   From: 2010.03.12/outbox.cif.g09.slc.cpg/sg53_5_cif.got.tgz:9918.got - 2010.04.16 14:36:59.
