data_PCOD8220217
_publ_section_title
;
Structure prediction by ZEFSAII (Michael W. Deem and Ramdas Pophale) SiO2 
 PCOD8220217
Probable space group: P M N A
;
_chemical_formula_sum "Si O2"
_cell_formula_units_Z 64
_cell_length_a 8.542082
_cell_length_b 18.929731
_cell_length_c 23.160706
_cell_angle_alpha 90.000000
_cell_angle_beta 90.000000
_cell_angle_gamma 90.000000
_cell_volume 3745.070282
_symmetry_space_group_name_H-M "P M N A"
_symmetry_group_IT_number 53
_symmetry_cell_setting 'orthorhombic'
loop_
_space_group_symop_operation_xyz
x,y,z
1/2-x,-y,1/2+z
x,-y,-z
1/2-x,y,1/2-z
-x,-y,-z
1/2+x,y,1/2-z
-x,y,z
1/2+x,-y,1/2+z
loop_
_atom_site_type_symbol
_atom_site_label
_atom_site_fract_x
_atom_site_fract_y
_atom_site_fract_z
Si Si1 0.818176 0.389321 0.021659
Si Si2 0.181097 0.982332 0.415553
Si Si3 0.181080 0.897742 0.981138
Si Si4 0.815761 0.884534 0.311588
Si Si5 0.817017 0.388797 0.688004
Si Si6 0.183066 0.748353 0.129329
Si Si7 0.182311 0.523475 0.091609
Si Si8 0.319058 0.754570 0.002670
O O1 0.776401 0.443397 0.073171
O O2 0.000000 0.369576 0.022900
O O3 0.775334 0.424125 0.960549
O O4 0.718635 0.318475 0.029840
O O5 0.220718 0.924605 0.464120
O O6 0.223671 0.949647 0.353735
O O7 0.000000 0.001599 0.419959
O O8 0.278232 0.054570 0.425213
O O9 0.000000 0.905490 0.996082
O O10 0.224152 0.816378 0.970132
O O11 0.750000 0.907827 0.250000
O O12 0.726389 0.814682 0.331498
O O13 0.000000 0.868475 0.309708
O O14 0.750000 0.409503 0.750000
O O15 0.724452 0.321435 0.664540
O O16 0.786729 0.455729 0.646424
O O17 0.000000 0.371601 0.691494
O O18 0.276147 0.750090 0.069768
O O19 0.000000 0.748922 0.114943
O O20 0.000000 0.530089 0.107296
O O21 0.500000 0.772015 0.996742
#
# Coordination Sequence:
#
# PCOD8220217 Si02
#       8
#     8   8   8   8   8   8   8   8
#     4   9  18  33  54  77 104 136 169 209 261 311
#     4  10  20  35  53  74 103 135 171 218 262 304
#     4  11  21  33  53  76 102 136 173 213 260 312
#     4  11  23  37  54  75 104 140 178 216 258 303
#     4  12  24  37  53  74 103 140 181 219 258 304
#     4  12  23  36  52  72 104 140 180 219 255 303
#     4   9  18  34  54  76 103 135 171 214 259 306
#     4  12  22  33  51  78 108 139 174 212 258 310
#
# _framework density 17.089130999999998
#
# number of rings (size 3 to 8) (size 9 to 14) (size 15 to 20)
#    0.000    1.250    2.500    7.125    0.000    2.000 
#    0.000    1.250    0.000    0.000    0.000    0.875 
#    0.000    2.000    0.000    0.000    0.000    0.000 
#
# Total GULP energy -793851.925591 kJ/mol
# GULP energy per Si atom -12403.936337 kJ/mol
# Density = 1.705024 g / cm^3
# Si number density = 17.089131 Si / 1000 Ang^3
#
#
#
# Elastic Constant Matrix: (Units=GPa)
#
#
# Indices 1 2 3 4 5 6 
#
# 1 55.1140 25.6708 25.5222 0.0000 0.0000 0.0000
# 2 25.6708 109.3423 47.9250 0.0000 0.0000 0.0000
# 3 25.5222 47.9250 79.8975 0.0000 0.0000 0.0000
# 4 0.0000 0.0000 0.0000 12.2348 0.0000 0.0000
# 5 0.0000 0.0000 0.0000 0.0000 19.8823 0.0000
# 6 0.0000 0.0000 0.0000 0.0000 0.0000 27.4566
#
#
#
# Elastic Compliance Matrix: (Units=1/GPa)
#
#
# Indices 1 2 3 4 5 6 
#
# 1 0.021916 -0.002818 -0.005311 0.000000 0.000000 0.000000
# 2 -0.002818 0.012770 -0.006760 0.000000 0.000000 0.000000
# 3 -0.005311 -0.006760 0.018267 0.000000 0.000000 0.000000
# 4 0.000000 0.000000 0.000000 0.081734 0.000000 0.000000
# 5 0.000000 0.000000 0.000000 0.000000 0.050296 0.000000
# 6 0.000000 0.000000 0.000000 0.000000 0.000000 0.036421
#
#
# Mechanical properties :
#
#
# Convention : Reuss Voigt Hill
#
# Bulk Modulus (GPa) = 43.14639 49.17666 46.16152
# Shear Modulus (GPa) = 19.31207 21.59713 20.45460
#
# Velocity S-wave (km/s) = 3.36531 3.55884 3.46343
# Velocity P-wave (km/s) = 6.35634 6.76212 6.56237
#
# Compressibility (1/GPa) = 0.02317691
#
# Stress axis : x y z
#
# Youngs Moduli (GPa) = 45.62910 78.30911 54.74305
#
# Poissons Ratio (x) = 0.22064 0.29072
# Poissons Ratio (y) = 0.12857 0.37005
# Poissons Ratio (z) = 0.24232 0.52935
#
# Static dielectric constant tensor:
#      x y z
#    x 3.245430 0.000000 0.000000 
#    y 0.000000 3.305720 0.000000 
#    z 0.000000 0.000000 3.082140 
# 
# 
# High freq. dielectric constant tensor:
#      x y z
#    x 1.673150 0.000000 0.000000 
#    y 0.000000 1.657480 0.000000 
#    z 0.000000 0.000000 1.629800 
# 
# From -- ./inp_files/31273.got.cif
#   From: 2010.03.12/outbox.cif.g09.slc.cpg/sg53_16_cif.got.tgz:31273.got - 2010.04.16 14:36:59.
