data_PCOD8220149
_publ_section_title
;
Structure prediction by ZEFSAII (Michael W. Deem and Ramdas Pophale) SiO2 
 PCOD8220149
Probable space group: P M N A
;
_chemical_formula_sum "Si O2"
_cell_formula_units_Z 56
_cell_length_a 8.837023
_cell_length_b 20.716185
_cell_length_c 15.406148
_cell_angle_alpha 90.000000
_cell_angle_beta 90.000000
_cell_angle_gamma 90.000000
_cell_volume 2820.394322
_symmetry_space_group_name_H-M "P M N A"
_symmetry_group_IT_number 53
_symmetry_cell_setting 'orthorhombic'
loop_
_space_group_symop_operation_xyz
x,y,z
1/2-x,-y,1/2+z
x,-y,-z
1/2-x,y,1/2-z
-x,-y,-z
1/2+x,y,1/2-z
-x,y,z
1/2+x,-y,1/2+z
loop_
_atom_site_type_symbol
_atom_site_label
_atom_site_fract_x
_atom_site_fract_y
_atom_site_fract_z
Si Si1 0.176900 0.496339 0.600037
Si Si2 0.177958 0.622670 0.837568
Si Si3 0.177619 0.847353 0.513967
Si Si4 0.178546 0.353952 0.658777
Si Si5 0.821005 0.711811 0.995888
Si Si6 0.169805 0.034873 0.091562
Si Si7 0.677185 0.084328 0.835228
O O1 0.224598 0.500000 0.500000
O O2 0.270626 0.548781 0.653119
O O3 0.224815 0.427090 0.636918
O O4 0.000000 0.510495 0.612225
O O5 0.250000 0.652148 0.750000
O O6 0.234015 0.663231 0.920524
O O7 0.000000 0.625936 0.827909
O O8 0.268967 0.782500 0.532329
O O9 0.234136 0.899398 0.584355
O O10 0.217061 0.871222 0.417120
O O11 0.000000 0.835856 0.526263
O O12 0.250000 0.333314 0.750000
O O13 0.241769 0.306678 0.585585
O O14 0.000000 0.344971 0.663081
O O15 0.000000 0.709372 0.008347
O O16 0.000000 0.050434 0.124059
O O17 0.252033 0.987148 0.158071
O O18 0.165011 0.000000 0.000000
O O19 0.750000 0.117669 0.750000
O O20 0.500000 0.076758 0.823456
#
# Coordination Sequence:
#
# PCOD8220149 Si02
#       7
#     8   8   8   8   8   8   8
#     4  10  20  37  62  90 118 151 191 241 299 357
#     4  11  24  40  62  88 116 152 195 246 301 357
#     4  10  21  37  58  82 112 152 193 235 286 343
#     4  11  23  39  60  86 119 156 196 242 297 356
#     4  11  24  41  60  85 117 156 202 248 296 354
#     4   9  17  32  55  81 109 142 180 224 272 324
#     4  10  20  34  55  85 117 148 186 231 282 338
#
# _framework density 19.855378999999999
#
# number of rings (size 3 to 8) (size 9 to 14) (size 15 to 20)
#    0.000    1.714    1.429    3.000    0.000    8.286 
#    0.000    2.143    0.000    1.714    0.000    0.000 
#    0.000    0.000    0.000    0.000    0.000    0.000 
#
# Total GULP energy -694660.099156 kJ/mol
# GULP energy per Si atom -12404.644628 kJ/mol
# Density = 1.981019 g / cm^3
# Si number density = 19.855379 Si / 1000 Ang^3
#
#
#
# Elastic Constant Matrix: (Units=GPa)
#
#
# Indices 1 2 3 4 5 6 
#
# 1 73.8881 22.8648 22.9937 0.0000 0.0000 0.0000
# 2 22.8648 83.9458 7.2783 0.0000 0.0000 0.0000
# 3 22.9937 7.2783 70.1541 0.0000 0.0000 0.0000
# 4 0.0000 0.0000 0.0000 15.3060 0.0000 0.0000
# 5 0.0000 0.0000 0.0000 0.0000 32.5967 0.0000
# 6 0.0000 0.0000 0.0000 0.0000 0.0000 34.6807
#
#
#
# Elastic Compliance Matrix: (Units=1/GPa)
#
#
# Indices 1 2 3 4 5 6 
#
# 1 0.016310 -0.004015 -0.004929 0.000000 0.000000 0.000000
# 2 -0.004015 0.013009 -0.000034 0.000000 0.000000 0.000000
# 3 -0.004929 -0.000034 0.015873 0.000000 0.000000 0.000000
# 4 0.000000 0.000000 0.000000 0.065334 0.000000 0.000000
# 5 0.000000 0.000000 0.000000 0.000000 0.030678 0.000000
# 6 0.000000 0.000000 0.000000 0.000000 0.000000 0.028835
#
#
# Mechanical properties :
#
#
# Convention : Reuss Voigt Hill
#
# Bulk Modulus (GPa) = 36.71530 37.14018 36.92774
# Shear Modulus (GPa) = 25.37113 28.17343 26.77228
#
# Velocity S-wave (km/s) = 3.57851 3.77096 3.67599
# Velocity P-wave (km/s) = 5.96706 6.14053 6.05442
#
# Compressibility (1/GPa) = 0.02723660
#
# Stress axis : x y z
#
# Youngs Moduli (GPa) = 61.31022 76.86977 62.99818
#
# Poissons Ratio (x) = 0.30865 0.31054
# Poissons Ratio (y) = 0.24617 0.00212
# Poissons Ratio (z) = 0.30222 0.00258
#
# Static dielectric constant tensor:
#      x y z
#    x 3.629720 0.000000 0.000000 
#    y 0.000000 3.555030 0.000000 
#    z 0.000000 0.000000 3.680990 
# 
# 
# High freq. dielectric constant tensor:
#      x y z
#    x 1.784360 0.000000 0.000000 
#    y 0.000000 1.766940 0.000000 
#    z 0.000000 0.000000 1.772940 
# 
# From -- ./inp_files/20483.got.cif
#   From: 2010.03.12/outbox.cif.g09.slc.cpg/sg53_11_cif.got.tgz:20483.got - 2010.04.16 14:36:59.
