data_PCOD8220855
_publ_section_title
;
Structure prediction by ZEFSAII (Michael W. Deem and Ramdas Pophale) SiO2 
 PCOD8220855
Probable space group: P M N A
;
_chemical_formula_sum "Si O2"
_cell_formula_units_Z 32
_cell_length_a 18.859940
_cell_length_b 10.040971
_cell_length_c 8.383434
_cell_angle_alpha 90.000000
_cell_angle_beta 90.000000
_cell_angle_gamma 90.000000
_cell_volume 1587.588591
_symmetry_space_group_name_H-M "P M N A"
_symmetry_group_IT_number 53
_symmetry_cell_setting 'orthorhombic'
loop_
_space_group_symop_operation_xyz
x,y,z
1/2-x,-y,1/2+z
x,-y,-z
1/2-x,y,1/2-z
-x,-y,-z
1/2+x,y,1/2-z
-x,y,z
1/2+x,-y,1/2+z
loop_
_atom_site_type_symbol
_atom_site_label
_atom_site_fract_x
_atom_site_fract_y
_atom_site_fract_z
Si Si1 0.684411 0.889264 0.869164
Si Si2 0.843908 0.361589 0.925232
Si Si3 0.578708 0.126331 0.390874
Si Si4 0.824732 0.361938 0.570900
O O1 0.750000 0.863413 0.750000
O O2 0.616573 0.931666 0.766440
O O3 0.655749 0.756900 0.953554
O O4 0.705832 0.000000 0.000000
O O5 0.865208 0.344347 0.739867
O O6 0.759682 0.360533 0.921279
O O7 0.872199 0.500000 0.000000
O O8 0.874143 0.241465 0.029238
O O9 0.500000 0.182279 0.352548
O O10 0.571660 0.000000 0.500000
O O11 0.852985 0.500000 0.500000
#
# Coordination Sequence:
#
# PCOD8220855 Si02
#       4
#     8   8   8   8
#     4  12  24  38  62  91 121 154 204 256 296 350
#     4  10  20  37  62  90 121 157 200 244 300 358
#     4  11  24  42  61  85 123 166 200 243 306 360
#     4  10  21  35  62  94 122 153 195 254 303 348
#
# _framework density 20.156354
#
# number of rings (size 3 to 8) (size 9 to 14) (size 15 to 20)
#    0.000    1.250    2.500    3.750    7.000    1.000 
#    0.000    1.250    0.000    3.000    0.000    0.000 
#    0.000    0.000    0.000    0.000    0.000    0.000 
#
# Total GULP energy -396683.520019 kJ/mol
# GULP energy per Si atom -12396.360001 kJ/mol
# Density = 2.011048 g / cm^3
# Si number density = 20.156354 Si / 1000 Ang^3
#
#
#
# Elastic Constant Matrix: (Units=GPa)
#
#
# Indices 1 2 3 4 5 6 
#
# 1 53.8496 20.4107 43.5140 0.0000 0.0000 0.0000
# 2 20.4107 104.2758 33.1394 0.0000 0.0000 0.0000
# 3 43.5140 33.1394 131.3719 0.0000 0.0000 0.0000
# 4 0.0000 0.0000 0.0000 36.8810 0.0000 0.0000
# 5 0.0000 0.0000 0.0000 0.0000 -273.4589 0.0000
# 6 0.0000 0.0000 0.0000 0.0000 0.0000 17.1024
#
#
#
# Elastic Compliance Matrix: (Units=1/GPa)
#
#
# Indices 1 2 3 4 5 6 
#
# 1 0.025968 -0.002554 -0.007957 0.000000 0.000000 0.000000
# 2 -0.002554 0.010677 -0.001847 0.000000 0.000000 0.000000
# 3 -0.007957 -0.001847 0.010714 0.000000 0.000000 0.000000
# 4 0.000000 0.000000 0.000000 0.027114 0.000000 0.000000
# 5 0.000000 0.000000 0.000000 0.000000 -0.003657 0.000000
# 6 0.000000 0.000000 0.000000 0.000000 0.000000 0.058471
#
#
# Mechanical properties :
#
#
# Convention : Reuss Voigt Hill
#
# Bulk Modulus (GPa) = 44.16640 53.73615 48.95128
# Shear Modulus (GPa) = 30.94982 -31.06622 -0.05820
#
# Velocity S-wave (km/s) = 3.92278 -3.93015 -0.17011
# Velocity P-wave (km/s) = 6.51744 2.47442 4.92949
#
# Compressibility (1/GPa) = 0.02264165
#
# Stress axis : x y z
#
# Youngs Moduli (GPa) = 38.50865 93.65937 93.33939
#
# Poissons Ratio (x) = 0.23922 0.74271
# Poissons Ratio (y) = 0.09836 0.17243
# Poissons Ratio (z) = 0.30642 0.17302
#
# Static dielectric constant tensor:
#      x y z
#    x 3.503600 0.000000 0.000000 
#    y 0.000000 3.860840 0.000000 
#    z 0.000000 0.000000 4.111090 
# 
# 
# High freq. dielectric constant tensor:
#      x y z
#    x 1.748940 0.000000 0.000000 
#    y 0.000000 1.797300 0.000000 
#    z 0.000000 0.000000 1.806870 
# 
# From -- ./inp_files/10437.got.cif
#   From: 2010.03.12/outbox.cif.g09.slc.cpg/sg53_6_cif.got.tgz:10437.got - 2010.04.16 14:36:59.
