data_PCOD8220094
_publ_section_title
;
Structure prediction by ZEFSAII (Michael W. Deem and Ramdas Pophale) SiO2 
 PCOD8220094
Probable space group: P M N A
;
_chemical_formula_sum "Si O2"
_cell_formula_units_Z 64
_cell_length_a 9.033118
_cell_length_b 21.511636
_cell_length_c 17.574860
_cell_angle_alpha 90.000000
_cell_angle_beta 90.000000
_cell_angle_gamma 90.000000
_cell_volume 3415.096643
_symmetry_space_group_name_H-M "P M N A"
_symmetry_group_IT_number 53
_symmetry_cell_setting 'orthorhombic'
loop_
_space_group_symop_operation_xyz
x,y,z
1/2-x,-y,1/2+z
x,-y,-z
1/2-x,y,1/2-z
-x,-y,-z
1/2+x,y,1/2-z
-x,y,z
1/2+x,-y,1/2+z
loop_
_atom_site_type_symbol
_atom_site_label
_atom_site_fract_x
_atom_site_fract_y
_atom_site_fract_z
Si Si1 0.171530 0.882582 0.098868
Si Si2 0.326778 0.098489 0.422885
Si Si3 0.324303 0.995102 0.171220
Si Si4 0.325274 0.431468 0.982011
Si Si5 0.830604 0.740696 0.110134
Si Si6 0.826106 0.628360 0.325098
Si Si7 0.325420 0.780034 0.669122
Si Si8 0.670724 0.680663 0.549567
O O1 0.274768 0.925422 0.150790
O O2 0.207216 0.812430 0.123892
O O3 0.000000 0.899057 0.113750
O O4 0.210650 0.891325 0.010754
O O5 0.500000 0.084383 0.410725
O O6 0.275324 0.159069 0.376737
O O7 0.231326 0.040261 0.395269
O O8 0.250000 0.016567 0.250000
O O9 0.500000 0.998573 0.179209
O O10 0.500000 0.429033 0.989992
O O11 0.274394 0.412825 0.897025
O O12 0.263478 0.500000 0.000000
O O13 0.260730 0.383350 0.043368
O O14 0.725524 0.699462 0.163461
O O15 0.000000 0.725735 0.131677
O O16 0.801043 0.725331 0.022085
O O17 0.750000 0.599938 0.250000
O O18 0.000000 0.626646 0.313981
O O19 0.250000 0.779386 0.750000
O O20 0.500000 0.780283 0.679813
O O21 0.274690 0.718599 0.623324
O O22 0.500000 0.662512 0.556548
#
# Coordination Sequence:
#
# PCOD8220094 Si02
#       8
#     8   8   8   8   8   8   8   8
#     4  10  20  37  61  84 107 142 180 221 276 334
#     4  10  20  38  61  82 108 142 181 223 275 334
#     4  12  26  41  55  76 107 143 184 232 279 328
#     4   9  19  36  57  81 110 146 185 224 269 318
#     4   9  17  33  57  81 106 139 176 218 267 322
#     4  10  20  34  54  81 112 146 182 224 271 320
#     4  10  20  34  54  82 112 143 179 222 271 323
#     4   9  17  33  55  80 109 139 178 221 261 315
#
# _framework density 18.740319
#
# number of rings (size 3 to 8) (size 9 to 14) (size 15 to 20)
#    0.000    2.125    1.250    2.250    0.000    5.750 
#    0.000    0.625    0.000    3.000    0.000    0.000 
#    0.000    0.000    0.000    0.000    0.000    0.000 
#
# Total GULP energy -793796.443716 kJ/mol
# GULP energy per Si atom -12403.069433 kJ/mol
# Density = 1.869767 g / cm^3
# Si number density = 18.740319 Si / 1000 Ang^3
#
#
#
# Elastic Constant Matrix: (Units=GPa)
#
#
# Indices 1 2 3 4 5 6 
#
# 1 58.8574 34.2379 28.7146 0.0000 0.0000 0.0000
# 2 34.2379 113.5916 25.5894 0.0000 0.0000 0.0000
# 3 28.7146 25.5894 72.6808 0.0000 0.0000 0.0000
# 4 0.0000 0.0000 0.0000 21.9556 0.0000 0.0000
# 5 0.0000 0.0000 0.0000 0.0000 29.8099 0.0000
# 6 0.0000 0.0000 0.0000 0.0000 0.0000 25.3374
#
#
#
# Elastic Compliance Matrix: (Units=1/GPa)
#
#
# Indices 1 2 3 4 5 6 
#
# 1 0.023840 -0.005500 -0.007482 0.000000 0.000000 0.000000
# 2 -0.005500 0.010831 -0.001640 0.000000 0.000000 0.000000
# 3 -0.007482 -0.001640 0.017292 0.000000 0.000000 0.000000
# 4 0.000000 0.000000 0.000000 0.045547 0.000000 0.000000
# 5 0.000000 0.000000 0.000000 0.000000 0.033546 0.000000
# 6 0.000000 0.000000 0.000000 0.000000 0.000000 0.039467
#
#
# Mechanical properties :
#
#
# Convention : Reuss Voigt Hill
#
# Bulk Modulus (GPa) = 44.01815 46.91263 45.46539
# Shear Modulus (GPa) = 24.11491 25.85978 24.98734
#
# Velocity S-wave (km/s) = 3.59108 3.71873 3.65546
# Velocity P-wave (km/s) = 6.38232 6.59742 6.49076
#
# Compressibility (1/GPa) = 0.02271790
#
# Stress axis : x y z
#
# Youngs Moduli (GPa) = 41.94637 92.32928 57.82906
#
# Poissons Ratio (x) = 0.50782 0.43269
# Poissons Ratio (y) = 0.23071 0.09486
# Poissons Ratio (z) = 0.31385 0.15145
#
# Static dielectric constant tensor:
#      x y z
#    x 3.302460 0.000000 0.000000 
#    y 0.000000 3.515040 0.000000 
#    z 0.000000 0.000000 3.441570 
# 
# 
# High freq. dielectric constant tensor:
#      x y z
#    x 1.718170 0.000000 0.000000 
#    y 0.000000 1.726240 0.000000 
#    z 0.000000 0.000000 1.728550 
# 
# From -- ./inp_files/26920.got.cif
#   From: 2010.03.12/outbox.cif.g09.slc.cpg/sg53_14_cif.got.tgz:26920.got - 2010.04.16 14:36:59.
