data_PCOD8220166
_publ_section_title
;
Structure prediction by ZEFSAII (Michael W. Deem and Ramdas Pophale) SiO2 
 PCOD8220166
Probable space group: P M N A
;
_chemical_formula_sum "Si O2"
_cell_formula_units_Z 64
_cell_length_a 9.055746
_cell_length_b 23.735087
_cell_length_c 14.704323
_cell_angle_alpha 90.000000
_cell_angle_beta 90.000000
_cell_angle_gamma 90.000000
_cell_volume 3160.531293
_symmetry_space_group_name_H-M "P M N A"
_symmetry_group_IT_number 53
_symmetry_cell_setting 'orthorhombic'
loop_
_space_group_symop_operation_xyz
x,y,z
1/2-x,-y,1/2+z
x,-y,-z
1/2-x,y,1/2-z
-x,-y,-z
1/2+x,y,1/2-z
-x,y,z
1/2+x,-y,1/2+z
loop_
_atom_site_type_symbol
_atom_site_label
_atom_site_fract_x
_atom_site_fract_y
_atom_site_fract_z
Si Si1 0.671849 0.650942 0.653821
Si Si2 0.671854 0.076162 0.659700
Si Si3 0.666351 0.124379 0.469396
Si Si4 0.830252 0.251285 0.021608
Si Si5 0.328113 0.436200 0.496970
Si Si6 0.675814 0.958934 0.843017
Si Si7 0.838359 0.393584 0.666426
Si Si8 0.837879 0.737343 0.334454
O O1 0.750000 0.648299 0.750000
O O2 0.500000 0.659135 0.672564
O O3 0.732127 0.703896 0.594816
O O4 0.704091 0.592613 0.600353
O O5 0.750000 0.100955 0.750000
O O6 0.500000 0.063333 0.680222
O O7 0.690660 0.120825 0.578399
O O8 0.753433 0.018670 0.630134
O O9 0.500000 0.103531 0.445802
O O10 0.687213 0.188704 0.437375
O O11 0.786919 0.086148 0.420388
O O12 0.000000 0.265841 0.999368
O O13 0.742515 0.253880 0.928868
O O14 0.268208 0.500000 0.500000
O O15 0.500000 0.434328 0.520741
O O16 0.246251 0.400167 0.572392
O O17 0.750000 0.937183 0.750000
O O18 0.500000 0.964244 0.833111
O O19 0.750000 0.422531 0.750000
O O20 0.856291 0.328189 0.686546
O O21 0.000000 0.422197 0.660478
O O22 0.750000 0.765521 0.250000
O O23 0.000000 0.765623 0.339518
#
# Coordination Sequence:
#
# PCOD8220166 Si02
#       8
#     8   8   8   8   8   8   8   8
#     4  10  22  40  62  84 113 153 194 239 287 341
#     4  10  20  36  58  83 115 152 189 235 288 348
#     4  10  22  38  57  84 117 151 191 240 294 345
#     4  10  21  39  60  83 114 153 195 241 291 342
#     4  10  21  38  60  87 118 151 191 240 293 346
#     4  11  22  37  59  84 113 150 193 241 291 346
#     4  10  20  34  56  84 114 148 185 230 281 339
#     4  10  20  34  56  84 112 146 187 232 282 342
#
# _framework density 20.249759999999998
#
# number of rings (size 3 to 8) (size 9 to 14) (size 15 to 20)
#    0.000    1.875    1.250    3.375    0.000    6.750 
#    0.000    3.750    0.000    0.000    0.000    0.000 
#    0.000    0.000    0.000    0.000    0.000    0.000 
#
# Total GULP energy -793622.937219 kJ/mol
# GULP energy per Si atom -12400.358394 kJ/mol
# Density = 2.020367 g / cm^3
# Si number density = 20.249760 Si / 1000 Ang^3
#
#
#
# Elastic Constant Matrix: (Units=GPa)
#
#
# Indices 1 2 3 4 5 6 
#
# 1 113.9533 25.8133 54.0124 0.0000 0.0000 0.0000
# 2 25.8133 75.0583 28.4645 0.0000 0.0000 0.0000
# 3 54.0124 28.4645 120.9844 0.0000 0.0000 0.0000
# 4 0.0000 0.0000 0.0000 14.7006 0.0000 0.0000
# 5 0.0000 0.0000 0.0000 0.0000 39.4753 0.0000
# 6 0.0000 0.0000 0.0000 0.0000 0.0000 16.8904
#
#
#
# Elastic Compliance Matrix: (Units=1/GPa)
#
#
# Indices 1 2 3 4 5 6 
#
# 1 0.011451 -0.002195 -0.004596 0.000000 0.000000 0.000000
# 2 -0.002195 0.015049 -0.002561 0.000000 0.000000 0.000000
# 3 -0.004596 -0.002561 0.010920 0.000000 0.000000 0.000000
# 4 0.000000 0.000000 0.000000 0.068025 0.000000 0.000000
# 5 0.000000 0.000000 0.000000 0.000000 0.025332 0.000000
# 6 0.000000 0.000000 0.000000 0.000000 0.000000 0.059205
#
#
# Mechanical properties :
#
#
# Convention : Reuss Voigt Hill
#
# Bulk Modulus (GPa) = 53.42852 58.50848 55.96850
# Shear Modulus (GPa) = 23.26402 27.66030 25.46216
#
# Velocity S-wave (km/s) = 3.39315 3.69990 3.54984
# Velocity P-wave (km/s) = 6.46478 6.87084 6.67090
#
# Compressibility (1/GPa) = 0.01871660
#
# Stress axis : x y z
#
# Youngs Moduli (GPa) = 87.32743 66.44952 91.57761
#
# Poissons Ratio (x) = 0.14588 0.42087
# Poissons Ratio (y) = 0.19171 0.23449
# Poissons Ratio (z) = 0.40134 0.17015
#
# Static dielectric constant tensor:
#      x y z
#    x 3.833380 0.000000 0.000000 
#    y 0.000000 3.630820 0.000000 
#    z 0.000000 0.000000 3.590910 
# 
# 
# High freq. dielectric constant tensor:
#      x y z
#    x 1.794630 0.000000 0.000000 
#    y 0.000000 1.778170 0.000000 
#    z 0.000000 0.000000 1.791440 
# 
# From -- ./inp_files/20811.got.cif
#   From: 2010.03.12/outbox.cif.g09.slc.cpg/sg53_11_cif.got.tgz:20811.got - 2010.04.16 14:36:59.
