data_PCOD8220206
_publ_section_title
;
Structure prediction by ZEFSAII (Michael W. Deem and Ramdas Pophale) SiO2 
 PCOD8220206
Probable space group: P M N A
;
_chemical_formula_sum "Si O2"
_cell_formula_units_Z 64
_cell_length_a 19.823049
_cell_length_b 18.533591
_cell_length_c 8.854741
_cell_angle_alpha 90.000000
_cell_angle_beta 90.000000
_cell_angle_gamma 90.000000
_cell_volume 3253.163507
_symmetry_space_group_name_H-M "P M N A"
_symmetry_group_IT_number 53
_symmetry_cell_setting 'orthorhombic'
loop_
_space_group_symop_operation_xyz
x,y,z
1/2-x,-y,1/2+z
x,-y,-z
1/2-x,y,1/2-z
-x,-y,-z
1/2+x,y,1/2-z
-x,y,z
1/2+x,-y,1/2+z
loop_
_atom_site_type_symbol
_atom_site_label
_atom_site_fract_x
_atom_site_fract_y
_atom_site_fract_z
Si Si1 0.326260 0.874805 0.737653
Si Si2 0.145615 0.226147 0.978990
Si Si3 0.421292 0.000946 0.321679
Si Si4 0.074854 0.844882 0.281951
Si Si5 0.076531 0.661089 0.813371
Si Si6 0.619401 0.242190 0.049981
Si Si7 0.735655 0.676722 0.081829
Si Si8 0.800430 0.559594 0.878422
O O1 0.250000 0.904299 0.750000
O O2 0.348585 0.847139 0.573090
O O3 0.377742 0.939890 0.769458
O O4 0.330883 0.806928 0.850175
O O5 0.096071 0.285633 0.050781
O O6 0.119668 0.209092 0.813551
O O7 0.220471 0.253965 0.956666
O O8 0.500000 0.019356 0.298897
O O9 0.403236 0.000000 0.500000
O O10 0.400150 0.927006 0.237250
O O11 0.075421 0.814604 0.452990
O O12 0.000000 0.842316 0.215276
O O13 0.075106 0.706840 0.658149
O O14 0.131110 0.595475 0.809865
O O15 0.000000 0.631470 0.838586
O O16 0.659245 0.297084 0.940274
O O17 0.750000 0.647294 0.250000
O O18 0.752650 0.616314 0.960804
O O19 0.750000 0.527193 0.750000
O O20 0.823578 0.500000 0.000000
#
# Coordination Sequence:
#
# PCOD8220206 Si02
#       8
#     8   8   8   8   8   8   8   8
#     4  11  22  38  58  84 115 154 205 259 319 371
#     4  10  20  34  61  85 115 156 204 255 304 367
#     4  10  22  40  58  78 111 160 211 257 310 385
#     4  11  22  38  57  83 116 157 207 258 313 377
#     4  10  22  39  63  93 126 164 203 250 301 353
#     4  11  22  37  61  89 121 156 197 262 315 365
#     4  11  20  37  62  92 122 155 198 251 302 355
#     4  11  23  41  67  97 129 167 206 238 289 361
#
# _framework density 19.673158999999998
#
# number of rings (size 3 to 8) (size 9 to 14) (size 15 to 20)
#    0.000    1.375    5.000    1.125    0.000    3.250 
#    4.500    1.250    0.000    0.375    0.000    0.000 
#    0.000    0.000    0.000    0.000    0.000    0.000 
#
# Total GULP energy -793383.140234 kJ/mol
# GULP energy per Si atom -12396.611566 kJ/mol
# Density = 1.962838 g / cm^3
# Si number density = 19.673159 Si / 1000 Ang^3
#
#
#
# Elastic Constant Matrix: (Units=GPa)
#
#
# Indices 1 2 3 4 5 6 
#
# 1 99.2398 35.0013 20.2032 0.0000 0.0000 0.0000
# 2 35.0013 78.9906 21.4557 0.0000 0.0000 0.0000
# 3 20.2032 21.4557 78.8028 0.0000 0.0000 0.0000
# 4 0.0000 0.0000 0.0000 32.1184 0.0000 0.0000
# 5 0.0000 0.0000 0.0000 0.0000 22.4787 0.0000
# 6 0.0000 0.0000 0.0000 0.0000 0.0000 -0.7051
#
#
#
# Elastic Compliance Matrix: (Units=1/GPa)
#
#
# Indices 1 2 3 4 5 6 
#
# 1 0.012171 -0.004908 -0.001784 0.000000 0.000000 0.000000
# 2 -0.004908 0.015650 -0.003003 0.000000 0.000000 0.000000
# 3 -0.001784 -0.003003 0.013965 0.000000 0.000000 0.000000
# 4 0.000000 0.000000 0.000000 0.031135 0.000000 0.000000
# 5 0.000000 0.000000 0.000000 0.000000 0.044486 0.000000
# 6 0.000000 0.000000 0.000000 0.000000 0.000000 -1.418146
#
#
# Mechanical properties :
#
#
# Convention : Reuss Voigt Hill
#
# Bulk Modulus (GPa) = 44.65105 45.59483 45.12294
# Shear Modulus (GPa) = -3.92501 22.80326 9.43913
#
# Velocity S-wave (km/s) = -1.41402 3.40826 2.19280
# Velocity P-wave (km/s) = 4.48105 6.22212 5.42193
#
# Compressibility (1/GPa) = 0.02239589
#
# Stress axis : x y z
#
# Youngs Moduli (GPa) = 82.16273 63.89646 71.60857
#
# Poissons Ratio (x) = 0.31363 0.12774
# Poissons Ratio (y) = 0.40329 0.21502
# Poissons Ratio (z) = 0.14657 0.19186
#
# Static dielectric constant tensor:
#      x y z
#    x 3.377260 0.000000 0.000000 
#    y 0.000000 3.440720 0.000000 
#    z 0.000000 0.000000 3.588560 
# 
# 
# High freq. dielectric constant tensor:
#      x y z
#    x 1.759290 0.000000 0.000000 
#    y 0.000000 1.754890 0.000000 
#    z 0.000000 0.000000 1.769140 
# 
# From -- ./inp_files/11182.got.cif
#   From: 2010.03.12/outbox.cif.g09.slc.cpg/sg53_6_cif.got.tgz:11182.got - 2010.04.16 14:36:59.
