data_PCOD8220300
_publ_section_title
;
Structure prediction by ZEFSAII (Michael W. Deem and Ramdas Pophale) SiO2 
 PCOD8220300
Probable space group: P M N A
;
_chemical_formula_sum "Si O2"
_cell_formula_units_Z 64
_cell_length_a 9.020758
_cell_length_b 14.572493
_cell_length_c 23.825238
_cell_angle_alpha 90.000000
_cell_angle_beta 90.000000
_cell_angle_gamma 90.000000
_cell_volume 3131.945060
_symmetry_space_group_name_H-M "P M N A"
_symmetry_group_IT_number 53
_symmetry_cell_setting 'orthorhombic'
loop_
_space_group_symop_operation_xyz
x,y,z
1/2-x,-y,1/2+z
x,-y,-z
1/2-x,y,1/2-z
-x,-y,-z
1/2+x,y,1/2-z
-x,y,z
1/2+x,-y,1/2+z
loop_
_atom_site_type_symbol
_atom_site_label
_atom_site_fract_x
_atom_site_fract_y
_atom_site_fract_z
Si Si1 0.170206 0.849907 0.195354
Si Si2 0.675403 0.710629 0.502878
Si Si3 0.830831 0.233279 0.195711
Si Si4 0.323367 0.087359 0.465776
Si Si5 0.825096 0.352257 0.390217
Si Si6 0.830843 0.959873 0.845303
Si Si7 0.669927 0.323111 0.623603
Si Si8 0.174459 0.520284 0.310011
O O1 0.250000 0.809058 0.250000
O O2 0.245029 0.948039 0.178936
O O3 0.189749 0.781546 0.143335
O O4 0.000000 0.862857 0.211840
O O5 0.500000 0.705185 0.513191
O O6 0.733707 0.815575 0.509293
O O7 0.756801 0.643503 0.547284
O O8 0.718166 0.673022 0.441395
O O9 0.750000 0.275784 0.250000
O O10 0.748746 0.264894 0.139640
O O11 0.000000 0.267885 0.195013
O O12 0.821337 0.122974 0.199089
O O13 0.500000 0.090221 0.466380
O O14 0.262755 0.000000 0.500000
O O15 0.257819 0.073820 0.403362
O O16 0.781142 0.441247 0.354080
O O17 0.000000 0.339181 0.394018
O O18 0.000000 0.986562 0.858833
O O19 0.500000 0.355206 0.630994
O O20 0.773037 0.385285 0.662358
O O21 0.250000 0.502277 0.250000
O O22 0.000000 0.524689 0.299718
#
# Coordination Sequence:
#
# PCOD8220300 Si02
#       8
#     8   8   8   8   8   8   8   8
#     4  10  20  35  55  83 118 155 198 245 295 352
#     4  10  20  37  61  91 122 157 201 246 294 353
#     4  11  21  35  56  84 117 154 195 238 290 349
#     4   9  15  27  52  83 114 152 199 244 283 334
#     4  11  24  41  61  87 119 157 197 244 299 356
#     4   9  17  30  50  80 115 152 192 237 288 343
#     4  10  22  39  62  91 121 155 198 248 300 354
#     4  11  25  44  66  90 117 153 198 246 303 363
#
# _framework density 20.434584999999998
#
# number of rings (size 3 to 8) (size 9 to 14) (size 15 to 20)
#    0.000    1.875    1.250    3.000    0.000    8.500 
#    0.000    3.125    0.000    0.375    0.000    0.000 
#    0.000    0.000    0.000    0.000    0.000    0.000 
#
# Total GULP energy -793589.960295 kJ/mol
# GULP energy per Si atom -12399.843130 kJ/mol
# Density = 2.038807 g / cm^3
# Si number density = 20.434585 Si / 1000 Ang^3
#
#
#
# Elastic Constant Matrix: (Units=GPa)
#
#
# Indices 1 2 3 4 5 6 
#
# 1 66.1310 34.5648 46.6696 0.0000 0.0000 0.0000
# 2 34.5648 86.4740 30.7031 0.0000 0.0000 0.0000
# 3 46.6696 30.7031 132.1674 0.0000 0.0000 0.0000
# 4 0.0000 0.0000 0.0000 34.5820 0.0000 0.0000
# 5 0.0000 0.0000 0.0000 0.0000 30.1920 0.0000
# 6 0.0000 0.0000 0.0000 0.0000 0.0000 22.5430
#
#
#
# Elastic Compliance Matrix: (Units=1/GPa)
#
#
# Indices 1 2 3 4 5 6 
#
# 1 0.023497 -0.007026 -0.006665 0.000000 0.000000 0.000000
# 2 -0.007026 0.014704 -0.000935 0.000000 0.000000 0.000000
# 3 -0.006665 -0.000935 0.010137 0.000000 0.000000 0.000000
# 4 0.000000 0.000000 0.000000 0.028917 0.000000 0.000000
# 5 0.000000 0.000000 0.000000 0.000000 0.033121 0.000000
# 6 0.000000 0.000000 0.000000 0.000000 0.000000 0.044360
#
#
# Mechanical properties :
#
#
# Convention : Reuss Voigt Hill
#
# Bulk Modulus (GPa) = 52.39169 56.51635 54.45402
# Shear Modulus (GPa) = 26.26739 28.98573 27.62656
#
# Velocity S-wave (km/s) = 3.58919 3.77034 3.68088
# Velocity P-wave (km/s) = 6.54758 6.83163 6.69111
#
# Compressibility (1/GPa) = 0.01908700
#
# Stress axis : x y z
#
# Youngs Moduli (GPa) = 42.55825 68.00671 98.64987
#
# Poissons Ratio (x) = 0.47779 0.65750
# Poissons Ratio (y) = 0.29900 0.09224
# Poissons Ratio (z) = 0.28365 0.06359
#
# Static dielectric constant tensor:
#      x y z
#    x 3.362620 0.000000 0.000000 
#    y 0.000000 3.717260 0.000000 
#    z 0.000000 0.000000 3.806430 
# 
# 
# High freq. dielectric constant tensor:
#      x y z
#    x 1.763150 0.000000 0.000000 
#    y 0.000000 1.801790 0.000000 
#    z 0.000000 0.000000 1.810890 
# 
# From -- ./inp_files/34221.got.cif
#   From: 2010.03.12/outbox.cif.g09.slc.cpg/sg53_18_cif.got.tgz:34221.got - 2010.04.16 14:36:59.
