data_PCOD8220036
_publ_section_title
;
Structure prediction by ZEFSAII (Michael W. Deem and Ramdas Pophale) SiO2 
 PCOD8220036
Probable space group: P M N A
;
_chemical_formula_sum "Si O2"
_cell_formula_units_Z 48
_cell_length_a 8.943830
_cell_length_b 31.308983
_cell_length_c 9.161132
_cell_angle_alpha 90.000000
_cell_angle_beta 90.000000
_cell_angle_gamma 90.000000
_cell_volume 2565.320533
_symmetry_space_group_name_H-M "P M N A"
_symmetry_group_IT_number 53
_symmetry_cell_setting 'orthorhombic'
loop_
_space_group_symop_operation_xyz
x,y,z
1/2-x,-y,1/2+z
x,-y,-z
1/2-x,y,1/2-z
-x,-y,-z
1/2+x,y,1/2-z
-x,y,z
1/2+x,-y,1/2+z
loop_
_atom_site_type_symbol
_atom_site_label
_atom_site_fract_x
_atom_site_fract_y
_atom_site_fract_z
Si Si1 0.175141 0.960231 0.406417
Si Si2 0.825706 0.631531 0.407628
Si Si3 0.825661 0.461693 0.595485
Si Si4 0.327710 0.288833 0.594603
Si Si5 0.174507 0.806084 0.092213
Si Si6 0.823572 0.122184 0.405253
O O1 0.250000 0.959464 0.250000
O O2 0.216431 0.917084 0.490242
O O3 0.000000 0.965137 0.381615
O O4 0.237434 0.000000 0.500000
O O5 0.750000 0.630114 0.250000
O O6 0.796885 0.584880 0.480782
O O7 0.750685 0.671790 0.495199
O O8 0.000000 0.640714 0.391922
O O9 0.756672 0.500000 0.500000
O O10 0.750000 0.463787 0.750000
O O11 0.000000 0.469100 0.620331
O O12 0.250000 0.286446 0.750000
O O13 0.500000 0.300339 0.612962
O O14 0.306464 0.241831 0.525498
O O15 0.250000 0.811719 0.250000
O O16 0.000000 0.817903 0.109040
O O17 0.253753 0.835573 0.974363
O O18 0.750000 0.112943 0.250000
O O19 0.000000 0.128235 0.385692
#
# Coordination Sequence:
#
# PCOD8220036 Si02
#       6
#     8   8   8   8   8   8
#     4  10  22  39  59  85 114 144 179 218 262 310
#     4   9  15  24  41  64  91 122 156 198 246 294
#     4   9  18  31  46  67  95 125 160 201 245 295
#     4   9  16  26  43  68  97 126 159 202 249 297
#     4  10  20  34  53  78 107 137 171 213 260 309
#     4  11  23  38  57  80 108 143 181 220 262 309
#
# _framework density 18.711112
#
# number of rings (size 3 to 8) (size 9 to 14) (size 15 to 20)
#    0.000    2.333    0.000    4.000    0.000    6.000 
#    0.000    0.000    0.000    1.000    0.000    4.667 
#    0.000    0.000    0.000    0.000    0.000    0.000 
#
# Total GULP energy -594799.845109 kJ/mol
# GULP energy per Si atom -12391.663440 kJ/mol
# Density = 1.866852 g / cm^3
# Si number density = 18.711112 Si / 1000 Ang^3
#
#
#
# Elastic Constant Matrix: (Units=GPa)
#
#
# Indices 1 2 3 4 5 6 
#
# 1 105.0921 74.7056 44.5238 0.0000 0.0000 0.0000
# 2 74.7056 173.3649 58.7304 0.0000 0.0000 0.0000
# 3 44.5238 58.7304 88.8020 0.0000 0.0000 0.0000
# 4 0.0000 0.0000 0.0000 22.1941 0.0000 0.0000
# 5 0.0000 0.0000 0.0000 0.0000 24.4673 0.0000
# 6 0.0000 0.0000 0.0000 0.0000 0.0000 46.7726
#
#
#
# Elastic Compliance Matrix: (Units=1/GPa)
#
#
# Indices 1 2 3 4 5 6 
#
# 1 0.014806 -0.004981 -0.004129 0.000000 0.000000 0.000000
# 2 -0.004981 0.009110 -0.003527 0.000000 0.000000 0.000000
# 3 -0.004129 -0.003527 0.015664 0.000000 0.000000 0.000000
# 4 0.000000 0.000000 0.000000 0.045057 0.000000 0.000000
# 5 0.000000 0.000000 0.000000 0.000000 0.040871 0.000000
# 6 0.000000 0.000000 0.000000 0.000000 0.000000 0.021380
#
#
# Mechanical properties :
#
#
# Convention : Reuss Voigt Hill
#
# Bulk Modulus (GPa) = 69.90829 80.35316 75.13073
# Shear Modulus (GPa) = 28.25975 31.30675 29.78325
#
# Velocity S-wave (km/s) = 3.89050 4.09487 3.99399
# Velocity P-wave (km/s) = 7.59107 8.08669 7.84280
#
# Compressibility (1/GPa) = 0.01430446
#
# Stress axis : x y z
#
# Youngs Moduli (GPa) = 67.54154 109.77435 63.84089
#
# Poissons Ratio (x) = 0.54682 0.26359
# Poissons Ratio (y) = 0.33644 0.22518
# Poissons Ratio (z) = 0.27887 0.38720
#
# Static dielectric constant tensor:
#      x y z
#    x 3.542020 0.000000 0.000000 
#    y 0.000000 4.691410 0.000000 
#    z 0.000000 0.000000 3.017300 
# 
# 
# High freq. dielectric constant tensor:
#      x y z
#    x 1.737820 0.000000 0.000000 
#    y 0.000000 1.760750 0.000000 
#    z 0.000000 0.000000 1.672320 
# 
# From -- ./inp_files/6668.got.cif
#   From: 2010.03.12/outbox.cif.g09.slc.cpg/sg53_4_cif.got.tgz:6668.got - 2010.04.16 14:36:59.
