data_PCOD8220863
_publ_section_title
;
Structure prediction by ZEFSAII (Michael W. Deem and Ramdas Pophale) SiO2 
 PCOD8220863
Probable space group: P M N A
;
_chemical_formula_sum "Si O2"
_cell_formula_units_Z 64
_cell_length_a 18.148432
_cell_length_b 15.318542
_cell_length_c 11.367513
_cell_angle_alpha 90.000000
_cell_angle_beta 90.000000
_cell_angle_gamma 90.000000
_cell_volume 3160.254073
_symmetry_space_group_name_H-M "P M N A"
_symmetry_group_IT_number 53
_symmetry_cell_setting 'orthorhombic'
loop_
_space_group_symop_operation_xyz
x,y,z
1/2-x,-y,1/2+z
x,-y,-z
1/2-x,y,1/2-z
-x,-y,-z
1/2+x,y,1/2-z
-x,y,z
1/2+x,-y,1/2+z
loop_
_atom_site_type_symbol
_atom_site_label
_atom_site_fract_x
_atom_site_fract_y
_atom_site_fract_z
Si Si1 0.586652 0.898894 0.018840
Si Si2 0.837036 0.841560 0.247529
Si Si3 0.851333 0.332061 0.889884
Si Si4 0.413625 0.663333 0.642959
Si Si5 0.417628 0.998827 0.362113
Si Si6 0.774289 0.456942 0.624391
Si Si7 0.583417 0.521772 0.242709
Si Si8 0.413035 0.166727 0.228965
O O1 0.500000 0.889554 0.043377
O O2 0.630595 0.852016 0.122503
O O3 0.613578 0.847546 0.903740
O O4 0.608048 0.000000 0.000000
O O5 0.750000 0.841108 0.250000
O O6 0.866889 0.753913 0.186133
O O7 0.862927 0.922328 0.170588
O O8 0.765901 0.362591 0.874646
O O9 0.906215 0.408047 0.845918
O O10 0.868006 0.318369 0.025750
O O11 0.500000 0.670905 0.614265
O O12 0.394895 0.571564 0.702836
O O13 0.385106 0.738721 0.730643
O O14 0.500000 0.982747 0.308228
O O15 0.423440 0.000000 0.500000
O O16 0.383492 0.089245 0.313182
O O17 0.750508 0.500000 0.500000
O O18 0.750000 0.504023 0.750000
O O19 0.863276 0.452276 0.632822
O O20 0.500000 0.522324 0.195308
O O21 0.500000 0.163606 0.235589
#
# Coordination Sequence:
#
# PCOD8220863 Si02
#       8
#     8   8   8   8   8   8   8   8
#     4  10  20  40  68  90 119 167 213 250 307 382
#     4  12  25  39  59  89 127 164 208 261 309 367
#     4  11  22  40  62  88 128 173 214 252 308 384
#     4  10  20  37  65  99 128 158 204 266 322 369
#     4  10  20  37  63  91 120 157 202 254 313 373
#     4  10  21  41  66  87 121 171 215 252 307 380
#     4  10  21  38  62  97 129 160 207 266 321 367
#     4   9  18  36  62  93 124 156 201 254 308 376
#
# _framework density 20.251536999999999
#
# number of rings (size 3 to 8) (size 9 to 14) (size 15 to 20)
#    0.000    1.750    1.250    4.500    0.000    4.750 
#    6.750    0.000    0.000    0.000    0.000    0.000 
#    0.000    0.000    0.000    0.000    0.000    0.000 
#
# Total GULP energy -793294.841707 kJ/mol
# GULP energy per Si atom -12395.231902 kJ/mol
# Density = 2.020544 g / cm^3
# Si number density = 20.251537 Si / 1000 Ang^3
#
#
#
# Elastic Constant Matrix: (Units=GPa)
#
#
# Indices 1 2 3 4 5 6 
#
# 1 80.4832 35.4332 36.6985 0.0000 0.0000 0.0000
# 2 35.4332 140.1532 45.8654 0.0000 0.0000 0.0000
# 3 36.6985 45.8654 125.1423 0.0000 0.0000 0.0000
# 4 0.0000 0.0000 0.0000 33.8676 0.0000 0.0000
# 5 0.0000 0.0000 0.0000 0.0000 21.5434 0.0000
# 6 0.0000 0.0000 0.0000 0.0000 0.0000 37.4377
#
#
#
# Elastic Compliance Matrix: (Units=1/GPa)
#
#
# Indices 1 2 3 4 5 6 
#
# 1 0.015197 -0.002708 -0.003464 0.000000 0.000000 0.000000
# 2 -0.002708 0.008590 -0.002354 0.000000 0.000000 0.000000
# 3 -0.003464 -0.002354 0.009869 0.000000 0.000000 0.000000
# 4 0.000000 0.000000 0.000000 0.029527 0.000000 0.000000
# 5 0.000000 0.000000 0.000000 0.000000 0.046418 0.000000
# 6 0.000000 0.000000 0.000000 0.000000 0.000000 0.026711
#
#
# Mechanical properties :
#
#
# Convention : Reuss Voigt Hill
#
# Bulk Modulus (GPa) = 60.22770 64.64142 62.43456
# Shear Modulus (GPa) = 31.46643 33.75519 32.61081
#
# Velocity S-wave (km/s) = 3.94608 4.08707 4.01719
# Velocity P-wave (km/s) = 7.11101 7.36619 7.23972
#
# Compressibility (1/GPa) = 0.01660366
#
# Stress axis : x y z
#
# Youngs Moduli (GPa) = 65.80320 116.41201 101.32245
#
# Poissons Ratio (x) = 0.31530 0.35097
# Poissons Ratio (y) = 0.17823 0.23852
# Poissons Ratio (z) = 0.22793 0.27404
#
# Static dielectric constant tensor:
#      x y z
#    x 3.596680 0.000000 0.000000 
#    y 0.000000 3.837730 0.000000 
#    z 0.000000 0.000000 6.857300 
# 
# 
# High freq. dielectric constant tensor:
#      x y z
#    x 1.774140 0.000000 0.000000 
#    y 0.000000 1.792110 0.000000 
#    z 0.000000 0.000000 1.799330 
# 
# From -- ./inp_files/17140.got.cif
#   From: 2010.03.12/outbox.cif.g09.slc.cpg/sg53_9_cif.got.tgz:17140.got - 2010.04.16 14:36:59.
