data_PCOD8220853
_publ_section_title
;
Structure prediction by ZEFSAII (Michael W. Deem and Ramdas Pophale) SiO2 
 PCOD8220853
Probable space group: P M N A
;
_chemical_formula_sum "Si O2"
_cell_formula_units_Z 64
_cell_length_a 8.582302
_cell_length_b 11.995998
_cell_length_c 31.637236
_cell_angle_alpha 90.000000
_cell_angle_beta 90.000000
_cell_angle_gamma 90.000000
_cell_volume 3257.157141
_symmetry_space_group_name_H-M "P M N A"
_symmetry_group_IT_number 53
_symmetry_cell_setting 'orthorhombic'
loop_
_space_group_symop_operation_xyz
x,y,z
1/2-x,-y,1/2+z
x,-y,-z
1/2-x,y,1/2-z
-x,-y,-z
1/2+x,y,1/2-z
-x,y,z
1/2+x,-y,1/2+z
loop_
_atom_site_type_symbol
_atom_site_label
_atom_site_fract_x
_atom_site_fract_y
_atom_site_fract_z
Si Si1 0.184055 0.764793 0.294773
Si Si2 0.317037 0.491532 0.794609
Si Si3 0.319628 0.125448 0.110284
Si Si4 0.322362 0.117711 0.478540
Si Si5 0.319335 0.488720 0.952992
Si Si6 0.680897 0.897407 0.371158
Si Si7 0.178613 0.763259 0.447211
Si Si8 0.314688 0.626631 0.874617
O O1 0.250000 0.803760 0.250000
O O2 0.228783 0.636510 0.303109
O O3 0.273909 0.840404 0.327777
O O4 0.000000 0.784925 0.297778
O O5 0.250000 0.534200 0.750000
O O6 0.500000 0.506372 0.791961
O O7 0.247069 0.563808 0.833284
O O8 0.500000 0.103220 0.119895
O O9 0.294254 0.128605 0.060244
O O10 0.265326 0.244399 0.129040
O O11 0.219080 0.028538 0.132071
O O12 0.500000 0.129037 0.462861
O O13 0.284517 0.213808 0.512059
O O14 0.291433 0.000000 0.500000
O O15 0.500000 0.519179 0.957857
O O16 0.294960 0.364878 0.934370
O O17 0.245037 0.572468 0.918035
O O18 0.242290 0.500000 0.000000
O O19 0.500000 0.880965 0.381081
O O20 0.778333 0.842811 0.408712
O O21 0.000000 0.786033 0.459358
O O22 0.500000 0.612583 0.875919
#
# Coordination Sequence:
#
# PCOD8220853 Si02
#       8
#     8   8   8   8   8   8   8   8
#     4  10  20  37  62  90 117 146 180 223 276 336
#     4   9  18  35  60  88 117 145 181 229 281 336
#     4  11  22  37  59  82 107 147 197 239 278 335
#     4  11  22  36  53  76 111 151 186 232 286 334
#     4   9  17  31  53  83 113 140 178 230 285 339
#     4  12  24  38  55  80 115 149 184 230 281 330
#     4  11  21  34  58  85 108 142 189 234 276 332
#     4   9  18  34  56  83 114 147 184 234 288 336
#
# _framework density 19.649038000000001
#
# number of rings (size 3 to 8) (size 9 to 14) (size 15 to 20)
#    0.000    1.750    1.250    4.125    0.000    5.000 
#    0.000    1.875    0.000   11.250    0.000    0.000 
#    0.000    0.000    0.000    0.000    0.000    0.000 
#
# Total GULP energy -793718.169026 kJ/mol
# GULP energy per Si atom -12401.846391 kJ/mol
# Density = 1.960432 g / cm^3
# Si number density = 19.649038 Si / 1000 Ang^3
#
#
#
# Elastic Constant Matrix: (Units=GPa)
#
#
# Indices 1 2 3 4 5 6 
#
# 1 32.8982 27.4924 13.2102 0.0000 0.0000 0.0000
# 2 27.4924 113.4154 63.0123 0.0000 0.0000 0.0000
# 3 13.2102 63.0123 131.7350 0.0000 0.0000 0.0000
# 4 0.0000 0.0000 0.0000 42.1653 0.0000 0.0000
# 5 0.0000 0.0000 0.0000 0.0000 27.8243 0.0000
# 6 0.0000 0.0000 0.0000 0.0000 0.0000 -35.8632
#
#
#
# Elastic Compliance Matrix: (Units=1/GPa)
#
#
# Indices 1 2 3 4 5 6 
#
# 1 0.038183 -0.009708 0.000815 0.000000 0.000000 0.000000
# 2 -0.009708 0.014477 -0.005951 0.000000 0.000000 0.000000
# 3 0.000815 -0.005951 0.010356 0.000000 0.000000 0.000000
# 4 0.000000 0.000000 0.000000 0.023716 0.000000 0.000000
# 5 0.000000 0.000000 0.000000 0.000000 0.035940 0.000000
# 6 0.000000 0.000000 0.000000 0.000000 0.000000 -0.027884
#
#
# Mechanical properties :
#
#
# Convention : Reuss Voigt Hill
#
# Bulk Modulus (GPa) = 30.00649 53.94205 41.97427
# Shear Modulus (GPa) = 36.87705 18.44751 27.66228
#
# Velocity S-wave (km/s) = 4.33689 3.06739 3.75616
# Velocity P-wave (km/s) = 6.35472 6.32910 6.34193
#
# Compressibility (1/GPa) = 0.03332612
#
# Stress axis : x y z
#
# Youngs Moduli (GPa) = 26.18990 69.07567 96.56363
#
# Poissons Ratio (x) = 0.67061 -0.07869
# Poissons Ratio (y) = 0.25426 0.57466
# Poissons Ratio (z) = -0.02134 0.41108
#
# Static dielectric constant tensor:
#      x y z
#    x 3.338400 0.000000 0.000000 
#    y 0.000000 3.763800 0.000000 
#    z 0.000000 0.000000 3.450050 
# 
# 
# High freq. dielectric constant tensor:
#      x y z
#    x 1.743680 0.000000 0.000000 
#    y 0.000000 1.770310 0.000000 
#    z 0.000000 0.000000 1.764500 
# 
# From -- ./inp_files/38118.got.cif
#   From: 2010.03.12/outbox.cif.g09.slc.cpg/sg53_20_cif.got.tgz:38118.got - 2010.04.16 14:36:59.
