data_PCOD8220491
_publ_section_title
;
Structure prediction by ZEFSAII (Michael W. Deem and Ramdas Pophale) SiO2 
 PCOD8220491
Probable space group: P M N A
;
_chemical_formula_sum "Si O2"
_cell_formula_units_Z 40
_cell_length_a 8.527900
_cell_length_b 25.091579
_cell_length_c 9.672413
_cell_angle_alpha 90.000000
_cell_angle_beta 90.000000
_cell_angle_gamma 90.000000
_cell_volume 2069.688198
_symmetry_space_group_name_H-M "P M N A"
_symmetry_group_IT_number 53
_symmetry_cell_setting 'orthorhombic'
loop_
_space_group_symop_operation_xyz
x,y,z
1/2-x,-y,1/2+z
x,-y,-z
1/2-x,y,1/2-z
-x,-y,-z
1/2+x,y,1/2-z
-x,y,z
1/2+x,-y,1/2+z
loop_
_atom_site_type_symbol
_atom_site_label
_atom_site_fract_x
_atom_site_fract_y
_atom_site_fract_z
Si Si1 0.314681 0.548634 0.404465
Si Si2 0.684474 0.835970 0.098280
Si Si3 0.683169 0.955860 0.100885
Si Si4 0.816240 0.248570 0.106064
Si Si5 0.184669 0.363634 0.399692
O O1 0.255198 0.500000 0.500000
O O2 0.250000 0.542430 0.250000
O O3 0.500000 0.549922 0.395037
O O4 0.255314 0.602513 0.475229
O O5 0.750000 0.827540 0.250000
O O6 0.500000 0.823141 0.092249
O O7 0.721163 0.896169 0.047961
O O8 0.782848 0.796177 0.005411
O O9 0.750000 0.966690 0.250000
O O10 0.500000 0.964595 0.111318
O O11 0.759174 0.000000 0.000000
O O12 0.750000 0.226386 0.250000
O O13 0.728353 0.302921 0.066842
O O14 0.000000 0.260456 0.117751
O O15 0.250000 0.381817 0.250000
O O16 0.000000 0.371085 0.396787
#
# Coordination Sequence:
#
# PCOD8220491 Si02
#       5
#     8   8   8   8   8
#     4  11  24  41  62  89 120 154 193 235 281 333
#     4  10  20  36  56  80 111 146 186 230 279 333
#     4   9  19  35  54  78 108 142 181 226 275 329
#     4  11  22  38  59  84 114 148 188 231 280 334
#     4  11  22  39  62  87 117 151 189 233 282 333
#
# _framework density 19.326582999999999
#
# number of rings (size 3 to 8) (size 9 to 14) (size 15 to 20)
#    0.000    1.600    0.000    6.600    0.000    6.000 
#    0.000    6.000    0.000    0.000    0.000    0.000 
#    0.000    0.000    0.000    0.000    0.000    0.000 
#
# Total GULP energy -496086.528597 kJ/mol
# GULP energy per Si atom -12402.163215 kJ/mol
# Density = 1.928260 g / cm^3
# Si number density = 19.326583 Si / 1000 Ang^3
#
#
#
# Elastic Constant Matrix: (Units=GPa)
#
#
# Indices 1 2 3 4 5 6 
#
# 1 58.1482 24.5250 42.8037 0.0000 0.0000 0.0000
# 2 24.5250 96.8907 71.8980 0.0000 0.0000 0.0000
# 3 42.8037 71.8980 114.8491 0.0000 0.0000 0.0000
# 4 0.0000 0.0000 0.0000 78.4639 0.0000 0.0000
# 5 0.0000 0.0000 0.0000 0.0000 36.5358 0.0000
# 6 0.0000 0.0000 0.0000 0.0000 0.0000 -209.6499
#
#
#
# Elastic Compliance Matrix: (Units=1/GPa)
#
#
# Indices 1 2 3 4 5 6 
#
# 1 0.023755 0.001040 -0.009504 0.000000 0.000000 0.000000
# 2 0.001040 0.019320 -0.012483 0.000000 0.000000 0.000000
# 3 -0.009504 -0.012483 0.020064 0.000000 0.000000 0.000000
# 4 0.000000 0.000000 0.000000 0.012745 0.000000 0.000000
# 5 0.000000 0.000000 0.000000 0.000000 0.027370 0.000000
# 6 0.000000 0.000000 0.000000 0.000000 0.000000 -0.004770
#
#
# Mechanical properties :
#
#
# Convention : Reuss Voigt Hill
#
# Bulk Modulus (GPa) = 47.06974 60.92680 53.99827
# Shear Modulus (GPa) = 33.90742 -10.21927 11.84407
#
# Velocity S-wave (km/s) = 4.19315 -2.30199 2.47824
# Velocity P-wave (km/s) = 6.91745 4.95255 6.01577
#
# Compressibility (1/GPa) = 0.02124507
#
# Stress axis : x y z
#
# Youngs Moduli (GPa) = 42.09606 51.75879 49.84136
#
# Poissons Ratio (x) = -0.05382 0.47371
# Poissons Ratio (y) = -0.04377 0.62215
# Poissons Ratio (z) = 0.40010 0.64608
#
# Static dielectric constant tensor:
#      x y z
#    x 3.628890 0.000000 0.000000 
#    y 0.000000 3.725960 0.000000 
#    z 0.000000 0.000000 3.095030 
# 
# 
# High freq. dielectric constant tensor:
#      x y z
#    x 1.765740 0.000000 0.000000 
#    y 0.000000 1.761690 0.000000 
#    z 0.000000 0.000000 1.754620 
# 
# From -- ./inp_files/6288.got.cif
#   From: 2010.03.12/outbox.cif.g09.slc.cpg/sg53_4_cif.got.tgz:6288.got - 2010.04.16 14:36:59.
