data_PCOD8220078
_publ_section_title
;
Structure prediction by ZEFSAII (Michael W. Deem and Ramdas Pophale) SiO2 
 PCOD8220078
Probable space group: P M N A
;
_chemical_formula_sum "Si O2"
_cell_formula_units_Z 56
_cell_length_a 9.066289
_cell_length_b 20.931973
_cell_length_c 15.537698
_cell_angle_alpha 90.000000
_cell_angle_beta 90.000000
_cell_angle_gamma 90.000000
_cell_volume 2948.671557
_symmetry_space_group_name_H-M "P M N A"
_symmetry_group_IT_number 53
_symmetry_cell_setting 'orthorhombic'
loop_
_space_group_symop_operation_xyz
x,y,z
1/2-x,-y,1/2+z
x,-y,-z
1/2-x,y,1/2-z
-x,-y,-z
1/2+x,y,1/2-z
-x,y,z
1/2+x,-y,1/2+z
loop_
_atom_site_type_symbol
_atom_site_label
_atom_site_fract_x
_atom_site_fract_y
_atom_site_fract_z
Si Si1 0.172759 0.629830 0.164703
Si Si2 0.326315 0.360729 0.336737
Si Si3 0.324545 0.495697 0.403752
Si Si4 0.672509 0.077137 0.166925
Si Si5 0.334078 0.036216 0.589713
Si Si6 0.827407 0.852107 0.491512
Si Si7 0.672495 0.281433 0.504786
O O1 0.250000 0.657530 0.250000
O O2 0.228918 0.557486 0.149080
O O3 0.215562 0.671433 0.082006
O O4 0.000000 0.631719 0.180595
O O5 0.250000 0.335188 0.250000
O O6 0.500000 0.361604 0.322053
O O7 0.265582 0.431738 0.357785
O O8 0.283808 0.314198 0.414904
O O9 0.259062 0.500000 0.500000
O O10 0.500000 0.493438 0.409966
O O11 0.750000 0.109027 0.250000
O O12 0.500000 0.069737 0.182933
O O13 0.741169 0.006601 0.155657
O O14 0.707804 0.122783 0.087003
O O15 0.500000 0.046662 0.624723
O O16 0.254819 0.104423 0.579075
O O17 0.337111 0.000000 0.500000
O O18 0.769220 0.781014 0.482904
O O19 0.000000 0.854755 0.471505
O O20 0.500000 0.263874 0.506631
#
# Coordination Sequence:
#
# PCOD8220078 Si02
#       7
#     8   8   8   8   8   8   8
#     4  10  20  35  57  81 105 138 181 229 280 333
#     4  10  20  34  54  79 108 143 182 227 277 334
#     4   9  15  30  56  80 104 138 180 223 274 336
#     4  10  20  34  54  82 113 142 176 219 267 318
#     4   9  17  32  55  80 105 135 171 211 257 311
#     4  10  21  36  55  78 107 143 181 224 270 315
#     4  10  21  37  55  76 106 148 191 226 270 334
#
# _framework density 18.991603000000001
#
# number of rings (size 3 to 8) (size 9 to 14) (size 15 to 20)
#    0.000    2.286    1.429    1.714    0.000    5.143 
#    0.000    3.571    0.000    2.571    0.000    0.000 
#    0.000    0.000    0.000    0.000    0.000    0.000 
#
# Total GULP energy -694459.577439 kJ/mol
# GULP energy per Si atom -12401.063883 kJ/mol
# Density = 1.894838 g / cm^3
# Si number density = 18.991603 Si / 1000 Ang^3
#
#
#
# Elastic Constant Matrix: (Units=GPa)
#
#
# Indices 1 2 3 4 5 6 
#
# 1 57.9689 27.9033 18.5842 0.0000 0.0000 0.0000
# 2 27.9033 95.4227 9.0383 0.0000 0.0000 0.0000
# 3 18.5842 9.0383 80.8631 0.0000 0.0000 0.0000
# 4 0.0000 0.0000 0.0000 13.5476 0.0000 0.0000
# 5 0.0000 0.0000 0.0000 0.0000 31.1353 0.0000
# 6 0.0000 0.0000 0.0000 0.0000 0.0000 26.1805
#
#
#
# Elastic Compliance Matrix: (Units=1/GPa)
#
#
# Indices 1 2 3 4 5 6 
#
# 1 0.021444 -0.005866 -0.004273 0.000000 0.000000 0.000000
# 2 -0.005866 0.012196 -0.000015 0.000000 0.000000 0.000000
# 3 -0.004273 -0.000015 0.013350 0.000000 0.000000 0.000000
# 4 0.000000 0.000000 0.000000 0.073814 0.000000 0.000000
# 5 0.000000 0.000000 0.000000 0.000000 0.032118 0.000000
# 6 0.000000 0.000000 0.000000 0.000000 0.000000 0.038196
#
#
# Mechanical properties :
#
#
# Convention : Reuss Voigt Hill
#
# Bulk Modulus (GPa) = 37.47672 38.36739 37.92206
# Shear Modulus (GPa) = 22.69421 26.08795 24.39108
#
# Velocity S-wave (km/s) = 3.46057 3.71031 3.58761
# Velocity P-wave (km/s) = 5.97859 6.21300 6.09692
#
# Compressibility (1/GPa) = 0.02668323
#
# Stress axis : x y z
#
# Youngs Moduli (GPa) = 46.63318 81.99138 74.90511
#
# Poissons Ratio (x) = 0.48095 0.32005
# Poissons Ratio (y) = 0.27355 0.00113
# Poissons Ratio (z) = 0.19925 0.00124
#
# Static dielectric constant tensor:
#      x y z
#    x 3.311120 0.000000 0.000000 
#    y 0.000000 3.446360 0.000000 
#    z 0.000000 0.000000 3.492930 
# 
# 
# High freq. dielectric constant tensor:
#      x y z
#    x 1.724250 0.000000 0.000000 
#    y 0.000000 1.732800 0.000000 
#    z 0.000000 0.000000 1.737450 
# 
# From -- ./inp_files/20465.got.cif
#   From: 2010.03.12/outbox.cif.g09.slc.cpg/sg53_11_cif.got.tgz:20465.got - 2010.04.16 14:36:59.
