data_PCOD8220646
_publ_section_title
;
Structure prediction by ZEFSAII (Michael W. Deem and Ramdas Pophale) SiO2 
 PCOD8220646
Probable space group: P M N A
;
_chemical_formula_sum "Si O2"
_cell_formula_units_Z 48
_cell_length_a 9.927169
_cell_length_b 29.998942
_cell_length_c 8.688504
_cell_angle_alpha 90.000000
_cell_angle_beta 90.000000
_cell_angle_gamma 90.000000
_cell_volume 2587.476172
_symmetry_space_group_name_H-M "P M N A"
_symmetry_group_IT_number 53
_symmetry_cell_setting 'orthorhombic'
loop_
_space_group_symop_operation_xyz
x,y,z
1/2-x,-y,1/2+z
x,-y,-z
1/2-x,y,1/2-z
-x,-y,-z
1/2+x,y,1/2-z
-x,y,z
1/2+x,-y,1/2+z
loop_
_atom_site_type_symbol
_atom_site_label
_atom_site_fract_x
_atom_site_fract_y
_atom_site_fract_z
Si Si1 0.500000 0.451920 0.429274
Si Si2 0.158853 0.316156 0.096603
Si Si3 0.649880 0.780740 0.611973
Si Si4 0.746004 0.599424 0.431699
Si Si5 0.500000 0.449961 0.064366
Si Si6 0.655604 0.122586 0.398520
Si Si7 0.847118 0.042034 0.890529
O O1 0.500000 0.500000 0.500000
O O2 0.628496 0.427203 0.489933
O O3 0.500000 0.453788 0.246543
O O4 0.250000 0.320398 0.250000
O O5 0.171201 0.266111 0.021680
O O6 0.000000 0.327491 0.130816
O O7 0.223505 0.348608 0.969963
O O8 0.750000 0.780892 0.750000
O O9 0.500000 0.780413 0.682605
O O10 0.670903 0.827822 0.522295
O O11 0.750000 0.592635 0.250000
O O12 0.877076 0.579140 0.506851
O O13 0.500000 0.500000 0.000000
O O14 0.750000 0.118025 0.250000
O O15 0.500000 0.113704 0.349612
O O16 0.702177 0.086555 0.522893
O O17 0.750000 0.033085 0.750000
O O18 0.000000 0.047721 0.831149
O O19 0.834704 0.000000 0.000000
#
# Coordination Sequence:
#
# PCOD8220646 Si02
#       7
#     4   8   8   8   4   8   8
#     4  12  24  44  66  88 116 148 190 228 275 334
#     4  10  20  36  59  86 114 149 191 233 278 332
#     4   8  15  29  51  78 108 141 182 227 273 323
#     4  12  25  41  60  88 120 151 187 230 279 333
#     4  12  26  44  66  90 116 152 186 230 279 330
#     4   9  17  31  52  78 107 141 181 228 276 328
#     4  10  21  35  51  75 106 141 185 231 282 338
#
# _framework density 18.550896000000002
#
# number of rings (size 3 to 8) (size 9 to 14) (size 15 to 20)
#    0.000    1.833    0.833    4.000    1.167    1.000 
#    0.000    0.833    0.000    0.000    0.000    0.000 
#    0.000    0.000    0.000    0.000    0.000    0.000 
#
# Total GULP energy -594695.974219 kJ/mol
# GULP energy per Si atom -12389.499463 kJ/mol
# Density = 1.850867 g / cm^3
# Si number density = 18.550896 Si / 1000 Ang^3
#
#
#
# Elastic Constant Matrix: (Units=GPa)
#
#
# Indices 1 2 3 4 5 6 
#
# 1 110.9111 51.1252 46.5716 0.0000 0.0000 0.0000
# 2 51.1252 154.5438 47.2635 0.0000 0.0000 0.0000
# 3 46.5716 47.2635 112.8291 0.0000 0.0000 0.0000
# 4 0.0000 0.0000 0.0000 27.7832 0.0000 0.0000
# 5 0.0000 0.0000 0.0000 0.0000 26.2437 0.0000
# 6 0.0000 0.0000 0.0000 0.0000 0.0000 26.4877
#
#
#
# Elastic Compliance Matrix: (Units=1/GPa)
#
#
# Indices 1 2 3 4 5 6 
#
# 1 0.011867 -0.002784 -0.003732 0.000000 0.000000 0.000000
# 2 -0.002784 0.008075 -0.002233 0.000000 0.000000 0.000000
# 3 -0.003732 -0.002233 0.011339 0.000000 0.000000 0.000000
# 4 0.000000 0.000000 0.000000 0.035993 0.000000 0.000000
# 5 0.000000 0.000000 0.000000 0.000000 0.038104 0.000000
# 6 0.000000 0.000000 0.000000 0.000000 0.000000 0.037753
#
#
# Mechanical properties :
#
#
# Convention : Reuss Voigt Hill
#
# Bulk Modulus (GPa) = 72.56085 74.24495 73.40290
# Shear Modulus (GPa) = 30.26207 31.65783 30.95995
#
# Velocity S-wave (km/s) = 4.04332 4.13551 4.08967
# Velocity P-wave (km/s) = 7.81007 7.93174 7.87114
#
# Compressibility (1/GPa) = 0.01378154
#
# Stress axis : x y z
#
# Youngs Moduli (GPa) = 84.26964 123.84302 88.19319
#
# Poissons Ratio (x) = 0.34483 0.32911
# Poissons Ratio (y) = 0.23464 0.19695
# Poissons Ratio (z) = 0.31447 0.27656
#
# Static dielectric constant tensor:
#      x y z
#    x 3.623800 0.000000 0.000000 
#    y 0.000000 4.172680 0.000000 
#    z 0.000000 0.000000 3.496130 
# 
# 
# High freq. dielectric constant tensor:
#      x y z
#    x 1.738810 0.000000 0.000000 
#    y 0.000000 1.754650 0.000000 
#    z 0.000000 0.000000 1.678720 
# 
# From -- ./inp_files/6789.got.cif
#   From: 2010.03.12/outbox.cif.g09.slc.cpg/sg53_4_cif.got.tgz:6789.got - 2010.04.16 14:36:59.
