data_PCOD8220688
_publ_section_title
;
Structure prediction by ZEFSAII (Michael W. Deem and Ramdas Pophale) SiO2 
 PCOD8220688
Probable space group: P M N A
;
_chemical_formula_sum "Si O2"
_cell_formula_units_Z 28
_cell_length_a 16.280929
_cell_length_b 4.992669
_cell_length_c 16.363709
_cell_angle_alpha 90.000000
_cell_angle_beta 90.000000
_cell_angle_gamma 90.000000
_cell_volume 1330.128824
_symmetry_space_group_name_H-M "P M N A"
_symmetry_group_IT_number 53
_symmetry_cell_setting 'orthorhombic'
loop_
_space_group_symop_operation_xyz
x,y,z
1/2-x,-y,1/2+z
x,-y,-z
1/2-x,y,1/2-z
-x,-y,-z
1/2+x,y,1/2-z
-x,y,z
1/2+x,-y,1/2+z
loop_
_atom_site_type_symbol
_atom_site_label
_atom_site_fract_x
_atom_site_fract_y
_atom_site_fract_z
Si Si1 0.174099 0.380479 0.409543
Si Si2 0.592014 0.742312 0.444405
Si Si3 0.500000 0.747203 0.941733
Si Si4 0.256847 0.875981 0.342570
O O1 0.181984 0.500000 0.500000
O O2 0.196001 0.621851 0.348819
O O3 0.082641 0.270310 0.387571
O O4 0.233300 0.124219 0.400985
O O5 0.626064 0.500000 0.500000
O O6 0.500000 0.676833 0.411558
O O7 0.651546 0.781928 0.366891
O O8 0.589809 0.000000 0.500000
O O9 0.500000 0.500000 0.000000
O O10 0.500000 0.000000 0.000000
O O11 0.250000 0.979275 0.250000
#
# Coordination Sequence:
#
# PCOD8220688 Si02
#       4
#     8   8   4   8
#     4  11  22  40  64  89 120 167 209 254 298 370
#     4  10  21  39  63  88 115 157 212 258 296 360
#     4  10  20  36  60  92 118 148 207 252 293 360
#     4  12  24  39  60  93 129 160 205 257 328 377
#
# _framework density 21.050595000000001
#
# number of rings (size 3 to 8) (size 9 to 14) (size 15 to 20)
#    0.000    1.143    0.000    9.429    0.000    0.000 
#    5.143    0.000    0.000    0.000    0.000    0.000 
#    0.000    0.000    0.000    0.000    0.000    0.000 
#
# Total GULP energy -347203.080328 kJ/mol
# GULP energy per Si atom -12400.110012 kJ/mol
# Density = 2.100268 g / cm^3
# Si number density = 21.050595 Si / 1000 Ang^3
#
#
#
# Elastic Constant Matrix: (Units=GPa)
#
#
# Indices 1 2 3 4 5 6 
#
# 1 142.7526 43.1405 61.3888 0.0000 0.0000 0.0000
# 2 43.1405 144.7913 21.1076 0.0000 0.0000 0.0000
# 3 61.3888 21.1076 83.2488 0.0000 0.0000 0.0000
# 4 0.0000 0.0000 0.0000 28.3556 0.0000 0.0000
# 5 0.0000 0.0000 0.0000 0.0000 19.4187 0.0000
# 6 0.0000 0.0000 0.0000 0.0000 0.0000 34.5839
#
#
#
# Elastic Compliance Matrix: (Units=1/GPa)
#
#
# Indices 1 2 3 4 5 6 
#
# 1 0.010866 -0.002149 -0.007468 0.000000 0.000000 0.000000
# 2 -0.002149 0.007597 -0.000341 0.000000 0.000000 0.000000
# 3 -0.007468 -0.000341 0.017606 0.000000 0.000000 0.000000
# 4 0.000000 0.000000 0.000000 0.035266 0.000000 0.000000
# 5 0.000000 0.000000 0.000000 0.000000 0.051497 0.000000
# 6 0.000000 0.000000 0.000000 0.000000 0.000000 0.028915
#
#
# Mechanical properties :
#
#
# Convention : Reuss Voigt Hill
#
# Bulk Modulus (GPa) = 61.91283 69.11849 65.51566
# Shear Modulus (GPa) = 28.24110 32.81536 30.52823
#
# Velocity S-wave (km/s) = 3.66673 3.95255 3.81232
# Velocity P-wave (km/s) = 6.88490 7.33048 7.11118
#
# Compressibility (1/GPa) = 0.01615174
#
# Stress axis : x y z
#
# Youngs Moduli (GPa) = 92.03028 131.63920 56.79977
#
# Poissons Ratio (x) = 0.28287 0.42417
# Poissons Ratio (y) = 0.19776 0.01940
# Poissons Ratio (z) = 0.68727 0.04495
#
# Static dielectric constant tensor:
#      x y z
#    x -3.802170 0.000000 0.000000 
#    y 0.000000 3.980460 0.000000 
#    z 0.000000 0.000000 3.319900 
# 
# 
# High freq. dielectric constant tensor:
#      x y z
#    x 1.842500 0.000000 0.000000 
#    y 0.000000 1.852120 0.000000 
#    z 0.000000 0.000000 1.777040 
# 
# From -- ./inp_files/27774.got.cif
#   From: 2010.03.12/outbox.cif.g09.slc.cpg/sg53_14_cif.got.tgz:27774.got - 2010.04.16 14:36:59.
