data_PCOD8220155
_publ_section_title
;
Structure prediction by ZEFSAII (Michael W. Deem and Ramdas Pophale) SiO2 
 PCOD8220155
Probable space group: P M N A
;
_chemical_formula_sum "Si O2"
_cell_formula_units_Z 64
_cell_length_a 14.417871
_cell_length_b 9.582569
_cell_length_c 24.403593
_cell_angle_alpha 90.000000
_cell_angle_beta 90.000000
_cell_angle_gamma 90.000000
_cell_volume 3371.606356
_symmetry_space_group_name_H-M "P M N A"
_symmetry_group_IT_number 53
_symmetry_cell_setting 'orthorhombic'
loop_
_space_group_symop_operation_xyz
x,y,z
1/2-x,-y,1/2+z
x,-y,-z
1/2-x,y,1/2-z
-x,-y,-z
1/2+x,y,1/2-z
-x,y,z
1/2+x,-y,1/2+z
loop_
_atom_site_type_symbol
_atom_site_label
_atom_site_fract_x
_atom_site_fract_y
_atom_site_fract_z
Si Si1 0.697316 0.125884 0.696086
Si Si2 0.606004 0.421294 0.224894
Si Si3 0.292236 0.514473 0.118847
Si Si4 0.389320 0.261085 0.063020
Si Si5 0.601497 0.885392 0.755918
Si Si6 0.854537 0.002399 0.630826
Si Si7 0.604953 0.406060 0.664773
Si Si8 0.399306 0.748753 0.062585
O O1 0.750000 0.185221 0.750000
O O2 0.654594 0.975775 0.711227
O O3 0.760334 0.085478 0.644300
O O4 0.624994 0.242622 0.676412
O O5 0.500000 0.409269 0.203341
O O6 0.667799 0.496700 0.179591
O O7 0.648203 0.266385 0.235268
O O8 0.611972 0.512022 0.278796
O O9 0.331771 0.399427 0.077686
O O10 0.179690 0.524720 0.122943
O O11 0.324208 0.662414 0.095822
O O12 0.500000 0.274666 0.075595
O O13 0.340894 0.142594 0.099246
O O14 0.368732 0.228945 0.999943
O O15 0.500000 0.858983 0.731723
O O16 0.593655 0.971593 0.812321
O O17 0.913362 0.101173 0.590960
O O18 0.500000 0.418395 0.640761
O O19 0.500000 0.672753 0.063702
#
# Coordination Sequence:
#
# PCOD8220155 Si02
#       8
#     8   8   8   8   8   8   8   8
#     4  10  21  36  55  86 116 156 196 236 282 340
#     4  10  21  35  57  88 122 157 191 231 284 351
#     4  12  22  38  61  85 118 157 194 236 291 344
#     4  11  23  39  60  89 123 152 188 237 290 353
#     4  10  20  34  55  86 121 156 193 231 280 342
#     4  11  21  36  58  86 119 158 188 228 287 346
#     4  11  24  40  58  84 116 154 200 245 287 336
#     4  11  23  38  59  88 120 154 193 234 286 354
#
# _framework density 18.982049
#
# number of rings (size 3 to 8) (size 9 to 14) (size 15 to 20)
#    0.000    1.250    2.500    4.500    3.500    3.000 
#    0.000    0.000    0.000    1.500    0.000    0.875 
#    0.000    0.000    0.000    0.000    0.000    0.000 
#
# Total GULP energy -793356.219227 kJ/mol
# GULP energy per Si atom -12396.190925 kJ/mol
# Density = 1.893885 g / cm^3
# Si number density = 18.982049 Si / 1000 Ang^3
#
#
#
# Elastic Constant Matrix: (Units=GPa)
#
#
# Indices 1 2 3 4 5 6 
#
# 1 106.5964 31.4086 36.8499 0.0000 0.0000 0.0000
# 2 31.4086 96.0020 31.3022 0.0000 0.0000 0.0000
# 3 36.8499 31.3022 61.3188 0.0000 0.0000 0.0000
# 4 0.0000 0.0000 0.0000 14.2695 0.0000 0.0000
# 5 0.0000 0.0000 0.0000 0.0000 19.0941 0.0000
# 6 0.0000 0.0000 0.0000 0.0000 0.0000 24.8831
#
#
#
# Elastic Compliance Matrix: (Units=1/GPa)
#
#
# Indices 1 2 3 4 5 6 
#
# 1 0.012126 -0.001909 -0.006313 0.000000 0.000000 0.000000
# 2 -0.001909 0.012797 -0.005385 0.000000 0.000000 0.000000
# 3 -0.006313 -0.005385 0.022851 0.000000 0.000000 0.000000
# 4 0.000000 0.000000 0.000000 0.070080 0.000000 0.000000
# 5 0.000000 0.000000 0.000000 0.000000 0.052372 0.000000
# 6 0.000000 0.000000 0.000000 0.000000 0.000000 0.040188
#
#
# Mechanical properties :
#
#
# Convention : Reuss Voigt Hill
#
# Bulk Modulus (GPa) = 48.63852 51.44872 50.04362
# Shear Modulus (GPa) = 20.45148 22.60643 21.52895
#
# Velocity S-wave (km/s) = 3.28596 3.45474 3.37140
# Velocity P-wave (km/s) = 6.33054 6.56326 6.44795
#
# Compressibility (1/GPa) = 0.02055983
#
# Stress axis : x y z
#
# Youngs Moduli (GPa) = 82.46815 78.14364 43.76164
#
# Poissons Ratio (x) = 0.14917 0.27625
# Poissons Ratio (y) = 0.15742 0.23568
# Poissons Ratio (z) = 0.52059 0.42084
#
# Static dielectric constant tensor:
#      x y z
#    x 3.575060 0.000000 0.000000 
#    y 0.000000 3.589150 0.000000 
#    z 0.000000 0.000000 3.411960 
# 
# 
# High freq. dielectric constant tensor:
#      x y z
#    x 1.726180 0.000000 0.000000 
#    y 0.000000 1.756560 0.000000 
#    z 0.000000 0.000000 1.716060 
# 
# From -- ./inp_files/35378.got.cif
#   From: 2010.03.12/outbox.cif.g09.slc.cpg/sg53_18_cif.got.tgz:35378.got - 2010.04.16 14:36:59.
