data_PCOD8220329
_publ_section_title
;
Structure prediction by ZEFSAII (Michael W. Deem and Ramdas Pophale) SiO2 
 PCOD8220329
Probable space group: P M N A
;
_chemical_formula_sum "Si O2"
_cell_formula_units_Z 48
_cell_length_a 8.754234
_cell_length_b 30.793356
_cell_length_c 9.100344
_cell_angle_alpha 90.000000
_cell_angle_beta 90.000000
_cell_angle_gamma 90.000000
_cell_volume 2453.200154
_symmetry_space_group_name_H-M "P M N A"
_symmetry_group_IT_number 53
_symmetry_cell_setting 'orthorhombic'
loop_
_space_group_symop_operation_xyz
x,y,z
1/2-x,-y,1/2+z
x,-y,-z
1/2-x,y,1/2-z
-x,-y,-z
1/2+x,y,1/2-z
-x,y,z
1/2+x,-y,1/2+z
loop_
_atom_site_type_symbol
_atom_site_label
_atom_site_fract_x
_atom_site_fract_y
_atom_site_fract_z
Si Si1 0.679732 0.796583 0.909006
Si Si2 0.819438 0.120311 0.589587
Si Si3 0.680183 0.540892 0.591241
Si Si4 0.823440 0.956700 0.907287
Si Si5 0.318851 0.376135 0.592132
Si Si6 0.681340 0.286177 0.908620
O O1 0.750000 0.803134 0.750000
O O2 0.500000 0.798360 0.890736
O O3 0.736154 0.834705 0.016819
O O4 0.732779 0.750946 0.978080
O O5 0.750000 0.115727 0.750000
O O6 0.764303 0.081703 0.487104
O O7 0.000000 0.118237 0.604333
O O8 0.743987 0.500000 0.500000
O O9 0.750000 0.538809 0.750000
O O10 0.500000 0.538240 0.604190
O O11 0.732226 0.585543 0.515640
O O12 0.750000 0.965126 0.750000
O O13 0.000000 0.943843 0.889269
O O14 0.802683 0.000000 0.000000
O O15 0.250000 0.387132 0.750000
O O16 0.500000 0.371729 0.605438
O O17 0.248954 0.331341 0.530294
O O18 0.750000 0.275029 0.750000
O O19 0.500000 0.289568 0.893934
#
# Coordination Sequence:
#
# PCOD8220329 Si02
#       6
#     8   8   8   8   8   8
#     4  10  23  39  57  83 114 149 188 232 281 334
#     4  11  23  40  62  88 117 151 193 238 287 340
#     4  10  22  38  56  80 109 142 181 224 272 326
#     4  11  24  41  62  89 121 156 194 237 285 338
#     4  10  20  35  56  82 110 142 182 225 272 326
#     4  10  20  36  57  82 111 145 185 226 274 329
#
# _framework density 19.566279999999999
#
# number of rings (size 3 to 8) (size 9 to 14) (size 15 to 20)
#    0.000    1.667    0.000    5.000    0.000    9.000 
#    0.000    3.333    0.000    0.000    0.000    0.000 
#    0.000    0.000    0.000    0.000    0.000    0.000 
#
# Total GULP energy -595396.568846 kJ/mol
# GULP energy per Si atom -12404.095184 kJ/mol
# Density = 1.952175 g / cm^3
# Si number density = 19.566280 Si / 1000 Ang^3
#
#
#
# Elastic Constant Matrix: (Units=GPa)
#
#
# Indices 1 2 3 4 5 6 
#
# 1 70.3944 49.1738 43.6766 0.0000 0.0000 0.0000
# 2 49.1738 134.6792 68.6559 0.0000 0.0000 0.0000
# 3 43.6766 68.6559 137.8063 0.0000 0.0000 0.0000
# 4 0.0000 0.0000 0.0000 47.5802 0.0000 0.0000
# 5 0.0000 0.0000 0.0000 0.0000 35.1777 0.0000
# 6 0.0000 0.0000 0.0000 0.0000 0.0000 32.6624
#
#
#
# Elastic Compliance Matrix: (Units=1/GPa)
#
#
# Indices 1 2 3 4 5 6 
#
# 1 0.020378 -0.005560 -0.003689 0.000000 0.000000 0.000000
# 2 -0.005560 0.011470 -0.003952 0.000000 0.000000 0.000000
# 3 -0.003689 -0.003952 0.010395 0.000000 0.000000 0.000000
# 4 0.000000 0.000000 0.000000 0.021017 0.000000 0.000000
# 5 0.000000 0.000000 0.000000 0.000000 0.028427 0.000000
# 6 0.000000 0.000000 0.000000 0.000000 0.000000 0.030616
#
#
# Mechanical properties :
#
#
# Convention : Reuss Voigt Hill
#
# Bulk Modulus (GPa) = 63.12730 73.98806 68.55768
# Shear Modulus (GPa) = 32.47063 35.17564 33.82314
#
# Velocity S-wave (km/s) = 4.07814 4.24461 4.16221
# Velocity P-wave (km/s) = 7.38298 7.86883 7.62977
#
# Compressibility (1/GPa) = 0.01584101
#
# Stress axis : x y z
#
# Youngs Moduli (GPa) = 49.07180 87.18527 96.20370
#
# Poissons Ratio (x) = 0.48476 0.35486
# Poissons Ratio (y) = 0.27284 0.38021
# Poissons Ratio (z) = 0.18101 0.34457
#
# Static dielectric constant tensor:
#      x y z
#    x 3.626850 0.000000 0.000000 
#    y 0.000000 3.958060 0.000000 
#    z 0.000000 0.000000 3.557120 
# 
# 
# High freq. dielectric constant tensor:
#      x y z
#    x 1.768670 0.000000 0.000000 
#    y 0.000000 1.782640 0.000000 
#    z 0.000000 0.000000 1.768670 
# 
# From -- ./inp_files/6681.got.cif
#   From: 2010.03.12/outbox.cif.g09.slc.cpg/sg53_4_cif.got.tgz:6681.got - 2010.04.16 14:36:59.
