data_PCOD8220341
_publ_section_title
;
Structure prediction by ZEFSAII (Michael W. Deem and Ramdas Pophale) SiO2 
 PCOD8220341
Probable space group: P M N A
;
_chemical_formula_sum "Si O2"
_cell_formula_units_Z 64
_cell_length_a 9.012237
_cell_length_b 17.264414
_cell_length_c 19.282656
_cell_angle_alpha 90.000000
_cell_angle_beta 90.000000
_cell_angle_gamma 90.000000
_cell_volume 3000.207549
_symmetry_space_group_name_H-M "P M N A"
_symmetry_group_IT_number 53
_symmetry_cell_setting 'orthorhombic'
loop_
_space_group_symop_operation_xyz
x,y,z
1/2-x,-y,1/2+z
x,-y,-z
1/2-x,y,1/2-z
-x,-y,-z
1/2+x,y,1/2-z
-x,y,z
1/2+x,-y,1/2+z
loop_
_atom_site_type_symbol
_atom_site_label
_atom_site_fract_x
_atom_site_fract_y
_atom_site_fract_z
Si Si1 0.170949 0.205921 0.822595
Si Si2 0.837130 0.795688 0.646384
Si Si3 0.674531 0.622274 0.820691
Si Si4 0.672537 0.416859 0.465536
Si Si5 0.163691 0.950263 0.088285
Si Si6 0.825399 0.292002 0.563084
Si Si7 0.669193 0.834407 0.517966
Si Si8 0.339808 0.040337 0.187752
O O1 0.250000 0.191993 0.750000
O O2 0.186869 0.128444 0.867908
O O3 0.249711 0.278864 0.861712
O O4 0.000000 0.228052 0.810636
O O5 0.797598 0.714708 0.681757
O O6 0.701842 0.822915 0.598194
O O7 0.847772 0.866984 0.699985
O O8 0.000000 0.787602 0.609412
O O9 0.750000 0.588830 0.750000
O O10 0.500000 0.601449 0.820682
O O11 0.749204 0.586449 0.889807
O O12 0.690079 0.500000 0.500000
O O13 0.500000 0.394049 0.455862
O O14 0.750865 0.360785 0.520001
O O15 0.000000 0.984462 0.099881
O O16 0.274293 0.017258 0.112870
O O17 0.186701 0.924362 0.007434
O O18 0.795238 0.214924 0.519713
O O19 0.000000 0.307771 0.571585
O O20 0.500000 0.806798 0.501028
O O21 0.250000 0.001019 0.250000
O O22 0.500000 0.001936 0.191805
#
# Coordination Sequence:
#
# PCOD8220341 Si02
#       8
#     8   8   8   8   8   8   8   8
#     4  10  20  35  56  84 117 156 205 258 312 369
#     4  10  22  38  57  85 118 155 200 251 308 364
#     4  11  23  41  67  97 130 168 209 254 305 364
#     4  11  24  43  68  98 130 164 203 247 298 360
#     4   9  20  36  53  77 110 151 200 252 309 367
#     4  11  21  36  60  89 122 158 199 246 297 361
#     4  10  20  35  58  84 112 151 197 247 302 362
#     4  11  23  37  53  75 108 151 199 251 311 370
#
# _framework density 21.331859000000001
#
# number of rings (size 3 to 8) (size 9 to 14) (size 15 to 20)
#    0.000    1.625    1.250    4.500    0.000    7.000 
#    0.000    3.125    0.000    3.000    0.000    0.000 
#    0.000    0.000    0.000    0.000    0.000    0.000 
#
# Total GULP energy -793087.491704 kJ/mol
# GULP energy per Si atom -12391.992058 kJ/mol
# Density = 2.128331 g / cm^3
# Si number density = 21.331859 Si / 1000 Ang^3
#
#
#
# Elastic Constant Matrix: (Units=GPa)
#
#
# Indices 1 2 3 4 5 6 
#
# 1 149.8332 21.0922 35.3700 0.0000 0.0000 0.0000
# 2 21.0922 42.2543 -13.7627 0.0000 0.0000 0.0000
# 3 35.3700 -13.7627 55.0124 0.0000 0.0000 0.0000
# 4 0.0000 0.0000 0.0000 17.2803 0.0000 0.0000
# 5 0.0000 0.0000 0.0000 0.0000 39.1954 0.0000
# 6 0.0000 0.0000 0.0000 0.0000 0.0000 21.7415
#
#
#
# Elastic Compliance Matrix: (Units=1/GPa)
#
#
# Indices 1 2 3 4 5 6 
#
# 1 0.009616 -0.007418 -0.008038 0.000000 0.000000 0.000000
# 2 -0.007418 0.031488 0.012647 0.000000 0.000000 0.000000
# 3 -0.008038 0.012647 0.026510 0.000000 0.000000 0.000000
# 4 0.000000 0.000000 0.000000 0.057869 0.000000 0.000000
# 5 0.000000 0.000000 0.000000 0.000000 0.025513 0.000000
# 6 0.000000 0.000000 0.000000 0.000000 0.000000 0.045995
#
#
# Mechanical properties :
#
#
# Convention : Reuss Voigt Hill
#
# Bulk Modulus (GPa) = 16.13023 36.94433 26.53728
# Shear Modulus (GPa) = 22.39383 29.27014 25.83198
#
# Velocity S-wave (km/s) = 3.24355 3.70825 3.48366
# Velocity P-wave (km/s) = 4.64817 5.97422 5.35242
#
# Compressibility (1/GPa) = 0.06199540
#
# Stress axis : x y z
#
# Youngs Moduli (GPa) = 103.99435 31.75765 37.72178
#
# Poissons Ratio (x) = 0.23558 0.30322
# Poissons Ratio (y) = 0.77145 -0.47707
# Poissons Ratio (z) = 0.83594 -0.40164
#
# Static dielectric constant tensor:
#      x y z
#    x 4.042530 0.000000 0.000000 
#    y 0.000000 3.718800 0.000000 
#    z 0.000000 0.000000 3.936780 
# 
# 
# High freq. dielectric constant tensor:
#      x y z
#    x 1.849340 0.000000 0.000000 
#    y 0.000000 1.811910 0.000000 
#    z 0.000000 0.000000 1.840220 
# 
# From -- ./inp_files/31235.got.cif
#   From: 2010.03.12/outbox.cif.g09.slc.cpg/sg53_16_cif.got.tgz:31235.got - 2010.04.16 14:36:59.
