data_PCOD8220959
_publ_section_title
;
Structure prediction by ZEFSAII (Michael W. Deem and Ramdas Pophale) SiO2 
 PCOD8220959
Probable space group: P M N A
;
_chemical_formula_sum "Si O2"
_cell_formula_units_Z 56
_cell_length_a 15.771885
_cell_length_b 17.898583
_cell_length_c 9.896678
_cell_angle_alpha 90.000000
_cell_angle_beta 90.000000
_cell_angle_gamma 90.000000
_cell_volume 2793.776706
_symmetry_space_group_name_H-M "P M N A"
_symmetry_group_IT_number 53
_symmetry_cell_setting 'orthorhombic'
loop_
_space_group_symop_operation_xyz
x,y,z
1/2-x,-y,1/2+z
x,-y,-z
1/2-x,y,1/2-z
-x,-y,-z
1/2+x,y,1/2-z
-x,y,z
1/2+x,-y,1/2+z
loop_
_atom_site_type_symbol
_atom_site_label
_atom_site_fract_x
_atom_site_fract_y
_atom_site_fract_z
Si Si1 0.099285 0.088960 0.728976
Si Si2 0.405433 0.679036 0.899264
Si Si3 0.748532 0.572637 0.909183
Si Si4 0.594532 0.325083 0.412608
Si Si5 0.843902 0.166884 0.467364
Si Si6 0.401842 0.922272 0.720323
Si Si7 0.151145 0.173524 0.979115
O O1 0.122629 0.107020 0.575069
O O2 0.000000 0.094277 0.753740
O O3 0.132866 0.006451 0.765624
O O4 0.145204 0.149149 0.823724
O O5 0.500000 0.646264 0.925926
O O6 0.334715 0.620461 0.947018
O O7 0.391339 0.698199 0.742318
O O8 0.397333 0.756819 0.979512
O O9 0.750000 0.552327 0.750000
O O10 0.834230 0.615157 0.954098
O O11 0.743129 0.500000 0.000000
O O12 0.500000 0.359362 0.434486
O O13 0.600461 0.250328 0.501223
O O14 0.850313 0.130622 0.320380
O O15 0.747473 0.189849 0.485994
O O16 0.500000 0.918848 0.760948
O O17 0.388090 0.893437 0.568385
#
# Coordination Sequence:
#
# PCOD8220959 Si02
#       7
#     8   8   8   8   8   8   8
#     4  11  25  41  55  83 125 166 207 263 323 367
#     4  10  20  38  65  92 122 164 208 246 293 362
#     4  10  22  42  66  96 125 155 196 244 299 365
#     4  10  20  38  65  92 122 164 208 246 293 362
#     4  12  23  38  61  89 121 160 213 262 308 366
#     4  11  23  39  61  85 117 164 215 261 311 371
#     4  12  23  38  61  89 121 160 213 262 308 366
#
# _framework density 20.044550999999998
#
# number of rings (size 3 to 8) (size 9 to 14) (size 15 to 20)
#    0.000    1.143    2.857    4.286    0.000    6.286 
#    2.571    0.000    0.000    0.000    0.000    0.000 
#    0.000    0.000    0.000    0.000    0.000    0.000 
#
# Total GULP energy -694707.077600 kJ/mol
# GULP energy per Si atom -12405.483529 kJ/mol
# Density = 1.999893 g / cm^3
# Si number density = 20.044551 Si / 1000 Ang^3
#
#
#
# Elastic Constant Matrix: (Units=GPa)
#
#
# Indices 1 2 3 4 5 6 
#
# 1 129.8129 46.4004 12.3651 0.0000 0.0000 0.0000
# 2 46.4004 126.7327 34.2923 0.0000 0.0000 0.0000
# 3 12.3651 34.2923 56.4769 0.0000 0.0000 0.0000
# 4 0.0000 0.0000 0.0000 35.4328 0.0000 0.0000
# 5 0.0000 0.0000 0.0000 0.0000 30.9209 0.0000
# 6 0.0000 0.0000 0.0000 0.0000 0.0000 25.7953
#
#
#
# Elastic Compliance Matrix: (Units=1/GPa)
#
#
# Indices 1 2 3 4 5 6 
#
# 1 0.008863 -0.003255 0.000036 0.000000 0.000000 0.000000
# 2 -0.003255 0.010637 -0.005746 0.000000 0.000000 0.000000
# 3 0.000036 -0.005746 0.021188 0.000000 0.000000 0.000000
# 4 0.000000 0.000000 0.000000 0.028222 0.000000 0.000000
# 5 0.000000 0.000000 0.000000 0.000000 0.032341 0.000000
# 6 0.000000 0.000000 0.000000 0.000000 0.000000 0.038767
#
#
# Mechanical properties :
#
#
# Convention : Reuss Voigt Hill
#
# Bulk Modulus (GPa) = 43.94137 55.45980 49.70058
# Shear Modulus (GPa) = 30.20522 33.09410 31.64966
#
# Velocity S-wave (km/s) = 3.88610 4.06769 3.97793
# Velocity P-wave (km/s) = 6.48885 7.05619 6.77846
#
# Compressibility (1/GPa) = 0.02275760
#
# Stress axis : x y z
#
# Youngs Moduli (GPa) = 112.82363 94.01017 47.19747
#
# Poissons Ratio (x) = 0.30598 -0.00169
# Poissons Ratio (y) = 0.36722 0.27121
# Poissons Ratio (z) = -0.00403 0.54020
#
# Static dielectric constant tensor:
#      x y z
#    x 3.800100 0.000000 0.000000 
#    y 0.000000 3.474960 0.000000 
#    z 0.000000 0.000000 3.474660 
# 
# 
# High freq. dielectric constant tensor:
#      x y z
#    x 1.800750 0.000000 0.000000 
#    y 0.000000 1.770220 0.000000 
#    z 0.000000 0.000000 1.766960 
# 
# From -- ./inp_files/8863.got.cif
#   From: 2010.03.12/outbox.cif.g09.slc.cpg/sg53_5_cif.got.tgz:8863.got - 2010.04.16 14:36:59.
