data_PCOD8220760
_publ_section_title
;
Structure prediction by ZEFSAII (Michael W. Deem and Ramdas Pophale) SiO2 
 PCOD8220760
Probable space group: P M N A
;
_chemical_formula_sum "Si O2"
_cell_formula_units_Z 48
_cell_length_a 8.729294
_cell_length_b 30.504591
_cell_length_c 9.064334
_cell_angle_alpha 90.000000
_cell_angle_beta 90.000000
_cell_angle_gamma 90.000000
_cell_volume 2413.682974
_symmetry_space_group_name_H-M "P M N A"
_symmetry_group_IT_number 53
_symmetry_cell_setting 'orthorhombic'
loop_
_space_group_symop_operation_xyz
x,y,z
1/2-x,-y,1/2+z
x,-y,-z
1/2-x,y,1/2-z
-x,-y,-z
1/2+x,y,1/2-z
-x,y,z
1/2+x,-y,1/2+z
loop_
_atom_site_type_symbol
_atom_site_label
_atom_site_fract_x
_atom_site_fract_y
_atom_site_fract_z
Si Si1 0.177667 0.121381 0.089703
Si Si2 0.818461 0.714079 0.590092
Si Si3 0.822198 0.460700 0.906157
Si Si4 0.180619 0.042733 0.589506
Si Si5 0.320284 0.362510 0.588394
Si Si6 0.321592 0.791520 0.407200
O O1 0.250000 0.121894 0.250000
O O2 0.000000 0.109494 0.102812
O O3 0.258746 0.085604 0.990051
O O4 0.204799 0.168300 0.016808
O O5 0.750000 0.724718 0.750000
O O6 0.761187 0.667175 0.533445
O O7 0.764591 0.749841 0.472595
O O8 0.000000 0.714422 0.602361
O O9 0.750000 0.464643 0.750000
O O10 0.790236 0.412041 0.969407
O O11 0.000000 0.469297 0.888985
O O12 0.746777 0.500000 0.000000
O O13 0.250000 0.038941 0.750000
O O14 0.000000 0.046243 0.602994
O O15 0.232648 0.000000 0.500000
O O16 0.250000 0.354378 0.750000
O O17 0.500000 0.351598 0.597016
O O18 0.250000 0.803784 0.250000
O O19 0.500000 0.780412 0.388043
#
# Coordination Sequence:
#
# PCOD8220760 Si02
#       6
#     8   8   8   8   8   8
#     4  11  24  41  64  92 124 160 199 246 297 351
#     4  12  25  41  61  86 117 152 192 239 291 346
#     4   9  19  35  55  81 112 147 188 233 282 338
#     4  11  24  41  63  91 124 162 204 250 299 353
#     4  10  20  37  59  83 114 151 192 237 286 342
#     4  11  24  42  64  91 121 156 197 240 290 347
#
# _framework density 19.886623
#
# number of rings (size 3 to 8) (size 9 to 14) (size 15 to 20)
#    0.000    1.333    0.000    5.500    0.000    9.667 
#    0.000    1.667    0.000    0.000    0.000    0.000 
#    0.000    0.000    0.000    0.000    0.000    0.000 
#
# Total GULP energy -595372.329353 kJ/mol
# GULP energy per Si atom -12403.590195 kJ/mol
# Density = 1.984136 g / cm^3
# Si number density = 19.886623 Si / 1000 Ang^3
#
#
#
# Elastic Constant Matrix: (Units=GPa)
#
#
# Indices 1 2 3 4 5 6 
#
# 1 104.7342 55.6766 59.8644 0.0000 0.0000 0.0000
# 2 55.6766 111.8486 43.9089 0.0000 0.0000 0.0000
# 3 59.8644 43.9089 116.5290 0.0000 0.0000 0.0000
# 4 0.0000 0.0000 0.0000 -2.8244 0.0000 0.0000
# 5 0.0000 0.0000 0.0000 0.0000 36.8873 0.0000
# 6 0.0000 0.0000 0.0000 0.0000 0.0000 37.4028
#
#
#
# Elastic Compliance Matrix: (Units=1/GPa)
#
#
# Indices 1 2 3 4 5 6 
#
# 1 0.016008 -0.005563 -0.006127 0.000000 0.000000 0.000000
# 2 -0.005563 0.012426 -0.001824 0.000000 0.000000 0.000000
# 3 -0.006127 -0.001824 0.012417 0.000000 0.000000 0.000000
# 4 0.000000 0.000000 0.000000 -0.354063 0.000000 0.000000
# 5 0.000000 0.000000 0.000000 0.000000 0.027110 0.000000
# 6 0.000000 0.000000 0.000000 0.000000 0.000000 0.026736
#
#
# Mechanical properties :
#
#
# Convention : Reuss Voigt Hill
#
# Bulk Modulus (GPa) = 72.35360 72.44576 72.39968
# Shear Modulus (GPa) = -21.95571 25.87061 1.95745
#
# Velocity S-wave (km/s) = -3.32632 3.61072 0.99320
# Velocity P-wave (km/s) = 4.65934 7.34109 6.14821
#
# Compressibility (1/GPa) = 0.01382101
#
# Stress axis : x y z
#
# Youngs Moduli (GPa) = 62.47065 80.47664 80.53578
#
# Poissons Ratio (x) = 0.44768 0.49348
# Poissons Ratio (y) = 0.34751 0.14693
# Poissons Ratio (z) = 0.38278 0.14682
#
# Static dielectric constant tensor:
#      x y z
#    x 3.808610 0.000000 0.000000 
#    y 0.000000 4.398840 0.000000 
#    z 0.000000 0.000000 4.048130 
# 
# 
# High freq. dielectric constant tensor:
#      x y z
#    x 1.790010 0.000000 0.000000 
#    y 0.000000 1.794920 0.000000 
#    z 0.000000 0.000000 1.783470 
# 
# From -- ./inp_files/6567.got.cif
#   From: 2010.03.12/outbox.cif.g09.slc.cpg/sg53_4_cif.got.tgz:6567.got - 2010.04.16 14:36:59.
