data_PCOD8220974
_publ_section_title
;
Structure prediction by ZEFSAII (Michael W. Deem and Ramdas Pophale) SiO2 
 PCOD8220974
Probable space group: P M N A
;
_chemical_formula_sum "Si O2"
_cell_formula_units_Z 44
_cell_length_a 25.635379
_cell_length_b 14.023109
_cell_length_c 5.933674
_cell_angle_alpha 90.000000
_cell_angle_beta 90.000000
_cell_angle_gamma 90.000000
_cell_volume 2133.082902
_symmetry_space_group_name_H-M "P M N A"
_symmetry_group_IT_number 53
_symmetry_cell_setting 'orthorhombic'
loop_
_space_group_symop_operation_xyz
x,y,z
1/2-x,-y,1/2+z
x,-y,-z
1/2-x,y,1/2-z
-x,-y,-z
1/2+x,y,1/2-z
-x,y,z
1/2+x,-y,1/2+z
loop_
_atom_site_type_symbol
_atom_site_label
_atom_site_fract_x
_atom_site_fract_y
_atom_site_fract_z
Si Si1 0.858275 0.228853 0.304419
Si Si2 0.102142 0.394351 0.056048
Si Si3 0.201200 0.899328 0.392606
Si Si4 0.896883 0.900510 0.075931
Si Si5 0.000000 0.449534 0.252054
Si Si6 0.941071 0.734660 0.321904
O O1 0.851628 0.328298 0.162947
O O2 0.807634 0.191344 0.439078
O O3 0.907924 0.244077 0.460510
O O4 0.869736 0.142501 0.140717
O O5 0.054356 0.391609 0.238628
O O6 0.123759 0.500000 0.000000
O O7 0.083108 0.352993 0.817092
O O8 0.250000 0.862770 0.250000
O O9 0.148287 0.918257 0.257847
O O10 0.217781 0.000000 0.500000
O O11 0.941481 0.830120 0.168114
O O12 0.923053 0.000000 0.000000
O O13 0.000000 0.500000 0.500000
O O14 0.000000 0.500000 0.000000
O O15 0.000000 0.707718 0.392179
#
# Coordination Sequence:
#
# PCOD8220974 Si02
#       6
#     8   8   8   8   4   8
#     4  10  23  36  57  85 130 157 198 265 304 383
#     4  10  22  36  57  85 125 169 216 263 315 372
#     4  11  22  37  64  93 119 148 187 251 330 394
#     4  10  20  39  56  81 121 158 203 246 301 377
#     4  10  22  34  58  92 122 169 230 283 324 372
#     4  10  22  36  53  85 122 166 215 256 308 361
#
# _framework density 20.627420999999998
#
# number of rings (size 3 to 8) (size 9 to 14) (size 15 to 20)
#    0.000    1.818    2.727    0.545    6.364    1.091 
#    0.000    0.909    0.000    0.000    0.000    0.000 
#  196.364    0.000    0.000    0.000    0.000    0.000 
#
# Total GULP energy -545126.121528 kJ/mol
# GULP energy per Si atom -12389.230035 kJ/mol
# Density = 2.058047 g / cm^3
# Si number density = 20.627421 Si / 1000 Ang^3
#
#
#
# Elastic Constant Matrix: (Units=GPa)
#
#
# Indices 1 2 3 4 5 6 
#
# 1 49.9131 18.5309 6.9069 0.0000 0.0000 0.0000
# 2 18.5309 147.6218 23.4701 0.0000 0.0000 0.0000
# 3 6.9069 23.4701 71.4571 0.0000 0.0000 0.0000
# 4 0.0000 0.0000 0.0000 18.8399 0.0000 0.0000
# 5 0.0000 0.0000 0.0000 0.0000 32.6381 0.0000
# 6 0.0000 0.0000 0.0000 0.0000 0.0000 15.0130
#
#
#
# Elastic Compliance Matrix: (Units=1/GPa)
#
#
# Indices 1 2 3 4 5 6 
#
# 1 0.021117 -0.002454 -0.001235 0.000000 0.000000 0.000000
# 2 -0.002454 0.007433 -0.002204 0.000000 0.000000 0.000000
# 3 -0.001235 -0.002204 0.014838 0.000000 0.000000 0.000000
# 4 0.000000 0.000000 0.000000 0.053079 0.000000 0.000000
# 5 0.000000 0.000000 0.000000 0.000000 0.030639 0.000000
# 6 0.000000 0.000000 0.000000 0.000000 0.000000 0.066609
#
#
# Mechanical properties :
#
#
# Convention : Reuss Voigt Hill
#
# Bulk Modulus (GPa) = 31.64516 40.75643 36.20079
# Shear Modulus (GPa) = 23.14445 27.97046 25.55745
#
# Velocity S-wave (km/s) = 3.35330 3.68636 3.52377
# Velocity P-wave (km/s) = 5.51066 6.15795 5.84327
#
# Compressibility (1/GPa) = 0.03160041
#
# Stress axis : x y z
#
# Youngs Moduli (GPa) = 47.35533 134.54276 67.39595
#
# Poissons Ratio (x) = 0.33023 0.08323
# Poissons Ratio (y) = 0.11623 0.14854
# Poissons Ratio (z) = 0.05848 0.29653
#
# Static dielectric constant tensor:
#      x y z
#    x 3.592670 0.000000 0.000000 
#    y 0.000000 4.189110 0.000000 
#    z 0.000000 0.000000 3.963500 
# 
# 
# High freq. dielectric constant tensor:
#      x y z
#    x 1.755870 0.000000 0.000000 
#    y 0.000000 1.816010 0.000000 
#    z 0.000000 0.000000 1.832940 
# 
# From -- ./inp_files/4416.got.cif
#   From: 2010.03.12/outbox.cif.g09.slc.cpg/sg53_3_cif.got.tgz:4416.got - 2010.04.16 14:36:59.
