data_PCOD8220658
_publ_section_title
;
Structure prediction by ZEFSAII (Michael W. Deem and Ramdas Pophale) SiO2 
 PCOD8220658
Probable space group: P M N A
;
_chemical_formula_sum "Si O2"
_cell_formula_units_Z 64
_cell_length_a 19.802904
_cell_length_b 18.353982
_cell_length_c 9.058519
_cell_angle_alpha 90.000000
_cell_angle_beta 90.000000
_cell_angle_gamma 90.000000
_cell_volume 3292.428733
_symmetry_space_group_name_H-M "P M N A"
_symmetry_group_IT_number 53
_symmetry_cell_setting 'orthorhombic'
loop_
_space_group_symop_operation_xyz
x,y,z
1/2-x,-y,1/2+z
x,-y,-z
1/2-x,y,1/2-z
-x,-y,-z
1/2+x,y,1/2-z
-x,y,z
1/2+x,-y,1/2+z
loop_
_atom_site_type_symbol
_atom_site_label
_atom_site_fract_x
_atom_site_fract_y
_atom_site_fract_z
Si Si1 0.923763 0.342769 0.690999
Si Si2 0.426506 0.851862 0.696351
Si Si3 0.681944 0.977888 0.664314
Si Si4 0.631266 0.221368 0.024205
Si Si5 0.617967 0.247304 0.546134
Si Si6 0.299760 0.561970 0.119731
Si Si7 0.745328 0.683798 0.587295
Si Si8 0.828705 0.127432 0.736076
O O1 0.907721 0.284704 0.563233
O O2 0.920448 0.305566 0.851995
O O3 0.871622 0.410537 0.683777
O O4 0.000000 0.372298 0.668343
O O5 0.500000 0.890006 0.709315
O O6 0.368217 0.909883 0.667116
O O7 0.414719 0.805013 0.842827
O O8 0.432584 0.795839 0.559588
O O9 0.750000 0.955274 0.750000
O O10 0.703783 0.000000 0.500000
O O11 0.640730 0.047187 0.732129
O O12 0.702920 0.249134 0.083844
O O13 0.645585 0.151068 0.923680
O O14 0.670511 0.287918 0.440157
O O15 0.655775 0.189996 0.648450
O O16 0.250000 0.533783 0.250000
O O17 0.314340 0.500000 0.000000
O O18 0.261616 0.628076 0.042280
O O19 0.750000 0.647221 0.750000
O O20 0.750000 0.113333 0.750000
#
# Coordination Sequence:
#
# PCOD8220658 Si02
#       8
#     8   8   8   8   8   8   8   8
#     4  10  22  41  64  93 130 169 207 246 302 370
#     4  12  26  41  59  88 125 163 204 258 318 375
#     4  11  26  42  61  86 116 158 212 262 316 381
#     4  10  22  35  63  90 122 156 206 261 312 365
#     4  11  20  37  64  91 120 161 204 261 309 365
#     4  11  23  41  65  97 132 165 206 251 300 358
#     4  11  20  35  63  99 120 155 207 260 309 355
#     4  10  20  36  59  87 117 152 202 266 319 370
#
# _framework density 19.438538000000001
#
# number of rings (size 3 to 8) (size 9 to 14) (size 15 to 20)
#    0.000    1.250    5.000    1.125    5.250    0.500 
#    0.000    1.875    0.000    0.375    0.000    0.000 
#    0.000    0.000    0.000    0.000    0.000    0.000 
#
# Total GULP energy -793570.170755 kJ/mol
# GULP energy per Si atom -12399.533918 kJ/mol
# Density = 1.939429 g / cm^3
# Si number density = 19.438538 Si / 1000 Ang^3
#
#
#
# Elastic Constant Matrix: (Units=GPa)
#
#
# Indices 1 2 3 4 5 6 
#
# 1 114.1132 36.3877 31.6754 0.0000 0.0000 0.0000
# 2 36.3877 80.3890 31.1128 0.0000 0.0000 0.0000
# 3 31.6754 31.1128 114.2366 0.0000 0.0000 0.0000
# 4 0.0000 0.0000 0.0000 35.7328 0.0000 0.0000
# 5 0.0000 0.0000 0.0000 0.0000 15.9709 0.0000
# 6 0.0000 0.0000 0.0000 0.0000 0.0000 10.0041
#
#
#
# Elastic Compliance Matrix: (Units=1/GPa)
#
#
# Indices 1 2 3 4 5 6 
#
# 1 0.010569 -0.004080 -0.001819 0.000000 0.000000 0.000000
# 2 -0.004080 0.015480 -0.003085 0.000000 0.000000 0.000000
# 3 -0.001819 -0.003085 0.010098 0.000000 0.000000 0.000000
# 4 0.000000 0.000000 0.000000 0.027985 0.000000 0.000000
# 5 0.000000 0.000000 0.000000 0.000000 0.062614 0.000000
# 6 0.000000 0.000000 0.000000 0.000000 0.000000 0.099959
#
#
# Mechanical properties :
#
#
# Convention : Reuss Voigt Hill
#
# Bulk Modulus (GPa) = 55.00714 56.34341 55.67528
# Shear Modulus (GPa) = 19.94145 26.31242 23.12693
#
# Velocity S-wave (km/s) = 3.20640 3.68315 3.45301
# Velocity P-wave (km/s) = 6.48594 6.86555 6.67844
#
# Compressibility (1/GPa) = 0.01817946
#
# Stress axis : x y z
#
# Youngs Moduli (GPa) = 94.61399 64.59866 99.02538
#
# Poissons Ratio (x) = 0.26356 0.18017
# Poissons Ratio (y) = 0.38602 0.30547
# Poissons Ratio (z) = 0.17214 0.19927
#
# Static dielectric constant tensor:
#      x y z
#    x 3.348420 0.000000 0.000000 
#    y 0.000000 3.514960 0.000000 
#    z 0.000000 0.000000 3.759290 
# 
# 
# High freq. dielectric constant tensor:
#      x y z
#    x 1.744740 0.000000 0.000000 
#    y 0.000000 1.744190 0.000000 
#    z 0.000000 0.000000 1.774140 
# 
# From -- ./inp_files/11179.got.cif
#   From: 2010.03.12/outbox.cif.g09.slc.cpg/sg53_6_cif.got.tgz:11179.got - 2010.04.16 14:36:59.
