data_PCOD8220160
_publ_section_title
;
Structure prediction by ZEFSAII (Michael W. Deem and Ramdas Pophale) SiO2 
 PCOD8220160
Probable space group: P M N A
;
_chemical_formula_sum "Si O2"
_cell_formula_units_Z 36
_cell_length_a 14.739537
_cell_length_b 8.869248
_cell_length_c 15.355967
_cell_angle_alpha 90.000000
_cell_angle_beta 90.000000
_cell_angle_gamma 90.000000
_cell_volume 2007.464207
_symmetry_space_group_name_H-M "P M N A"
_symmetry_group_IT_number 53
_symmetry_cell_setting 'orthorhombic'
loop_
_space_group_symop_operation_xyz
x,y,z
1/2-x,-y,1/2+z
x,-y,-z
1/2-x,y,1/2-z
-x,-y,-z
1/2+x,y,1/2-z
-x,y,z
1/2+x,-y,1/2+z
loop_
_atom_site_type_symbol
_atom_site_label
_atom_site_fract_x
_atom_site_fract_y
_atom_site_fract_z
Si Si1 0.303263 0.153198 0.169701
Si Si2 0.301991 0.894466 0.415530
Si Si3 0.500000 0.850925 0.059256
Si Si4 0.000000 0.061645 0.901527
Si Si5 0.177556 0.322561 0.503340
Si Si6 0.000000 0.944095 0.715320
O O1 0.250000 0.228750 0.250000
O O2 0.410318 0.144068 0.186662
O O3 0.255684 0.989361 0.155109
O O4 0.291055 0.266202 0.090468
O O5 0.405040 0.850321 0.387395
O O6 0.255199 0.732862 0.430088
O O7 0.303034 0.000000 0.500000
O O8 0.414335 0.751290 0.036175
O O9 0.500000 0.896438 0.161921
O O10 0.500000 0.000000 0.000000
O O11 0.000000 0.945534 0.820580
O O12 0.000000 0.000000 0.000000
O O13 0.168103 0.500000 0.500000
#
# Coordination Sequence:
#
# PCOD8220160 Si02
#       6
#     8   8   4   4   8   4
#     4  11  20  35  58  88 115 150 200 249 288 345
#     4   9  18  34  56  80 110 149 195 242 286 339
#     4  12  19  36  61  90 119 143 196 253 298 352
#     4  10  20  34  55  89 114 144 196 254 292 327
#     4  11  22  37  57  86 125 160 186 234 312 370
#     4  12  20  32  60  93 113 142 192 256 298 337
#
# _framework density 17.933071999999999
#
# number of rings (size 3 to 8) (size 9 to 14) (size 15 to 20)
#    0.000    1.333    6.667    1.000    0.000    0.000 
#    0.000    3.889    0.000    0.000    0.000    0.000 
#    0.000    0.000    0.000    0.000    0.000    0.000 
#
# Total GULP energy -445989.140262 kJ/mol
# GULP energy per Si atom -12388.587229 kJ/mol
# Density = 1.789226 g / cm^3
# Si number density = 17.933072 Si / 1000 Ang^3
#
#
#
# Elastic Constant Matrix: (Units=GPa)
#
#
# Indices 1 2 3 4 5 6 
#
# 1 165.8946 45.4535 18.9374 0.0000 0.0000 0.0000
# 2 45.4535 105.2186 23.7348 0.0000 0.0000 0.0000
# 3 18.9374 23.7348 92.6782 0.0000 0.0000 0.0000
# 4 0.0000 0.0000 0.0000 14.9691 0.0000 0.0000
# 5 0.0000 0.0000 0.0000 0.0000 32.8392 0.0000
# 6 0.0000 0.0000 0.0000 0.0000 0.0000 3.6856
#
#
#
# Elastic Compliance Matrix: (Units=1/GPa)
#
#
# Indices 1 2 3 4 5 6 
#
# 1 0.006878 -0.002817 -0.000684 0.000000 0.000000 0.000000
# 2 -0.002817 0.011240 -0.002303 0.000000 0.000000 0.000000
# 3 -0.000684 -0.002303 0.011520 0.000000 0.000000 0.000000
# 4 0.000000 0.000000 0.000000 0.066804 0.000000 0.000000
# 5 0.000000 0.000000 0.000000 0.000000 0.030451 0.000000
# 6 0.000000 0.000000 0.000000 0.000000 0.000000 0.271323
#
#
# Mechanical properties :
#
#
# Convention : Reuss Voigt Hill
#
# Bulk Modulus (GPa) = 55.46321 60.00477 57.73399
# Shear Modulus (GPa) = 12.02403 28.67650 20.35027
#
# Velocity S-wave (km/s) = 2.59220 4.00319 3.37232
# Velocity P-wave (km/s) = 6.32095 7.40948 6.88676
#
# Compressibility (1/GPa) = 0.01802997
#
# Stress axis : x y z
#
# Youngs Moduli (GPa) = 145.39548 88.96475 86.80856
#
# Poissons Ratio (x) = 0.25060 0.05938
# Poissons Ratio (y) = 0.40956 0.19993
# Poissons Ratio (z) = 0.09945 0.20489
#
# Static dielectric constant tensor:
#      x y z
#    x 3.823700 0.000000 0.000000 
#    y 0.000000 2.877770 0.000000 
#    z 0.000000 0.000000 3.619360 
# 
# 
# High freq. dielectric constant tensor:
#      x y z
#    x 1.725370 0.000000 0.000000 
#    y 0.000000 1.631760 0.000000 
#    z 0.000000 0.000000 1.705640 
# 
# From -- ./inp_files/22340.got.cif
#   From: 2010.03.12/outbox.cif.g09.slc.cpg/sg53_12_cif.got.tgz:22340.got - 2010.04.16 14:36:59.
