data_PCOD8220980
_publ_section_title
;
Structure prediction by ZEFSAII (Michael W. Deem and Ramdas Pophale) SiO2 
 PCOD8220980
Probable space group: P M N A
;
_chemical_formula_sum "Si O2"
_cell_formula_units_Z 56
_cell_length_a 9.200990
_cell_length_b 14.634830
_cell_length_c 20.205659
_cell_angle_alpha 90.000000
_cell_angle_beta 90.000000
_cell_angle_gamma 90.000000
_cell_volume 2720.791487
_symmetry_space_group_name_H-M "P M N A"
_symmetry_group_IT_number 53
_symmetry_cell_setting 'orthorhombic'
loop_
_space_group_symop_operation_xyz
x,y,z
1/2-x,-y,1/2+z
x,-y,-z
1/2-x,y,1/2-z
-x,-y,-z
1/2+x,y,1/2-z
-x,y,z
1/2+x,-y,1/2+z
loop_
_atom_site_type_symbol
_atom_site_label
_atom_site_fract_x
_atom_site_fract_y
_atom_site_fract_z
Si Si1 0.837947 0.988124 0.693960
Si Si2 0.333431 0.896998 0.017655
Si Si3 0.672692 0.656599 0.680237
Si Si4 0.171588 0.502763 0.924114
Si Si5 0.339714 0.185486 0.116654
Si Si6 0.670357 0.359051 0.683588
Si Si7 0.829949 0.155687 0.856374
O O1 0.750000 0.932328 0.750000
O O2 0.755309 0.083007 0.686803
O O3 0.000000 0.010792 0.716986
O O4 0.833310 0.923339 0.630786
O O5 0.500000 0.900782 0.044550
O O6 0.222737 0.854777 0.069225
O O7 0.317505 0.819028 0.961512
O O8 0.283927 0.000000 0.000000
O O9 0.750000 0.631170 0.750000
O O10 0.500000 0.653850 0.691688
O O11 0.722195 0.589715 0.620216
O O12 0.719442 0.757338 0.655914
O O13 0.221964 0.414598 0.881748
O O14 0.000000 0.505479 0.931481
O O15 0.237439 0.500000 0.000000
O O16 0.500000 0.223780 0.136161
O O17 0.750000 0.394625 0.750000
O O18 0.500000 0.374964 0.694909
O O19 0.711552 0.254629 0.671236
O O20 0.000000 0.137159 0.852829
#
# Coordination Sequence:
#
# PCOD8220980 Si02
#       7
#     8   8   8   8   8   8   8
#     4  11  22  38  57  80 115 158 200 245 297 355
#     4  10  20  39  60  82 116 162 202 244 306 359
#     4  11  23  39  65  93 121 159 200 249 303 359
#     4   9  20  40  65  91 121 157 196 243 301 361
#     4  10  22  39  60  85 119 158 199 245 298 361
#     4  10  22  40  63  90 121 158 200 246 299 359
#     4  11  23  36  57  89 119 154 202 250 295 355
#
# _framework density 20.582246000000001
#
# number of rings (size 3 to 8) (size 9 to 14) (size 15 to 20)
#    0.000    1.714    1.429    2.571    2.000    5.429 
#    0.000    0.714    0.000    2.143    0.000    0.000 
#    0.000    0.000    0.000    0.000    0.000    0.000 
#
# Total GULP energy -694003.774098 kJ/mol
# GULP energy per Si atom -12392.924537 kJ/mol
# Density = 2.053540 g / cm^3
# Si number density = 20.582246 Si / 1000 Ang^3
#
#
#
# Elastic Constant Matrix: (Units=GPa)
#
#
# Indices 1 2 3 4 5 6 
#
# 1 85.6071 42.8618 47.3431 0.0000 0.0000 0.0000
# 2 42.8618 93.6425 48.9714 0.0000 0.0000 0.0000
# 3 47.3431 48.9714 146.7011 0.0000 0.0000 0.0000
# 4 0.0000 0.0000 0.0000 27.9219 0.0000 0.0000
# 5 0.0000 0.0000 0.0000 0.0000 36.4072 0.0000
# 6 0.0000 0.0000 0.0000 0.0000 0.0000 11.5879
#
#
#
# Elastic Compliance Matrix: (Units=1/GPa)
#
#
# Indices 1 2 3 4 5 6 
#
# 1 0.016432 -0.005752 -0.003383 0.000000 0.000000 0.000000
# 2 -0.005752 0.014951 -0.003135 0.000000 0.000000 0.000000
# 3 -0.003383 -0.003135 0.008955 0.000000 0.000000 0.000000
# 4 0.000000 0.000000 0.000000 0.035814 0.000000 0.000000
# 5 0.000000 0.000000 0.000000 0.000000 0.027467 0.000000
# 6 0.000000 0.000000 0.000000 0.000000 0.000000 0.086297
#
#
# Mechanical properties :
#
#
# Convention : Reuss Voigt Hill
#
# Bulk Modulus (GPa) = 63.29636 67.14481 65.22058
# Shear Modulus (GPa) = 22.75614 27.63502 25.19558
#
# Velocity S-wave (km/s) = 3.32869 3.66821 3.50257
# Velocity P-wave (km/s) = 6.75228 7.11580 6.93642
#
# Compressibility (1/GPa) = 0.01579870
#
# Stress axis : x y z
#
# Youngs Moduli (GPa) = 60.85677 66.88486 111.67412
#
# Poissons Ratio (x) = 0.38473 0.37776
# Poissons Ratio (y) = 0.35006 0.35005
# Poissons Ratio (z) = 0.20586 0.20966
#
# Static dielectric constant tensor:
#      x y z
#    x 3.600500 0.000000 0.000000 
#    y 0.000000 3.689130 0.000000 
#    z 0.000000 0.000000 4.150040 
# 
# 
# High freq. dielectric constant tensor:
#      x y z
#    x 1.787850 0.000000 0.000000 
#    y 0.000000 1.801620 0.000000 
#    z 0.000000 0.000000 1.824740 
# 
# From -- ./inp_files/30812.got.cif
#   From: 2010.03.12/outbox.cif.g09.slc.cpg/sg53_16_cif.got.tgz:30812.got - 2010.04.16 14:36:59.
