data_PCOD8220602
_publ_section_title
;
Structure prediction by ZEFSAII (Michael W. Deem and Ramdas Pophale) SiO2 
 PCOD8220602
Probable space group: P M N A
;
_chemical_formula_sum "Si O2"
_cell_formula_units_Z 48
_cell_length_a 17.989901
_cell_length_b 12.163541
_cell_length_c 11.405152
_cell_angle_alpha 90.000000
_cell_angle_beta 90.000000
_cell_angle_gamma 90.000000
_cell_volume 2495.685607
_symmetry_space_group_name_H-M "P M N A"
_symmetry_group_IT_number 53
_symmetry_cell_setting 'orthorhombic'
loop_
_space_group_symop_operation_xyz
x,y,z
1/2-x,-y,1/2+z
x,-y,-z
1/2-x,y,1/2-z
-x,-y,-z
1/2+x,y,1/2-z
-x,y,z
1/2+x,-y,1/2+z
loop_
_atom_site_type_symbol
_atom_site_label
_atom_site_fract_x
_atom_site_fract_y
_atom_site_fract_z
Si Si1 0.319242 0.120790 0.522780
Si Si2 0.084141 0.332457 0.382342
Si Si3 0.418044 0.156230 0.311605
Si Si4 0.202280 0.484088 0.634325
Si Si5 0.414925 0.084280 0.742817
Si Si6 0.673468 0.241813 0.909604
O O1 0.353647 0.171041 0.405681
O O2 0.387084 0.111612 0.612954
O O3 0.256760 0.203974 0.564296
O O4 0.284504 0.000000 0.500000
O O5 0.084789 0.266222 0.262614
O O6 0.126420 0.446891 0.364782
O O7 0.125362 0.254439 0.474200
O O8 0.000000 0.357925 0.423359
O O9 0.500000 0.144796 0.370157
O O10 0.404884 0.046204 0.233527
O O11 0.238121 0.500000 0.500000
O O12 0.250000 0.521235 0.750000
O O13 0.179713 0.358059 0.656774
O O14 0.500000 0.122323 0.755946
O O15 0.364641 0.149407 0.832856
#
# Coordination Sequence:
#
# PCOD8220602 Si02
#       6
#     8   8   8   8   8   8
#     4  10  21  35  57  87 119 155 195 241 293 354
#     4  10  23  40  61  86 115 155 200 244 293 352
#     4   9  20  37  58  85 117 154 197 240 290 350
#     4  10  23  41  62  87 118 157 200 251 302 358
#     4  10  20  36  58  83 120 159 193 237 293 352
#     4  11  23  37  57  89 120 152 195 240 295 355
#
# _framework density 19.233191999999999
#
# number of rings (size 3 to 8) (size 9 to 14) (size 15 to 20)
#    0.000    2.000    0.000    2.500    7.000    5.667 
#    0.000    2.500    0.000    0.500    0.000    0.000 
#    0.000    0.000    0.000    0.000    0.000    0.000 
#
# Total GULP energy -595008.346876 kJ/mol
# GULP energy per Si atom -12396.007227 kJ/mol
# Density = 1.918942 g / cm^3
# Si number density = 19.233192 Si / 1000 Ang^3
#
#
#
# Elastic Constant Matrix: (Units=GPa)
#
#
# Indices 1 2 3 4 5 6 
#
# 1 95.5972 48.0626 39.4219 0.0000 0.0000 0.0000
# 2 48.0626 104.0859 28.7609 0.0000 0.0000 0.0000
# 3 39.4219 28.7609 71.1546 0.0000 0.0000 0.0000
# 4 0.0000 0.0000 0.0000 22.8523 0.0000 0.0000
# 5 0.0000 0.0000 0.0000 0.0000 29.0077 0.0000
# 6 0.0000 0.0000 0.0000 0.0000 0.0000 120.8764
#
#
#
# Elastic Compliance Matrix: (Units=1/GPa)
#
#
# Indices 1 2 3 4 5 6 
#
# 1 0.015976 -0.005551 -0.006608 0.000000 0.000000 0.000000
# 2 -0.005551 0.012744 -0.002076 0.000000 0.000000 0.000000
# 3 -0.006608 -0.002076 0.018554 0.000000 0.000000 0.000000
# 4 0.000000 0.000000 0.000000 0.043759 0.000000 0.000000
# 5 0.000000 0.000000 0.000000 0.000000 0.034474 0.000000
# 6 0.000000 0.000000 0.000000 0.000000 0.000000 0.008273
#
#
# Mechanical properties :
#
#
# Convention : Reuss Voigt Hill
#
# Bulk Modulus (GPa) = 53.17667 55.92537 54.55102
# Shear Modulus (GPa) = 29.67043 44.85344 37.26193
#
# Velocity S-wave (km/s) = 3.93194 4.83441 4.40634
# Velocity P-wave (km/s) = 6.95140 7.76548 7.36969
#
# Compressibility (1/GPa) = 0.01880524
#
# Stress axis : x y z
#
# Youngs Moduli (GPa) = 62.59236 78.46573 53.89777
#
# Poissons Ratio (x) = 0.43560 0.35613
# Poissons Ratio (y) = 0.34748 0.11187
# Poissons Ratio (z) = 0.41358 0.16287
#
# Static dielectric constant tensor:
#      x y z
#    x 3.605110 0.000000 0.000000 
#    y 0.000000 3.542300 0.000000 
#    z 0.000000 0.000000 3.672620 
# 
# 
# High freq. dielectric constant tensor:
#      x y z
#    x 1.751030 0.000000 0.000000 
#    y 0.000000 1.754080 0.000000 
#    z 0.000000 0.000000 1.745700 
# 
# From -- ./inp_files/16904.got.cif
#   From: 2010.03.12/outbox.cif.g09.slc.cpg/sg53_9_cif.got.tgz:16904.got - 2010.04.16 14:36:59.
