data_PCOD8220579
_publ_section_title
;
Structure prediction by ZEFSAII (Michael W. Deem and Ramdas Pophale) SiO2 
 PCOD8220579
Probable space group: P M N A
;
_chemical_formula_sum "Si O2"
_cell_formula_units_Z 40
_cell_length_a 8.909447
_cell_length_b 25.286027
_cell_length_c 9.091668
_cell_angle_alpha 90.000000
_cell_angle_beta 90.000000
_cell_angle_gamma 90.000000
_cell_volume 2048.212038
_symmetry_space_group_name_H-M "P M N A"
_symmetry_group_IT_number 53
_symmetry_cell_setting 'orthorhombic'
loop_
_space_group_symop_operation_xyz
x,y,z
1/2-x,-y,1/2+z
x,-y,-z
1/2-x,y,1/2-z
-x,-y,-z
1/2+x,y,1/2-z
-x,y,z
1/2+x,-y,1/2+z
loop_
_atom_site_type_symbol
_atom_site_label
_atom_site_fract_x
_atom_site_fract_y
_atom_site_fract_z
Si Si1 0.325086 0.665322 0.591639
Si Si2 0.174572 0.143189 0.408310
Si Si3 0.326957 0.453360 0.403008
Si Si4 0.173652 0.947711 0.094541
Si Si5 0.674669 0.246532 0.903984
O O1 0.250000 0.674592 0.750000
O O2 0.500000 0.679473 0.608068
O O3 0.301418 0.605467 0.532529
O O4 0.249912 0.701047 0.467889
O O5 0.250000 0.141923 0.250000
O O6 0.247762 0.100483 0.513912
O O7 0.201372 0.200150 0.479457
O O8 0.000000 0.129901 0.389827
O O9 0.254176 0.500000 0.500000
O O10 0.250000 0.457373 0.250000
O O11 0.500000 0.465321 0.378685
O O12 0.250000 0.957984 0.250000
O O13 0.000000 0.933622 0.118515
O O14 0.195226 0.000000 0.000000
O O15 0.750000 0.230755 0.750000
O O16 0.500000 0.257142 0.876541
#
# Coordination Sequence:
#
# PCOD8220579 Si02
#       5
#     8   8   8   8   8
#     4  10  20  36  58  82 111 148 189 233 282 338
#     4  11  24  41  63  89 118 154 194 237 286 340
#     4   9  19  35  54  79 110 144 184 229 278 333
#     4  11  24  41  63  91 123 158 196 240 288 339
#     4  11  24  40  59  85 116 150 189 235 286 339
#
# _framework density 19.529226999999999
#
# number of rings (size 3 to 8) (size 9 to 14) (size 15 to 20)
#    0.000    1.600    0.000    4.200    0.000   11.600 
#    0.000    2.000    0.000    0.000    0.000    0.000 
#    0.000    0.000    0.000    0.000    0.000    0.000 
#
# Total GULP energy -496116.495673 kJ/mol
# GULP energy per Si atom -12402.912392 kJ/mol
# Density = 1.948478 g / cm^3
# Si number density = 19.529227 Si / 1000 Ang^3
#
#
#
# Elastic Constant Matrix: (Units=GPa)
#
#
# Indices 1 2 3 4 5 6 
#
# 1 137.0588 70.8606 70.9495 0.0000 0.0000 0.0000
# 2 70.8606 104.3598 41.0076 0.0000 0.0000 0.0000
# 3 70.9495 41.0076 108.5706 0.0000 0.0000 0.0000
# 4 0.0000 0.0000 0.0000 38.0367 0.0000 0.0000
# 5 0.0000 0.0000 0.0000 0.0000 32.3934 0.0000
# 6 0.0000 0.0000 0.0000 0.0000 0.0000 31.9116
#
#
#
# Elastic Compliance Matrix: (Units=1/GPa)
#
#
# Indices 1 2 3 4 5 6 
#
# 1 0.014525 -0.007201 -0.006772 0.000000 0.000000 0.000000
# 2 -0.007201 0.014823 -0.000893 0.000000 0.000000 0.000000
# 3 -0.006772 -0.000893 0.013973 0.000000 0.000000 0.000000
# 4 0.000000 0.000000 0.000000 0.026290 0.000000 0.000000
# 5 0.000000 0.000000 0.000000 0.000000 0.030871 0.000000
# 6 0.000000 0.000000 0.000000 0.000000 0.000000 0.031337
#
#
# Mechanical properties :
#
#
# Convention : Reuss Voigt Hill
#
# Bulk Modulus (GPa) = 73.58892 79.51383 76.55137
# Shear Modulus (GPa) = 30.10610 31.61309 30.85959
#
# Velocity S-wave (km/s) = 3.93057 4.02774 3.97945
# Velocity P-wave (km/s) = 7.63953 7.90152 7.77163
#
# Compressibility (1/GPa) = 0.01358900
#
# Stress axis : x y z
#
# Youngs Moduli (GPa) = 68.84775 67.46375 71.56671
#
# Poissons Ratio (x) = 0.48584 0.48463
# Poissons Ratio (y) = 0.49580 0.06388
# Poissons Ratio (z) = 0.46622 0.06022
#
# Static dielectric constant tensor:
#      x y z
#    x 3.783630 0.000000 0.000000 
#    y 0.000000 4.255140 0.000000 
#    z 0.000000 0.000000 3.461580 
# 
# 
# High freq. dielectric constant tensor:
#      x y z
#    x 1.775780 0.000000 0.000000 
#    y 0.000000 1.777070 0.000000 
#    z 0.000000 0.000000 1.765400 
# 
# From -- ./inp_files/6244.got.cif
#   From: 2010.03.12/outbox.cif.g09.slc.cpg/sg53_4_cif.got.tgz:6244.got - 2010.04.16 14:36:59.
