data_PCOD8220082
_publ_section_title
;
Structure prediction by ZEFSAII (Michael W. Deem and Ramdas Pophale) SiO2 
 PCOD8220082
Probable space group: P M N A
;
_chemical_formula_sum "Si O2"
_cell_formula_units_Z 40
_cell_length_a 8.941374
_cell_length_b 26.098666
_cell_length_c 9.290084
_cell_angle_alpha 90.000000
_cell_angle_beta 90.000000
_cell_angle_gamma 90.000000
_cell_volume 2167.914805
_symmetry_space_group_name_H-M "P M N A"
_symmetry_group_IT_number 53
_symmetry_cell_setting 'orthorhombic'
loop_
_space_group_symop_operation_xyz
x,y,z
1/2-x,-y,1/2+z
x,-y,-z
1/2-x,y,1/2-z
-x,-y,-z
1/2+x,y,1/2-z
-x,y,z
1/2+x,-y,1/2+z
loop_
_atom_site_type_symbol
_atom_site_label
_atom_site_fract_x
_atom_site_fract_y
_atom_site_fract_z
Si Si1 0.825529 0.454808 0.097371
Si Si2 0.825636 0.133346 0.405483
Si Si3 0.674317 0.950762 0.402489
Si Si4 0.172427 0.247216 0.403318
Si Si5 0.174325 0.342775 0.094640
O O1 0.750000 0.458485 0.250000
O O2 0.796429 0.398780 0.023361
O O3 0.000000 0.463593 0.121848
O O4 0.757080 0.500000 0.000000
O O5 0.750000 0.126294 0.250000
O O6 0.749521 0.097653 0.522518
O O7 0.805731 0.190817 0.471184
O O8 0.000000 0.119538 0.387367
O O9 0.750000 0.961413 0.250000
O O10 0.500000 0.939444 0.379815
O O11 0.702356 0.000000 0.500000
O O12 0.250000 0.244497 0.250000
O O13 0.250656 0.294495 0.491866
O O14 0.000000 0.260890 0.385497
O O15 0.250000 0.344420 0.250000
O O16 0.000000 0.331747 0.109856
#
# Coordination Sequence:
#
# PCOD8220082 Si02
#       5
#     8   8   8   8   8
#     4   9  18  31  46  67  95 125 161 204 248 296
#     4  10  20  34  54  80 109 139 171 209 253 301
#     4  11  24  40  59  82 108 139 173 211 254 299
#     4   9  16  26  43  69  99 128 161 202 245 290
#     4   9  15  24  41  64  91 123 158 199 246 292
#
# _framework density 18.45091
#
# number of rings (size 3 to 8) (size 9 to 14) (size 15 to 20)
#    0.000    2.400    0.000    4.200    0.000    6.800 
#    0.000    0.000    0.000    1.200    0.000    5.600 
#    0.000    0.000    0.000    0.000    0.000    0.000 
#
# Total GULP energy -495576.413402 kJ/mol
# GULP energy per Si atom -12389.410335 kJ/mol
# Density = 1.840891 g / cm^3
# Si number density = 18.450910 Si / 1000 Ang^3
#
#
#
# Elastic Constant Matrix: (Units=GPa)
#
#
# Indices 1 2 3 4 5 6 
#
# 1 132.0836 84.9028 43.6552 0.0000 0.0000 0.0000
# 2 84.9028 167.0820 49.1111 0.0000 0.0000 0.0000
# 3 43.6552 49.1111 65.9070 0.0000 0.0000 0.0000
# 4 0.0000 0.0000 0.0000 25.9598 0.0000 0.0000
# 5 0.0000 0.0000 0.0000 0.0000 20.9034 0.0000
# 6 0.0000 0.0000 0.0000 0.0000 0.0000 -33.4886
#
#
#
# Elastic Compliance Matrix: (Units=1/GPa)
#
#
# Indices 1 2 3 4 5 6 
#
# 1 0.012173 -0.004886 -0.004423 0.000000 0.000000 0.000000
# 2 -0.004886 0.009625 -0.003936 0.000000 0.000000 0.000000
# 3 -0.004423 -0.003936 0.021035 0.000000 0.000000 0.000000
# 4 0.000000 0.000000 0.000000 0.038521 0.000000 0.000000
# 5 0.000000 0.000000 0.000000 0.000000 0.047839 0.000000
# 6 0.000000 0.000000 0.000000 0.000000 0.000000 -0.029861
#
#
# Mechanical properties :
#
#
# Convention : Reuss Voigt Hill
#
# Bulk Modulus (GPa) = 61.18147 80.04567 70.61357
# Shear Modulus (GPa) = 38.08987 15.16849 26.62918
#
# Velocity S-wave (km/s) = 4.54848 2.87034 3.80313
# Velocity P-wave (km/s) = 7.79846 7.37986 7.59205
#
# Compressibility (1/GPa) = 0.01634482
#
# Stress axis : x y z
#
# Youngs Moduli (GPa) = 82.14673 103.89947 47.54007
#
# Poissons Ratio (x) = 0.50765 0.21025
# Poissons Ratio (y) = 0.40137 0.18710
# Poissons Ratio (z) = 0.36330 0.40890
#
# Static dielectric constant tensor:
#      x y z
#    x 3.571520 0.000000 0.000000 
#    y 0.000000 4.844280 0.000000 
#    z 0.000000 0.000000 2.901580 
# 
# 
# High freq. dielectric constant tensor:
#      x y z
#    x 1.732630 0.000000 0.000000 
#    y 0.000000 1.751220 0.000000 
#    z 0.000000 0.000000 1.648690 
# 
# From -- ./inp_files/6424.got.cif
#   From: 2010.03.12/outbox.cif.g09.slc.cpg/sg53_4_cif.got.tgz:6424.got - 2010.04.16 14:36:59.
