data_PCOD8220069
_publ_section_title
;
Structure prediction by ZEFSAII (Michael W. Deem and Ramdas Pophale) SiO2 
 PCOD8220069
Probable space group: P M N A
;
_chemical_formula_sum "Si O2"
_cell_formula_units_Z 64
_cell_length_a 17.563141
_cell_length_b 15.978103
_cell_length_c 12.390616
_cell_angle_alpha 90.000000
_cell_angle_beta 90.000000
_cell_angle_gamma 90.000000
_cell_volume 3477.124990
_symmetry_space_group_name_H-M "P M N A"
_symmetry_group_IT_number 53
_symmetry_cell_setting 'orthorhombic'
loop_
_space_group_symop_operation_xyz
x,y,z
1/2-x,-y,1/2+z
x,-y,-z
1/2-x,y,1/2-z
-x,-y,-z
1/2+x,y,1/2-z
-x,y,z
1/2+x,-y,1/2+z
loop_
_atom_site_type_symbol
_atom_site_label
_atom_site_fract_x
_atom_site_fract_y
_atom_site_fract_z
Si Si1 0.910022 0.492795 0.875739
Si Si2 0.662634 0.255391 0.469153
Si Si3 0.333735 0.916998 0.437155
Si Si4 0.159454 0.091078 0.528197
Si Si5 0.332536 0.329998 0.699718
Si Si6 0.913900 0.667742 0.783759
Si Si7 0.589019 0.163164 0.764533
Si Si8 0.801641 0.783629 0.655466
O O1 0.877449 0.416871 0.804582
O O2 0.886461 0.572759 0.803161
O O3 0.000000 0.482468 0.882527
O O4 0.878388 0.500000 0.000000
O O5 0.644543 0.157712 0.482772
O O6 0.675292 0.301958 0.578603
O O7 0.591502 0.290048 0.401924
O O8 0.742564 0.272739 0.410553
O O9 0.242951 0.917522 0.418620
O O10 0.373098 0.901391 0.321233
O O11 0.361980 0.000000 0.500000
O O12 0.102850 0.130977 0.614831
O O13 0.159840 0.145414 0.418234
O O14 0.126895 0.000000 0.500000
O O15 0.250000 0.344282 0.750000
O O16 0.377417 0.257042 0.762417
O O17 0.864088 0.718620 0.698072
O O18 0.000000 0.671336 0.742045
O O19 0.500000 0.167172 0.738781
O O20 0.750000 0.826904 0.750000
#
# Coordination Sequence:
#
# PCOD8220069 Si02
#       8
#     8   8   8   8   8   8   8   8
#     4  10  20  36  57  83 114 145 180 226 285 346
#     4   9  18  33  53  78 108 140 179 229 280 325
#     4   9  19  36  58  82 110 148 194 241 285 333
#     4  10  21  38  60  82 110 150 195 239 285 339
#     4  11  21  36  59  84 109 144 190 231 280 334
#     4  10  20  34  54  78 107 145 181 219 276 340
#     4  11  23  37  56  83 118 155 189 234 292 351
#     4   9  19  35  54  79 109 142 185 235 282 329
#
# _framework density 18.406010999999999
#
# number of rings (size 3 to 8) (size 9 to 14) (size 15 to 20)
#    0.000    2.125    1.250    3.000    0.000    8.500 
#    0.000    1.250    0.000    0.000    0.000    4.375 
#    0.000    0.000    0.000    0.000    0.000    0.000 
#
# Total GULP energy -793266.339048 kJ/mol
# GULP energy per Si atom -12394.786548 kJ/mol
# Density = 1.836412 g / cm^3
# Si number density = 18.406011 Si / 1000 Ang^3
#
#
#
# Elastic Constant Matrix: (Units=GPa)
#
#
# Indices 1 2 3 4 5 6 
#
# 1 59.5874 43.4509 37.2330 0.0000 0.0000 0.0000
# 2 43.4509 142.1087 62.0816 0.0000 0.0000 0.0000
# 3 37.2330 62.0816 93.9363 0.0000 0.0000 0.0000
# 4 0.0000 0.0000 0.0000 36.0069 0.0000 0.0000
# 5 0.0000 0.0000 0.0000 0.0000 27.8360 0.0000
# 6 0.0000 0.0000 0.0000 0.0000 0.0000 40.5121
#
#
#
# Elastic Compliance Matrix: (Units=1/GPa)
#
#
# Indices 1 2 3 4 5 6 
#
# 1 0.024203 -0.004512 -0.006611 0.000000 0.000000 0.000000
# 2 -0.004512 0.010734 -0.005306 0.000000 0.000000 0.000000
# 3 -0.006611 -0.005306 0.016773 0.000000 0.000000 0.000000
# 4 0.000000 0.000000 0.000000 0.027772 0.000000 0.000000
# 5 0.000000 0.000000 0.000000 0.000000 0.035925 0.000000
# 6 0.000000 0.000000 0.000000 0.000000 0.000000 0.024684
#
#
# Mechanical properties :
#
#
# Convention : Reuss Voigt Hill
#
# Bulk Modulus (GPa) = 53.04542 64.57372 58.80957
# Shear Modulus (GPa) = 27.89652 31.06213 29.47932
#
# Velocity S-wave (km/s) = 3.89732 4.11251 4.00636
# Velocity P-wave (km/s) = 7.00959 7.59667 7.30903
#
# Compressibility (1/GPa) = 0.01885177
#
# Stress axis : x y z
#
# Youngs Moduli (GPa) = 41.31658 93.15857 59.62129
#
# Poissons Ratio (x) = 0.42035 0.39417
# Poissons Ratio (y) = 0.18643 0.31634
# Poissons Ratio (z) = 0.27316 0.49428
#
# Static dielectric constant tensor:
#      x y z
#    x 3.136200 0.000000 0.000000 
#    y 0.000000 3.703460 0.000000 
#    z 0.000000 0.000000 3.476470 
# 
# 
# High freq. dielectric constant tensor:
#      x y z
#    x 1.701060 0.000000 0.000000 
#    y 0.000000 1.719570 0.000000 
#    z 0.000000 0.000000 1.712680 
# 
# From -- ./inp_files/17112.got.cif
#   From: 2010.03.12/outbox.cif.g09.slc.cpg/sg53_9_cif.got.tgz:17112.got - 2010.04.16 14:36:59.
