data_PCOD8220806
_publ_section_title
;
Structure prediction by ZEFSAII (Michael W. Deem and Ramdas Pophale) SiO2 
 PCOD8220806
Probable space group: P M N A
;
_chemical_formula_sum "Si O2"
_cell_formula_units_Z 48
_cell_length_a 9.776415
_cell_length_b 15.132406
_cell_length_c 17.177760
_cell_angle_alpha 90.000000
_cell_angle_beta 90.000000
_cell_angle_gamma 90.000000
_cell_volume 2541.289513
_symmetry_space_group_name_H-M "P M N A"
_symmetry_group_IT_number 53
_symmetry_cell_setting 'orthorhombic'
loop_
_space_group_symop_operation_xyz
x,y,z
1/2-x,-y,1/2+z
x,-y,-z
1/2-x,y,1/2-z
-x,-y,-z
1/2+x,y,1/2-z
-x,y,z
1/2+x,-y,1/2+z
loop_
_atom_site_type_symbol
_atom_site_label
_atom_site_fract_x
_atom_site_fract_y
_atom_site_fract_z
Si Si1 0.256111 0.788680 0.543402
Si Si2 0.158031 0.495647 0.407819
Si Si3 0.500000 0.104941 0.997289
Si Si4 0.667323 0.655386 0.669872
Si Si5 0.500000 0.897857 0.483506
Si Si6 0.000000 0.209621 0.833897
Si Si7 0.743548 0.310391 0.888236
Si Si8 0.000000 0.804271 0.338033
O O1 0.122510 0.849141 0.543718
O O2 0.292707 0.745983 0.626250
O O3 0.369778 0.858380 0.523713
O O4 0.245857 0.709529 0.480695
O O5 0.161417 0.500000 0.500000
O O6 0.268225 0.424840 0.378777
O O7 0.212653 0.587429 0.373098
O O8 0.000000 0.476265 0.380631
O O9 0.500000 0.120786 0.904144
O O10 0.500000 0.000000 0.000000
O O11 0.750000 0.658058 0.750000
O O12 0.500000 0.646103 0.678644
O O13 0.500000 0.873471 0.392248
O O14 0.500000 0.000000 0.500000
O O15 0.878819 0.278567 0.846089
O O16 0.000000 0.159956 0.750479
O O17 0.629682 0.255843 0.845678
#
# Coordination Sequence:
#
# PCOD8220806 Si02
#       8
#     8   8   4   8   4   4   8   4
#     4  10  21  40  65  90 122 164 209 257 314 385
#     4  11  23  39  65  91 124 167 213 262 314 377
#     4  10  22  38  67  97 124 162 208 256 312 392
#     4  12  27  44  63  92 129 173 221 273 321 371
#     4  10  20  40  65  91 122 160 214 260 320 388
#     4  10  22  34  58  90 121 161 200 261 312 369
#     4  10  20  37  60  86 120 164 205 247 310 380
#     4  10  20  38  56  86 127 157 200 253 318 371
#
# _framework density 18.88805
#
# number of rings (size 3 to 8) (size 9 to 14) (size 15 to 20)
#    0.000    1.500    3.333    1.500    3.500    1.667 
#    0.000    1.667    0.000    0.000    0.000    0.000 
#    0.000    0.000    0.000    0.000    0.000    0.000 
#
# Total GULP energy -594810.889467 kJ/mol
# GULP energy per Si atom -12391.893531 kJ/mol
# Density = 1.884506 g / cm^3
# Si number density = 18.888050 Si / 1000 Ang^3
#
#
#
# Elastic Constant Matrix: (Units=GPa)
#
#
# Indices 1 2 3 4 5 6 
#
# 1 182.0707 63.4314 53.7141 0.0000 0.0000 0.0000
# 2 63.4314 132.3957 49.8371 0.0000 0.0000 0.0000
# 3 53.7141 49.8371 108.4134 0.0000 0.0000 0.0000
# 4 0.0000 0.0000 0.0000 18.1588 0.0000 0.0000
# 5 0.0000 0.0000 0.0000 0.0000 33.7686 0.0000
# 6 0.0000 0.0000 0.0000 0.0000 0.0000 47.8869
#
#
#
# Elastic Compliance Matrix: (Units=1/GPa)
#
#
# Indices 1 2 3 4 5 6 
#
# 1 0.007055 -0.002496 -0.002348 0.000000 0.000000 0.000000
# 2 -0.002496 0.010017 -0.003368 0.000000 0.000000 0.000000
# 3 -0.002348 -0.003368 0.011935 0.000000 0.000000 0.000000
# 4 0.000000 0.000000 0.000000 0.055070 0.000000 0.000000
# 5 0.000000 0.000000 0.000000 0.000000 0.029613 0.000000
# 6 0.000000 0.000000 0.000000 0.000000 0.000000 0.020883
#
#
# Mechanical properties :
#
#
# Convention : Reuss Voigt Hill
#
# Bulk Modulus (GPa) = 79.47180 84.09391 81.78285
# Shear Modulus (GPa) = 32.21845 37.02266 34.62055
#
# Velocity S-wave (km/s) = 4.13456 4.43212 4.28592
# Velocity P-wave (km/s) = 8.05974 8.41490 8.23923
#
# Compressibility (1/GPa) = 0.01258308
#
# Stress axis : x y z
#
# Youngs Moduli (GPa) = 141.75058 99.83213 83.78422
#
# Poissons Ratio (x) = 0.24920 0.19671
# Poissons Ratio (y) = 0.35383 0.28218
# Poissons Ratio (z) = 0.33280 0.33623
#
# Static dielectric constant tensor:
#      x y z
#    x 3.773010 0.000000 0.000000 
#    y 0.000000 3.117880 0.000000 
#    z 0.000000 0.000000 3.634480 
# 
# 
# High freq. dielectric constant tensor:
#      x y z
#    x 1.759910 0.000000 0.000000 
#    y 0.000000 1.724350 0.000000 
#    z 0.000000 0.000000 1.728960 
# 
# From -- ./inp_files/26378.got.cif
#   From: 2010.03.12/outbox.cif.g09.slc.cpg/sg53_14_cif.got.tgz:26378.got - 2010.04.16 14:36:59.
