data_PCOD8220125
_publ_section_title
;
Structure prediction by ZEFSAII (Michael W. Deem and Ramdas Pophale) SiO2 
 PCOD8220125
Probable space group: P M N A
;
_chemical_formula_sum "Si O2"
_cell_formula_units_Z 56
_cell_length_a 9.288931
_cell_length_b 21.434966
_cell_length_c 14.211332
_cell_angle_alpha 90.000000
_cell_angle_beta 90.000000
_cell_angle_gamma 90.000000
_cell_volume 2829.588757
_symmetry_space_group_name_H-M "P M N A"
_symmetry_group_IT_number 53
_symmetry_cell_setting 'orthorhombic'
loop_
_space_group_symop_operation_xyz
x,y,z
1/2-x,-y,1/2+z
x,-y,-z
1/2-x,y,1/2-z
-x,-y,-z
1/2+x,y,1/2-z
-x,y,z
1/2+x,-y,1/2+z
loop_
_atom_site_type_symbol
_atom_site_label
_atom_site_fract_x
_atom_site_fract_y
_atom_site_fract_z
Si Si1 0.168288 0.094976 0.037057
Si Si2 0.835134 0.428640 0.499649
Si Si3 0.335892 0.331454 0.155114
Si Si4 0.328713 0.783733 0.973327
Si Si5 0.342071 0.619961 0.333592
Si Si6 0.332721 0.973054 0.347249
Si Si7 0.339366 0.765135 0.335588
O O1 0.000000 0.111433 0.047390
O O2 0.210388 0.039316 0.107466
O O3 0.267420 0.152404 0.070795
O O4 0.202695 0.078574 0.927426
O O5 0.783446 0.500000 0.500000
O O6 0.815590 0.397501 0.397739
O O7 0.736664 0.389286 0.568445
O O8 0.000000 0.423332 0.533877
O O9 0.250000 0.335085 0.250000
O O10 0.500000 0.320000 0.182253
O O11 0.281550 0.273787 0.092138
O O12 0.500000 0.786611 0.986899
O O13 0.252046 0.775225 0.072022
O O14 0.250000 0.588105 0.250000
O O15 0.500000 0.588448 0.335999
O O16 0.358941 0.692632 0.313956
O O17 0.250000 0.959746 0.250000
O O18 0.500000 0.971989 0.322403
O O19 0.250000 0.796545 0.250000
O O20 0.500000 0.795441 0.344068
#
# Coordination Sequence:
#
# PCOD8220125 Si02
#       7
#     8   8   8   8   8   8   8
#     4   9  20  38  57  82 116 154 192 232 286 347
#     4  10  21  39  61  84 114 151 191 240 295 345
#     4  10  23  41  60  83 114 152 194 240 288 344
#     4  11  22  37  58  85 117 152 193 242 290 343
#     4  10  20  34  56  83 111 144 182 228 282 341
#     4   9  19  37  60  83 113 152 192 237 286 336
#     4  10  20  34  55  82 111 147 185 228 283 344
#
# _framework density 19.790859999999999
#
# number of rings (size 3 to 8) (size 9 to 14) (size 15 to 20)
#    0.000    2.143    1.429    2.143    0.000    6.000 
#    0.000    7.143    0.000    0.000    0.000    0.000 
#    0.000    0.000    0.000    0.000    0.000    0.000 
#
# Total GULP energy -694332.342567 kJ/mol
# GULP energy per Si atom -12398.791832 kJ/mol
# Density = 1.974582 g / cm^3
# Si number density = 19.790860 Si / 1000 Ang^3
#
#
#
# Elastic Constant Matrix: (Units=GPa)
#
#
# Indices 1 2 3 4 5 6 
#
# 1 90.7484 28.9504 42.9237 0.0000 0.0000 0.0000
# 2 28.9504 89.1632 20.3489 0.0000 0.0000 0.0000
# 3 42.9237 20.3489 93.5328 0.0000 0.0000 0.0000
# 4 0.0000 0.0000 0.0000 11.6077 0.0000 0.0000
# 5 0.0000 0.0000 0.0000 0.0000 38.8200 0.0000
# 6 0.0000 0.0000 0.0000 0.0000 0.0000 25.4998
#
#
#
# Elastic Compliance Matrix: (Units=1/GPa)
#
#
# Indices 1 2 3 4 5 6 
#
# 1 0.015035 -0.003480 -0.006143 0.000000 0.000000 0.000000
# 2 -0.003480 0.012607 -0.001146 0.000000 0.000000 0.000000
# 3 -0.006143 -0.001146 0.013760 0.000000 0.000000 0.000000
# 4 0.000000 0.000000 0.000000 0.086150 0.000000 0.000000
# 5 0.000000 0.000000 0.000000 0.000000 0.025760 0.000000
# 6 0.000000 0.000000 0.000000 0.000000 0.000000 0.039216
#
#
# Mechanical properties :
#
#
# Convention : Reuss Voigt Hill
#
# Bulk Modulus (GPa) = 50.34025 50.87673 50.60849
# Shear Modulus (GPa) = 22.65665 27.26692 24.96179
#
# Velocity S-wave (km/s) = 3.38717 3.71584 3.55530
# Velocity P-wave (km/s) = 6.38659 6.64627 6.51772
#
# Compressibility (1/GPa) = 0.01986482
#
# Stress axis : x y z
#
# Youngs Moduli (GPa) = 66.51087 79.32264 72.67580
#
# Poissons Ratio (x) = 0.27603 0.44643
# Poissons Ratio (y) = 0.23145 0.08327
# Poissons Ratio (z) = 0.40856 0.09088
#
# Static dielectric constant tensor:
#      x y z
#    x 3.764770 0.000000 0.000000 
#    y 0.000000 3.741310 0.000000 
#    z 0.000000 0.000000 3.454220 
# 
# 
# High freq. dielectric constant tensor:
#      x y z
#    x 1.775550 0.000000 0.000000 
#    y 0.000000 1.766080 0.000000 
#    z 0.000000 0.000000 1.767750 
# 
# From -- ./inp_files/20550.got.cif
#   From: 2010.03.12/outbox.cif.g09.slc.cpg/sg53_11_cif.got.tgz:20550.got - 2010.04.16 14:36:59.
