data_PCOD8220948
_publ_section_title
;
Structure prediction by ZEFSAII (Michael W. Deem and Ramdas Pophale) SiO2 
 PCOD8220948
Probable space group: P M N A
;
_chemical_formula_sum "Si O2"
_cell_formula_units_Z 64
_cell_length_a 18.072414
_cell_length_b 13.796260
_cell_length_c 12.736892
_cell_angle_alpha 90.000000
_cell_angle_beta 90.000000
_cell_angle_gamma 90.000000
_cell_volume 3175.711220
_symmetry_space_group_name_H-M "P M N A"
_symmetry_group_IT_number 53
_symmetry_cell_setting 'orthorhombic'
loop_
_space_group_symop_operation_xyz
x,y,z
1/2-x,-y,1/2+z
x,-y,-z
1/2-x,y,1/2-z
-x,-y,-z
1/2+x,y,1/2-z
-x,y,z
1/2+x,-y,1/2+z
loop_
_atom_site_type_symbol
_atom_site_label
_atom_site_fract_x
_atom_site_fract_y
_atom_site_fract_z
Si Si1 0.413191 0.559226 0.395884
Si Si2 0.336513 0.589354 0.735869
Si Si3 0.584817 0.782043 0.411230
Si Si4 0.336606 0.893555 0.230775
Si Si5 0.414246 0.090677 0.172986
Si Si6 0.415441 0.801680 0.042043
Si Si7 0.415535 0.597085 0.947210
Si Si8 0.084694 0.760558 0.856303
O O1 0.390914 0.500000 0.500000
O O2 0.500000 0.549826 0.374015
O O3 0.368518 0.514681 0.298048
O O4 0.388363 0.670857 0.402196
O O5 0.250000 0.582317 0.750000
O O6 0.370028 0.623963 0.845117
O O7 0.360492 0.669042 0.649740
O O8 0.500000 0.790394 0.376781
O O9 0.629332 0.856105 0.339371
O O10 0.596643 0.814094 0.532317
O O11 0.250000 0.896331 0.250000
O O12 0.364309 0.998840 0.197108
O O13 0.359174 0.822638 0.136167
O O14 0.500000 0.059939 0.173823
O O15 0.392623 0.137210 0.061120
O O16 0.396658 0.166739 0.263511
O O17 0.500000 0.828321 0.073264
O O18 0.408603 0.687008 0.025551
O O19 0.500000 0.579614 0.913269
O O20 0.382767 0.500000 0.000000
O O21 0.000000 0.721911 0.849134
#
# Coordination Sequence:
#
# PCOD8220948 Si02
#       8
#     8   8   8   8   8   8   8   8
#     4  10  20  38  64  87 114 161 216 254 287 358
#     4  12  24  36  57  91 133 167 198 248 317 388
#     4  10  22  41  67  94 122 162 213 262 310 371
#     4  12  27  43  59  92 135 167 201 258 326 389
#     4  10  21  43  73  94 115 158 221 273 306 362
#     4  10  21  43  72  94 120 166 220 264 304 367
#     4  10  22  41  65  94 123 160 214 267 309 356
#     4  10  20  41  69  95 120 156 213 265 307 367
#
# _framework density 20.152964999999998
#
# number of rings (size 3 to 8) (size 9 to 14) (size 15 to 20)
#    0.000    1.500    2.500    2.625    1.750    4.000 
#    4.500    1.875    0.000    0.000    0.000    0.000 
#    0.000    0.000    0.000    0.000    0.000    0.000 
#
# Total GULP energy -793756.550471 kJ/mol
# GULP energy per Si atom -12402.446101 kJ/mol
# Density = 2.010710 g / cm^3
# Si number density = 20.152965 Si / 1000 Ang^3
#
#
#
# Elastic Constant Matrix: (Units=GPa)
#
#
# Indices 1 2 3 4 5 6 
#
# 1 80.9533 42.9319 39.4697 0.0000 0.0000 0.0000
# 2 42.9319 88.5660 33.1425 0.0000 0.0000 0.0000
# 3 39.4697 33.1425 102.1988 0.0000 0.0000 0.0000
# 4 0.0000 0.0000 0.0000 33.8163 0.0000 0.0000
# 5 0.0000 0.0000 0.0000 0.0000 16.1460 0.0000
# 6 0.0000 0.0000 0.0000 0.0000 0.0000 9.6842
#
#
#
# Elastic Compliance Matrix: (Units=1/GPa)
#
#
# Indices 1 2 3 4 5 6 
#
# 1 0.018504 -0.007165 -0.004823 0.000000 0.000000 0.000000
# 2 -0.007165 0.015625 -0.002300 0.000000 0.000000 0.000000
# 3 -0.004823 -0.002300 0.012393 0.000000 0.000000 0.000000
# 4 0.000000 0.000000 0.000000 0.029572 0.000000 0.000000
# 5 0.000000 0.000000 0.000000 0.000000 0.061935 0.000000
# 6 0.000000 0.000000 0.000000 0.000000 0.000000 0.103261
#
#
# Mechanical properties :
#
#
# Convention : Reuss Voigt Hill
#
# Bulk Modulus (GPa) = 55.72019 55.86738 55.79379
# Shear Modulus (GPa) = 18.12598 22.34090 20.23344
#
# Velocity S-wave (km/s) = 3.00229 3.33313 3.17202
# Velocity P-wave (km/s) = 6.30293 6.52647 6.41568
#
# Compressibility (1/GPa) = 0.01794682
#
# Stress axis : x y z
#
# Youngs Moduli (GPa) = 54.04235 64.00061 80.68895
#
# Poissons Ratio (x) = 0.45856 0.38914
# Poissons Ratio (y) = 0.38721 0.18558
# Poissons Ratio (z) = 0.26063 0.14720
#
# Static dielectric constant tensor:
#      x y z
#    x 3.412700 0.000000 0.000000 
#    y 0.000000 3.715700 0.000000 
#    z 0.000000 0.000000 3.785300 
# 
# 
# High freq. dielectric constant tensor:
#      x y z
#    x 1.762450 0.000000 0.000000 
#    y 0.000000 1.792160 0.000000 
#    z 0.000000 0.000000 1.798350 
# 
# From -- ./inp_files/17097.got.cif
#   From: 2010.03.12/outbox.cif.g09.slc.cpg/sg53_9_cif.got.tgz:17097.got - 2010.04.16 14:36:59.
