data_PCOD8220271
_publ_section_title
;
Structure prediction by ZEFSAII (Michael W. Deem and Ramdas Pophale) SiO2 
 PCOD8220271
Probable space group: P M N A
;
_chemical_formula_sum "Si O2"
_cell_formula_units_Z 48
_cell_length_a 8.717741
_cell_length_b 28.978660
_cell_length_c 10.206761
_cell_angle_alpha 90.000000
_cell_angle_beta 90.000000
_cell_angle_gamma 90.000000
_cell_volume 2578.518236
_symmetry_space_group_name_H-M "P M N A"
_symmetry_group_IT_number 53
_symmetry_cell_setting 'orthorhombic'
loop_
_space_group_symop_operation_xyz
x,y,z
1/2-x,-y,1/2+z
x,-y,-z
1/2-x,y,1/2-z
-x,-y,-z
1/2+x,y,1/2-z
-x,y,z
1/2+x,-y,1/2+z
loop_
_atom_site_type_symbol
_atom_site_label
_atom_site_fract_x
_atom_site_fract_y
_atom_site_fract_z
Si Si1 0.318776 0.035922 0.612430
Si Si2 0.676709 0.303482 0.386027
Si Si3 0.181837 0.865470 0.388763
Si Si4 0.322287 0.195158 0.387231
Si Si5 0.181254 0.467132 0.613923
Si Si6 0.319386 0.362453 0.886266
O O1 0.250000 0.018140 0.750000
O O2 0.500000 0.041722 0.627520
O O3 0.246381 0.084609 0.571927
O O4 0.273953 0.000000 0.500000
O O5 0.750000 0.319706 0.250000
O O6 0.500000 0.317683 0.385663
O O7 0.699867 0.249355 0.407559
O O8 0.762499 0.329423 0.500710
O O9 0.250000 0.849171 0.250000
O O10 0.230449 0.829007 0.497245
O O11 0.000000 0.867824 0.377892
O O12 0.250000 0.179003 0.250000
O O13 0.500000 0.180662 0.390230
O O14 0.246397 0.500000 0.500000
O O15 0.250000 0.485117 0.750000
O O16 0.234862 0.414810 0.584912
O O17 0.000000 0.470658 0.623229
O O18 0.250000 0.344664 0.750000
O O19 0.500000 0.359161 0.876059
#
# Coordination Sequence:
#
# PCOD8220271 Si02
#       6
#     8   8   8   8   8   8
#     4  10  21  37  57  81 110 143 181 224 268 318
#     4  10  21  37  57  80 108 141 177 220 267 318
#     4  11  22  37  58  82 111 145 181 224 270 318
#     4  10  21  38  58  81 109 141 179 221 267 319
#     4   9  19  35  53  76 105 137 175 217 262 313
#     4  10  20  35  55  78 107 141 178 221 266 316
#
# _framework density 18.615341999999998
#
# number of rings (size 3 to 8) (size 9 to 14) (size 15 to 20)
#    0.000    2.000    0.000    4.500    0.000    6.333 
#    0.000    3.333    0.000    0.000    0.000    0.000 
#    0.000    0.000    0.000    0.000    0.000    0.000 
#
# Total GULP energy -595389.139026 kJ/mol
# GULP energy per Si atom -12403.940396 kJ/mol
# Density = 1.857297 g / cm^3
# Si number density = 18.615342 Si / 1000 Ang^3
#
#
#
# Elastic Constant Matrix: (Units=GPa)
#
#
# Indices 1 2 3 4 5 6 
#
# 1 97.9391 35.5020 54.8516 0.0000 0.0000 0.0000
# 2 35.5020 54.8898 65.0561 0.0000 0.0000 0.0000
# 3 54.8516 65.0561 153.1535 0.0000 0.0000 0.0000
# 4 0.0000 0.0000 0.0000 38.4371 0.0000 0.0000
# 5 0.0000 0.0000 0.0000 0.0000 38.9905 0.0000
# 6 0.0000 0.0000 0.0000 0.0000 0.0000 43.2956
#
#
#
# Elastic Compliance Matrix: (Units=1/GPa)
#
#
# Indices 1 2 3 4 5 6 
#
# 1 0.013730 -0.006147 -0.002306 0.000000 0.000000 0.000000
# 2 -0.006147 0.039442 -0.014552 0.000000 0.000000 0.000000
# 3 -0.002306 -0.014552 0.013537 0.000000 0.000000 0.000000
# 4 0.000000 0.000000 0.000000 0.026017 0.000000 0.000000
# 5 0.000000 0.000000 0.000000 0.000000 0.025647 0.000000
# 6 0.000000 0.000000 0.000000 0.000000 0.000000 0.023097
#
#
# Mechanical properties :
#
#
# Convention : Reuss Voigt Hill
#
# Bulk Modulus (GPa) = 48.31509 68.53350 58.42430
# Shear Modulus (GPa) = 25.72265 34.18282 29.95273
#
# Velocity S-wave (km/s) = 3.72129 4.28982 4.01563
# Velocity P-wave (km/s) = 6.66894 7.83788 7.27692
#
# Compressibility (1/GPa) = 0.02069747
#
# Stress axis : x y z
#
# Youngs Moduli (GPa) = 72.83112 25.35369 73.87183
#
# Poissons Ratio (x) = 0.15585 0.17037
# Poissons Ratio (y) = 0.44770 1.07502
# Poissons Ratio (z) = 0.16797 0.36896
#
# Static dielectric constant tensor:
#      x y z
#    x 3.560840 0.000000 0.000000 
#    y 0.000000 3.423020 0.000000 
#    z 0.000000 0.000000 3.526880 
# 
# 
# High freq. dielectric constant tensor:
#      x y z
#    x 1.738100 0.000000 0.000000 
#    y 0.000000 1.717680 0.000000 
#    z 0.000000 0.000000 1.733730 
# 
# From -- ./inp_files/6760.got.cif
#   From: 2010.03.12/outbox.cif.g09.slc.cpg/sg53_4_cif.got.tgz:6760.got - 2010.04.16 14:36:59.
