data_PCOD8220611
_publ_section_title
;
Structure prediction by ZEFSAII (Michael W. Deem and Ramdas Pophale) SiO2 
 PCOD8220611
Probable space group: P M N A
;
_chemical_formula_sum "Si O2"
_cell_formula_units_Z 64
_cell_length_a 9.214072
_cell_length_b 14.535646
_cell_length_c 23.544477
_cell_angle_alpha 90.000000
_cell_angle_beta 90.000000
_cell_angle_gamma 90.000000
_cell_volume 3153.370402
_symmetry_space_group_name_H-M "P M N A"
_symmetry_group_IT_number 53
_symmetry_cell_setting 'orthorhombic'
loop_
_space_group_symop_operation_xyz
x,y,z
1/2-x,-y,1/2+z
x,-y,-z
1/2-x,y,1/2-z
-x,-y,-z
1/2+x,y,1/2-z
-x,y,z
1/2+x,-y,1/2+z
loop_
_atom_site_type_symbol
_atom_site_label
_atom_site_fract_x
_atom_site_fract_y
_atom_site_fract_z
Si Si1 0.337653 0.780533 0.803396
Si Si2 0.665055 0.911093 0.538869
Si Si3 0.669516 0.709744 0.499107
Si Si4 0.671708 0.519372 0.190820
Si Si5 0.665135 0.860302 0.306245
Si Si6 0.830781 0.642831 0.604661
Si Si7 0.834637 0.324677 0.872080
Si Si8 0.664407 0.030403 0.145742
O O1 0.250000 0.743467 0.750000
O O2 0.500000 0.743859 0.793948
O O3 0.279203 0.733637 0.860990
O O4 0.331206 0.890653 0.806408
O O5 0.500000 0.903949 0.562092
O O6 0.708345 0.818017 0.505358
O O7 0.778466 0.922610 0.589016
O O8 0.681261 0.000000 0.500000
O O9 0.500000 0.694537 0.506752
O O10 0.747255 0.644323 0.545006
O O11 0.719787 0.674910 0.437145
O O12 0.750000 0.494289 0.250000
O O13 0.500000 0.525966 0.201825
O O14 0.711265 0.444855 0.142792
O O15 0.729131 0.616299 0.167436
O O16 0.750000 0.830961 0.250000
O O17 0.500000 0.883669 0.289384
O O18 0.673196 0.779969 0.351755
O O19 0.733142 0.949059 0.335130
O O20 0.000000 0.643912 0.590194
O O21 0.000000 0.361376 0.866907
O O22 0.500000 0.995055 0.136689
#
# Coordination Sequence:
#
# PCOD8220611 Si02
#       8
#     8   8   8   8   8   8   8   8
#     4  10  21  36  55  81 116 154 194 239 291 349
#     4  10  20  36  58  84 118 160 207 255 302 356
#     4  10  21  38  62  91 121 162 208 250 302 361
#     4  11  24  42  67  95 123 159 202 251 310 368
#     4  11  23  40  61  86 121 161 203 256 310 364
#     4  10  22  41  61  87 125 161 197 249 304 359
#     4  10  23  43  65  90 123 160 203 255 307 364
#     4  11  22  36  56  85 119 158 202 248 302 360
#
# _framework density 20.295745
#
# number of rings (size 3 to 8) (size 9 to 14) (size 15 to 20)
#    0.000    1.625    1.250    3.000    0.000    8.750 
#    0.000    3.750    0.000    0.000    0.000    0.000 
#    0.000    0.000    0.000    0.000    0.000    0.000 
#
# Total GULP energy -793742.269062 kJ/mol
# GULP energy per Si atom -12402.222954 kJ/mol
# Density = 2.024955 g / cm^3
# Si number density = 20.295745 Si / 1000 Ang^3
#
#
#
# Elastic Constant Matrix: (Units=GPa)
#
#
# Indices 1 2 3 4 5 6 
#
# 1 98.3628 32.3405 52.2763 0.0000 0.0000 0.0000
# 2 32.3405 75.4896 23.2686 0.0000 0.0000 0.0000
# 3 52.2763 23.2686 114.7609 0.0000 0.0000 0.0000
# 4 0.0000 0.0000 0.0000 31.2217 0.0000 0.0000
# 5 0.0000 0.0000 0.0000 0.0000 36.5506 0.0000
# 6 0.0000 0.0000 0.0000 0.0000 0.0000 29.6966
#
#
#
# Elastic Compliance Matrix: (Units=1/GPa)
#
#
# Indices 1 2 3 4 5 6 
#
# 1 0.014734 -0.004526 -0.005794 0.000000 0.000000 0.000000
# 2 -0.004526 0.015520 -0.001085 0.000000 0.000000 0.000000
# 3 -0.005794 -0.001085 0.011573 0.000000 0.000000 0.000000
# 4 0.000000 0.000000 0.000000 0.032029 0.000000 0.000000
# 5 0.000000 0.000000 0.000000 0.000000 0.027359 0.000000
# 6 0.000000 0.000000 0.000000 0.000000 0.000000 0.033674
#
#
# Mechanical properties :
#
#
# Convention : Reuss Voigt Hill
#
# Bulk Modulus (GPa) = 52.58484 56.04269 54.31376
# Shear Modulus (GPa) = 30.48055 31.54228 31.01141
#
# Velocity S-wave (km/s) = 3.87954 3.94653 3.91317
# Velocity P-wave (km/s) = 6.78478 6.95987 6.87288
#
# Compressibility (1/GPa) = 0.01901689
#
# Stress axis : x y z
#
# Youngs Moduli (GPa) = 67.87081 64.43132 86.40773
#
# Poissons Ratio (x) = 0.29163 0.50064
# Poissons Ratio (y) = 0.30720 0.09376
# Poissons Ratio (z) = 0.39324 0.06991
#
# Static dielectric constant tensor:
#      x y z
#    x 3.726240 0.000000 0.000000 
#    y 0.000000 3.649350 0.000000 
#    z 0.000000 0.000000 3.759440 
# 
# 
# High freq. dielectric constant tensor:
#      x y z
#    x 1.791810 0.000000 0.000000 
#    y 0.000000 1.796440 0.000000 
#    z 0.000000 0.000000 1.798550 
# 
# From -- ./inp_files/34206.got.cif
#   From: 2010.03.12/outbox.cif.g09.slc.cpg/sg53_18_cif.got.tgz:34206.got - 2010.04.16 14:36:59.
