data_PCOD8220385
_publ_section_title
;
Structure prediction by ZEFSAII (Michael W. Deem and Ramdas Pophale) SiO2 
 PCOD8220385
Probable space group: P M N A
;
_chemical_formula_sum "Si O2"
_cell_formula_units_Z 64
_cell_length_a 8.589471
_cell_length_b 24.206810
_cell_length_c 14.491826
_cell_angle_alpha 90.000000
_cell_angle_beta 90.000000
_cell_angle_gamma 90.000000
_cell_volume 3013.193973
_symmetry_space_group_name_H-M "P M N A"
_symmetry_group_IT_number 53
_symmetry_cell_setting 'orthorhombic'
loop_
_space_group_symop_operation_xyz
x,y,z
1/2-x,-y,1/2+z
x,-y,-z
1/2-x,y,1/2-z
-x,-y,-z
1/2+x,y,1/2-z
-x,y,z
1/2+x,-y,1/2+z
loop_
_atom_site_type_symbol
_atom_site_label
_atom_site_fract_x
_atom_site_fract_y
_atom_site_fract_z
Si Si1 0.682442 0.900858 0.653315
Si Si2 0.182974 0.322098 0.978826
Si Si3 0.318403 0.594918 0.157007
Si Si4 0.816041 0.778291 0.148546
Si Si5 0.683076 0.029094 0.653312
Si Si6 0.321628 0.485916 0.393818
Si Si7 0.816465 0.367426 0.346693
Si Si8 0.683180 0.121600 0.963607
O O1 0.750000 0.878127 0.750000
O O2 0.500000 0.890228 0.651933
O O3 0.758941 0.868005 0.568146
O O4 0.725571 0.965062 0.642159
O O5 0.226590 0.379098 0.928603
O O6 0.242851 0.270764 0.918066
O O7 0.000000 0.319907 0.996511
O O8 0.270238 0.321639 0.077099
O O9 0.250000 0.622468 0.250000
O O10 0.500000 0.607657 0.148012
O O11 0.284753 0.529579 0.160853
O O12 0.750000 0.768692 0.250000
O O13 0.758948 0.835575 0.106733
O O14 0.000000 0.778891 0.155311
O O15 0.750000 0.051727 0.750000
O O16 0.500000 0.039772 0.649615
O O17 0.764276 0.060848 0.569129
O O18 0.303264 0.500000 0.500000
O O19 0.500000 0.491374 0.360872
O O20 0.261913 0.425344 0.371568
O O21 0.750000 0.345566 0.250000
O O22 0.000000 0.374811 0.342001
O O23 0.500000 0.127796 0.960018
#
# Coordination Sequence:
#
# PCOD8220385 Si02
#       8
#     8   8   8   8   8   8   8   8
#     4  10  21  38  60  88 124 165 209 255 306 363
#     4  11  24  44  67  92 121 155 200 252 306 361
#     4  12  24  38  60  89 123 160 200 243 297 359
#     4  11  25  45  69  94 124 158 199 252 308 367
#     4  10  20  35  57  87 125 166 208 255 307 367
#     4  11  22  38  61  88 125 164 202 248 298 357
#     4  12  25  42  66  93 126 164 205 251 303 363
#     4  12  24  38  60  89 124 164 208 256 308 367
#
# _framework density 21.239920000000001
#
# number of rings (size 3 to 8) (size 9 to 14) (size 15 to 20)
#    0.000    0.875    1.250    6.750    0.000    6.500 
#    0.000    0.625    0.000    3.000    0.000    0.000 
#    0.000    0.000    0.000    0.000    0.000    0.000 
#
# Total GULP energy -794003.234880 kJ/mol
# GULP energy per Si atom -12406.300545 kJ/mol
# Density = 2.119158 g / cm^3
# Si number density = 21.239920 Si / 1000 Ang^3
#
#
#
# Elastic Constant Matrix: (Units=GPa)
#
#
# Indices 1 2 3 4 5 6 
#
# 1 86.1745 23.6770 47.6300 0.0000 0.0000 0.0000
# 2 23.6770 55.1916 31.5841 0.0000 0.0000 0.0000
# 3 47.6300 31.5841 159.4229 0.0000 0.0000 0.0000
# 4 0.0000 0.0000 0.0000 32.0598 0.0000 0.0000
# 5 0.0000 0.0000 0.0000 0.0000 40.8817 0.0000
# 6 0.0000 0.0000 0.0000 0.0000 0.0000 16.4982
#
#
#
# Elastic Compliance Matrix: (Units=1/GPa)
#
#
# Indices 1 2 3 4 5 6 
#
# 1 0.014749 -0.004292 -0.003556 0.000000 0.000000 0.000000
# 2 -0.004292 0.021685 -0.003014 0.000000 0.000000 0.000000
# 3 -0.003556 -0.003014 0.007932 0.000000 0.000000 0.000000
# 4 0.000000 0.000000 0.000000 0.031192 0.000000 0.000000
# 5 0.000000 0.000000 0.000000 0.000000 0.024461 0.000000
# 6 0.000000 0.000000 0.000000 0.000000 0.000000 0.060613
#
#
# Mechanical properties :
#
#
# Convention : Reuss Voigt Hill
#
# Bulk Modulus (GPa) = 44.16618 56.28569 50.22594
# Shear Modulus (GPa) = 26.32923 31.08112 28.70518
#
# Velocity S-wave (km/s) = 3.52463 3.82951 3.68023
# Velocity P-wave (km/s) = 6.11581 6.79051 6.46197
#
# Compressibility (1/GPa) = 0.02264176
#
# Stress axis : x y z
#
# Youngs Moduli (GPa) = 67.79996 46.11542 126.06922
#
# Poissons Ratio (x) = 0.19794 0.44833
# Poissons Ratio (y) = 0.29102 0.37993
# Poissons Ratio (z) = 0.24111 0.13898
#
# Static dielectric constant tensor:
#      x y z
#    x 3.839800 0.000000 0.000000 
#    y 0.000000 3.675770 0.000000 
#    z 0.000000 0.000000 4.272010 
# 
# 
# High freq. dielectric constant tensor:
#      x y z
#    x 1.844150 0.000000 0.000000 
#    y 0.000000 1.809270 0.000000 
#    z 0.000000 0.000000 1.853640 
# 
# From -- ./inp_files/20911.got.cif
#   From: 2010.03.12/outbox.cif.g09.slc.cpg/sg53_11_cif.got.tgz:20911.got - 2010.04.16 14:36:59.
