data_PCOD8220720
_publ_section_title
;
Structure prediction by ZEFSAII (Michael W. Deem and Ramdas Pophale) SiO2 
 PCOD8220720
Probable space group: P M N A
;
_chemical_formula_sum "Si O2"
_cell_formula_units_Z 64
_cell_length_a 9.076987
_cell_length_b 20.449428
_cell_length_c 19.131920
_cell_angle_alpha 90.000000
_cell_angle_beta 90.000000
_cell_angle_gamma 90.000000
_cell_volume 3551.251534
_symmetry_space_group_name_H-M "P M N A"
_symmetry_group_IT_number 53
_symmetry_cell_setting 'orthorhombic'
loop_
_space_group_symop_operation_xyz
x,y,z
1/2-x,-y,1/2+z
x,-y,-z
1/2-x,y,1/2-z
-x,-y,-z
1/2+x,y,1/2-z
-x,y,z
1/2+x,-y,1/2+z
loop_
_atom_site_type_symbol
_atom_site_label
_atom_site_fract_x
_atom_site_fract_y
_atom_site_fract_z
Si Si1 0.328013 0.962592 0.175489
Si Si2 0.174699 0.670944 0.939502
Si Si3 0.670704 0.536221 0.929291
Si Si4 0.174359 0.301496 0.583983
Si Si5 0.828094 0.083223 0.175493
Si Si6 0.329425 0.422510 0.823266
Si Si7 0.171018 0.772370 0.823390
Si Si8 0.829388 0.181334 0.676709
O O1 0.250000 0.959359 0.250000
O O2 0.500000 0.978067 0.183099
O O3 0.301693 0.890632 0.142220
O O4 0.249957 0.022854 0.132758
O O5 0.229743 0.599412 0.918554
O O6 0.228812 0.719929 0.878954
O O7 0.000000 0.670579 0.947201
O O8 0.244812 0.695955 0.010686
O O9 0.500000 0.557122 0.934484
O O10 0.701436 0.489555 0.863896
O O11 0.718889 0.500000 0.000000
O O12 0.229391 0.362075 0.630877
O O13 0.225114 0.234658 0.621147
O O14 0.000000 0.305190 0.571044
O O15 0.750000 0.084683 0.250000
O O16 0.800846 0.155182 0.143028
O O17 0.000000 0.067666 0.182872
O O18 0.250000 0.425200 0.750000
O O19 0.500000 0.412337 0.808005
O O20 0.250000 0.761336 0.750000
O O21 0.000000 0.762729 0.807625
O O22 0.750000 0.191854 0.750000
O O23 0.000000 0.191614 0.693457
#
# Coordination Sequence:
#
# PCOD8220720 Si02
#       8
#     8   8   8   8   8   8   8   8
#     4   9  15  24  40  68 100 131 168 212 257 305
#     4  11  23  37  56  82 107 134 172 220 261 305
#     4  10  20  39  60  77 103 140 176 209 252 312
#     4  10  20  37  55  74 104 145 181 210 254 314
#     4   9  15  26  45  68  96 131 166 208 257 309
#     4  10  21  36  57  82 108 137 173 215 257 304
#     4   9  20  36  53  77 107 134 170 216 264 313
#     4   9  18  30  48  73 105 139 175 218 262 307
#
# _framework density 18.021815
#
# number of rings (size 3 to 8) (size 9 to 14) (size 15 to 20)
#    0.000    2.375    1.250    2.250    0.000    4.250 
#    0.000    2.500    0.000    0.750    0.000    5.250 
#    0.000    0.000    0.000    0.000    0.000    0.000 
#
# Total GULP energy -793243.449254 kJ/mol
# GULP energy per Si atom -12394.428895 kJ/mol
# Density = 1.798080 g / cm^3
# Si number density = 18.021815 Si / 1000 Ang^3
#
#
#
# Elastic Constant Matrix: (Units=GPa)
#
#
# Indices 1 2 3 4 5 6 
#
# 1 72.5182 57.7940 43.0067 0.0000 0.0000 0.0000
# 2 57.7940 165.4621 67.6769 0.0000 0.0000 0.0000
# 3 43.0067 67.6769 103.3998 0.0000 0.0000 0.0000
# 4 0.0000 0.0000 0.0000 18.7374 0.0000 0.0000
# 5 0.0000 0.0000 0.0000 0.0000 24.3774 0.0000
# 6 0.0000 0.0000 0.0000 0.0000 0.0000 33.0958
#
#
#
# Elastic Compliance Matrix: (Units=1/GPa)
#
#
# Indices 1 2 3 4 5 6 
#
# 1 0.021107 -0.005164 -0.005399 0.000000 0.000000 0.000000
# 2 -0.005164 0.009517 -0.004081 0.000000 0.000000 0.000000
# 3 -0.005399 -0.004081 0.014588 0.000000 0.000000 0.000000
# 4 0.000000 0.000000 0.000000 0.053369 0.000000 0.000000
# 5 0.000000 0.000000 0.000000 0.000000 0.041022 0.000000
# 6 0.000000 0.000000 0.000000 0.000000 0.000000 0.030215
#
#
# Mechanical properties :
#
#
# Convention : Reuss Voigt Hill
#
# Bulk Modulus (GPa) = 62.80037 75.37057 69.08547
# Shear Modulus (GPa) = 24.46023 26.76896 25.61460
#
# Velocity S-wave (km/s) = 3.68809 3.85822 3.77412
# Velocity P-wave (km/s) = 7.28413 7.85878 7.57691
#
# Compressibility (1/GPa) = 0.01592347
#
# Stress axis : x y z
#
# Youngs Moduli (GPa) = 47.37742 105.07936 68.55066
#
# Poissons Ratio (x) = 0.54265 0.37010
# Poissons Ratio (y) = 0.24467 0.27975
# Poissons Ratio (z) = 0.25579 0.42881
#
# Static dielectric constant tensor:
#      x y z
#    x 3.339780 0.000000 0.000000 
#    y 0.000000 4.378460 0.000000 
#    z 0.000000 0.000000 3.004570 
# 
# 
# High freq. dielectric constant tensor:
#      x y z
#    x 1.699530 0.000000 0.000000 
#    y 0.000000 1.725100 0.000000 
#    z 0.000000 0.000000 1.658850 
# 
# From -- ./inp_files/26816.got.cif
#   From: 2010.03.12/outbox.cif.g09.slc.cpg/sg53_14_cif.got.tgz:26816.got - 2010.04.16 14:36:59.
