data_PCOD8220475
_publ_section_title
;
Structure prediction by ZEFSAII (Michael W. Deem and Ramdas Pophale) SiO2 
 PCOD8220475
Probable space group: P M N A
;
_chemical_formula_sum "Si O2"
_cell_formula_units_Z 48
_cell_length_a 8.998981
_cell_length_b 30.499053
_cell_length_c 9.412502
_cell_angle_alpha 90.000000
_cell_angle_beta 90.000000
_cell_angle_gamma 90.000000
_cell_volume 2583.359049
_symmetry_space_group_name_H-M "P M N A"
_symmetry_group_IT_number 53
_symmetry_cell_setting 'orthorhombic'
loop_
_space_group_symop_operation_xyz
x,y,z
1/2-x,-y,1/2+z
x,-y,-z
1/2-x,y,1/2-z
-x,-y,-z
1/2+x,y,1/2-z
-x,y,z
1/2+x,-y,1/2+z
loop_
_atom_site_type_symbol
_atom_site_label
_atom_site_fract_x
_atom_site_fract_y
_atom_site_fract_z
Si Si1 0.174975 0.808226 0.599454
Si Si2 0.827526 0.707917 0.605583
Si Si3 0.675899 0.123008 0.597743
Si Si4 0.173939 0.039997 0.096451
Si Si5 0.827213 0.634577 0.398239
Si Si6 0.173085 0.537514 0.399030
O O1 0.250000 0.820569 0.750000
O O2 0.204820 0.757740 0.559126
O O3 0.251084 0.834121 0.471057
O O4 0.000000 0.819122 0.609879
O O5 0.750000 0.696141 0.750000
O O6 0.760506 0.673281 0.494522
O O7 0.000000 0.699872 0.628114
O O8 0.750000 0.113327 0.750000
O O9 0.500000 0.129624 0.618395
O O10 0.712071 0.083701 0.490129
O O11 0.250000 0.040776 0.250000
O O12 0.000000 0.034703 0.124458
O O13 0.233961 0.000000 0.000000
O O14 0.750000 0.639291 0.250000
O O15 0.796444 0.586120 0.463855
O O16 0.000000 0.642204 0.373660
O O17 0.240501 0.500000 0.500000
O O18 0.250000 0.532235 0.250000
O O19 0.000000 0.529619 0.374835
#
# Coordination Sequence:
#
# PCOD8220475 Si02
#       6
#     8   8   8   8   8   8
#     4  10  20  36  56  78 106 139 176 217 262 311
#     4   9  19  34  52  75 102 133 169 210 254 302
#     4  11  23  38  57  82 111 143 180 220 264 313
#     4  10  22  39  59  84 112 143 179 218 262 311
#     4   9  18  33  50  70  98 130 165 204 249 300
#     4   9  18  32  49  70  97 128 162 203 249 298
#
# _framework density 18.580459999999999
#
# number of rings (size 3 to 8) (size 9 to 14) (size 15 to 20)
#    0.000    2.333    0.000    2.000    0.000    6.000 
#    0.000    1.667    0.000    0.000    0.000    0.000 
#    0.000    0.000    0.000    0.000    0.000    0.000 
#
# Total GULP energy -595130.340536 kJ/mol
# GULP energy per Si atom -12398.548761 kJ/mol
# Density = 1.853817 g / cm^3
# Si number density = 18.580460 Si / 1000 Ang^3
#
#
#
# Elastic Constant Matrix: (Units=GPa)
#
#
# Indices 1 2 3 4 5 6 
#
# 1 63.0691 51.0172 57.4647 0.0000 0.0000 0.0000
# 2 51.0172 131.8862 82.9891 0.0000 0.0000 0.0000
# 3 57.4647 82.9891 127.3643 0.0000 0.0000 0.0000
# 4 0.0000 0.0000 0.0000 41.1658 0.0000 0.0000
# 5 0.0000 0.0000 0.0000 0.0000 35.7985 0.0000
# 6 0.0000 0.0000 0.0000 0.0000 0.0000 25.4628
#
#
#
# Elastic Compliance Matrix: (Units=1/GPa)
#
#
# Indices 1 2 3 4 5 6 
#
# 1 0.028757 -0.005017 -0.009706 0.000000 0.000000 0.000000
# 2 -0.005017 0.013727 -0.006681 0.000000 0.000000 0.000000
# 3 -0.009706 -0.006681 0.016584 0.000000 0.000000 0.000000
# 4 0.000000 0.000000 0.000000 0.024292 0.000000 0.000000
# 5 0.000000 0.000000 0.000000 0.000000 0.027934 0.000000
# 6 0.000000 0.000000 0.000000 0.000000 0.000000 0.039273
#
#
# Mechanical properties :
#
#
# Convention : Reuss Voigt Hill
#
# Bulk Modulus (GPa) = 61.49710 78.36241 69.92975
# Shear Modulus (GPa) = 25.15171 29.20866 27.18019
#
# Velocity S-wave (km/s) = 3.68321 3.96916 3.82885
# Velocity P-wave (km/s) = 7.15944 7.95436 7.56735
#
# Compressibility (1/GPa) = 0.01626093
#
# Stress axis : x y z
#
# Youngs Moduli (GPa) = 34.77405 72.85070 60.29990
#
# Poissons Ratio (x) = 0.36546 0.58527
# Poissons Ratio (y) = 0.17445 0.40285
# Poissons Ratio (z) = 0.33752 0.48670
#
# Static dielectric constant tensor:
#      x y z
#    x 3.398550 0.000000 0.000000 
#    y 0.000000 3.801680 0.000000 
#    z 0.000000 0.000000 3.390470 
# 
# 
# High freq. dielectric constant tensor:
#      x y z
#    x 1.720420 0.000000 0.000000 
#    y 0.000000 1.737780 0.000000 
#    z 0.000000 0.000000 1.718210 
# 
# From -- ./inp_files/6613.got.cif
#   From: 2010.03.12/outbox.cif.g09.slc.cpg/sg53_4_cif.got.tgz:6613.got - 2010.04.16 14:36:59.
