data_PCOD8220572
_publ_section_title
;
Structure prediction by ZEFSAII (Michael W. Deem and Ramdas Pophale) SiO2 
 PCOD8220572
Probable space group: P M N A
;
_chemical_formula_sum "Si O2"
_cell_formula_units_Z 48
_cell_length_a 8.817883
_cell_length_b 30.246771
_cell_length_c 9.468776
_cell_angle_alpha 90.000000
_cell_angle_beta 90.000000
_cell_angle_gamma 90.000000
_cell_volume 2525.440803
_symmetry_space_group_name_H-M "P M N A"
_symmetry_group_IT_number 53
_symmetry_cell_setting 'orthorhombic'
loop_
_space_group_symop_operation_xyz
x,y,z
1/2-x,-y,1/2+z
x,-y,-z
1/2-x,y,1/2-z
-x,-y,-z
1/2+x,y,1/2-z
-x,y,z
1/2+x,-y,1/2+z
loop_
_atom_site_type_symbol
_atom_site_label
_atom_site_fract_x
_atom_site_fract_y
_atom_site_fract_z
Si Si1 0.320899 0.540141 0.900294
Si Si2 0.822353 0.116719 0.395119
Si Si3 0.179177 0.782310 0.602307
Si Si4 0.678286 0.369347 0.400270
Si Si5 0.678982 0.040279 0.902953
Si Si6 0.321695 0.712414 0.401921
O O1 0.250000 0.529159 0.750000
O O2 0.500000 0.545791 0.886779
O O3 0.250495 0.585506 0.960985
O O4 0.274259 0.500000 0.000000
O O5 0.750000 0.099581 0.250000
O O6 0.774241 0.167017 0.427411
O O7 0.766980 0.085986 0.523873
O O8 0.000000 0.112436 0.374086
O O9 0.250000 0.765862 0.750000
O O10 0.247832 0.754935 0.474089
O O11 0.000000 0.775432 0.609833
O O12 0.750000 0.356811 0.250000
O O13 0.500000 0.375890 0.380310
O O14 0.718347 0.330901 0.508809
O O15 0.750000 0.036442 0.750000
O O16 0.500000 0.038762 0.885108
O O17 0.736326 0.000000 0.000000
O O18 0.250000 0.705563 0.250000
O O19 0.500000 0.720184 0.388732
#
# Coordination Sequence:
#
# PCOD8220572 Si02
#       6
#     8   8   8   8   8   8
#     4  10  21  36  56  82 110 142 179 219 264 315
#     4   9  19  35  55  81 109 139 178 221 265 317
#     4  10  20  36  58  82 110 144 182 223 268 323
#     4  10  21  37  58  81 106 140 180 221 266 318
#     4  10  21  36  54  78 108 141 179 222 268 319
#     4  11  24  39  56  81 111 144 182 226 276 324
#
# _framework density 19.006582000000002
#
# number of rings (size 3 to 8) (size 9 to 14) (size 15 to 20)
#    0.000    2.000    0.000    4.000    0.000    8.333 
#    0.000    5.000    0.000    0.000    0.000    0.000 
#    0.000    0.000    0.000    0.000    0.000    0.000 
#
# Total GULP energy -595357.569861 kJ/mol
# GULP energy per Si atom -12403.282705 kJ/mol
# Density = 1.896332 g / cm^3
# Si number density = 19.006582 Si / 1000 Ang^3
#
#
#
# Elastic Constant Matrix: (Units=GPa)
#
#
# Indices 1 2 3 4 5 6 
#
# 1 79.0518 56.6502 55.9781 0.0000 0.0000 0.0000
# 2 56.6502 133.0767 92.7254 0.0000 0.0000 0.0000
# 3 55.9781 92.7254 148.8787 0.0000 0.0000 0.0000
# 4 0.0000 0.0000 0.0000 40.4263 0.0000 0.0000
# 5 0.0000 0.0000 0.0000 0.0000 35.7401 0.0000
# 6 0.0000 0.0000 0.0000 0.0000 0.0000 24.2493
#
#
#
# Elastic Compliance Matrix: (Units=1/GPa)
#
#
# Indices 1 2 3 4 5 6 
#
# 1 0.019341 -0.005594 -0.003788 0.000000 0.000000 0.000000
# 2 -0.005594 0.014894 -0.007173 0.000000 0.000000 0.000000
# 3 -0.003788 -0.007173 0.012609 0.000000 0.000000 0.000000
# 4 0.000000 0.000000 0.000000 0.024736 0.000000 0.000000
# 5 0.000000 0.000000 0.000000 0.000000 0.027980 0.000000
# 6 0.000000 0.000000 0.000000 0.000000 0.000000 0.041238
#
#
# Mechanical properties :
#
#
# Convention : Reuss Voigt Hill
#
# Bulk Modulus (GPa) = 72.81435 85.74607 79.28021
# Shear Modulus (GPa) = 28.01345 30.46005 29.23675
#
# Velocity S-wave (km/s) = 3.84328 4.00760 3.92630
# Velocity P-wave (km/s) = 7.62153 8.16249 7.89664
#
# Compressibility (1/GPa) = 0.01373356
#
# Stress axis : x y z
#
# Youngs Moduli (GPa) = 51.70329 67.14268 79.31042
#
# Poissons Ratio (x) = 0.37559 0.30045
# Poissons Ratio (y) = 0.28922 0.56888
# Poissons Ratio (z) = 0.19586 0.48160
#
# Static dielectric constant tensor:
#      x y z
#    x 3.522900 0.000000 0.000000 
#    y 0.000000 3.764370 0.000000 
#    z 0.000000 0.000000 3.464550 
# 
# 
# High freq. dielectric constant tensor:
#      x y z
#    x 1.746610 0.000000 0.000000 
#    y 0.000000 1.753280 0.000000 
#    z 0.000000 0.000000 1.737000 
# 
# From -- ./inp_files/6748.got.cif
#   From: 2010.03.12/outbox.cif.g09.slc.cpg/sg53_4_cif.got.tgz:6748.got - 2010.04.16 14:36:59.
