data_PCOD8220614
_publ_section_title
;
Structure prediction by ZEFSAII (Michael W. Deem and Ramdas Pophale) SiO2 
 PCOD8220614
Probable space group: P M N A
;
_chemical_formula_sum "Si O2"
_cell_formula_units_Z 40
_cell_length_a 8.566329
_cell_length_b 25.401593
_cell_length_c 9.163421
_cell_angle_alpha 90.000000
_cell_angle_beta 90.000000
_cell_angle_gamma 90.000000
_cell_volume 1993.945773
_symmetry_space_group_name_H-M "P M N A"
_symmetry_group_IT_number 53
_symmetry_cell_setting 'orthorhombic'
loop_
_space_group_symop_operation_xyz
x,y,z
1/2-x,-y,1/2+z
x,-y,-z
1/2-x,y,1/2-z
-x,-y,-z
1/2+x,y,1/2-z
-x,y,z
1/2+x,-y,1/2+z
loop_
_atom_site_type_symbol
_atom_site_label
_atom_site_fract_x
_atom_site_fract_y
_atom_site_fract_z
Si Si1 0.680513 0.052478 0.908042
Si Si2 0.315604 0.549371 0.590261
Si Si3 0.183660 0.854154 0.908780
Si Si4 0.684972 0.648629 0.406145
Si Si5 0.184418 0.761182 0.408325
O O1 0.750000 0.041343 0.750000
O O2 0.500000 0.069308 0.897046
O O3 0.776996 0.098768 0.982392
O O4 0.702297 0.000000 0.000000
O O5 0.247790 0.500000 0.500000
O O6 0.250000 0.546032 0.750000
O O7 0.500000 0.546350 0.595426
O O8 0.260620 0.604054 0.518768
O O9 0.250000 0.867587 0.750000
O O10 0.000000 0.846794 0.898444
O O11 0.258891 0.800747 0.967839
O O12 0.750000 0.631437 0.250000
O O13 0.500000 0.654767 0.396928
O O14 0.758119 0.703701 0.456840
O O15 0.250000 0.777539 0.250000
O O16 0.000000 0.761938 0.398113
#
# Coordination Sequence:
#
# PCOD8220614 Si02
#       5
#     8   8   8   8   8
#     4  11  24  42  65  93 125 161 201 245 295 350
#     4  10  22  38  57  83 114 149 190 236 286 344
#     4  12  25  42  63  89 122 158 200 247 297 351
#     4  10  20  36  58  85 116 150 193 240 289 346
#     4  11  22  39  62  88 119 156 198 242 294 350
#
# _framework density 20.060725999999999
#
# number of rings (size 3 to 8) (size 9 to 14) (size 15 to 20)
#    0.000    1.200    0.000    7.800    0.000    6.000 
#    0.000    2.000    0.000    0.000    0.000    0.000 
#    0.000    0.000    0.000    0.000    0.000    0.000 
#
# Total GULP energy -496238.847922 kJ/mol
# GULP energy per Si atom -12405.971198 kJ/mol
# Density = 2.001507 g / cm^3
# Si number density = 20.060726 Si / 1000 Ang^3
#
#
#
# Elastic Constant Matrix: (Units=GPa)
#
#
# Indices 1 2 3 4 5 6 
#
# 1 117.5435 48.3603 34.1727 0.0000 0.0000 0.0000
# 2 48.3603 115.6229 65.8212 0.0000 0.0000 0.0000
# 3 34.1727 65.8212 133.3362 0.0000 0.0000 0.0000
# 4 0.0000 0.0000 0.0000 9.1845 0.0000 0.0000
# 5 0.0000 0.0000 0.0000 0.0000 35.9228 0.0000
# 6 0.0000 0.0000 0.0000 0.0000 0.0000 -12.5673
#
#
#
# Elastic Compliance Matrix: (Units=1/GPa)
#
#
# Indices 1 2 3 4 5 6 
#
# 1 0.010325 -0.003911 -0.000715 0.000000 0.000000 0.000000
# 2 -0.003911 0.013511 -0.005667 0.000000 0.000000 0.000000
# 3 -0.000715 -0.005667 0.010481 0.000000 0.000000 0.000000
# 4 0.000000 0.000000 0.000000 0.108879 0.000000 0.000000
# 5 0.000000 0.000000 0.000000 0.000000 0.027837 0.000000
# 6 0.000000 0.000000 0.000000 0.000000 0.000000 -0.079572
#
#
# Mechanical properties :
#
#
# Convention : Reuss Voigt Hill
#
# Bulk Modulus (GPa) = 72.83947 73.69012 73.26479
# Shear Modulus (GPa) = 42.87264 21.05124 31.96194
#
# Velocity S-wave (km/s) = 4.62794 3.24292 3.99590
# Velocity P-wave (km/s) = 8.05887 7.12989 7.60857
#
# Compressibility (1/GPa) = 0.01372882
#
# Stress axis : x y z
#
# Youngs Moduli (GPa) = 96.85612 74.01442 95.41249
#
# Poissons Ratio (x) = 0.28948 0.06826
# Poissons Ratio (y) = 0.37881 0.54073
# Poissons Ratio (z) = 0.06929 0.41946
#
# Static dielectric constant tensor:
#      x y z
#    x 3.777670 0.000000 0.000000 
#    y 0.000000 3.918100 0.000000 
#    z 0.000000 0.000000 3.598200 
# 
# 
# High freq. dielectric constant tensor:
#      x y z
#    x 1.796430 0.000000 0.000000 
#    y 0.000000 1.800300 0.000000 
#    z 0.000000 0.000000 1.789170 
# 
# From -- ./inp_files/6284.got.cif
#   From: 2010.03.12/outbox.cif.g09.slc.cpg/sg53_4_cif.got.tgz:6284.got - 2010.04.16 14:36:59.
