data_PCOD8220884
_publ_section_title
;
Structure prediction by ZEFSAII (Michael W. Deem and Ramdas Pophale) SiO2 
 PCOD8220884
Probable space group: P M N A
;
_chemical_formula_sum "Si O2"
_cell_formula_units_Z 40
_cell_length_a 25.957422
_cell_length_b 10.045675
_cell_length_c 8.616299
_cell_angle_alpha 90.000000
_cell_angle_beta 90.000000
_cell_angle_gamma 90.000000
_cell_volume 2246.784622
_symmetry_space_group_name_H-M "P M N A"
_symmetry_group_IT_number 53
_symmetry_cell_setting 'orthorhombic'
loop_
_space_group_symop_operation_xyz
x,y,z
1/2-x,-y,1/2+z
x,-y,-z
1/2-x,y,1/2-z
-x,-y,-z
1/2+x,y,1/2-z
-x,y,z
1/2+x,-y,1/2+z
loop_
_atom_site_type_symbol
_atom_site_label
_atom_site_fract_x
_atom_site_fract_y
_atom_site_fract_z
Si Si1 0.801864 0.032362 0.178797
Si Si2 0.693390 0.506695 0.316499
Si Si3 0.558188 0.841978 0.022633
Si Si4 0.641060 0.740319 0.824334
Si Si5 0.656961 0.773506 0.164593
O O1 0.750000 0.094054 0.250000
O O2 0.844928 0.144644 0.202176
O O3 0.813199 0.900316 0.274554
O O4 0.796679 0.000000 0.000000
O O5 0.696086 0.500000 0.500000
O O6 0.750000 0.476924 0.250000
O O7 0.651531 0.402268 0.251667
O O8 0.672649 0.650316 0.269667
O O9 0.500000 0.794425 0.053570
O O10 0.580746 0.764967 0.869789
O O11 0.594798 0.800583 0.168464
O O12 0.561352 0.000000 0.000000
O O13 0.674161 0.751275 0.984938
#
# Coordination Sequence:
#
# PCOD8220884 Si02
#       5
#     8   8   8   8   8
#     4  12  22  34  54  81 119 155 193 242 294 351
#     4  12  24  38  56  83 123 165 197 236 296 355
#     4   9  18  37  69  93 113 147 203 257 298 343
#     4  10  20  38  57  86 112 149 201 240 289 350
#     4  10  20  38  57  86 112 149 201 240 289 350
#
# _framework density 17.803218999999999
#
# number of rings (size 3 to 8) (size 9 to 14) (size 15 to 20)
#    1.200    0.200    2.000    6.000    0.000    0.000 
#    0.000    2.000    0.000    7.200    0.000    0.000 
#    0.000    0.000    0.000    0.000    0.000    0.000 
#
# Total GULP energy -495713.599406 kJ/mol
# GULP energy per Si atom -12392.839985 kJ/mol
# Density = 1.776270 g / cm^3
# Si number density = 17.803219 Si / 1000 Ang^3
#
#
#
# Elastic Constant Matrix: (Units=GPa)
#
#
# Indices 1 2 3 4 5 6 
#
# 1 95.5140 16.7923 19.1001 0.0000 0.0000 0.0000
# 2 16.7923 69.8249 -16.8942 0.0000 0.0000 0.0000
# 3 19.1001 -16.8942 68.3967 0.0000 0.0000 0.0000
# 4 0.0000 0.0000 0.0000 -21.8391 0.0000 0.0000
# 5 0.0000 0.0000 0.0000 0.0000 20.4615 0.0000
# 6 0.0000 0.0000 0.0000 0.0000 0.0000 22.8162
#
#
#
# Elastic Compliance Matrix: (Units=1/GPa)
#
#
# Indices 1 2 3 4 5 6 
#
# 1 0.012029 -0.003941 -0.004333 0.000000 0.000000 0.000000
# 2 -0.003941 0.016523 0.005182 0.000000 0.000000 0.000000
# 3 -0.004333 0.005182 0.017110 0.000000 0.000000 0.000000
# 4 0.000000 0.000000 0.000000 -0.045789 0.000000 0.000000
# 5 0.000000 0.000000 0.000000 0.000000 0.048872 0.000000
# 6 0.000000 0.000000 0.000000 0.000000 0.000000 0.043829
#
#
# Mechanical properties :
#
#
# Convention : Reuss Voigt Hill
#
# Bulk Modulus (GPa) = 25.33017 30.19245 27.76131
# Shear Modulus (GPa) = 44.67582 18.60353 31.63967
#
# Velocity S-wave (km/s) = 5.01485 3.23608 4.22024
# Velocity P-wave (km/s) = 6.91306 5.56406 6.27492
#
# Compressibility (1/GPa) = 0.03947861
#
# Stress axis : x y z
#
# Youngs Moduli (GPa) = 83.13265 60.52132 58.44396
#
# Poissons Ratio (x) = 0.23852 0.25322
# Poissons Ratio (y) = 0.32764 -0.30285
# Poissons Ratio (z) = 0.36018 -0.31361
#
# Static dielectric constant tensor:
#      x y z
#    x 3.344450 0.000000 0.000000 
#    y 0.000000 3.334620 0.000000 
#    z 0.000000 0.000000 3.134980 
# 
# 
# High freq. dielectric constant tensor:
#      x y z
#    x 1.668440 0.000000 0.000000 
#    y 0.000000 1.699050 0.000000 
#    z 0.000000 0.000000 1.681610 
# 
# From -- ./inp_files/12864.got.cif
#   From: 2010.03.12/outbox.cif.g09.slc.cpg/sg53_7_cif.got.tgz:12864.got - 2010.04.16 14:36:59.
