data_PCOD8220218
_publ_section_title
;
Structure prediction by ZEFSAII (Michael W. Deem and Ramdas Pophale) SiO2 
 PCOD8220218
Probable space group: P M N A
;
_chemical_formula_sum "Si O2"
_cell_formula_units_Z 64
_cell_length_a 8.852662
_cell_length_b 19.739964
_cell_length_c 20.361088
_cell_angle_alpha 90.000000
_cell_angle_beta 90.000000
_cell_angle_gamma 90.000000
_cell_volume 3558.125156
_symmetry_space_group_name_H-M "P M N A"
_symmetry_group_IT_number 53
_symmetry_cell_setting 'orthorhombic'
loop_
_space_group_symop_operation_xyz
x,y,z
1/2-x,-y,1/2+z
x,-y,-z
1/2-x,y,1/2-z
-x,-y,-z
1/2+x,y,1/2-z
-x,y,z
1/2+x,-y,1/2+z
loop_
_atom_site_type_symbol
_atom_site_label
_atom_site_fract_x
_atom_site_fract_y
_atom_site_fract_z
Si Si1 0.677623 0.077085 0.317423
Si Si2 0.676641 0.576867 0.816796
Si Si3 0.179330 0.817351 0.926233
Si Si4 0.321685 0.421700 0.817861
Si Si5 0.322552 0.823106 0.427127
Si Si6 0.820789 0.076594 0.818027
Si Si7 0.321044 0.330114 0.571395
Si Si8 0.179205 0.675573 0.567826
O O1 0.750000 0.103446 0.250000
O O2 0.500000 0.081475 0.309029
O O3 0.733263 0.124589 0.376498
O O4 0.729392 0.000452 0.333205
O O5 0.750000 0.604771 0.750000
O O6 0.500000 0.583278 0.807061
O O7 0.725113 0.499471 0.829952
O O8 0.731564 0.621386 0.877967
O O9 0.263647 0.748374 0.907291
O O10 0.000000 0.804338 0.923830
O O11 0.230888 0.840671 0.999030
O O12 0.250000 0.395059 0.750000
O O13 0.500000 0.411513 0.814535
O O14 0.255183 0.379732 0.877507
O O15 0.500000 0.831390 0.423247
O O16 0.251301 0.876010 0.375432
O O17 0.275405 0.746560 0.409030
O O18 0.750000 0.101945 0.750000
O O19 0.000000 0.082804 0.812800
O O20 0.500000 0.340206 0.571230
O O21 0.258280 0.346941 0.499443
O O22 0.000000 0.676591 0.557823
#
# Coordination Sequence:
#
# PCOD8220218 Si02
#       8
#     8   8   8   8   8   8   8   8
#     4   9  18  31  49  71  97 127 161 199 243 291
#     4   9  20  36  54  75 101 131 167 208 250 295
#     4   9  18  33  50  71  97 127 162 203 245 290
#     4  10  20  36  55  76 102 133 167 207 250 296
#     4   8  16  31  50  70  95 124 161 204 242 282
#     4   9  17  31  49  70  95 126 160 198 241 288
#     4  10  20  35  53  76 104 134 167 207 250 298
#     4  10  20  35  53  75 101 132 167 206 250 298
#
# _framework density 17.987000999999999
#
# number of rings (size 3 to 8) (size 9 to 14) (size 15 to 20)
#    0.000    2.750    0.000    1.875    0.000    4.000 
#    0.000   11.875    0.000    0.000    0.000    7.000 
#    0.000    0.000    0.000    0.000    0.000    0.000 
#
# Total GULP energy -793588.104919 kJ/mol
# GULP energy per Si atom -12399.814139 kJ/mol
# Density = 1.794606 g / cm^3
# Si number density = 17.987001 Si / 1000 Ang^3
#
#
#
# Elastic Constant Matrix: (Units=GPa)
#
#
# Indices 1 2 3 4 5 6 
#
# 1 42.4678 33.6261 45.6576 0.0000 0.0000 0.0000
# 2 33.6261 108.0614 104.0345 0.0000 0.0000 0.0000
# 3 45.6576 104.0345 159.4542 0.0000 0.0000 0.0000
# 4 0.0000 0.0000 0.0000 49.7254 0.0000 0.0000
# 5 0.0000 0.0000 0.0000 0.0000 32.9502 0.0000
# 6 0.0000 0.0000 0.0000 0.0000 0.0000 24.4442
#
#
#
# Elastic Compliance Matrix: (Units=1/GPa)
#
#
# Indices 1 2 3 4 5 6 
#
# 1 0.034450 -0.003289 -0.007718 0.000000 0.000000 0.000000
# 2 -0.003289 0.025199 -0.015499 0.000000 0.000000 0.000000
# 3 -0.007718 -0.015499 0.018593 0.000000 0.000000 0.000000
# 4 0.000000 0.000000 0.000000 0.020110 0.000000 0.000000
# 5 0.000000 0.000000 0.000000 0.000000 0.030349 0.000000
# 6 0.000000 0.000000 0.000000 0.000000 0.000000 0.040910
#
#
# Mechanical properties :
#
#
# Convention : Reuss Voigt Hill
#
# Bulk Modulus (GPa) = 39.63666 75.17999 57.40832
# Shear Modulus (GPa) = 21.64191 29.86830 25.75510
#
# Velocity S-wave (km/s) = 3.47248 4.07940 3.78812
# Velocity P-wave (km/s) = 6.17751 8.00477 7.14975
#
# Compressibility (1/GPa) = 0.02522917
#
# Stress axis : x y z
#
# Youngs Moduli (GPa) = 29.02797 39.68423 53.78236
#
# Poissons Ratio (x) = 0.13054 0.41509
# Poissons Ratio (y) = 0.09549 0.83357
# Poissons Ratio (z) = 0.22404 0.61506
#
# Static dielectric constant tensor:
#      x y z
#    x 3.191340 0.000000 0.000000 
#    y 0.000000 3.491410 0.000000 
#    z 0.000000 0.000000 3.522540 
# 
# 
# High freq. dielectric constant tensor:
#      x y z
#    x 1.685580 0.000000 0.000000 
#    y 0.000000 1.695670 0.000000 
#    z 0.000000 0.000000 1.704820 
# 
# From -- ./inp_files/31287.got.cif
#   From: 2010.03.12/outbox.cif.g09.slc.cpg/sg53_16_cif.got.tgz:31287.got - 2010.04.16 14:36:59.
