data_PCOD8220372
_publ_section_title
;
Structure prediction by ZEFSAII (Michael W. Deem and Ramdas Pophale) SiO2 
 PCOD8220372
Probable space group: P M N A
;
_chemical_formula_sum "Si O2"
_cell_formula_units_Z 56
_cell_length_a 9.394509
_cell_length_b 18.625613
_cell_length_c 15.840982
_cell_angle_alpha 90.000000
_cell_angle_beta 90.000000
_cell_angle_gamma 90.000000
_cell_volume 2771.831094
_symmetry_space_group_name_H-M "P M N A"
_symmetry_group_IT_number 53
_symmetry_cell_setting 'orthorhombic'
loop_
_space_group_symop_operation_xyz
x,y,z
1/2-x,-y,1/2+z
x,-y,-z
1/2-x,y,1/2-z
-x,-y,-z
1/2+x,y,1/2-z
-x,y,z
1/2+x,-y,1/2+z
loop_
_atom_site_type_symbol
_atom_site_label
_atom_site_fract_x
_atom_site_fract_y
_atom_site_fract_z
Si Si1 0.163523 0.424718 0.326359
Si Si2 0.658333 0.714637 0.922316
Si Si3 0.338061 0.297047 0.575729
Si Si4 0.662215 0.149222 0.169302
Si Si5 0.664175 0.459294 0.588163
Si Si6 0.332575 0.154902 0.664464
Si Si7 0.334396 0.083957 0.990646
O O1 0.250000 0.389263 0.250000
O O2 0.180664 0.369124 0.402817
O O3 0.235248 0.500752 0.345874
O O4 0.000000 0.436880 0.301778
O O5 0.500000 0.728168 0.956854
O O6 0.682098 0.764507 0.839950
O O7 0.760939 0.739191 0.996597
O O8 0.500000 0.305606 0.548280
O O9 0.278887 0.377293 0.591866
O O10 0.318327 0.241656 0.653023
O O11 0.750000 0.121025 0.250000
O O12 0.500000 0.126797 0.186731
O O13 0.715213 0.116274 0.080619
O O14 0.684727 0.500000 0.500000
O O15 0.500000 0.463470 0.617170
O O16 0.250000 0.133176 0.750000
O O17 0.500000 0.133945 0.671237
O O18 0.262665 0.113567 0.585544
O O19 0.500000 0.102633 0.972009
O O20 0.309882 0.000000 0.000000
#
# Coordination Sequence:
#
# PCOD8220372 Si02
#       7
#     8   8   8   8   8   8   8
#     4  11  23  36  53  80 113 149 193 241 296 357
#     4  10  20  35  57  84 114 152 196 244 298 356
#     4  10  21  37  60  88 115 152 202 252 305 361
#     4  10  21  37  59  89 123 158 197 242 295 353
#     4  10  20  36  57  80 111 150 193 246 306 362
#     4  11  24  42  66  94 125 164 211 259 308 365
#     4  10  22  42  67  95 129 165 201 246 301 360
#
# _framework density 20.203251000000002
#
# number of rings (size 3 to 8) (size 9 to 14) (size 15 to 20)
#    0.000    1.714    2.857    1.286    0.000    4.571 
#    0.000    2.857    0.000    0.000    0.000    0.000 
#    0.000    0.000    0.000    0.000    0.000    0.000 
#
# Total GULP energy -694164.600326 kJ/mol
# GULP energy per Si atom -12395.796434 kJ/mol
# Density = 2.015727 g / cm^3
# Si number density = 20.203251 Si / 1000 Ang^3
#
#
#
# Elastic Constant Matrix: (Units=GPa)
#
#
# Indices 1 2 3 4 5 6 
#
# 1 105.6776 38.1497 72.5003 0.0000 0.0000 0.0000
# 2 38.1497 98.4633 38.0560 0.0000 0.0000 0.0000
# 3 72.5003 38.0560 127.7071 0.0000 0.0000 0.0000
# 4 0.0000 0.0000 0.0000 16.7128 0.0000 0.0000
# 5 0.0000 0.0000 0.0000 0.0000 40.0600 0.0000
# 6 0.0000 0.0000 0.0000 0.0000 0.0000 25.2722
#
#
#
# Elastic Compliance Matrix: (Units=1/GPa)
#
#
# Indices 1 2 3 4 5 6 
#
# 1 0.016293 -0.003094 -0.008328 0.000000 0.000000 0.000000
# 2 -0.003094 0.012066 -0.001839 0.000000 0.000000 0.000000
# 3 -0.008328 -0.001839 0.013106 0.000000 0.000000 0.000000
# 4 0.000000 0.000000 0.000000 0.059834 0.000000 0.000000
# 5 0.000000 0.000000 0.000000 0.000000 0.024963 0.000000
# 6 0.000000 0.000000 0.000000 0.000000 0.000000 0.039569
#
#
# Mechanical properties :
#
#
# Convention : Reuss Voigt Hill
#
# Bulk Modulus (GPa) = 66.91954 69.91779 68.41867
# Shear Modulus (GPa) = 25.33791 28.61848 26.97819
#
# Velocity S-wave (km/s) = 3.54524 3.76776 3.65819
# Velocity P-wave (km/s) = 7.06777 7.32191 7.19596
#
# Compressibility (1/GPa) = 0.01494332
#
# Stress axis : x y z
#
# Youngs Moduli (GPa) = 61.37664 82.88009 76.30068
#
# Poissons Ratio (x) = 0.25644 0.63540
# Poissons Ratio (y) = 0.18990 0.14031
# Poissons Ratio (z) = 0.51112 0.15241
#
# Static dielectric constant tensor:
#      x y z
#    x 3.655170 0.000000 0.000000 
#    y 0.000000 3.801920 0.000000 
#    z 0.000000 0.000000 3.477620 
# 
# 
# High freq. dielectric constant tensor:
#      x y z
#    x 1.787170 0.000000 0.000000 
#    y 0.000000 1.794040 0.000000 
#    z 0.000000 0.000000 1.777500 
# 
# From -- ./inp_files/20657.got.cif
#   From: 2010.03.12/outbox.cif.g09.slc.cpg/sg53_11_cif.got.tgz:20657.got - 2010.04.16 14:36:59.
