data_PCOD8220882
_publ_section_title
;
Structure prediction by ZEFSAII (Michael W. Deem and Ramdas Pophale) SiO2 
 PCOD8220882
Probable space group: P M N A
;
_chemical_formula_sum "Si O2"
_cell_formula_units_Z 64
_cell_length_a 8.981911
_cell_length_b 16.152286
_cell_length_c 23.244357
_cell_angle_alpha 90.000000
_cell_angle_beta 90.000000
_cell_angle_gamma 90.000000
_cell_volume 3372.254013
_symmetry_space_group_name_H-M "P M N A"
_symmetry_group_IT_number 53
_symmetry_cell_setting 'orthorhombic'
loop_
_space_group_symop_operation_xyz
x,y,z
1/2-x,-y,1/2+z
x,-y,-z
1/2-x,y,1/2-z
-x,-y,-z
1/2+x,y,1/2-z
-x,y,z
1/2+x,-y,1/2+z
loop_
_atom_site_type_symbol
_atom_site_label
_atom_site_fract_x
_atom_site_fract_y
_atom_site_fract_z
Si Si1 0.659430 0.587909 0.977895
Si Si2 0.828579 0.047885 0.085029
Si Si3 0.677119 0.394076 0.811821
Si Si4 0.675836 0.291456 0.922384
Si Si5 0.676290 0.121558 0.188348
Si Si6 0.833116 0.716855 0.806530
Si Si7 0.170508 0.130108 0.968713
Si Si8 0.834571 0.545966 0.868698
O O1 0.500000 0.626533 0.954956
O O2 0.784458 0.568583 0.932033
O O3 0.610940 0.500000 0.000000
O O4 0.729823 0.645215 0.028072
O O5 0.725334 0.055086 0.141006
O O6 0.000000 0.066668 0.100450
O O7 0.809185 0.953711 0.066384
O O8 0.776716 0.111287 0.034310
O O9 0.750000 0.372823 0.750000
O O10 0.500000 0.396028 0.804132
O O11 0.727510 0.325681 0.859493
O O12 0.726674 0.484669 0.833959
O O13 0.500000 0.286314 0.922326
O O14 0.737758 0.200939 0.936364
O O15 0.750000 0.101435 0.250000
O O16 0.500000 0.121792 0.194679
O O17 0.738335 0.209271 0.164480
O O18 0.750000 0.688615 0.750000
O O19 0.837422 0.636619 0.843845
O O20 0.000000 0.749669 0.793322
O O21 0.000000 0.158755 0.969437
O O22 0.000000 0.506608 0.868953
#
# Coordination Sequence:
#
# PCOD8220882 Si02
#       8
#     8   8   8   8   8   8   8   8
#     4  10  20  38  57  78 113 154 187 227 282 334
#     4   9  19  39  61  86 118 150 185 228 284 343
#     4  11  23  41  61  82 112 152 194 241 291 339
#     4  10  22  39  59  85 118 152 189 236 288 338
#     4  11  22  36  57  84 114 152 191 232 281 338
#     4  10  21  36  52  76 111 147 186 229 274 326
#     4   9  20  38  63  88 115 150 186 233 286 340
#     4  11  23  36  55  84 112 148 193 237 282 333
#
# _framework density 18.978404000000001
#
# number of rings (size 3 to 8) (size 9 to 14) (size 15 to 20)
#    0.000    1.875    1.250    4.125    1.750    5.750 
#    0.000    1.875    0.000    1.500    0.000    0.000 
#    0.000    0.000    0.000    0.000    0.000    0.000 
#
# Total GULP energy -793067.917376 kJ/mol
# GULP energy per Si atom -12391.686209 kJ/mol
# Density = 1.893521 g / cm^3
# Si number density = 18.978404 Si / 1000 Ang^3
#
#
#
# Elastic Constant Matrix: (Units=GPa)
#
#
# Indices 1 2 3 4 5 6 
#
# 1 68.0607 12.7389 40.2630 0.0000 0.0000 0.0000
# 2 12.7389 56.8572 47.4760 0.0000 0.0000 0.0000
# 3 40.2630 47.4760 109.8788 0.0000 0.0000 0.0000
# 4 0.0000 0.0000 0.0000 9.7597 0.0000 0.0000
# 5 0.0000 0.0000 0.0000 0.0000 31.5521 0.0000
# 6 0.0000 0.0000 0.0000 0.0000 0.0000 32.8900
#
#
#
# Elastic Compliance Matrix: (Units=1/GPa)
#
#
# Indices 1 2 3 4 5 6 
#
# 1 0.018972 0.002431 -0.008002 0.000000 0.000000 0.000000
# 2 0.002431 0.027827 -0.012914 0.000000 0.000000 0.000000
# 3 -0.008002 -0.012914 0.017613 0.000000 0.000000 0.000000
# 4 0.000000 0.000000 0.000000 0.102462 0.000000 0.000000
# 5 0.000000 0.000000 0.000000 0.000000 0.031694 0.000000
# 6 0.000000 0.000000 0.000000 0.000000 0.000000 0.030404
#
#
# Mechanical properties :
#
#
# Convention : Reuss Voigt Hill
#
# Bulk Modulus (GPa) = 36.44162 48.41695 42.42929
# Shear Modulus (GPa) = 18.17595 23.79494 20.98544
#
# Velocity S-wave (km/s) = 3.09806 3.54473 3.32890
# Velocity P-wave (km/s) = 5.66044 6.50542 6.09758
#
# Compressibility (1/GPa) = 0.02744115
#
# Stress axis : x y z
#
# Youngs Moduli (GPa) = 52.71016 35.93689 56.77578
#
# Poissons Ratio (x) = -0.08738 0.45434
# Poissons Ratio (y) = -0.12816 0.73321
# Poissons Ratio (z) = 0.42181 0.46409
#
# Static dielectric constant tensor:
#      x y z
#    x 3.687960 0.000000 0.000000 
#    y 0.000000 3.370150 0.000000 
#    z 0.000000 0.000000 3.532610 
# 
# 
# High freq. dielectric constant tensor:
#      x y z
#    x 1.744070 0.000000 0.000000 
#    y 0.000000 1.728240 0.000000 
#    z 0.000000 0.000000 1.740080 
# 
# From -- ./inp_files/34351.got.cif
#   From: 2010.03.12/outbox.cif.g09.slc.cpg/sg53_18_cif.got.tgz:34351.got - 2010.04.16 14:36:59.
