data_PCOD8220238
_publ_section_title
;
Structure prediction by ZEFSAII (Michael W. Deem and Ramdas Pophale) SiO2 
 PCOD8220238
Probable space group: P M N A
;
_chemical_formula_sum "Si O2"
_cell_formula_units_Z 56
_cell_length_a 9.210591
_cell_length_b 18.964339
_cell_length_c 15.845221
_cell_angle_alpha 90.000000
_cell_angle_beta 90.000000
_cell_angle_gamma 90.000000
_cell_volume 2767.728645
_symmetry_space_group_name_H-M "P M N A"
_symmetry_group_IT_number 53
_symmetry_cell_setting 'orthorhombic'
loop_
_space_group_symop_operation_xyz
x,y,z
1/2-x,-y,1/2+z
x,-y,-z
1/2-x,y,1/2-z
-x,-y,-z
1/2+x,y,1/2-z
-x,y,z
1/2+x,-y,1/2+z
loop_
_atom_site_type_symbol
_atom_site_label
_atom_site_fract_x
_atom_site_fract_y
_atom_site_fract_z
Si Si1 0.665576 0.784934 0.425972
Si Si2 0.165969 0.795378 0.584129
Si Si3 0.833444 0.923553 0.164311
Si Si4 0.333824 0.652662 0.833406
Si Si5 0.667503 0.645836 0.335485
Si Si6 0.833802 0.416753 0.506088
Si Si7 0.331238 0.919324 0.662380
O O1 0.500000 0.786290 0.459721
O O2 0.774516 0.759154 0.498907
O O3 0.717817 0.863275 0.399826
O O4 0.679985 0.730235 0.348760
O O5 0.181595 0.737496 0.657842
O O6 0.264244 0.864082 0.597697
O O7 0.000000 0.818907 0.573094
O O8 0.750000 0.914510 0.250000
O O9 0.000000 0.911409 0.187201
O O10 0.808354 0.001700 0.125472
O O11 0.250000 0.627122 0.750000
O O12 0.500000 0.630356 0.820610
O O13 0.272764 0.615090 0.917813
O O14 0.750000 0.624260 0.250000
O O15 0.500000 0.622522 0.327008
O O16 0.735762 0.606910 0.415767
O O17 0.825206 0.500000 0.500000
O O18 0.000000 0.390981 0.520111
O O19 0.250000 0.910289 0.750000
O O20 0.500000 0.902441 0.676607
#
# Coordination Sequence:
#
# PCOD8220238 Si02
#       7
#     8   8   8   8   8   8   8
#     4  10  21  37  57  83 114 153 198 247 301 353
#     4  11  22  36  56  82 113 151 197 249 299 353
#     4   9  19  35  54  77 108 147 193 243 298 354
#     4  10  22  39  61  89 119 156 198 244 297 352
#     4  11  23  39  64  94 126 164 205 251 301 359
#     4  10  22  43  67  92 126 162 199 247 300 357
#     4  10  20  35  54  77 109 148 192 244 297 356
#
# _framework density 20.233198000000002
#
# number of rings (size 3 to 8) (size 9 to 14) (size 15 to 20)
#    0.000    1.857    1.429    2.143    0.000    6.000 
#    0.000    4.286    0.000    0.000    0.000    0.000 
#    0.000    0.000    0.000    0.000    0.000    0.000 
#
# Total GULP energy -694423.443356 kJ/mol
# GULP energy per Si atom -12400.418631 kJ/mol
# Density = 2.018715 g / cm^3
# Si number density = 20.233198 Si / 1000 Ang^3
#
#
#
# Elastic Constant Matrix: (Units=GPa)
#
#
# Indices 1 2 3 4 5 6 
#
# 1 110.3839 39.1292 66.1506 0.0000 0.0000 0.0000
# 2 39.1292 78.0333 35.3949 0.0000 0.0000 0.0000
# 3 66.1506 35.3949 132.9012 0.0000 0.0000 0.0000
# 4 0.0000 0.0000 0.0000 20.0703 0.0000 0.0000
# 5 0.0000 0.0000 0.0000 0.0000 38.7066 0.0000
# 6 0.0000 0.0000 0.0000 0.0000 0.0000 25.9103
#
#
#
# Elastic Compliance Matrix: (Units=1/GPa)
#
#
# Indices 1 2 3 4 5 6 
#
# 1 0.014142 -0.004434 -0.005858 0.000000 0.000000 0.000000
# 2 -0.004434 0.015966 -0.002045 0.000000 0.000000 0.000000
# 3 -0.005858 -0.002045 0.010985 0.000000 0.000000 0.000000
# 4 0.000000 0.000000 0.000000 0.049825 0.000000 0.000000
# 5 0.000000 0.000000 0.000000 0.000000 0.025835 0.000000
# 6 0.000000 0.000000 0.000000 0.000000 0.000000 0.038595
#
#
# Mechanical properties :
#
#
# Convention : Reuss Voigt Hill
#
# Bulk Modulus (GPa) = 60.90820 66.96309 63.93564
# Shear Modulus (GPa) = 26.95492 28.98034 27.96763
#
# Velocity S-wave (km/s) = 3.65391 3.78870 3.72192
# Velocity P-wave (km/s) = 6.92603 7.23232 7.08083
#
# Compressibility (1/GPa) = 0.01641815
#
# Stress axis : x y z
#
# Youngs Moduli (GPa) = 70.71298 62.63247 91.03463
#
# Poissons Ratio (x) = 0.27772 0.53328
# Poissons Ratio (y) = 0.31355 0.18618
# Poissons Ratio (z) = 0.41424 0.12809
#
# Static dielectric constant tensor:
#      x y z
#    x 3.691310 0.000000 0.000000 
#    y 0.000000 3.755420 0.000000 
#    z 0.000000 0.000000 4.182540 
# 
# 
# High freq. dielectric constant tensor:
#      x y z
#    x 1.790790 0.000000 0.000000 
#    y 0.000000 1.795550 0.000000 
#    z 0.000000 0.000000 1.782060 
# 
# From -- ./inp_files/20536.got.cif
#   From: 2010.03.12/outbox.cif.g09.slc.cpg/sg53_11_cif.got.tgz:20536.got - 2010.04.16 14:36:59.
