data_PCOD8220531
_publ_section_title
;
Structure prediction by ZEFSAII (Michael W. Deem and Ramdas Pophale) SiO2 
 PCOD8220531
Probable space group: P M N A
;
_chemical_formula_sum "Si O2"
_cell_formula_units_Z 48
_cell_length_a 9.004815
_cell_length_b 30.409505
_cell_length_c 9.143291
_cell_angle_alpha 90.000000
_cell_angle_beta 90.000000
_cell_angle_gamma 90.000000
_cell_volume 2503.725357
_symmetry_space_group_name_H-M "P M N A"
_symmetry_group_IT_number 53
_symmetry_cell_setting 'orthorhombic'
loop_
_space_group_symop_operation_xyz
x,y,z
1/2-x,-y,1/2+z
x,-y,-z
1/2-x,y,1/2-z
-x,-y,-z
1/2+x,y,1/2-z
-x,y,z
1/2+x,-y,1/2+z
loop_
_atom_site_type_symbol
_atom_site_label
_atom_site_fract_x
_atom_site_fract_y
_atom_site_fract_z
Si Si1 0.824630 0.779971 0.596812
Si Si2 0.175425 0.709191 0.096315
Si Si3 0.175096 0.457809 0.906719
Si Si4 0.674686 0.959054 0.096471
Si Si5 0.673336 0.375363 0.405798
Si Si6 0.672538 0.880591 0.898322
O O1 0.750000 0.766259 0.750000
O O2 0.750262 0.753065 0.466170
O O3 0.789269 0.830571 0.558839
O O4 0.000000 0.770383 0.606413
O O5 0.250000 0.697401 0.250000
O O6 0.000000 0.716245 0.117129
O O7 0.211806 0.670046 0.985140
O O8 0.250000 0.459932 0.750000
O O9 0.000000 0.456108 0.881988
O O10 0.223717 0.500000 0.000000
O O11 0.232637 0.414950 0.993159
O O12 0.750000 0.964047 0.250000
O O13 0.500000 0.959616 0.118847
O O14 0.728162 0.913106 0.025127
O O15 0.728201 0.000000 0.000000
O O16 0.750000 0.376608 0.250000
O O17 0.500000 0.380902 0.378065
O O18 0.750000 0.895062 0.750000
O O19 0.500000 0.886753 0.869674
#
# Coordination Sequence:
#
# PCOD8220531 Si02
#       6
#     8   8   8   8   8   8
#     4  10  20  36  57  81 110 143 181 223 268 320
#     4  11  23  38  56  80 110 144 183 226 274 324
#     4  10  21  37  57  83 113 144 181 222 266 318
#     4  10  21  36  54  78 107 138 175 217 262 314
#     4  10  22  38  57  82 110 142 181 224 270 322
#     4   9  19  35  55  80 108 139 176 218 263 314
#
# _framework density 19.171433
#
# number of rings (size 3 to 8) (size 9 to 14) (size 15 to 20)
#    0.000    2.000    0.000    3.000    0.000    6.000 
#    0.000    1.667    0.000    0.000    0.000    0.000 
#    0.000    0.000    0.000    0.000    0.000    0.000 
#
# Total GULP energy -595390.180430 kJ/mol
# GULP energy per Si atom -12403.962092 kJ/mol
# Density = 1.912780 g / cm^3
# Si number density = 19.171433 Si / 1000 Ang^3
#
#
#
# Elastic Constant Matrix: (Units=GPa)
#
#
# Indices 1 2 3 4 5 6 
#
# 1 62.8099 48.7766 64.7101 0.0000 0.0000 0.0000
# 2 48.7766 125.5047 81.8525 0.0000 0.0000 0.0000
# 3 64.7101 81.8525 176.0067 0.0000 0.0000 0.0000
# 4 0.0000 0.0000 0.0000 35.4080 0.0000 0.0000
# 5 0.0000 0.0000 0.0000 0.0000 41.6712 0.0000
# 6 0.0000 0.0000 0.0000 0.0000 0.0000 23.1626
#
#
#
# Elastic Compliance Matrix: (Units=1/GPa)
#
#
# Indices 1 2 3 4 5 6 
#
# 1 0.028550 -0.006100 -0.007660 0.000000 0.000000 0.000000
# 2 -0.006100 0.012740 -0.003682 0.000000 0.000000 0.000000
# 3 -0.007660 -0.003682 0.010210 0.000000 0.000000 0.000000
# 4 0.000000 0.000000 0.000000 0.028242 0.000000 0.000000
# 5 0.000000 0.000000 0.000000 0.000000 0.023997 0.000000
# 6 0.000000 0.000000 0.000000 0.000000 0.000000 0.043173
#
#
# Mechanical properties :
#
#
# Convention : Reuss Voigt Hill
#
# Bulk Modulus (GPa) = 60.18239 83.88883 72.03561
# Shear Modulus (GPa) = 26.69026 31.31384 29.00205
#
# Velocity S-wave (km/s) = 3.73525 4.04587 3.89366
# Velocity P-wave (km/s) = 7.07550 8.10417 7.60724
#
# Compressibility (1/GPa) = 0.01661616
#
# Stress axis : x y z
#
# Youngs Moduli (GPa) = 35.02678 78.49317 97.94296
#
# Poissons Ratio (x) = 0.47882 0.75020
# Poissons Ratio (y) = 0.21367 0.36063
# Poissons Ratio (z) = 0.26829 0.28901
#
# Static dielectric constant tensor:
#      x y z
#    x 3.465440 0.000000 0.000000 
#    y 0.000000 3.812380 0.000000 
#    z 0.000000 0.000000 3.404370 
# 
# 
# High freq. dielectric constant tensor:
#      x y z
#    x 1.743210 0.000000 0.000000 
#    y 0.000000 1.763030 0.000000 
#    z 0.000000 0.000000 1.751530 
# 
# From -- ./inp_files/6589.got.cif
#   From: 2010.03.12/outbox.cif.g09.slc.cpg/sg53_4_cif.got.tgz:6589.got - 2010.04.16 14:36:59.
