data_PCOD8220789
_publ_section_title
;
Structure prediction by ZEFSAII (Michael W. Deem and Ramdas Pophale) SiO2 
 PCOD8220789
Probable space group: P M N A
;
_chemical_formula_sum "Si O2"
_cell_formula_units_Z 40
_cell_length_a 8.500712
_cell_length_b 12.761117
_cell_length_c 18.387082
_cell_angle_alpha 90.000000
_cell_angle_beta 90.000000
_cell_angle_gamma 90.000000
_cell_volume 1994.604553
_symmetry_space_group_name_H-M "P M N A"
_symmetry_group_IT_number 53
_symmetry_cell_setting 'orthorhombic'
loop_
_space_group_symop_operation_xyz
x,y,z
1/2-x,-y,1/2+z
x,-y,-z
1/2-x,y,1/2-z
-x,-y,-z
1/2+x,y,1/2-z
-x,y,z
1/2+x,-y,1/2+z
loop_
_atom_site_type_symbol
_atom_site_label
_atom_site_fract_x
_atom_site_fract_y
_atom_site_fract_z
Si Si1 0.315915 0.100358 0.585734
Si Si2 0.313082 0.490829 0.918535
Si Si3 0.684778 0.121740 0.069369
Si Si4 0.185985 0.689167 0.669605
Si Si5 0.186518 0.709694 0.328811
O O1 0.500000 0.078884 0.590993
O O2 0.273091 0.143741 0.506214
O O3 0.264037 0.181822 0.646917
O O4 0.225889 0.991916 0.601366
O O5 0.500000 0.497363 0.920863
O O6 0.245702 0.586397 0.870490
O O7 0.258205 0.381419 0.883725
O O8 0.243985 0.500000 0.000000
O O9 0.500000 0.130270 0.053921
O O10 0.743094 0.208309 0.126321
O O11 0.250000 0.695257 0.750000
O O12 0.000000 0.684302 0.672612
O O13 0.250000 0.678857 0.250000
O O14 0.000000 0.721645 0.327525
#
# Coordination Sequence:
#
# PCOD8220789 Si02
#       5
#     8   8   8   8   8
#     4  11  22  37  58  84 114 147 188 236 284 332
#     4   9  18  35  59  84 110 144 186 229 276 333
#     4  10  20  37  60  84 112 149 192 232 278 334
#     4  10  21  36  57  84 114 148 183 226 278 332
#     4  11  22  37  58  83 115 151 188 231 280 335
#
# _framework density 20.054099999999998
#
# number of rings (size 3 to 8) (size 9 to 14) (size 15 to 20)
#    0.000    1.800    0.000    6.000    0.000    5.600 
#    0.000    3.000    0.000    4.200    0.000    0.000 
#    0.000    0.000    0.000    0.000    0.000    0.000 
#
# Total GULP energy -496162.156063 kJ/mol
# GULP energy per Si atom -12404.053902 kJ/mol
# Density = 2.000846 g / cm^3
# Si number density = 20.054100 Si / 1000 Ang^3
#
#
#
# Elastic Constant Matrix: (Units=GPa)
#
#
# Indices 1 2 3 4 5 6 
#
# 1 41.4187 9.1678 9.3988 0.0000 0.0000 0.0000
# 2 9.1678 105.1562 46.7938 0.0000 0.0000 0.0000
# 3 9.3988 46.7938 108.1918 0.0000 0.0000 0.0000
# 4 0.0000 0.0000 0.0000 233.6142 0.0000 0.0000
# 5 0.0000 0.0000 0.0000 0.0000 33.1511 0.0000
# 6 0.0000 0.0000 0.0000 0.0000 0.0000 11.1401
#
#
#
# Elastic Compliance Matrix: (Units=1/GPa)
#
#
# Indices 1 2 3 4 5 6 
#
# 1 0.024817 -0.001491 -0.001511 0.000000 0.000000 0.000000
# 2 -0.001491 0.011866 -0.005002 0.000000 0.000000 0.000000
# 3 -0.001511 -0.005002 0.011538 0.000000 0.000000 0.000000
# 4 0.000000 0.000000 0.000000 0.004281 0.000000 0.000000
# 5 0.000000 0.000000 0.000000 0.000000 0.030165 0.000000
# 6 0.000000 0.000000 0.000000 0.000000 0.000000 0.089766
#
#
# Mechanical properties :
#
#
# Convention : Reuss Voigt Hill
#
# Bulk Modulus (GPa) = 31.04546 42.83195 36.93870
# Shear Modulus (GPa) = 25.10325 68.20818 46.65572
#
# Velocity S-wave (km/s) = 3.54188 5.83832 4.82861
# Velocity P-wave (km/s) = 5.67812 8.17634 7.03895
#
# Compressibility (1/GPa) = 0.03221083
#
# Stress axis : x y z
#
# Youngs Moduli (GPa) = 40.29563 84.27631 86.67237
#
# Poissons Ratio (x) = 0.12567 0.13095
# Poissons Ratio (y) = 0.06009 0.43358
# Poissons Ratio (z) = 0.06088 0.42159
#
# Static dielectric constant tensor:
#      x y z
#    x 3.476200 0.000000 0.000000 
#    y 0.000000 3.929450 0.000000 
#    z 0.000000 0.000000 4.029950 
# 
# 
# High freq. dielectric constant tensor:
#      x y z
#    x 1.766150 0.000000 0.000000 
#    y 0.000000 1.798240 0.000000 
#    z 0.000000 0.000000 1.787800 
# 
# From -- ./inp_files/25853.got.cif
#   From: 2010.03.12/outbox.cif.g09.slc.cpg/sg53_13_cif.got.tgz:25853.got - 2010.04.16 14:36:59.
