data_PCOD8220026
_publ_section_title
;
Structure prediction by ZEFSAII (Michael W. Deem and Ramdas Pophale) SiO2 
 PCOD8220026
Probable space group: P M N A
;
_chemical_formula_sum "Si O2"
_cell_formula_units_Z 64
_cell_length_a 18.938233
_cell_length_b 22.737168
_cell_length_c 8.032289
_cell_angle_alpha 90.000000
_cell_angle_beta 90.000000
_cell_angle_gamma 90.000000
_cell_volume 3458.717984
_symmetry_space_group_name_H-M "P M N A"
_symmetry_group_IT_number 53
_symmetry_cell_setting 'orthorhombic'
loop_
_space_group_symop_operation_xyz
x,y,z
1/2-x,-y,1/2+z
x,-y,-z
1/2-x,y,1/2-z
-x,-y,-z
1/2+x,y,1/2-z
-x,y,z
1/2+x,-y,1/2+z
loop_
_atom_site_type_symbol
_atom_site_label
_atom_site_fract_x
_atom_site_fract_y
_atom_site_fract_z
Si Si1 0.082145 0.671878 0.937952
Si Si2 0.332295 0.564497 0.443061
Si Si3 0.416291 0.252670 0.751867
Si Si4 0.825692 0.982189 0.182180
Si Si5 0.668168 0.564469 0.056077
Si Si6 0.417775 0.329008 0.063331
Si Si7 0.423755 0.056019 0.115793
Si Si8 0.417490 0.121999 0.799717
O O1 0.094239 0.697379 0.750308
O O2 0.000000 0.659030 0.969397
O O3 0.123294 0.610844 0.951441
O O4 0.110323 0.716772 0.080573
O O5 0.356328 0.500000 0.500000
O O6 0.250275 0.574406 0.483711
O O7 0.348788 0.573435 0.249469
O O8 0.500000 0.250548 0.757706
O O9 0.387011 0.186146 0.754259
O O10 0.388614 0.285506 0.918909
O O11 0.750000 0.964087 0.250000
O O12 0.860152 0.041471 0.260180
O O13 0.877199 0.926462 0.191120
O O14 0.808705 0.000000 0.000000
O O15 0.644276 0.500000 0.000000
O O16 0.623631 0.609986 0.947983
O O17 0.500000 0.342020 0.033311
O O18 0.500000 0.067513 0.206181
O O19 0.404546 0.111306 0.997545
O O20 0.433292 0.000000 0.000000
O O21 0.500000 0.116114 0.756090
#
# Coordination Sequence:
#
# PCOD8220026 Si02
#       8
#     8   8   8   8   8   8   8   8
#     4  10  20  35  56  80 107 139 179 221 266 324
#     4  10  20  34  53  77 105 138 177 222 276 326
#     4   9  18  36  57  79 112 145 176 222 270 315
#     4  11  21  34  54  79 111 146 178 218 266 313
#     4  10  20  34  53  77 105 139 177 222 274 328
#     4  10  20  35  56  80 105 140 179 218 271 324
#     4   8  15  30  52  77 104 134 170 210 256 308
#     4   9  18  35  57  80 108 142 176 216 265 314
#
# _framework density 18.503966999999999
#
# number of rings (size 3 to 8) (size 9 to 14) (size 15 to 20)
#    0.000    2.375    1.250    3.000    0.000    3.000 
#    2.250    1.250    0.000    0.000    0.000    0.000 
#    0.000    0.000    0.000    0.000    0.000    0.000 
#
# Total GULP energy -793302.618046 kJ/mol
# GULP energy per Si atom -12395.353407 kJ/mol
# Density = 1.846185 g / cm^3
# Si number density = 18.503967 Si / 1000 Ang^3
#
#
#
# Elastic Constant Matrix: (Units=GPa)
#
#
# Indices 1 2 3 4 5 6 
#
# 1 55.9549 37.7282 32.8433 0.0000 0.0000 0.0000
# 2 37.7282 116.1391 56.0458 0.0000 0.0000 0.0000
# 3 32.8433 56.0458 117.5767 0.0000 0.0000 0.0000
# 4 0.0000 0.0000 0.0000 25.0657 0.0000 0.0000
# 5 0.0000 0.0000 0.0000 0.0000 24.2728 0.0000
# 6 0.0000 0.0000 0.0000 0.0000 0.0000 53.7502
#
#
#
# Elastic Compliance Matrix: (Units=1/GPa)
#
#
# Indices 1 2 3 4 5 6 
#
# 1 0.024194 -0.005972 -0.003912 0.000000 0.000000 0.000000
# 2 -0.005972 0.012657 -0.004365 0.000000 0.000000 0.000000
# 3 -0.003912 -0.004365 0.011678 0.000000 0.000000 0.000000
# 4 0.000000 0.000000 0.000000 0.039895 0.000000 0.000000
# 5 0.000000 0.000000 0.000000 0.000000 0.041198 0.000000
# 6 0.000000 0.000000 0.000000 0.000000 0.000000 0.018605
#
#
# Mechanical properties :
#
#
# Convention : Reuss Voigt Hill
#
# Bulk Modulus (GPa) = 49.91938 60.32278 55.12108
# Shear Modulus (GPa) = 27.26256 31.48800 29.37528
#
# Velocity S-wave (km/s) = 3.84257 4.12963 3.98868
# Velocity P-wave (km/s) = 6.83545 7.44373 7.14607
#
# Compressibility (1/GPa) = 0.02003230
#
# Stress axis : x y z
#
# Youngs Moduli (GPa) = 41.33241 79.00896 85.62799
#
# Poissons Ratio (x) = 0.47183 0.33494
# Poissons Ratio (y) = 0.24683 0.37377
# Poissons Ratio (z) = 0.16168 0.34487
#
# Static dielectric constant tensor:
#      x y z
#    x 3.265710 0.000000 0.000000 
#    y 0.000000 3.744240 0.000000 
#    z 0.000000 0.000000 3.662430 
# 
# 
# High freq. dielectric constant tensor:
#      x y z
#    x 1.701420 0.000000 0.000000 
#    y 0.000000 1.703860 0.000000 
#    z 0.000000 0.000000 1.722370 
# 
# From -- ./inp_files/10256.got.cif
#   From: 2010.03.12/outbox.cif.g09.slc.cpg/sg53_6_cif.got.tgz:10256.got - 2010.04.16 14:36:59.
