data_PCOD8220199
_publ_section_title
;
Structure prediction by ZEFSAII (Michael W. Deem and Ramdas Pophale) SiO2 
 PCOD8220199
Probable space group: P M N A
;
_chemical_formula_sum "Si O2"
_cell_formula_units_Z 48
_cell_length_a 30.349415
_cell_length_b 8.711420
_cell_length_c 8.975049
_cell_angle_alpha 90.000000
_cell_angle_beta 90.000000
_cell_angle_gamma 90.000000
_cell_volume 2372.881800
_symmetry_space_group_name_H-M "P M N A"
_symmetry_group_IT_number 53
_symmetry_cell_setting 'orthorhombic'
loop_
_space_group_symop_operation_xyz
x,y,z
1/2-x,-y,1/2+z
x,-y,-z
1/2-x,y,1/2-z
-x,-y,-z
1/2+x,y,1/2-z
-x,y,z
1/2+x,-y,1/2+z
loop_
_atom_site_type_symbol
_atom_site_label
_atom_site_fract_x
_atom_site_fract_y
_atom_site_fract_z
Si Si1 0.373722 0.262250 0.200424
Si Si2 0.450526 0.337808 0.577604
Si Si3 0.177524 0.500000 0.500000
Si Si4 0.138717 0.179382 0.981045
Si Si5 0.201237 0.762053 0.293181
Si Si6 0.846704 0.000000 0.500000
Si Si7 0.950634 0.460081 0.340195
O O1 0.348217 0.250435 0.358164
O O2 0.376485 0.099801 0.113349
O O3 0.423164 0.321352 0.234946
O O4 0.351305 0.388204 0.099020
O O5 0.440067 0.500000 0.500000
O O6 0.500000 0.278851 0.532931
O O7 0.413087 0.211247 0.549059
O O8 0.448743 0.379173 0.752221
O O9 0.205541 0.601116 0.382761
O O10 0.169487 0.251752 0.852135
O O11 0.146376 0.000000 0.000000
O O12 0.250000 0.813099 0.250000
O O13 0.184073 0.892092 0.402592
O O14 0.930357 0.500000 0.500000
O O15 0.000000 0.395839 0.351642
#
# Coordination Sequence:
#
# PCOD8220199 Si02
#       7
#     8   8   4   8   8   4   8
#     4  11  21  40  64  91 130 164 219 264 320 385
#     4  10  21  38  61  92 127 168 216 267 322 377
#     4  10  24  42  65  96 120 166 203 276 320 370
#     4  12  25  40  63  98 129 176 213 264 323 392
#     4  11  26  45  68  96 129 166 217 263 333 388
#     4  10  24  42  65  88 128 172 205 262 324 400
#     4  10  20  34  59  91 125 169 218 267 318 374
#
# _framework density 20.228569
#
# number of rings (size 3 to 8) (size 9 to 14) (size 15 to 20)
#    0.000    1.333    4.167    1.000    3.500    1.667 
#    0.000    3.750    0.000    0.000    0.000    0.000 
#    0.000    0.000    0.000    0.000    0.000    0.000 
#
# Total GULP energy -594942.616702 kJ/mol
# GULP energy per Si atom -12394.637848 kJ/mol
# Density = 2.018253 g / cm^3
# Si number density = 20.228569 Si / 1000 Ang^3
#
#
#
# Elastic Constant Matrix: (Units=GPa)
#
#
# Indices 1 2 3 4 5 6 
#
# 1 93.4415 24.9555 24.2630 0.0000 0.0000 0.0000
# 2 24.9555 83.5883 31.6639 0.0000 0.0000 0.0000
# 3 24.2630 31.6639 135.0129 0.0000 0.0000 0.0000
# 4 0.0000 0.0000 0.0000 30.1653 0.0000 0.0000
# 5 0.0000 0.0000 0.0000 0.0000 25.0665 0.0000
# 6 0.0000 0.0000 0.0000 0.0000 0.0000 17.8284
#
#
#
# Elastic Compliance Matrix: (Units=1/GPa)
#
#
# Indices 1 2 3 4 5 6 
#
# 1 0.011875 -0.003004 -0.001430 0.000000 0.000000 0.000000
# 2 -0.003004 0.013890 -0.002718 0.000000 0.000000 0.000000
# 3 -0.001430 -0.002718 0.008301 0.000000 0.000000 0.000000
# 4 0.000000 0.000000 0.000000 0.033151 0.000000 0.000000
# 5 0.000000 0.000000 0.000000 0.000000 0.039894 0.000000
# 6 0.000000 0.000000 0.000000 0.000000 0.000000 0.056090
#
#
# Mechanical properties :
#
#
# Convention : Reuss Voigt Hill
#
# Bulk Modulus (GPa) = 50.59778 52.64527 51.62153
# Shear Modulus (GPa) = 27.16051 30.02275 28.59163
#
# Velocity S-wave (km/s) = 3.66824 3.85668 3.76364
# Velocity P-wave (km/s) = 6.55809 6.77596 6.66792
#
# Compressibility (1/GPa) = 0.01976371
#
# Stress axis : x y z
#
# Youngs Moduli (GPa) = 84.20814 71.99592 120.46785
#
# Poissons Ratio (x) = 0.21627 0.17222
# Poissons Ratio (y) = 0.25295 0.32739
# Poissons Ratio (z) = 0.12039 0.19566
#
# Static dielectric constant tensor:
#      x y z
#    x 3.512480 0.000000 0.000000 
#    y 0.000000 3.721710 0.000000 
#    z 0.000000 0.000000 4.304540 
# 
# 
# High freq. dielectric constant tensor:
#      x y z
#    x 1.773440 0.000000 0.000000 
#    y 0.000000 1.773340 0.000000 
#    z 0.000000 0.000000 1.822170 
# 
# From -- ./inp_files/13072.got.cif
#   From: 2010.03.12/outbox.cif.g09.slc.cpg/sg53_7_cif.got.tgz:13072.got - 2010.04.16 14:36:59.
