data_PCOD8220586
_publ_section_title
;
Structure prediction by ZEFSAII (Michael W. Deem and Ramdas Pophale) SiO2 
 PCOD8220586
Probable space group: P M N A
;
_chemical_formula_sum "Si O2"
_cell_formula_units_Z 48
_cell_length_a 8.994161
_cell_length_b 14.690184
_cell_length_c 19.237287
_cell_angle_alpha 90.000000
_cell_angle_beta 90.000000
_cell_angle_gamma 90.000000
_cell_volume 2541.743474
_symmetry_space_group_name_H-M "P M N A"
_symmetry_group_IT_number 53
_symmetry_cell_setting 'orthorhombic'
loop_
_space_group_symop_operation_xyz
x,y,z
1/2-x,-y,1/2+z
x,-y,-z
1/2-x,y,1/2-z
-x,-y,-z
1/2+x,y,1/2-z
-x,y,z
1/2+x,-y,1/2+z
loop_
_atom_site_type_symbol
_atom_site_label
_atom_site_fract_x
_atom_site_fract_y
_atom_site_fract_z
Si Si1 0.173296 0.369792 0.179931
Si Si2 0.174792 0.578999 0.178838
Si Si3 0.329332 0.032686 0.424910
Si Si4 0.174727 0.100311 0.675817
Si Si5 0.674473 0.723572 0.087518
Si Si6 0.828779 0.757845 0.944424
O O1 0.250000 0.334620 0.250000
O O2 0.215492 0.474204 0.164314
O O3 0.228409 0.309384 0.115679
O O4 0.000000 0.357322 0.191656
O O5 0.250000 0.613259 0.250000
O O6 0.239356 0.635362 0.114800
O O7 0.000000 0.595299 0.185194
O O8 0.500000 0.001587 0.415722
O O9 0.310905 0.140201 0.416694
O O10 0.270082 0.000000 0.500000
O O11 0.231405 0.987921 0.364999
O O12 0.250000 0.106006 0.750000
O O13 0.220120 0.190007 0.633505
O O14 0.000000 0.091649 0.685986
O O15 0.500000 0.704490 0.090169
O O16 0.723125 0.741936 0.009334
O O17 0.000000 0.737856 0.965053
#
# Coordination Sequence:
#
# PCOD8220586 Si02
#       6
#     8   8   8   8   8   8
#     4   9  20  38  59  83 112 148 189 233 284 338
#     4  10  20  36  58  82 112 150 189 233 284 338
#     4  10  20  37  61  85 112 150 190 231 284 339
#     4  11  24  39  58  84 116 150 190 237 284 338
#     4  11  23  37  56  85 116 151 191 234 285 338
#     4  10  21  38  60  85 115 151 189 232 284 342
#
# _framework density 18.884675999999999
#
# number of rings (size 3 to 8) (size 9 to 14) (size 15 to 20)
#    0.000    1.833    1.667    2.000    0.000    7.000 
#    0.000    5.000    0.000    0.000    0.000    0.000 
#    0.000    0.000    0.000    0.000    0.000    0.000 
#
# Total GULP energy -595492.404749 kJ/mol
# GULP energy per Si atom -12406.091766 kJ/mol
# Density = 1.884169 g / cm^3
# Si number density = 18.884676 Si / 1000 Ang^3
#
#
#
# Elastic Constant Matrix: (Units=GPa)
#
#
# Indices 1 2 3 4 5 6 
#
# 1 70.5533 45.9061 60.4539 0.0000 0.0000 0.0000
# 2 45.9061 96.0307 66.7098 0.0000 0.0000 0.0000
# 3 60.4539 66.7098 149.4777 0.0000 0.0000 0.0000
# 4 0.0000 0.0000 0.0000 34.4686 0.0000 0.0000
# 5 0.0000 0.0000 0.0000 0.0000 39.2994 0.0000
# 6 0.0000 0.0000 0.0000 0.0000 0.0000 25.3635
#
#
#
# Elastic Compliance Matrix: (Units=1/GPa)
#
#
# Indices 1 2 3 4 5 6 
#
# 1 0.024572 -0.007019 -0.006805 0.000000 0.000000 0.000000
# 2 -0.007019 0.017097 -0.004792 0.000000 0.000000 0.000000
# 3 -0.006805 -0.004792 0.011581 0.000000 0.000000 0.000000
# 4 0.000000 0.000000 0.000000 0.029012 0.000000 0.000000
# 5 0.000000 0.000000 0.000000 0.000000 0.025446 0.000000
# 6 0.000000 0.000000 0.000000 0.000000 0.000000 0.039427
#
#
# Mechanical properties :
#
#
# Convention : Reuss Voigt Hill
#
# Bulk Modulus (GPa) = 62.42871 73.57792 68.00332
# Shear Modulus (GPa) = 26.35686 29.35911 27.85799
#
# Velocity S-wave (km/s) = 3.73993 3.94719 3.84495
# Velocity P-wave (km/s) = 7.19576 7.73434 7.46991
#
# Compressibility (1/GPa) = 0.01601827
#
# Stress axis : x y z
#
# Youngs Moduli (GPa) = 40.69754 58.48953 86.35093
#
# Poissons Ratio (x) = 0.41052 0.58764
# Poissons Ratio (y) = 0.28564 0.41376
# Poissons Ratio (z) = 0.27696 0.28026
#
# Static dielectric constant tensor:
#      x y z
#    x 3.451380 0.000000 0.000000 
#    y 0.000000 3.583810 0.000000 
#    z 0.000000 0.000000 3.471790 
# 
# 
# High freq. dielectric constant tensor:
#      x y z
#    x 1.735410 0.000000 0.000000 
#    y 0.000000 1.740640 0.000000 
#    z 0.000000 0.000000 1.737310 
# 
# From -- ./inp_files/26204.got.cif
#   From: 2010.03.12/outbox.cif.g09.slc.cpg/sg53_14_cif.got.tgz:26204.got - 2010.04.16 14:36:59.
