data_PCOD8220423
_publ_section_title
;
Structure prediction by ZEFSAII (Michael W. Deem and Ramdas Pophale) SiO2 
 PCOD8220423
Probable space group: P M N A
;
_chemical_formula_sum "Si O2"
_cell_formula_units_Z 48
_cell_length_a 8.896791
_cell_length_b 14.968735
_cell_length_c 19.228229
_cell_angle_alpha 90.000000
_cell_angle_beta 90.000000
_cell_angle_gamma 90.000000
_cell_volume 2560.694532
_symmetry_space_group_name_H-M "P M N A"
_symmetry_group_IT_number 53
_symmetry_cell_setting 'orthorhombic'
loop_
_space_group_symop_operation_xyz
x,y,z
1/2-x,-y,1/2+z
x,-y,-z
1/2-x,y,1/2-z
-x,-y,-z
1/2+x,y,1/2-z
-x,y,z
1/2+x,-y,1/2+z
loop_
_atom_site_type_symbol
_atom_site_label
_atom_site_fract_x
_atom_site_fract_y
_atom_site_fract_z
Si Si1 0.678133 0.376191 0.323013
Si Si2 0.676457 0.765506 0.560756
Si Si3 0.824563 0.729371 0.416109
Si Si4 0.824631 0.892834 0.324313
Si Si5 0.324568 0.952872 0.929636
Si Si6 0.323334 0.438268 0.822125
O O1 0.750000 0.346680 0.250000
O O2 0.500000 0.385986 0.314673
O O3 0.724177 0.302723 0.379153
O O4 0.747322 0.470295 0.347773
O O5 0.500000 0.771841 0.552431
O O6 0.742811 0.729423 0.489299
O O7 0.737337 0.861711 0.582448
O O8 0.760659 0.809210 0.368101
O O9 0.790440 0.635344 0.380166
O O10 0.000000 0.744935 0.429704
O O11 0.750000 0.897348 0.250000
O O12 0.000000 0.879462 0.312792
O O13 0.787901 0.983839 0.364751
O O14 0.500000 0.931008 0.936271
O O15 0.267389 0.000000 0.000000
O O16 0.250000 0.405824 0.750000
O O17 0.500000 0.453001 0.810403
#
# Coordination Sequence:
#
# PCOD8220423 Si02
#       6
#     8   8   8   8   8   8
#     4  10  22  40  59  82 114 150 191 238 288 340
#     4  11  24  38  58  87 115 147 190 241 289 332
#     4  10  21  38  58  83 117 154 191 227 280 350
#     4  10  21  37  58  85 115 149 187 230 281 336
#     4  10  20  39  62  80 110 153 190 228 280 342
#     4  10  20  35  59  86 114 152 193 236 284 338
#
# _framework density 18.744914999999999
#
# number of rings (size 3 to 8) (size 9 to 14) (size 15 to 20)
#    0.000    1.833    1.667    3.000    0.000    7.000 
#    0.000    6.667    0.000    0.000    0.000    0.000 
#    0.000    0.000    0.000    0.000    0.000    0.000 
#
# Total GULP energy -595382.648701 kJ/mol
# GULP energy per Si atom -12403.805181 kJ/mol
# Density = 1.870225 g / cm^3
# Si number density = 18.744915 Si / 1000 Ang^3
#
#
#
# Elastic Constant Matrix: (Units=GPa)
#
#
# Indices 1 2 3 4 5 6 
#
# 1 79.2377 64.1563 65.9161 0.0000 0.0000 0.0000
# 2 64.1563 145.5544 97.8620 0.0000 0.0000 0.0000
# 3 65.9161 97.8620 157.1279 0.0000 0.0000 0.0000
# 4 0.0000 0.0000 0.0000 26.1834 0.0000 0.0000
# 5 0.0000 0.0000 0.0000 0.0000 30.6632 0.0000
# 6 0.0000 0.0000 0.0000 0.0000 0.0000 48.2316
#
#
#
# Elastic Compliance Matrix: (Units=1/GPa)
#
#
# Indices 1 2 3 4 5 6 
#
# 1 0.022086 -0.006031 -0.005509 0.000000 0.000000 0.000000
# 2 -0.006031 0.013467 -0.005857 0.000000 0.000000 0.000000
# 3 -0.005509 -0.005857 0.012323 0.000000 0.000000 0.000000
# 4 0.000000 0.000000 0.000000 0.038192 0.000000 0.000000
# 5 0.000000 0.000000 0.000000 0.000000 0.032612 0.000000
# 6 0.000000 0.000000 0.000000 0.000000 0.000000 0.020733
#
#
# Mechanical properties :
#
#
# Convention : Reuss Voigt Hill
#
# Bulk Modulus (GPa) = 76.44346 93.08766 84.76556
# Shear Modulus (GPa) = 28.00035 31.28134 29.64084
#
# Velocity S-wave (km/s) = 3.86911 4.08952 3.98084
# Velocity P-wave (km/s) = 7.79932 8.48922 8.15157
#
# Compressibility (1/GPa) = 0.01308156
#
# Stress axis : x y z
#
# Youngs Moduli (GPa) = 45.27697 74.25772 81.14704
#
# Poissons Ratio (x) = 0.44785 0.44705
# Poissons Ratio (y) = 0.27307 0.47529
# Poissons Ratio (z) = 0.24944 0.43494
#
# Static dielectric constant tensor:
#      x y z
#    x 3.435680 0.000000 0.000000 
#    y 0.000000 3.602530 0.000000 
#    z 0.000000 0.000000 3.446190 
# 
# 
# High freq. dielectric constant tensor:
#      x y z
#    x 1.729050 0.000000 0.000000 
#    y 0.000000 1.740650 0.000000 
#    z 0.000000 0.000000 1.733450 
# 
# From -- ./inp_files/26261.got.cif
#   From: 2010.03.12/outbox.cif.g09.slc.cpg/sg53_14_cif.got.tgz:26261.got - 2010.04.16 14:36:59.
