data_PCOD8220958
_publ_section_title
;
Structure prediction by ZEFSAII (Michael W. Deem and Ramdas Pophale) SiO2 
 PCOD8220958
Probable space group: P M N A
;
_chemical_formula_sum "Si O2"
_cell_formula_units_Z 40
_cell_length_a 17.481533
_cell_length_b 9.245439
_cell_length_c 12.316486
_cell_angle_alpha 90.000000
_cell_angle_beta 90.000000
_cell_angle_gamma 90.000000
_cell_volume 1990.645238
_symmetry_space_group_name_H-M "P M N A"
_symmetry_group_IT_number 53
_symmetry_cell_setting 'orthorhombic'
loop_
_space_group_symop_operation_xyz
x,y,z
1/2-x,-y,1/2+z
x,-y,-z
1/2-x,y,1/2-z
-x,-y,-z
1/2+x,y,1/2-z
-x,y,z
1/2+x,-y,1/2+z
loop_
_atom_site_type_symbol
_atom_site_label
_atom_site_fract_x
_atom_site_fract_y
_atom_site_fract_z
Si Si1 0.688126 0.163800 0.532903
Si Si2 0.088192 0.894070 0.235991
Si Si3 0.912002 0.414031 0.362215
Si Si4 0.648702 0.289602 0.927874
Si Si5 0.587248 0.212402 0.332379
O O1 0.638387 0.177611 0.641653
O O2 0.763054 0.257480 0.551203
O O3 0.640442 0.234366 0.435769
O O4 0.708926 0.000000 0.500000
O O5 0.112776 0.835917 0.353662
O O6 0.000000 0.855693 0.213891
O O7 0.103216 0.065369 0.233915
O O8 0.858601 0.554730 0.369889
O O9 0.894901 0.297683 0.457047
O O10 0.894405 0.343997 0.246879
O O11 0.000000 0.462962 0.371556
O O12 0.500000 0.213548 0.373500
#
# Coordination Sequence:
#
# PCOD8220958 Si02
#       5
#     8   8   8   8   8
#     4  10  22  39  60  91 127 156 196 249 305 357
#     4  10  20  38  65  90 118 158 203 247 295 355
#     4  10  22  42  63  85 120 161 203 248 292 354
#     4  11  22  38  59  88 124 159 192 247 304 352
#     4   9  20  40  66  90 116 157 204 249 297 355
#
# _framework density 20.093988
#
# number of rings (size 3 to 8) (size 9 to 14) (size 15 to 20)
#    0.000    2.000    0.000    3.600    2.800    3.200 
#   14.400    3.000    0.000    3.600    0.000    0.000 
#    0.000    0.000    0.000    0.000    0.000    0.000 
#
# Total GULP energy -496083.642826 kJ/mol
# GULP energy per Si atom -12402.091071 kJ/mol
# Density = 2.004825 g / cm^3
# Si number density = 20.093988 Si / 1000 Ang^3
#
#
#
# Elastic Constant Matrix: (Units=GPa)
#
#
# Indices 1 2 3 4 5 6 
#
# 1 134.6024 70.8301 65.7049 0.0000 0.0000 0.0000
# 2 70.8301 68.3748 41.7269 0.0000 0.0000 0.0000
# 3 65.7049 41.7269 83.3226 0.0000 0.0000 0.0000
# 4 0.0000 0.0000 0.0000 30.3924 0.0000 0.0000
# 5 0.0000 0.0000 0.0000 0.0000 25.5405 0.0000
# 6 0.0000 0.0000 0.0000 0.0000 0.0000 37.7742
#
#
#
# Elastic Compliance Matrix: (Units=1/GPa)
#
#
# Indices 1 2 3 4 5 6 
#
# 1 0.019049 -0.015217 -0.007401 0.000000 0.000000 0.000000
# 2 -0.015217 0.033217 -0.004635 0.000000 0.000000 0.000000
# 3 -0.007401 -0.004635 0.020159 0.000000 0.000000 0.000000
# 4 0.000000 0.000000 0.000000 0.032903 0.000000 0.000000
# 5 0.000000 0.000000 0.000000 0.000000 0.039154 0.000000
# 6 0.000000 0.000000 0.000000 0.000000 0.000000 0.026473
#
#
# Mechanical properties :
#
#
# Convention : Reuss Voigt Hill
#
# Bulk Modulus (GPa) = 55.80661 71.42483 63.61572
# Shear Modulus (GPa) = 21.60426 25.94394 23.77410
#
# Velocity S-wave (km/s) = 3.28252 3.59713 3.44342
# Velocity P-wave (km/s) = 6.49613 7.27152 6.89473
#
# Compressibility (1/GPa) = 0.01791902
#
# Stress axis : x y z
#
# Youngs Moduli (GPa) = 52.49484 30.10479 49.60489
#
# Poissons Ratio (x) = 0.45810 0.36714
# Poissons Ratio (y) = 0.79880 0.22994
# Poissons Ratio (z) = 0.38853 0.13955
#
# Static dielectric constant tensor:
#      x y z
#    x 3.668280 0.000000 0.000000 
#    y 0.000000 3.523820 0.000000 
#    z 0.000000 0.000000 3.713920 
# 
# 
# High freq. dielectric constant tensor:
#      x y z
#    x 1.790720 0.000000 0.000000 
#    y 0.000000 1.774820 0.000000 
#    z 0.000000 0.000000 1.793650 
# 
# From -- ./inp_files/16662.got.cif
#   From: 2010.03.12/outbox.cif.g09.slc.cpg/sg53_9_cif.got.tgz:16662.got - 2010.04.16 14:36:59.
