data_PCOD8220470
_publ_section_title
;
Structure prediction by ZEFSAII (Michael W. Deem and Ramdas Pophale) SiO2 
 PCOD8220470
Probable space group: P M N A
;
_chemical_formula_sum "Si O2"
_cell_formula_units_Z 32
_cell_length_a 9.984704
_cell_length_b 18.261019
_cell_length_c 9.812396
_cell_angle_alpha 90.000000
_cell_angle_beta 90.000000
_cell_angle_gamma 90.000000
_cell_volume 1789.102694
_symmetry_space_group_name_H-M "P M N A"
_symmetry_group_IT_number 53
_symmetry_cell_setting 'orthorhombic'
loop_
_space_group_symop_operation_xyz
x,y,z
1/2-x,-y,1/2+z
x,-y,-z
1/2-x,y,1/2-z
-x,-y,-z
1/2+x,y,1/2-z
-x,y,z
1/2+x,-y,1/2+z
loop_
_atom_site_type_symbol
_atom_site_label
_atom_site_fract_x
_atom_site_fract_y
_atom_site_fract_z
Si Si1 0.500000 0.426285 0.586308
Si Si2 0.843222 0.782247 0.623421
Si Si3 0.000000 0.432115 0.598786
Si Si4 0.847506 0.952476 0.629537
Si Si5 0.245254 0.669612 0.406868
O O1 0.500000 0.500000 0.500000
O O2 0.500000 0.453888 0.742357
O O3 0.376562 0.374317 0.549530
O O4 0.750000 0.758978 0.750000
O O5 0.828311 0.867776 0.592207
O O6 0.779916 0.742349 0.493262
O O7 0.000000 0.761539 0.649026
O O8 0.000000 0.500000 0.500000
O O9 0.871870 0.385905 0.561400
O O10 0.750000 0.977019 0.750000
O O11 0.000000 0.968462 0.674757
O O12 0.806447 0.000000 0.500000
O O13 0.250000 0.694635 0.250000
#
# Coordination Sequence:
#
# PCOD8220470 Si02
#       5
#     4   8   4   8   8
#     4  10  22  36  54  82 109 136 183 230 273 330
#     4  10  21  37  57  83 113 147 186 228 272 324
#     4  10  20  36  56  76 105 144 179 222 277 324
#     4   9  19  36  57  82 114 148 185 227 271 322
#     4  10  21  37  56  79 110 145 180 227 274 327
#
# _framework density 17.886061000000002
#
# number of rings (size 3 to 8) (size 9 to 14) (size 15 to 20)
#    0.000    2.250    1.250    0.750    1.750    3.500 
#    0.000    0.000    0.000    0.000    0.000    0.000 
#    0.000    0.000    0.000    0.000    0.000    0.000 
#
# Total GULP energy -396787.839245 kJ/mol
# GULP energy per Si atom -12399.619976 kJ/mol
# Density = 1.784535 g / cm^3
# Si number density = 17.886061 Si / 1000 Ang^3
#
#
#
# Elastic Constant Matrix: (Units=GPa)
#
#
# Indices 1 2 3 4 5 6 
#
# 1 151.8938 59.7662 75.0764 0.0000 0.0000 0.0000
# 2 59.7662 83.3351 80.0553 0.0000 0.0000 0.0000
# 3 75.0764 80.0553 125.8602 0.0000 0.0000 0.0000
# 4 0.0000 0.0000 0.0000 43.8671 0.0000 0.0000
# 5 0.0000 0.0000 0.0000 0.0000 35.8458 0.0000
# 6 0.0000 0.0000 0.0000 0.0000 0.0000 47.7141
#
#
#
# Elastic Compliance Matrix: (Units=1/GPa)
#
#
# Indices 1 2 3 4 5 6 
#
# 1 0.009741 -0.003610 -0.003514 0.000000 0.000000 0.000000
# 2 -0.003610 0.032188 -0.018320 0.000000 0.000000 0.000000
# 3 -0.003514 -0.018320 0.021695 0.000000 0.000000 0.000000
# 4 0.000000 0.000000 0.000000 0.022796 0.000000 0.000000
# 5 0.000000 0.000000 0.000000 0.000000 0.027897 0.000000
# 6 0.000000 0.000000 0.000000 0.000000 0.000000 0.020958
#
#
# Mechanical properties :
#
#
# Convention : Reuss Voigt Hill
#
# Bulk Modulus (GPa) = 78.52825 87.87610 83.20218
# Shear Modulus (GPa) = 26.25924 35.23149 30.74537
#
# Velocity S-wave (km/s) = 3.83579 4.44303 4.15053
# Velocity P-wave (km/s) = 7.97607 8.69243 8.34195
#
# Compressibility (1/GPa) = 0.01273427
#
# Stress axis : x y z
#
# Youngs Moduli (GPa) = 102.65841 31.06751 46.09450
#
# Poissons Ratio (x) = 0.11215 0.16199
# Poissons Ratio (y) = 0.37060 0.84446
# Poissons Ratio (z) = 0.36078 0.56916
#
# Static dielectric constant tensor:
#      x y z
#    x 3.590170 0.000000 0.000000 
#    y 0.000000 3.210380 0.000000 
#    z 0.000000 0.000000 3.191460 
# 
# 
# High freq. dielectric constant tensor:
#      x y z
#    x 1.712710 0.000000 0.000000 
#    y 0.000000 1.690620 0.000000 
#    z 0.000000 0.000000 1.689190 
# 
# From -- ./inp_files/6037.got.cif
#   From: 2010.03.12/outbox.cif.g09.slc.cpg/sg53_4_cif.got.tgz:6037.got - 2010.04.16 14:36:59.
