data_PCOD8220464
_publ_section_title
;
Structure prediction by ZEFSAII (Michael W. Deem and Ramdas Pophale) SiO2 
 PCOD8220464
Probable space group: P M N A
;
_chemical_formula_sum "Si O2"
_cell_formula_units_Z 48
_cell_length_a 13.397451
_cell_length_b 9.466457
_cell_length_c 19.881311
_cell_angle_alpha 90.000000
_cell_angle_beta 90.000000
_cell_angle_gamma 90.000000
_cell_volume 2521.474978
_symmetry_space_group_name_H-M "P M N A"
_symmetry_group_IT_number 53
_symmetry_cell_setting 'orthorhombic'
loop_
_space_group_symop_operation_xyz
x,y,z
1/2-x,-y,1/2+z
x,-y,-z
1/2-x,y,1/2-z
-x,-y,-z
1/2+x,y,1/2-z
-x,y,z
1/2+x,-y,1/2+z
loop_
_atom_site_type_symbol
_atom_site_label
_atom_site_fract_x
_atom_site_fract_y
_atom_site_fract_z
Si Si1 0.250525 0.153396 0.473788
Si Si2 0.884955 0.661190 0.885936
Si Si3 0.389751 0.743944 0.760055
Si Si4 0.612216 0.036217 0.137771
Si Si5 0.883761 0.263828 0.591860
Si Si6 0.725225 0.513060 0.178635
O O1 0.342465 0.251480 0.449698
O O2 0.179063 0.126687 0.411754
O O3 0.186625 0.243349 0.527304
O O4 0.289287 0.000000 0.500000
O O5 0.875026 0.758337 0.819670
O O6 0.822641 0.517739 0.868363
O O7 0.000000 0.620233 0.901571
O O8 0.500000 0.687436 0.776194
O O9 0.372247 0.902260 0.787514
O O10 0.318102 0.637989 0.799302
O O11 0.500000 0.058711 0.111317
O O12 0.635874 0.870462 0.139842
O O13 0.852947 0.400129 0.634574
O O14 0.000000 0.278717 0.570457
O O15 0.750000 0.592374 0.250000
#
# Coordination Sequence:
#
# PCOD8220464 Si02
#       6
#     8   8   8   8   8   8
#     4  10  20  36  55  82 114 151 181 225 281 332
#     4  10  21  37  57  78 109 151 197 236 269 319
#     4   9  17  33  60  86 107 139 184 232 282 331
#     4   9  17  33  57  86 115 142 175 224 286 338
#     4  10  21  37  57  85 119 146 177 227 284 340
#     4  10  20  37  56  84 111 148 181 231 280 330
#
# _framework density 19.036477000000001
#
# number of rings (size 3 to 8) (size 9 to 14) (size 15 to 20)
#    0.000    2.333    1.667    1.000    0.000    3.667 
#    6.000    2.500    0.000    1.000    0.000    0.000 
#    0.000    0.000    0.000    0.000    0.000    0.000 
#
# Total GULP energy -594743.750525 kJ/mol
# GULP energy per Si atom -12390.494803 kJ/mol
# Density = 1.899315 g / cm^3
# Si number density = 19.036477 Si / 1000 Ang^3
#
#
#
# Elastic Constant Matrix: (Units=GPa)
#
#
# Indices 1 2 3 4 5 6 
#
# 1 118.0581 39.9419 39.4478 0.0000 0.0000 0.0000
# 2 39.9419 63.0414 41.4273 0.0000 0.0000 0.0000
# 3 39.4478 41.4273 77.8452 0.0000 0.0000 0.0000
# 4 0.0000 0.0000 0.0000 29.4298 0.0000 0.0000
# 5 0.0000 0.0000 0.0000 0.0000 31.6461 0.0000
# 6 0.0000 0.0000 0.0000 0.0000 0.0000 26.1610
#
#
#
# Elastic Compliance Matrix: (Units=1/GPa)
#
#
# Indices 1 2 3 4 5 6 
#
# 1 0.011197 -0.005176 -0.002920 0.000000 0.000000 0.000000
# 2 -0.005176 0.026786 -0.011632 0.000000 0.000000 0.000000
# 3 -0.002920 -0.011632 0.020516 0.000000 0.000000 0.000000
# 4 0.000000 0.000000 0.000000 0.033979 0.000000 0.000000
# 5 0.000000 0.000000 0.000000 0.000000 0.031599 0.000000
# 6 0.000000 0.000000 0.000000 0.000000 0.000000 0.038225
#
#
# Mechanical properties :
#
#
# Convention : Reuss Voigt Hill
#
# Bulk Modulus (GPa) = 52.51013 55.61987 54.06500
# Shear Modulus (GPa) = 24.02643 26.65591 25.34117
#
# Velocity S-wave (km/s) = 3.55650 3.74606 3.65251
# Velocity P-wave (km/s) = 6.67149 6.92759 6.80074
#
# Compressibility (1/GPa) = 0.01904394
#
# Stress axis : x y z
#
# Youngs Moduli (GPa) = 89.30957 37.33357 48.74291
#
# Poissons Ratio (x) = 0.19322 0.14232
# Poissons Ratio (y) = 0.46222 0.56697
# Poissons Ratio (z) = 0.26076 0.43426
#
# Static dielectric constant tensor:
#      x y z
#    x 3.708580 0.000000 0.000000 
#    y 0.000000 3.284560 0.000000 
#    z 0.000000 0.000000 3.630310 
# 
# 
# High freq. dielectric constant tensor:
#      x y z
#    x 1.747680 0.000000 0.000000 
#    y 0.000000 1.716580 0.000000 
#    z 0.000000 0.000000 1.734900 
# 
# From -- ./inp_files/32261.got.cif
#   From: 2010.03.12/outbox.cif.g09.slc.cpg/sg53_17_cif.got.tgz:32261.got - 2010.04.16 14:36:59.
