data_PCOD8220142
_publ_section_title
;
Structure prediction by ZEFSAII (Michael W. Deem and Ramdas Pophale) SiO2 
 PCOD8220142
Probable space group: P M N A
;
_chemical_formula_sum "Si O2"
_cell_formula_units_Z 56
_cell_length_a 18.187892
_cell_length_b 17.038208
_cell_length_c 8.862427
_cell_angle_alpha 90.000000
_cell_angle_beta 90.000000
_cell_angle_gamma 90.000000
_cell_volume 2746.369411
_symmetry_space_group_name_H-M "P M N A"
_symmetry_group_IT_number 53
_symmetry_cell_setting 'orthorhombic'
loop_
_space_group_symop_operation_xyz
x,y,z
1/2-x,-y,1/2+z
x,-y,-z
1/2-x,y,1/2-z
-x,-y,-z
1/2+x,y,1/2-z
-x,y,z
1/2+x,-y,1/2+z
loop_
_atom_site_type_symbol
_atom_site_label
_atom_site_fract_x
_atom_site_fract_y
_atom_site_fract_z
Si Si1 0.915878 0.946383 0.357312
Si Si2 0.671513 0.364357 0.694431
Si Si3 0.326795 0.662700 0.660314
Si Si4 0.182088 0.960371 0.849093
Si Si5 0.581871 0.220727 0.762046
Si Si6 0.917764 0.512754 0.822370
Si Si7 0.584152 0.811609 0.590190
O O1 0.902983 0.852268 0.376742
O O2 0.000000 0.961314 0.309601
O O3 0.895169 0.000000 0.500000
O O4 0.862204 0.968660 0.224009
O O5 0.750000 0.390461 0.750000
O O6 0.682193 0.350310 0.517466
O O7 0.642668 0.287883 0.785239
O O8 0.616909 0.433631 0.743615
O O9 0.250000 0.672765 0.750000
O O10 0.369929 0.587888 0.727889
O O11 0.376641 0.740127 0.678523
O O12 0.250000 0.930278 0.750000
O O13 0.125719 0.890095 0.866168
O O14 0.214096 0.000000 0.000000
O O15 0.500000 0.254499 0.792613
O O16 0.586547 0.194328 0.589113
O O17 0.000000 0.524065 0.758386
O O18 0.920041 0.500000 0.000000
O O19 0.500000 0.815687 0.647776
#
# Coordination Sequence:
#
# PCOD8220142 Si02
#       7
#     8   8   8   8   8   8   8
#     4  10  21  39  60  84 112 148 193 245 299 352
#     4  10  20  34  55  85 114 155 193 238 292 354
#     4  10  20  36  56  86 120 151 189 242 300 347
#     4  12  24  39  57  85 115 152 191 240 295 359
#     4   9  18  35  58  82 110 146 195 244 288 344
#     4   9  17  32  58  86 113 150 202 249 285 335
#     4  10  20  37  61  84 109 148 199 242 286 349
#
# _framework density 20.390557000000001
#
# number of rings (size 3 to 8) (size 9 to 14) (size 15 to 20)
#    0.000    2.000    1.429    2.571    0.000    4.571 
#    7.714    0.000    0.000    3.429    0.000    0.000 
#    0.000    0.000    0.000    0.000    0.000    0.000 
#
# Total GULP energy -694139.522257 kJ/mol
# GULP energy per Si atom -12395.348612 kJ/mol
# Density = 2.034415 g / cm^3
# Si number density = 20.390557 Si / 1000 Ang^3
#
#
#
# Elastic Constant Matrix: (Units=GPa)
#
#
# Indices 1 2 3 4 5 6 
#
# 1 145.8939 71.6602 32.3732 0.0000 0.0000 0.0000
# 2 71.6602 135.6867 29.2999 0.0000 0.0000 0.0000
# 3 32.3732 29.2999 41.5138 0.0000 0.0000 0.0000
# 4 0.0000 0.0000 0.0000 23.6012 0.0000 0.0000
# 5 0.0000 0.0000 0.0000 0.0000 26.8359 0.0000
# 6 0.0000 0.0000 0.0000 0.0000 0.0000 7.9111
#
#
#
# Elastic Compliance Matrix: (Units=1/GPa)
#
#
# Indices 1 2 3 4 5 6 
#
# 1 0.010007 -0.004247 -0.004806 0.000000 0.000000 0.000000
# 2 -0.004247 0.010498 -0.004097 0.000000 0.000000 0.000000
# 3 -0.004806 -0.004097 0.030728 0.000000 0.000000 0.000000
# 4 0.000000 0.000000 0.000000 0.042371 0.000000 0.000000
# 5 0.000000 0.000000 0.000000 0.000000 0.037264 0.000000
# 6 0.000000 0.000000 0.000000 0.000000 0.000000 0.126404
#
#
# Mechanical properties :
#
#
# Convention : Reuss Voigt Hill
#
# Bulk Modulus (GPa) = 40.10917 65.52899 52.81908
# Shear Modulus (GPa) = 17.13021 24.32037 20.72529
#
# Velocity S-wave (km/s) = 2.90160 3.45734 3.19159
# Velocity P-wave (km/s) = 5.56227 6.93861 6.28821
#
# Compressibility (1/GPa) = 0.02493195
#
# Stress axis : x y z
#
# Youngs Moduli (GPa) = 99.93191 95.25917 32.54374
#
# Poissons Ratio (x) = 0.40458 0.15640
# Poissons Ratio (y) = 0.42442 0.13334
# Poissons Ratio (z) = 0.48027 0.39029
#
# Static dielectric constant tensor:
#      x y z
#    x 3.817200 0.000000 0.000000 
#    y 0.000000 3.842940 0.000000 
#    z 0.000000 0.000000 3.417190 
# 
# 
# High freq. dielectric constant tensor:
#      x y z
#    x 1.810020 0.000000 0.000000 
#    y 0.000000 1.809440 0.000000 
#    z 0.000000 0.000000 1.758540 
# 
# From -- ./inp_files/11048.got.cif
#   From: 2010.03.12/outbox.cif.g09.slc.cpg/sg53_6_cif.got.tgz:11048.got - 2010.04.16 14:36:59.
