data_PCOD8220954
_publ_section_title
;
Structure prediction by ZEFSAII (Michael W. Deem and Ramdas Pophale) SiO2 
 PCOD8220954
Probable space group: P M N A
;
_chemical_formula_sum "Si O2"
_cell_formula_units_Z 48
_cell_length_a 15.711902
_cell_length_b 15.428546
_cell_length_c 9.216918
_cell_angle_alpha 90.000000
_cell_angle_beta 90.000000
_cell_angle_gamma 90.000000
_cell_volume 2234.289708
_symmetry_space_group_name_H-M "P M N A"
_symmetry_group_IT_number 53
_symmetry_cell_setting 'orthorhombic'
loop_
_space_group_symop_operation_xyz
x,y,z
1/2-x,-y,1/2+z
x,-y,-z
1/2-x,y,1/2-z
-x,-y,-z
1/2+x,y,1/2-z
-x,y,z
1/2+x,-y,1/2+z
loop_
_atom_site_type_symbol
_atom_site_label
_atom_site_fract_x
_atom_site_fract_y
_atom_site_fract_z
Si Si1 0.500000 0.013575 0.243914
Si Si2 0.664055 0.227818 0.558506
Si Si3 0.402596 0.578459 0.095615
Si Si4 0.647139 0.237016 0.880186
Si Si5 0.097816 0.587070 0.067002
Si Si6 0.000000 0.134115 0.508336
Si Si7 0.676184 0.937619 0.624706
O O1 0.589325 0.012139 0.330396
O O2 0.500000 0.933458 0.137085
O O3 0.500000 0.100517 0.153058
O O4 0.613933 0.222741 0.713553
O O5 0.759657 0.201280 0.596856
O O6 0.648636 0.327539 0.509040
O O7 0.641834 0.156020 0.436489
O O8 0.500000 0.594442 0.049120
O O9 0.348548 0.664093 0.065785
O O10 0.394078 0.563249 0.265353
O O11 0.364102 0.500000 0.000000
O O12 0.584726 0.189612 0.987716
O O13 0.000000 0.601650 0.020358
O O14 0.137448 0.500000 0.000000
O O15 0.750000 0.927488 0.750000
O O16 0.716435 0.000000 0.500000
#
# Coordination Sequence:
#
# PCOD8220954 Si02
#       7
#     4   8   8   8   8   4   8
#     4  11  27  44  68 100 132 173 227 279 342 416
#     4  10  23  39  65  92 134 166 226 262 336 403
#     4   9  17  33  55  88 120 159 216 260 307 385
#     4  10  20  38  64  95 122 176 210 272 327 394
#     4   9  19  38  61  88 125 174 213 263 330 388
#     4  11  22  42  69  92 132 164 228 270 337 401
#     4  12  28  47  71 101 139 178 227 287 349 409
#
# _framework density 21.483336000000001
#
# number of rings (size 3 to 8) (size 9 to 14) (size 15 to 20)
#    0.000    1.833    0.833    2.250    9.333    0.667 
#    6.000    0.000    0.000    0.000    0.000    0.000 
#    0.000    0.000    0.000    0.000    0.000    0.000 
#
# Total GULP energy -594634.109702 kJ/mol
# GULP energy per Si atom -12388.210619 kJ/mol
# Density = 2.143444 g / cm^3
# Si number density = 21.483336 Si / 1000 Ang^3
#
#
#
# Elastic Constant Matrix: (Units=GPa)
#
#
# Indices 1 2 3 4 5 6 
#
# 1 68.3190 5.0633 15.8955 0.0000 0.0000 0.0000
# 2 5.0633 91.9377 44.8258 0.0000 0.0000 0.0000
# 3 15.8955 44.8258 70.7522 0.0000 0.0000 0.0000
# 4 0.0000 0.0000 0.0000 42.4377 0.0000 0.0000
# 5 0.0000 0.0000 0.0000 0.0000 27.3516 0.0000
# 6 0.0000 0.0000 0.0000 0.0000 0.0000 40.8868
#
#
#
# Elastic Compliance Matrix: (Units=1/GPa)
#
#
# Indices 1 2 3 4 5 6 
#
# 1 0.015539 0.001225 -0.004267 0.000000 0.000000 0.000000
# 2 0.001225 0.015835 -0.010308 0.000000 0.000000 0.000000
# 3 -0.004267 -0.010308 0.021623 0.000000 0.000000 0.000000
# 4 0.000000 0.000000 0.000000 0.023564 0.000000 0.000000
# 5 0.000000 0.000000 0.000000 0.000000 0.036561 0.000000
# 6 0.000000 0.000000 0.000000 0.000000 0.000000 0.024458
#
#
# Mechanical properties :
#
#
# Convention : Reuss Voigt Hill
#
# Bulk Modulus (GPa) = 38.02661 40.28646 39.15654
# Shear Modulus (GPa) = 28.89406 33.15016 31.02211
#
# Velocity S-wave (km/s) = 3.67134 3.93245 3.80413
# Velocity P-wave (km/s) = 5.97583 6.27790 6.12873
#
# Compressibility (1/GPa) = 0.02629737
#
# Stress axis : x y z
#
# Youngs Moduli (GPa) = 64.35316 63.15065 46.24702
#
# Poissons Ratio (x) = -0.07734 0.19734
# Poissons Ratio (y) = -0.07881 0.47670
# Poissons Ratio (z) = 0.27460 0.65094
#
# Static dielectric constant tensor:
#      x y z
#    x 3.748100 0.000000 0.000000 
#    y 0.000000 4.047770 0.000000 
#    z 0.000000 0.000000 3.923980 
# 
# 
# High freq. dielectric constant tensor:
#      x y z
#    x 1.835630 0.000000 0.000000 
#    y 0.000000 1.854990 0.000000 
#    z 0.000000 0.000000 1.828940 
# 
# From -- ./inp_files/10032.got.cif
#   From: 2010.03.12/outbox.cif.g09.slc.cpg/sg53_6_cif.got.tgz:10032.got - 2010.04.16 14:36:59.
