data_PCOD8220219
_publ_section_title
;
Structure prediction by ZEFSAII (Michael W. Deem and Ramdas Pophale) SiO2 
 PCOD8220219
Probable space group: P M N A
;
_chemical_formula_sum "Si O2"
_cell_formula_units_Z 48
_cell_length_a 8.662154
_cell_length_b 29.364150
_cell_length_c 10.227335
_cell_angle_alpha 90.000000
_cell_angle_beta 90.000000
_cell_angle_gamma 90.000000
_cell_volume 2601.392095
_symmetry_space_group_name_H-M "P M N A"
_symmetry_group_IT_number 53
_symmetry_cell_setting 'orthorhombic'
loop_
_space_group_symop_operation_xyz
x,y,z
1/2-x,-y,1/2+z
x,-y,-z
1/2-x,y,1/2-z
-x,-y,-z
1/2+x,y,1/2-z
-x,y,z
1/2+x,-y,1/2+z
loop_
_atom_site_type_symbol
_atom_site_label
_atom_site_fract_x
_atom_site_fract_y
_atom_site_fract_z
Si Si1 0.183667 0.297014 0.888666
Si Si2 0.182513 0.136251 0.111491
Si Si3 0.182774 0.467630 0.113897
Si Si4 0.316785 0.199070 0.889322
Si Si5 0.318847 0.031517 0.385542
Si Si6 0.182144 0.364583 0.113937
O O1 0.250000 0.313461 0.750000
O O2 0.250499 0.248166 0.928428
O O3 0.000000 0.293937 0.880367
O O4 0.241323 0.332987 0.996406
O O5 0.250000 0.152981 0.250000
O O6 0.226686 0.083701 0.087958
O O7 0.000000 0.144814 0.108442
O O8 0.265708 0.163465 0.997637
O O9 0.250000 0.485926 0.250000
O O10 0.239736 0.416072 0.086994
O O11 0.000000 0.470227 0.120716
O O12 0.248202 0.500000 0.000000
O O13 0.250000 0.183052 0.750000
O O14 0.500000 0.201657 0.880019
O O15 0.250000 0.013787 0.250000
O O16 0.500000 0.025411 0.376772
O O17 0.249103 0.000000 0.500000
O O18 0.250000 0.345983 0.250000
O O19 0.000000 0.362615 0.124670
#
# Coordination Sequence:
#
# PCOD8220219 Si02
#       6
#     8   8   8   8   8   8
#     4  10  20  35  53  75 103 133 169 211 256 305
#     4  10  20  36  56  79 108 140 176 216 259 307
#     4   9  18  33  51  73 102 133 167 207 250 297
#     4  11  22  37  56  78 105 137 174 215 261 310
#     4   9  19  35  54  78 107 138 173 213 255 302
#     4   9  19  34  52  74 101 133 168 208 251 299
#
# _framework density 18.451657999999998
#
# number of rings (size 3 to 8) (size 9 to 14) (size 15 to 20)
#    0.000    2.333    0.000    3.500    0.000    4.667 
#    0.000    3.333    0.000    0.000    0.000    0.000 
#    0.000    0.000    0.000    0.000    0.000    0.000 
#
# Total GULP energy -595298.180277 kJ/mol
# GULP energy per Si atom -12402.045422 kJ/mol
# Density = 1.840966 g / cm^3
# Si number density = 18.451658 Si / 1000 Ang^3
#
#
#
# Elastic Constant Matrix: (Units=GPa)
#
#
# Indices 1 2 3 4 5 6 
#
# 1 64.2524 34.4263 46.7453 0.0000 0.0000 0.0000
# 2 34.4263 96.3760 103.0514 0.0000 0.0000 0.0000
# 3 46.7453 103.0514 183.7489 0.0000 0.0000 0.0000
# 4 0.0000 0.0000 0.0000 34.3458 0.0000 0.0000
# 5 0.0000 0.0000 0.0000 0.0000 36.0399 0.0000
# 6 0.0000 0.0000 0.0000 0.0000 0.0000 9.7563
#
#
#
# Elastic Compliance Matrix: (Units=1/GPa)
#
#
# Indices 1 2 3 4 5 6 
#
# 1 0.019758 -0.004204 -0.002668 0.000000 0.000000 0.000000
# 2 -0.004204 0.026814 -0.013968 0.000000 0.000000 0.000000
# 3 -0.002668 -0.013968 0.013955 0.000000 0.000000 0.000000
# 4 0.000000 0.000000 0.000000 0.029116 0.000000 0.000000
# 5 0.000000 0.000000 0.000000 0.000000 0.027747 0.000000
# 6 0.000000 0.000000 0.000000 0.000000 0.000000 0.102498
#
#
# Mechanical properties :
#
#
# Convention : Reuss Voigt Hill
#
# Bulk Modulus (GPa) = 53.06715 79.20259 66.13487
# Shear Modulus (GPa) = 18.66717 26.70534 22.68626
#
# Velocity S-wave (km/s) = 3.18414 3.80848 3.51022
# Velocity P-wave (km/s) = 6.50699 7.89664 7.23526
#
# Compressibility (1/GPa) = 0.01884405
#
# Stress axis : x y z
#
# Youngs Moduli (GPa) = 50.61338 37.29452 71.66012
#
# Poissons Ratio (x) = 0.15680 0.19121
# Poissons Ratio (y) = 0.21280 1.00096
# Poissons Ratio (z) = 0.13505 0.52094
#
# Static dielectric constant tensor:
#      x y z
#    x 3.362130 0.000000 0.000000 
#    y 0.000000 3.535500 0.000000 
#    z 0.000000 0.000000 3.577980 
# 
# 
# High freq. dielectric constant tensor:
#      x y z
#    x 1.718200 0.000000 0.000000 
#    y 0.000000 1.713060 0.000000 
#    z 0.000000 0.000000 1.725640 
# 
# From -- ./inp_files/6761.got.cif
#   From: 2010.03.12/outbox.cif.g09.slc.cpg/sg53_4_cif.got.tgz:6761.got - 2010.04.16 14:36:59.
