data_PCOD8220272
_publ_section_title
;
Structure prediction by ZEFSAII (Michael W. Deem and Ramdas Pophale) SiO2 
 PCOD8220272
Probable space group: P M N A
;
_chemical_formula_sum "Si O2"
_cell_formula_units_Z 48
_cell_length_a 8.948833
_cell_length_b 30.063013
_cell_length_c 9.398314
_cell_angle_alpha 90.000000
_cell_angle_beta 90.000000
_cell_angle_gamma 90.000000
_cell_volume 2528.417916
_symmetry_space_group_name_H-M "P M N A"
_symmetry_group_IT_number 53
_symmetry_cell_setting 'orthorhombic'
loop_
_space_group_symop_operation_xyz
x,y,z
1/2-x,-y,1/2+z
x,-y,-z
1/2-x,y,1/2-z
-x,-y,-z
1/2+x,y,1/2-z
-x,y,z
1/2+x,-y,1/2+z
loop_
_atom_site_type_symbol
_atom_site_label
_atom_site_fract_x
_atom_site_fract_y
_atom_site_fract_z
Si Si1 0.323355 0.875262 0.902414
Si Si2 0.327522 0.537954 0.899695
Si Si3 0.325926 0.193002 0.601610
Si Si4 0.672899 0.636262 0.900150
Si Si5 0.327533 0.296561 0.605333
Si Si6 0.675205 0.040717 0.904168
O O1 0.250000 0.885275 0.750000
O O2 0.500000 0.869262 0.882061
O O3 0.252931 0.830943 0.969336
O O4 0.284070 0.914812 0.010584
O O5 0.250000 0.534713 0.750000
O O6 0.500000 0.527741 0.872873
O O7 0.306488 0.587115 0.969658
O O8 0.256635 0.500000 0.000000
O O9 0.250000 0.178491 0.750000
O O10 0.500000 0.180044 0.609736
O O11 0.302124 0.244886 0.571789
O O12 0.750000 0.634749 0.750000
O O13 0.500000 0.648811 0.884207
O O14 0.753411 0.674867 0.984064
O O15 0.250000 0.310776 0.750000
O O16 0.500000 0.308653 0.617572
O O17 0.750000 0.041076 0.750000
O O18 0.500000 0.035787 0.878382
O O19 0.735668 0.000000 0.000000
#
# Coordination Sequence:
#
# PCOD8220272 Si02
#       6
#     8   8   8   8   8   8
#     4  11  23  38  58  84 114 148 187 230 275 325
#     4   9  19  35  53  76 105 137 175 217 263 316
#     4  10  21  38  59  82 110 144 182 225 273 325
#     4  10  20  35  55  78 107 142 179 221 268 320
#     4  10  21  37  57  81 109 142 180 223 271 323
#     4  10  22  39  59  85 115 148 186 227 274 326
#
# _framework density 18.984203000000001
#
# number of rings (size 3 to 8) (size 9 to 14) (size 15 to 20)
#    0.000    2.000    0.000    3.000    0.000    7.333 
#    0.000    1.667    0.000    0.000    0.000    0.000 
#    0.000    0.000    0.000    0.000    0.000    0.000 
#
# Total GULP energy -595251.591463 kJ/mol
# GULP energy per Si atom -12401.074822 kJ/mol
# Density = 1.894099 g / cm^3
# Si number density = 18.984203 Si / 1000 Ang^3
#
#
#
# Elastic Constant Matrix: (Units=GPa)
#
#
# Indices 1 2 3 4 5 6 
#
# 1 109.8693 56.6879 59.6874 0.0000 0.0000 0.0000
# 2 56.6879 89.1853 58.9383 0.0000 0.0000 0.0000
# 3 59.6874 58.9383 120.6565 0.0000 0.0000 0.0000
# 4 0.0000 0.0000 0.0000 40.2246 0.0000 0.0000
# 5 0.0000 0.0000 0.0000 0.0000 40.6084 0.0000
# 6 0.0000 0.0000 0.0000 0.0000 0.0000 28.5441
#
#
#
# Elastic Compliance Matrix: (Units=1/GPa)
#
#
# Indices 1 2 3 4 5 6 
#
# 1 0.014751 -0.006724 -0.004012 0.000000 0.000000 0.000000
# 2 -0.006724 0.019623 -0.006259 0.000000 0.000000 0.000000
# 3 -0.004012 -0.006259 0.013330 0.000000 0.000000 0.000000
# 4 0.000000 0.000000 0.000000 0.024860 0.000000 0.000000
# 5 0.000000 0.000000 0.000000 0.000000 0.024625 0.000000
# 6 0.000000 0.000000 0.000000 0.000000 0.000000 0.035034
#
#
# Mechanical properties :
#
#
# Convention : Reuss Voigt Hill
#
# Bulk Modulus (GPa) = 72.92505 74.48206 73.70355
# Shear Modulus (GPa) = 29.27636 31.50192 30.38914
#
# Velocity S-wave (km/s) = 3.93127 4.07796 4.00529
# Velocity P-wave (km/s) = 7.68788 7.84168 7.76516
#
# Compressibility (1/GPa) = 0.01371271
#
# Stress axis : x y z
#
# Youngs Moduli (GPa) = 67.79191 50.96050 75.01725
#
# Poissons Ratio (x) = 0.34268 0.30100
# Poissons Ratio (y) = 0.45586 0.46953
# Poissons Ratio (z) = 0.27201 0.31896
#
# Static dielectric constant tensor:
#      x y z
#    x 3.581570 0.000000 0.000000 
#    y 0.000000 3.736110 0.000000 
#    z 0.000000 0.000000 3.631610 
# 
# 
# High freq. dielectric constant tensor:
#      x y z
#    x 1.748120 0.000000 0.000000 
#    y 0.000000 1.750520 0.000000 
#    z 0.000000 0.000000 1.736500 
# 
# From -- ./inp_files/6582.got.cif
#   From: 2010.03.12/outbox.cif.g09.slc.cpg/sg53_4_cif.got.tgz:6582.got - 2010.04.16 14:36:59.
