data_PCOD8220495
_publ_section_title
;
Structure prediction by ZEFSAII (Michael W. Deem and Ramdas Pophale) SiO2 
 PCOD8220495
Probable space group: P M N A
;
_chemical_formula_sum "Si O2"
_cell_formula_units_Z 64
_cell_length_a 8.921967
_cell_length_b 12.629177
_cell_length_c 28.775805
_cell_angle_alpha 90.000000
_cell_angle_beta 90.000000
_cell_angle_gamma 90.000000
_cell_volume 3242.374270
_symmetry_space_group_name_H-M "P M N A"
_symmetry_group_IT_number 53
_symmetry_cell_setting 'orthorhombic'
loop_
_space_group_symop_operation_xyz
x,y,z
1/2-x,-y,1/2+z
x,-y,-z
1/2-x,y,1/2-z
-x,-y,-z
1/2+x,y,1/2-z
-x,y,z
1/2+x,-y,1/2+z
loop_
_atom_site_type_symbol
_atom_site_label
_atom_site_fract_x
_atom_site_fract_y
_atom_site_fract_z
Si Si1 0.322256 0.370368 0.112385
Si Si2 0.323885 0.965361 0.110099
Si Si3 0.322622 0.900228 0.300167
Si Si4 0.177471 0.831530 0.555662
Si Si5 0.175521 0.455072 0.949188
Si Si6 0.330382 0.330602 0.703287
Si Si7 0.176429 0.770094 0.454104
Si Si8 0.826008 0.559664 0.800086
O O1 0.500000 0.374022 0.115374
O O2 0.262688 0.267968 0.084968
O O3 0.264973 0.474910 0.087208
O O4 0.254969 0.361631 0.164234
O O5 0.500000 0.977765 0.118123
O O6 0.244120 0.975877 0.160212
O O7 0.285034 0.854448 0.085703
O O8 0.260371 0.059977 0.077856
O O9 0.250000 0.924926 0.250000
O O10 0.500000 0.917448 0.296554
O O11 0.273921 0.780929 0.317803
O O12 0.232754 0.819840 0.502773
O O13 0.000000 0.834925 0.556432
O O14 0.231376 0.335324 0.943543
O O15 0.000000 0.459383 0.937760
O O16 0.211761 0.500000 0.000000
O O17 0.250000 0.358321 0.750000
O O18 0.500000 0.309987 0.716958
O O19 0.309459 0.441162 0.675667
O O20 0.000000 0.743278 0.456010
O O21 0.750000 0.571303 0.750000
O O22 0.000000 0.589278 0.794657
#
# Coordination Sequence:
#
# PCOD8220495 Si02
#       8
#     8   8   8   8   8   8   8   8
#     4  11  22  37  60  86 116 156 199 242 289 346
#     4  10  21  37  60  89 115 149 195 241 292 346
#     4  10  20  36  56  81 114 151 190 237 289 343
#     4   9  19  38  61  84 115 152 195 244 290 341
#     4  11  23  38  57  85 121 157 191 235 290 348
#     4   8  16  30  49  72 103 141 176 219 275 331
#     4  10  20  37  62  89 117 152 194 240 289 349
#     4  10  20  36  56  83 117 155 196 242 292 347
#
# _framework density 19.738623
#
# number of rings (size 3 to 8) (size 9 to 14) (size 15 to 20)
#    0.000    2.125    1.250    1.875    1.750    3.500 
#    0.000    2.500    0.000    1.500    0.000    0.000 
#    0.000    0.000    0.000    0.000    0.000    0.000 
#
# Total GULP energy -793204.344095 kJ/mol
# GULP energy per Si atom -12393.817876 kJ/mol
# Density = 1.969370 g / cm^3
# Si number density = 19.738623 Si / 1000 Ang^3
#
#
#
# Elastic Constant Matrix: (Units=GPa)
#
#
# Indices 1 2 3 4 5 6 
#
# 1 69.9392 29.1050 43.3300 0.0000 0.0000 0.0000
# 2 29.1050 84.8637 38.5215 0.0000 0.0000 0.0000
# 3 43.3300 38.5215 112.9080 0.0000 0.0000 0.0000
# 4 0.0000 0.0000 0.0000 23.8276 0.0000 0.0000
# 5 0.0000 0.0000 0.0000 0.0000 32.7689 0.0000
# 6 0.0000 0.0000 0.0000 0.0000 0.0000 17.5617
#
#
#
# Elastic Compliance Matrix: (Units=1/GPa)
#
#
# Indices 1 2 3 4 5 6 
#
# 1 0.019821 -0.003958 -0.006256 0.000000 0.000000 0.000000
# 2 -0.003958 0.014733 -0.003508 0.000000 0.000000 0.000000
# 3 -0.006256 -0.003508 0.012454 0.000000 0.000000 0.000000
# 4 0.000000 0.000000 0.000000 0.041968 0.000000 0.000000
# 5 0.000000 0.000000 0.000000 0.000000 0.030517 0.000000
# 6 0.000000 0.000000 0.000000 0.000000 0.000000 0.056942
#
#
# Mechanical properties :
#
#
# Convention : Reuss Voigt Hill
#
# Bulk Modulus (GPa) = 51.11185 54.40264 52.75725
# Shear Modulus (GPa) = 23.76407 25.28194 24.52301
#
# Velocity S-wave (km/s) = 3.47354 3.58276 3.52857
# Velocity P-wave (km/s) = 6.48366 6.68852 6.58689
#
# Compressibility (1/GPa) = 0.01956493
#
# Stress axis : x y z
#
# Youngs Moduli (GPa) = 50.45080 67.87353 80.29270
#
# Poissons Ratio (x) = 0.26865 0.50233
# Poissons Ratio (y) = 0.19969 0.28164
# Poissons Ratio (z) = 0.31563 0.23808
#
# Static dielectric constant tensor:
#      x y z
#    x 3.387080 0.000000 0.000000 
#    y 0.000000 3.728830 0.000000 
#    z 0.000000 0.000000 3.568730 
# 
# 
# High freq. dielectric constant tensor:
#      x y z
#    x 1.757330 0.000000 0.000000 
#    y 0.000000 1.763730 0.000000 
#    z 0.000000 0.000000 1.773450 
# 
# From -- ./inp_files/38265.got.cif
#   From: 2010.03.12/outbox.cif.g09.slc.cpg/sg53_20_cif.got.tgz:38265.got - 2010.04.16 14:36:59.
