data_PCOD8220141
_publ_section_title
;
Structure prediction by ZEFSAII (Michael W. Deem and Ramdas Pophale) SiO2 
 PCOD8220141
Probable space group: P M N A
;
_chemical_formula_sum "Si O2"
_cell_formula_units_Z 64
_cell_length_a 17.610637
_cell_length_b 18.991498
_cell_length_c 9.098900
_cell_angle_alpha 90.000000
_cell_angle_beta 90.000000
_cell_angle_gamma 90.000000
_cell_volume 3043.148736
_symmetry_space_group_name_H-M "P M N A"
_symmetry_group_IT_number 53
_symmetry_cell_setting 'orthorhombic'
loop_
_space_group_symop_operation_xyz
x,y,z
1/2-x,-y,1/2+z
x,-y,-z
1/2-x,y,1/2-z
-x,-y,-z
1/2+x,y,1/2-z
-x,y,z
1/2+x,-y,1/2+z
loop_
_atom_site_type_symbol
_atom_site_label
_atom_site_fract_x
_atom_site_fract_y
_atom_site_fract_z
Si Si1 0.170560 0.492309 0.324910
Si Si2 0.915046 0.571394 0.092706
Si Si3 0.826058 0.236818 0.332841
Si Si4 0.916094 0.900426 0.717511
Si Si5 0.855124 0.923728 0.016961
Si Si6 0.783561 0.163016 0.590165
Si Si7 0.910706 0.637065 0.802998
Si Si8 0.086690 0.058898 0.665462
O O1 0.179730 0.500000 0.500000
O O2 0.250000 0.474882 0.250000
O O3 0.135686 0.561325 0.240561
O O4 0.117675 0.425250 0.300947
O O5 0.000000 0.591552 0.144827
O O6 0.915869 0.500000 0.000000
O O7 0.882414 0.629527 0.974861
O O8 0.750000 0.257601 0.250000
O O9 0.851410 0.156491 0.310814
O O10 0.808889 0.236332 0.509676
O O11 0.889397 0.289997 0.275099
O O12 0.000000 0.873791 0.671218
O O13 0.898383 0.975222 0.635904
O O14 0.917655 0.913376 0.891584
O O15 0.787365 0.868026 0.000004
O O16 0.901471 0.918981 0.166757
O O17 0.815723 0.000000 0.000000
O O18 0.750000 0.179667 0.750000
O O19 0.854147 0.108076 0.578023
O O20 0.000000 0.631038 0.808334
O O21 0.000000 0.077725 0.620571
#
# Coordination Sequence:
#
# PCOD8220141 Si02
#       8
#     8   8   8   8   8   8   8   8
#     4  11  21  36  65 101 133 164 204 251 297 350
#     4   8  16  34  60  88 123 162 200 247 301 352
#     4  12  24  38  59  83 117 159 206 251 309 377
#     4  10  20  34  55  85 114 148 202 260 316 382
#     4   9  17  32  56  79 108 146 193 253 319 384
#     4  10  22  38  57  80 113 157 204 257 324 383
#     4  10  22  41  61  87 124 165 205 251 310 367
#     4   9  19  33  54  82 114 148 193 261 329 385
#
# _framework density 21.030850000000001
#
# number of rings (size 3 to 8) (size 9 to 14) (size 15 to 20)
#    0.000    2.125    1.250    3.375    1.750    4.000 
#    0.000    3.125    0.000    0.000    0.000    0.000 
#    0.000    0.000    0.000    0.000    0.000    0.000 
#
# Total GULP energy -792920.071076 kJ/mol
# GULP energy per Si atom -12389.376111 kJ/mol
# Density = 2.098298 g / cm^3
# Si number density = 21.030850 Si / 1000 Ang^3
#
#
#
# Elastic Constant Matrix: (Units=GPa)
#
#
# Indices 1 2 3 4 5 6 
#
# 1 93.1812 27.6921 37.7477 0.0000 0.0000 0.0000
# 2 27.6921 73.4269 52.6145 0.0000 0.0000 0.0000
# 3 37.7477 52.6145 116.4624 0.0000 0.0000 0.0000
# 4 0.0000 0.0000 0.0000 24.4190 0.0000 0.0000
# 5 0.0000 0.0000 0.0000 0.0000 17.7523 0.0000
# 6 0.0000 0.0000 0.0000 0.0000 0.0000 27.9984
#
#
#
# Elastic Compliance Matrix: (Units=1/GPa)
#
#
# Indices 1 2 3 4 5 6 
#
# 1 0.012712 -0.002723 -0.002890 0.000000 0.000000 0.000000
# 2 -0.002723 0.020722 -0.008479 0.000000 0.000000 0.000000
# 3 -0.002890 -0.008479 0.013354 0.000000 0.000000 0.000000
# 4 0.000000 0.000000 0.000000 0.040952 0.000000 0.000000
# 5 0.000000 0.000000 0.000000 0.000000 0.056331 0.000000
# 6 0.000000 0.000000 0.000000 0.000000 0.000000 0.035716
#
#
# Mechanical properties :
#
#
# Convention : Reuss Voigt Hill
#
# Bulk Modulus (GPa) = 53.75455 57.68658 55.72056
# Shear Modulus (GPa) = 23.34588 25.03502 24.19045
#
# Velocity S-wave (km/s) = 3.33540 3.45395 3.39519
# Velocity P-wave (km/s) = 6.35991 6.58752 6.47472
#
# Compressibility (1/GPa) = 0.01860308
#
# Stress axis : x y z
#
# Youngs Moduli (GPa) = 78.66713 48.25886 74.88645
#
# Poissons Ratio (x) = 0.13143 0.21640
# Poissons Ratio (y) = 0.21424 0.63494
# Poissons Ratio (z) = 0.22733 0.40917
#
# Static dielectric constant tensor:
#      x y z
#    x 3.812030 0.000000 0.000000 
#    y 0.000000 3.546390 0.000000 
#    z 0.000000 0.000000 4.059600 
# 
# 
# High freq. dielectric constant tensor:
#      x y z
#    x 1.830800 0.000000 0.000000 
#    y 0.000000 1.779820 0.000000 
#    z 0.000000 0.000000 1.843640 
# 
# From -- ./inp_files/10213.got.cif
#   From: 2010.03.12/outbox.cif.g09.slc.cpg/sg53_6_cif.got.tgz:10213.got - 2010.04.16 14:36:59.
