data_PCOD8220108
_publ_section_title
;
Structure prediction by ZEFSAII (Michael W. Deem and Ramdas Pophale) SiO2 
 PCOD8220108
Probable space group: P M N A
;
_chemical_formula_sum "Si O2"
_cell_formula_units_Z 56
_cell_length_a 8.873646
_cell_length_b 20.820364
_cell_length_c 15.416973
_cell_angle_alpha 90.000000
_cell_angle_beta 90.000000
_cell_angle_gamma 90.000000
_cell_volume 2848.324917
_symmetry_space_group_name_H-M "P M N A"
_symmetry_group_IT_number 53
_symmetry_cell_setting 'orthorhombic'
loop_
_space_group_symop_operation_xyz
x,y,z
1/2-x,-y,1/2+z
x,-y,-z
1/2-x,y,1/2-z
-x,-y,-z
1/2+x,y,1/2-z
-x,y,z
1/2+x,-y,1/2+z
loop_
_atom_site_type_symbol
_atom_site_label
_atom_site_fract_x
_atom_site_fract_y
_atom_site_fract_z
Si Si1 0.178183 0.493635 0.600110
Si Si2 0.177723 0.621534 0.836593
Si Si3 0.176930 0.851131 0.512651
Si Si4 0.177814 0.362197 0.838864
Si Si5 0.825088 0.716447 0.991488
Si Si6 0.169103 0.034089 0.092161
Si Si7 0.676972 0.083422 0.835516
O O1 0.224089 0.500000 0.500000
O O2 0.248273 0.552230 0.652375
O O3 0.248129 0.429727 0.639018
O O4 0.000000 0.492540 0.613488
O O5 0.250000 0.652908 0.750000
O O6 0.219529 0.664773 0.919013
O O7 0.000000 0.614298 0.825689
O O8 0.225620 0.778476 0.527188
O O9 0.255693 0.895808 0.584807
O O10 0.227591 0.873333 0.416743
O O11 0.000000 0.858470 0.525026
O O12 0.250000 0.335223 0.750000
O O13 0.000000 0.371577 0.828295
O O14 0.215920 0.311650 0.914439
O O15 0.000000 0.735220 0.985705
O O16 0.000000 0.041942 0.128125
O O17 0.263919 0.989636 0.156984
O O18 0.170250 0.000000 0.000000
O O19 0.750000 0.115185 0.750000
O O20 0.500000 0.081757 0.824966
#
# Coordination Sequence:
#
# PCOD8220108 Si02
#       7
#     8   8   8   8   8   8   8
#     4  11  22  37  61  90 117 149 191 241 295 352
#     4  11  23  41  63  87 115 150 193 242 298 352
#     4  10  21  36  57  82 112 149 190 235 281 337
#     4  11  23  40  60  85 118 155 195 242 295 352
#     4  10  23  41  60  82 115 157 198 241 291 350
#     4   9  17  32  55  80 107 141 180 223 271 324
#     4  10  20  34  54  84 117 148 185 231 282 335
#
# _framework density 19.660678999999998
#
# number of rings (size 3 to 8) (size 9 to 14) (size 15 to 20)
#    0.000    1.714    1.429    3.000    0.000    6.857 
#    0.000    3.571    0.000    1.714    0.000    0.000 
#    0.000    0.000    0.000    0.000    0.000    0.000 
#
# Total GULP energy -694620.481695 kJ/mol
# GULP energy per Si atom -12403.937173 kJ/mol
# Density = 1.961593 g / cm^3
# Si number density = 19.660679 Si / 1000 Ang^3
#
#
#
# Elastic Constant Matrix: (Units=GPa)
#
#
# Indices 1 2 3 4 5 6 
#
# 1 78.8393 24.6068 23.1749 0.0000 0.0000 0.0000
# 2 24.6068 82.4447 2.0830 0.0000 0.0000 0.0000
# 3 23.1749 2.0830 72.8476 0.0000 0.0000 0.0000
# 4 0.0000 0.0000 0.0000 15.5705 0.0000 0.0000
# 5 0.0000 0.0000 0.0000 0.0000 33.5115 0.0000
# 6 0.0000 0.0000 0.0000 0.0000 0.0000 30.3542
#
#
#
# Elastic Compliance Matrix: (Units=1/GPa)
#
#
# Indices 1 2 3 4 5 6 
#
# 1 0.015502 -0.004505 -0.004803 0.000000 0.000000 0.000000
# 2 -0.004505 0.013448 0.001049 0.000000 0.000000 0.000000
# 3 -0.004803 0.001049 0.015225 0.000000 0.000000 0.000000
# 4 0.000000 0.000000 0.000000 0.064224 0.000000 0.000000
# 5 0.000000 0.000000 0.000000 0.000000 0.029841 0.000000
# 6 0.000000 0.000000 0.000000 0.000000 0.000000 0.032944
#
#
# Mechanical properties :
#
#
# Convention : Reuss Voigt Hill
#
# Bulk Modulus (GPa) = 36.15868 37.09565 36.62717
# Shear Modulus (GPa) = 25.39089 28.17172 26.78131
#
# Velocity S-wave (km/s) = 3.59758 3.78947 3.69477
# Velocity P-wave (km/s) = 5.97395 6.16893 6.07222
#
# Compressibility (1/GPa) = 0.02765587
#
# Stress axis : x y z
#
# Youngs Moduli (GPa) = 64.50775 74.36290 65.68059
#
# Poissons Ratio (x) = 0.33504 0.31545
# Poissons Ratio (y) = 0.29064 -0.06889
# Poissons Ratio (z) = 0.30982 -0.07799
#
# Static dielectric constant tensor:
#      x y z
#    x 3.659780 0.000000 0.000000 
#    y 0.000000 3.444730 0.000000 
#    z 0.000000 0.000000 3.824980 
# 
# 
# High freq. dielectric constant tensor:
#      x y z
#    x 1.778170 0.000000 0.000000 
#    y 0.000000 1.755950 0.000000 
#    z 0.000000 0.000000 1.768130 
# 
# From -- ./inp_files/20482.got.cif
#   From: 2010.03.12/outbox.cif.g09.slc.cpg/sg53_11_cif.got.tgz:20482.got - 2010.04.16 14:36:59.
