data_PCOD8220944
_publ_section_title
;
Structure prediction by ZEFSAII (Michael W. Deem and Ramdas Pophale) SiO2 
 PCOD8220944
Probable space group: P M N A
;
_chemical_formula_sum "Si O2"
_cell_formula_units_Z 64
_cell_length_a 14.398041
_cell_length_b 11.921438
_cell_length_c 18.118417
_cell_angle_alpha 90.000000
_cell_angle_beta 90.000000
_cell_angle_gamma 90.000000
_cell_volume 3109.942084
_symmetry_space_group_name_H-M "P M N A"
_symmetry_group_IT_number 53
_symmetry_cell_setting 'orthorhombic'
loop_
_space_group_symop_operation_xyz
x,y,z
1/2-x,-y,1/2+z
x,-y,-z
1/2-x,y,1/2-z
-x,-y,-z
1/2+x,y,1/2-z
-x,y,z
1/2+x,-y,1/2+z
loop_
_atom_site_type_symbol
_atom_site_label
_atom_site_fract_x
_atom_site_fract_y
_atom_site_fract_z
Si Si1 0.799041 0.482297 0.912935
Si Si2 0.643569 0.765621 0.865943
Si Si3 0.602665 0.868501 0.715749
Si Si4 0.102253 0.996447 0.582029
Si Si5 0.598796 0.520572 0.913020
Si Si6 0.652295 0.725145 0.589633
Si Si7 0.274248 0.917733 0.326895
Si Si8 0.606835 0.744758 0.419387
O O1 0.693803 0.467464 0.879620
O O2 0.849894 0.594557 0.884735
O O3 0.858451 0.375276 0.889042
O O4 0.789281 0.500000 0.000000
O O5 0.647239 0.786272 0.777528
O O6 0.595638 0.650995 0.890672
O O7 0.744867 0.773075 0.901676
O O8 0.584948 0.867261 0.898620
O O9 0.500000 0.912507 0.740102
O O10 0.585599 0.793355 0.643331
O O11 0.669802 0.971186 0.696326
O O12 0.175720 0.053680 0.636280
O O13 0.000000 0.055681 0.587018
O O14 0.143326 0.000000 0.500000
O O15 0.500000 0.469368 0.882760
O O16 0.600418 0.500000 0.000000
O O17 0.617835 0.746852 0.507020
O O18 0.250000 0.853684 0.250000
O O19 0.334439 0.842812 0.381872
O O20 0.500000 0.761039 0.397251
#
# Coordination Sequence:
#
# PCOD8220944 Si02
#       8
#     8   8   8   8   8   8   8   8
#     4   8  18  36  60  87 120 159 204 257 315 375
#     4  11  20  38  59  89 130 168 207 261 325 382
#     4  12  23  37  61  94 128 171 213 262 324 385
#     4  11  23  39  62  89 119 164 216 263 319 387
#     4   9  17  31  57  90 123 160 203 257 318 376
#     4  10  20  38  63  94 126 158 208 267 322 379
#     4  12  25  43  62  88 128 168 212 267 322 389
#     4  11  24  42  65  91 123 168 212 263 324 388
#
# _framework density 20.579162
#
# number of rings (size 3 to 8) (size 9 to 14) (size 15 to 20)
#    0.000    1.500    2.500    3.750    0.000    3.250 
#    0.000    5.625    0.000    1.500    0.000    0.000 
#    0.000    0.000    0.000    0.000    0.000    0.000 
#
# Total GULP energy -792980.160874 kJ/mol
# GULP energy per Si atom -12390.315014 kJ/mol
# Density = 2.053232 g / cm^3
# Si number density = 20.579162 Si / 1000 Ang^3
#
#
#
# Elastic Constant Matrix: (Units=GPa)
#
#
# Indices 1 2 3 4 5 6 
#
# 1 131.9373 35.0836 24.4495 0.0000 0.0000 0.0000
# 2 35.0836 94.5931 47.2686 0.0000 0.0000 0.0000
# 3 24.4495 47.2686 95.0779 0.0000 0.0000 0.0000
# 4 0.0000 0.0000 0.0000 31.8386 0.0000 0.0000
# 5 0.0000 0.0000 0.0000 0.0000 -52.2168 0.0000
# 6 0.0000 0.0000 0.0000 0.0000 0.0000 24.0216
#
#
#
# Elastic Compliance Matrix: (Units=1/GPa)
#
#
# Indices 1 2 3 4 5 6 
#
# 1 0.008456 -0.002727 -0.000819 0.000000 0.000000 0.000000
# 2 -0.002727 0.014946 -0.006729 0.000000 0.000000 0.000000
# 3 -0.000819 -0.006729 0.014074 0.000000 0.000000 0.000000
# 4 0.000000 0.000000 0.000000 0.031408 0.000000 0.000000
# 5 0.000000 0.000000 0.000000 0.000000 -0.019151 0.000000
# 6 0.000000 0.000000 0.000000 0.000000 0.000000 0.041629
#
#
# Mechanical properties :
#
#
# Convention : Reuss Voigt Hill
#
# Bulk Modulus (GPa) = 59.08204 59.46799 59.27501
# Shear Modulus (GPa) = 42.53372 15.04913 28.79142
#
# Velocity S-wave (km/s) = 4.55118 2.70715 3.74445
# Velocity P-wave (km/s) = 7.50930 6.22346 6.89641
#
# Compressibility (1/GPa) = 0.01692562
#
# Stress axis : x y z
#
# Youngs Moduli (GPa) = 118.25540 66.90929 71.05516
#
# Poissons Ratio (x) = 0.18248 0.05817
# Poissons Ratio (y) = 0.32251 0.47813
# Poissons Ratio (z) = 0.09681 0.45023
#
# Static dielectric constant tensor:
#      x y z
#    x 3.994670 0.000000 0.000000 
#    y 0.000000 3.746070 0.000000 
#    z 0.000000 0.000000 3.829870 
# 
# 
# High freq. dielectric constant tensor:
#      x y z
#    x 1.830430 0.000000 0.000000 
#    y 0.000000 1.784170 0.000000 
#    z 0.000000 0.000000 1.790380 
# 
# From -- ./inp_files/28587.got.cif
#   From: 2010.03.12/outbox.cif.g09.slc.cpg/sg53_15_cif.got.tgz:28587.got - 2010.04.16 14:36:59.
