data_PCOD8220443
_publ_section_title
;
Structure prediction by ZEFSAII (Michael W. Deem and Ramdas Pophale) SiO2 
 PCOD8220443
Probable space group: P M N A
;
_chemical_formula_sum "Si O2"
_cell_formula_units_Z 64
_cell_length_a 8.720450
_cell_length_b 17.052736
_cell_length_c 27.064338
_cell_angle_alpha 90.000000
_cell_angle_beta 90.000000
_cell_angle_gamma 90.000000
_cell_volume 4024.670900
_symmetry_space_group_name_H-M "P M N A"
_symmetry_group_IT_number 53
_symmetry_cell_setting 'orthorhombic'
loop_
_space_group_symop_operation_xyz
x,y,z
1/2-x,-y,1/2+z
x,-y,-z
1/2-x,y,1/2-z
-x,-y,-z
1/2+x,y,1/2-z
-x,y,z
1/2+x,-y,1/2+z
loop_
_atom_site_type_symbol
_atom_site_label
_atom_site_fract_x
_atom_site_fract_y
_atom_site_fract_z
Si Si1 0.820572 0.678256 0.467173
Si Si2 0.172601 0.905101 0.954903
Si Si3 0.820421 0.974693 0.386177
Si Si4 0.329932 0.474458 0.556552
Si Si5 0.818903 0.161643 0.940266
Si Si6 0.316634 0.357167 0.426939
Si Si7 0.683235 0.079472 0.303819
Si Si8 0.328435 0.215825 0.369231
O O1 0.783255 0.598867 0.436216
O O2 0.742270 0.749958 0.438636
O O3 0.759205 0.671636 0.522575
O O4 0.000000 0.692101 0.468423
O O5 0.175726 0.828631 0.921181
O O6 0.000000 0.940012 0.956623
O O7 0.283518 0.971941 0.933882
O O8 0.230264 0.879814 0.008613
O O9 0.759314 0.886909 0.395880
O O10 0.000000 0.973493 0.376000
O O11 0.735942 0.007458 0.337658
O O12 0.336541 0.500000 0.500000
O O13 0.500000 0.449606 0.574354
O O14 0.272444 0.552514 0.585945
O O15 0.000000 0.162699 0.933254
O O16 0.500000 0.348659 0.433731
O O17 0.255839 0.301537 0.381619
O O18 0.750000 0.067713 0.250000
O O19 0.500000 0.080682 0.303117
O O20 0.750824 0.161584 0.327070
O O21 0.500000 0.229946 0.350593
#
# Coordination Sequence:
#
# PCOD8220443 Si02
#       8
#     8   8   8   8   8   8   8   8
#     4  11  20  27  38  60  90 121 154 193 235 266
#     4   9  17  30  46  62  86 122 157 187 224 268
#     4  11  22  33  46  68  93 115 147 189 232 277
#     4   8  15  26  41  57  79 116 159 190 218 261
#     4  11  20  32  47  61  86 123 161 192 225 270
#     4   9  15  28  45  61  83 118 159 191 219 266
#     4  10  20  36  54  71  91 119 151 186 233 278
#     4   8  14  27  47  68  87 114 153 190 224 268
#
# _framework density 15.901921
#
# number of rings (size 3 to 8) (size 9 to 14) (size 15 to 20)
#    0.000    2.375    1.250    4.875    0.000    4.750 
#    0.000    0.625    0.000    0.000    0.000    0.000 
#    0.000    1.000    0.000    7.000    0.000    3.250 
#
# Total GULP energy -793111.197620 kJ/mol
# GULP energy per Si atom -12392.362463 kJ/mol
# Density = 1.586573 g / cm^3
# Si number density = 15.901921 Si / 1000 Ang^3
#
#
#
# Elastic Constant Matrix: (Units=GPa)
#
#
# Indices 1 2 3 4 5 6 
#
# 1 67.8550 35.5838 19.2200 0.0000 0.0000 0.0000
# 2 35.5838 117.2117 45.9373 0.0000 0.0000 0.0000
# 3 19.2200 45.9373 62.9141 0.0000 0.0000 0.0000
# 4 0.0000 0.0000 0.0000 11.5567 0.0000 0.0000
# 5 0.0000 0.0000 0.0000 0.0000 13.7554 0.0000
# 6 0.0000 0.0000 0.0000 0.0000 0.0000 14.0578
#
#
#
# Elastic Compliance Matrix: (Units=1/GPa)
#
#
# Indices 1 2 3 4 5 6 
#
# 1 0.017720 -0.004564 -0.002081 0.000000 0.000000 0.000000
# 2 -0.004564 0.013127 -0.008191 0.000000 0.000000 0.000000
# 3 -0.002081 -0.008191 0.022511 0.000000 0.000000 0.000000
# 4 0.000000 0.000000 0.000000 0.086530 0.000000 0.000000
# 5 0.000000 0.000000 0.000000 0.000000 0.072699 0.000000
# 6 0.000000 0.000000 0.000000 0.000000 0.000000 0.071135
#
#
# Mechanical properties :
#
#
# Convention : Reuss Voigt Hill
#
# Bulk Modulus (GPa) = 42.21734 49.94035 46.07884
# Shear Modulus (GPa) = 15.56232 17.68994 16.62613
#
# Velocity S-wave (km/s) = 3.13172 3.33895 3.23699
# Velocity P-wave (km/s) = 6.29945 6.80721 6.55825
#
# Compressibility (1/GPa) = 0.02368695
#
# Stress axis : x y z
#
# Youngs Moduli (GPa) = 56.43286 76.17768 44.42290
#
# Poissons Ratio (x) = 0.34768 0.09244
# Poissons Ratio (y) = 0.25756 0.36385
# Poissons Ratio (z) = 0.11744 0.62395
#
# Static dielectric constant tensor:
#      x y z
#    x 2.915950 0.000000 0.000000 
#    y 0.000000 3.431390 0.000000 
#    z 0.000000 0.000000 2.710180 
# 
# 
# High freq. dielectric constant tensor:
#      x y z
#    x 1.603120 0.000000 0.000000 
#    y 0.000000 1.621190 0.000000 
#    z 0.000000 0.000000 1.552360 
# 
# From -- ./inp_files/36516.got.cif
#   From: 2010.03.12/outbox.cif.g09.slc.cpg/sg53_19_cif.got.tgz:36516.got - 2010.04.16 14:36:59.
