data_PCOD8220779
_publ_section_title
;
Structure prediction by ZEFSAII (Michael W. Deem and Ramdas Pophale) SiO2 
 PCOD8220779
Probable space group: P M N A
;
_chemical_formula_sum "Si O2"
_cell_formula_units_Z 48
_cell_length_a 8.597613
_cell_length_b 30.314090
_cell_length_c 9.128493
_cell_angle_alpha 90.000000
_cell_angle_beta 90.000000
_cell_angle_gamma 90.000000
_cell_volume 2379.148307
_symmetry_space_group_name_H-M "P M N A"
_symmetry_group_IT_number 53
_symmetry_cell_setting 'orthorhombic'
loop_
_space_group_symop_operation_xyz
x,y,z
1/2-x,-y,1/2+z
x,-y,-z
1/2-x,y,1/2-z
-x,-y,-z
1/2+x,y,1/2-z
-x,y,z
1/2+x,-y,1/2+z
loop_
_atom_site_type_symbol
_atom_site_label
_atom_site_fract_x
_atom_site_fract_y
_atom_site_fract_z
Si Si1 0.815581 0.778199 0.592558
Si Si2 0.183928 0.701972 0.090271
Si Si3 0.179531 0.455857 0.908149
Si Si4 0.684121 0.958464 0.091082
Si Si5 0.816593 0.377452 0.409834
Si Si6 0.683253 0.877933 0.903795
O O1 0.750000 0.762919 0.750000
O O2 0.742420 0.749612 0.462473
O O3 0.762474 0.828295 0.558103
O O4 0.000000 0.772388 0.593750
O O5 0.250000 0.690614 0.250000
O O6 0.000000 0.701259 0.099201
O O7 0.241438 0.666766 0.972244
O O8 0.250000 0.465231 0.750000
O O9 0.000000 0.441185 0.896011
O O10 0.197994 0.500000 0.000000
O O11 0.277556 0.417628 0.983843
O O12 0.750000 0.963472 0.250000
O O13 0.500000 0.958712 0.095309
O O14 0.746052 0.912306 0.024057
O O15 0.747859 0.000000 0.000000
O O16 0.750000 0.387780 0.250000
O O17 0.000000 0.371049 0.399679
O O18 0.750000 0.893740 0.750000
O O19 0.500000 0.879701 0.891792
#
# Coordination Sequence:
#
# PCOD8220779 Si02
#       6
#     8   8   8   8   8   8
#     4  10  20  37  59  85 116 151 192 236 286 343
#     4  12  25  42  62  87 119 155 196 242 295 349
#     4  11  24  42  65  94 128 165 205 249 298 351
#     4  10  21  36  54  79 110 144 185 231 280 336
#     4  12  25  43  66  92 123 159 201 247 297 352
#     4   9  19  35  56  82 112 146 186 232 280 336
#
# _framework density 20.175286
#
# number of rings (size 3 to 8) (size 9 to 14) (size 15 to 20)
#    0.000    1.333    0.000    6.000    0.000    5.000 
#    0.000    1.667    0.000    0.000    0.000    0.000 
#    0.000    0.000    0.000    0.000    0.000    0.000 
#
# Total GULP energy -595444.561059 kJ/mol
# GULP energy per Si atom -12405.095022 kJ/mol
# Density = 2.012937 g / cm^3
# Si number density = 20.175286 Si / 1000 Ang^3
#
#
#
# Elastic Constant Matrix: (Units=GPa)
#
#
# Indices 1 2 3 4 5 6 
#
# 1 101.9256 34.1488 38.2193 0.0000 0.0000 0.0000
# 2 34.1488 105.5312 50.1526 0.0000 0.0000 0.0000
# 3 38.2193 50.1526 134.7865 0.0000 0.0000 0.0000
# 4 0.0000 0.0000 0.0000 -26.8220 0.0000 0.0000
# 5 0.0000 0.0000 0.0000 0.0000 36.7206 0.0000
# 6 0.0000 0.0000 0.0000 0.0000 0.0000 27.0057
#
#
#
# Elastic Compliance Matrix: (Units=1/GPa)
#
#
# Indices 1 2 3 4 5 6 
#
# 1 0.011558 -0.002651 -0.002291 0.000000 0.000000 0.000000
# 2 -0.002651 0.012120 -0.003758 0.000000 0.000000 0.000000
# 3 -0.002291 -0.003758 0.009467 0.000000 0.000000 0.000000
# 4 0.000000 0.000000 0.000000 -0.037283 0.000000 0.000000
# 5 0.000000 0.000000 0.000000 0.000000 0.027233 0.000000
# 6 0.000000 0.000000 0.000000 0.000000 0.000000 0.037029
#
#
# Mechanical properties :
#
#
# Convention : Reuss Voigt Hill
#
# Bulk Modulus (GPa) = 63.51275 65.25383 64.38329
# Shear Modulus (GPa) = 60.40637 22.02903 41.21770
#
# Velocity S-wave (km/s) = 5.47775 3.30795 4.52484
# Velocity P-wave (km/s) = 8.45911 6.85592 7.69936
#
# Compressibility (1/GPa) = 0.01574487
#
# Stress axis : x y z
#
# Youngs Moduli (GPa) = 86.51699 82.51030 105.63068
#
# Poissons Ratio (x) = 0.21877 0.24198
# Poissons Ratio (y) = 0.22940 0.39694
# Poissons Ratio (z) = 0.19820 0.31005
#
# Static dielectric constant tensor:
#      x y z
#    x 3.731340 0.000000 0.000000 
#    y 0.000000 4.033180 0.000000 
#    z 0.000000 0.000000 3.664770 
# 
# 
# High freq. dielectric constant tensor:
#      x y z
#    x 1.794600 0.000000 0.000000 
#    y 0.000000 1.804660 0.000000 
#    z 0.000000 0.000000 1.794950 
# 
# From -- ./inp_files/6698.got.cif
#   From: 2010.03.12/outbox.cif.g09.slc.cpg/sg53_4_cif.got.tgz:6698.got - 2010.04.16 14:36:59.
