data_PCOD8220357
_publ_section_title
;
Structure prediction by ZEFSAII (Michael W. Deem and Ramdas Pophale) SiO2 
 PCOD8220357
Probable space group: P M N A
;
_chemical_formula_sum "Si O2"
_cell_formula_units_Z 64
_cell_length_a 24.990589
_cell_length_b 15.051655
_cell_length_c 9.635035
_cell_angle_alpha 90.000000
_cell_angle_beta 90.000000
_cell_angle_gamma 90.000000
_cell_volume 3624.215755
_symmetry_space_group_name_H-M "P M N A"
_symmetry_group_IT_number 53
_symmetry_cell_setting 'orthorhombic'
loop_
_space_group_symop_operation_xyz
x,y,z
1/2-x,-y,1/2+z
x,-y,-z
1/2-x,y,1/2-z
-x,-y,-z
1/2+x,y,1/2-z
-x,y,z
1/2+x,-y,1/2+z
loop_
_atom_site_type_symbol
_atom_site_label
_atom_site_fract_x
_atom_site_fract_y
_atom_site_fract_z
Si Si1 0.562485 0.669534 0.834586
Si Si2 0.937584 0.665665 0.341243
Si Si3 0.563231 0.499730 0.342422
Si Si4 0.365673 0.162119 0.218767
Si Si5 0.561092 0.005446 0.157478
Si Si6 0.617471 0.157326 0.745147
Si Si7 0.320154 0.894098 0.504358
Si Si8 0.800730 0.103079 0.533878
O O1 0.500000 0.692690 0.810709
O O2 0.581573 0.587448 0.740469
O O3 0.598593 0.750086 0.782104
O O4 0.572138 0.645902 0.996258
O O5 0.917198 0.583856 0.247521
O O6 0.901124 0.747030 0.294310
O O7 0.000000 0.686756 0.313978
O O8 0.587099 0.500000 0.500000
O O9 0.500000 0.502451 0.351342
O O10 0.324961 0.151376 0.345637
O O11 0.329989 0.162153 0.081454
O O12 0.405434 0.079407 0.235812
O O13 0.500000 0.034953 0.161867
O O14 0.568423 0.910043 0.228870
O O15 0.582230 0.000000 0.000000
O O16 0.634256 0.155855 0.584864
O O17 0.670614 0.122435 0.821587
O O18 0.260995 0.870023 0.451226
O O19 0.329711 0.000000 0.500000
O O20 0.805924 0.000000 0.500000
#
# Coordination Sequence:
#
# PCOD8220357 Si02
#       8
#     8   8   8   8   8   8   8   8
#     4  10  20  35  57  82 111 146 184 222 263 324
#     4  10  20  35  57  82 111 146 184 222 263 324
#     4   9  19  35  55  83 114 143 176 220 270 320
#     4  12  20  36  53  82 108 145 183 225 274 326
#     4  11  20  33  52  76 109 148 185 215 256 322
#     4  12  20  36  53  82 108 145 183 225 274 326
#     4  11  24  36  54  77 112 145 187 238 283 317
#     4  11  20  38  58  77 104 147 191 236 271 315
#
# _framework density 17.658992000000001
#
# number of rings (size 3 to 8) (size 9 to 14) (size 15 to 20)
#    0.000    1.250    5.000    1.875    1.750    5.500 
#    0.000    2.500    0.000    0.000    0.000    5.250 
#    0.000    0.000    0.000    0.000    0.000    0.000 
#
# Total GULP energy -793632.734371 kJ/mol
# GULP energy per Si atom -12400.511475 kJ/mol
# Density = 1.761880 g / cm^3
# Si number density = 17.658992 Si / 1000 Ang^3
#
#
#
# Elastic Constant Matrix: (Units=GPa)
#
#
# Indices 1 2 3 4 5 6 
#
# 1 56.3626 28.4931 15.7388 0.0000 0.0000 0.0000
# 2 28.4931 114.5519 34.2073 0.0000 0.0000 0.0000
# 3 15.7388 34.2073 67.6134 0.0000 0.0000 0.0000
# 4 0.0000 0.0000 0.0000 30.4520 0.0000 0.0000
# 5 0.0000 0.0000 0.0000 0.0000 -488.9019 0.0000
# 6 0.0000 0.0000 0.0000 0.0000 0.0000 2.4531
#
#
#
# Elastic Compliance Matrix: (Units=1/GPa)
#
#
# Indices 1 2 3 4 5 6 
#
# 1 0.020676 -0.004365 -0.002605 0.000000 0.000000 0.000000
# 2 -0.004365 0.011205 -0.004653 0.000000 0.000000 0.000000
# 3 -0.002605 -0.004653 0.017750 0.000000 0.000000 0.000000
# 4 0.000000 0.000000 0.000000 0.032839 0.000000 0.000000
# 5 0.000000 0.000000 0.000000 0.000000 -0.002045 0.000000
# 6 0.000000 0.000000 0.000000 0.000000 0.000000 0.407645
#
#
# Mechanical properties :
#
#
# Convention : Reuss Voigt Hill
#
# Bulk Modulus (GPa) = 37.89814 43.93403 40.91608
# Shear Modulus (GPa) = 9.61336 -80.52678 -35.45671
#
# Velocity S-wave (km/s) = 2.33575 -6.76018 -4.48577
# Velocity P-wave (km/s) = 5.36488 6.00002 1.89977
#
# Compressibility (1/GPa) = 0.02638652
#
# Stress axis : x y z
#
# Youngs Moduli (GPa) = 48.36455 89.24736 56.33756
#
# Poissons Ratio (x) = 0.38958 0.14673
# Poissons Ratio (y) = 0.21112 0.26212
# Poissons Ratio (z) = 0.12597 0.41524
#
# Static dielectric constant tensor:
#      x y z
#    x 3.134460 0.000000 0.000000 
#    y 0.000000 2.744990 0.000000 
#    z 0.000000 0.000000 3.474470 
# 
# 
# High freq. dielectric constant tensor:
#      x y z
#    x 1.666440 0.000000 0.000000 
#    y 0.000000 1.668780 0.000000 
#    z 0.000000 0.000000 1.693600 
# 
# From -- ./inp_files/11913.got.cif
#   From: 2010.03.12/outbox.cif.g09.slc.cpg/sg53_6_cif.got.tgz:11913.got - 2010.04.16 14:36:59.
