data_PCOD8220689
_publ_section_title
;
Structure prediction by ZEFSAII (Michael W. Deem and Ramdas Pophale) SiO2 
 PCOD8220689
Probable space group: P M N A
;
_chemical_formula_sum "Si O2"
_cell_formula_units_Z 28
_cell_length_a 16.227543
_cell_length_b 13.874346
_cell_length_c 5.192482
_cell_angle_alpha 90.000000
_cell_angle_beta 90.000000
_cell_angle_gamma 90.000000
_cell_volume 1169.069389
_symmetry_space_group_name_H-M "P M N A"
_symmetry_group_IT_number 53
_symmetry_cell_setting 'orthorhombic'
loop_
_space_group_symop_operation_xyz
x,y,z
1/2-x,-y,1/2+z
x,-y,-z
1/2-x,y,1/2-z
-x,-y,-z
1/2+x,y,1/2-z
-x,y,z
1/2+x,-y,1/2+z
loop_
_atom_site_type_symbol
_atom_site_label
_atom_site_fract_x
_atom_site_fract_y
_atom_site_fract_z
Si Si1 0.000000 0.563878 0.256090
Si Si2 0.404355 0.215457 0.397983
Si Si3 0.831631 0.608815 0.100552
Si Si4 0.094408 0.097943 0.608935
O O1 0.000000 0.500000 0.500000
O O2 0.085364 0.623652 0.273354
O O3 0.000000 0.500000 0.000000
O O4 0.500000 0.243261 0.455551
O O5 0.346530 0.310969 0.381452
O O6 0.370611 0.141397 0.620944
O O7 0.394968 0.175082 0.114436
O O8 0.750000 0.637009 0.250000
O O9 0.822890 0.500000 0.000000
O O10 0.000000 0.071758 0.668200
O O11 0.138029 0.000000 0.500000
#
# Coordination Sequence:
#
# PCOD8220689 Si02
#       4
#     4   8   8   8
#     4  10  22  40  62  86 119 164 215 266 316 376
#     4  10  20  36  60  92 126 167 208 259 320 380
#     4  11  24  42  63  94 130 176 219 270 324 389
#     4   9  18  34  60  93 127 162 207 257 317 387
#
# _framework density 23.950676000000001
#
# number of rings (size 3 to 8) (size 9 to 14) (size 15 to 20)
#    0.000    2.000    1.429    1.714    0.000   10.286 
#    0.000    0.000    0.000    3.429    0.000    0.000 
#    0.000    0.000    0.000    0.286    0.000    0.000 
#
# Total GULP energy -346870.132328 kJ/mol
# GULP energy per Si atom -12388.219012 kJ/mol
# Density = 2.389616 g / cm^3
# Si number density = 23.950676 Si / 1000 Ang^3
#
#
#
# Elastic Constant Matrix: (Units=GPa)
#
#
# Indices 1 2 3 4 5 6 
#
# 1 117.5166 2.3983 7.4133 0.0000 0.0000 0.0000
# 2 2.3983 87.3197 -15.3468 0.0000 0.0000 0.0000
# 3 7.4133 -15.3468 83.3023 0.0000 0.0000 0.0000
# 4 0.0000 0.0000 0.0000 30.1273 0.0000 0.0000
# 5 0.0000 0.0000 0.0000 0.0000 15.6785 0.0000
# 6 0.0000 0.0000 0.0000 0.0000 0.0000 2.3549
#
#
#
# Elastic Compliance Matrix: (Units=1/GPa)
#
#
# Indices 1 2 3 4 5 6 
#
# 1 0.008570 -0.000382 -0.000833 0.000000 0.000000 0.000000
# 2 -0.000382 0.011852 0.002218 0.000000 0.000000 0.000000
# 3 -0.000833 0.002218 0.012487 0.000000 0.000000 0.000000
# 4 0.000000 0.000000 0.000000 0.033192 0.000000 0.000000
# 5 0.000000 0.000000 0.000000 0.000000 0.063782 0.000000
# 6 0.000000 0.000000 0.000000 0.000000 0.000000 0.424643
#
#
# Mechanical properties :
#
#
# Convention : Reuss Voigt Hill
#
# Bulk Modulus (GPa) = 28.64107 30.78535 29.71321
# Shear Modulus (GPa) = 8.86274 29.21040 19.03657
#
# Velocity S-wave (km/s) = 1.92573 3.49608 2.82232
# Velocity P-wave (km/s) = 4.11448 5.40169 4.80142
#
# Compressibility (1/GPa) = 0.03491489
#
# Stress axis : x y z
#
# Youngs Moduli (GPa) = 116.68917 84.37112 80.08236
#
# Poissons Ratio (x) = 0.03221 0.06671
# Poissons Ratio (y) = 0.04455 -0.17759
# Poissons Ratio (z) = 0.09720 -0.18710
#
# Static dielectric constant tensor:
#      x y z
#    x 4.449910 0.000000 0.000000 
#    y 0.000000 4.486170 0.000000 
#    z 0.000000 0.000000 4.074810 
# 
# 
# High freq. dielectric constant tensor:
#      x y z
#    x 1.914860 0.000000 0.000000 
#    y 0.000000 1.960510 0.000000 
#    z 0.000000 0.000000 1.945270 
# 
# From -- ./inp_files/2541.got.cif
#   From: 2010.03.12/outbox.cif.g09.slc.cpg/sg53_2_cif.got.tgz:2541.got - 2010.04.16 14:36:59.
