data_PCOD8220353
_publ_section_title
;
Structure prediction by ZEFSAII (Michael W. Deem and Ramdas Pophale) SiO2 
 PCOD8220353
Probable space group: P M N A
;
_chemical_formula_sum "Si O2"
_cell_formula_units_Z 40
_cell_length_a 18.002638
_cell_length_b 9.573423
_cell_length_c 11.998603
_cell_angle_alpha 90.000000
_cell_angle_beta 90.000000
_cell_angle_gamma 90.000000
_cell_volume 2067.921656
_symmetry_space_group_name_H-M "P M N A"
_symmetry_group_IT_number 53
_symmetry_cell_setting 'orthorhombic'
loop_
_space_group_symop_operation_xyz
x,y,z
1/2-x,-y,1/2+z
x,-y,-z
1/2-x,y,1/2-z
-x,-y,-z
1/2+x,y,1/2-z
-x,y,z
1/2+x,-y,1/2+z
loop_
_atom_site_type_symbol
_atom_site_label
_atom_site_fract_x
_atom_site_fract_y
_atom_site_fract_z
Si Si1 0.914382 0.751717 0.270857
Si Si2 0.919676 0.021935 0.128143
Si Si3 0.842178 0.468866 0.872920
Si Si4 0.708780 0.237480 0.353078
Si Si5 0.802551 0.649287 0.450928
O O1 0.890815 0.887268 0.198261
O O2 0.904939 0.615347 0.192874
O O3 0.865762 0.733743 0.383647
O O4 0.000000 0.760676 0.307553
O O5 0.000000 0.068116 0.180234
O O6 0.859609 0.140997 0.121301
O O7 0.935503 0.000000 0.000000
O O8 0.826435 0.615577 0.813498
O O9 0.765711 0.381323 0.868107
O O10 0.867394 0.500000 0.000000
O O11 0.750000 0.167066 0.250000
O O12 0.768672 0.252012 0.452587
O O13 0.832343 0.500000 0.500000
#
# Coordination Sequence:
#
# PCOD8220353 Si02
#       5
#     8   8   8   8   8
#     4  11  22  36  57  85 119 155 190 237 298 359
#     4  10  22  38  53  77 113 147 185 235 287 341
#     4   9  18  34  56  81 109 142 188 240 283 335
#     4  10  20  35  57  82 107 142 188 238 288 342
#     4   9  19  37  59  83 113 148 195 247 291 346
#
# _framework density 19.343093
#
# number of rings (size 3 to 8) (size 9 to 14) (size 15 to 20)
#    0.000    2.600    0.000    5.400    0.000    4.800 
#    0.000    1.000    0.000    3.000    0.000    0.000 
#    0.000    0.000    0.000    0.000    0.000    0.000 
#
# Total GULP energy -495544.234191 kJ/mol
# GULP energy per Si atom -12388.605855 kJ/mol
# Density = 1.929907 g / cm^3
# Si number density = 19.343093 Si / 1000 Ang^3
#
#
#
# Elastic Constant Matrix: (Units=GPa)
#
#
# Indices 1 2 3 4 5 6 
#
# 1 107.3959 58.1278 62.6173 0.0000 0.0000 0.0000
# 2 58.1278 67.8365 50.4447 0.0000 0.0000 0.0000
# 3 62.6173 50.4447 94.6407 0.0000 0.0000 0.0000
# 4 0.0000 0.0000 0.0000 30.8797 0.0000 0.0000
# 5 0.0000 0.0000 0.0000 0.0000 32.1081 0.0000
# 6 0.0000 0.0000 0.0000 0.0000 0.0000 33.4539
#
#
#
# Elastic Compliance Matrix: (Units=1/GPa)
#
#
# Indices 1 2 3 4 5 6 
#
# 1 0.019606 -0.011851 -0.006655 0.000000 0.000000 0.000000
# 2 -0.011851 0.031584 -0.008994 0.000000 0.000000 0.000000
# 3 -0.006655 -0.008994 0.019763 0.000000 0.000000 0.000000
# 4 0.000000 0.000000 0.000000 0.032384 0.000000 0.000000
# 5 0.000000 0.000000 0.000000 0.000000 0.031145 0.000000
# 6 0.000000 0.000000 0.000000 0.000000 0.000000 0.029892
#
#
# Mechanical properties :
#
#
# Convention : Reuss Voigt Hill
#
# Bulk Modulus (GPa) = 62.68189 68.02808 65.35499
# Shear Modulus (GPa) = 22.25267 25.86722 24.05994
#
# Velocity S-wave (km/s) = 3.39546 3.66086 3.53065
# Velocity P-wave (km/s) = 6.91722 7.28798 7.10502
#
# Compressibility (1/GPa) = 0.01595357
#
# Stress axis : x y z
#
# Youngs Moduli (GPa) = 51.00455 31.66132 50.59874
#
# Poissons Ratio (x) = 0.37522 0.33675
# Poissons Ratio (y) = 0.60446 0.45507
# Poissons Ratio (z) = 0.33945 0.28475
#
# Static dielectric constant tensor:
#      x y z
#    x 3.512000 0.000000 0.000000 
#    y 0.000000 3.457800 0.000000 
#    z 0.000000 0.000000 3.401980 
# 
# 
# High freq. dielectric constant tensor:
#      x y z
#    x 1.743760 0.000000 0.000000 
#    y 0.000000 1.742410 0.000000 
#    z 0.000000 0.000000 1.749630 
# 
# From -- ./inp_files/16668.got.cif
#   From: 2010.03.12/outbox.cif.g09.slc.cpg/sg53_9_cif.got.tgz:16668.got - 2010.04.16 14:36:59.
