data_PCOD8220751
_publ_section_title
;
Structure prediction by ZEFSAII (Michael W. Deem and Ramdas Pophale) SiO2 
 PCOD8220751
Probable space group: P M N A
;
_chemical_formula_sum "Si O2"
_cell_formula_units_Z 40
_cell_length_a 17.261779
_cell_length_b 12.412295
_cell_length_c 9.129313
_cell_angle_alpha 90.000000
_cell_angle_beta 90.000000
_cell_angle_gamma 90.000000
_cell_volume 1956.031021
_symmetry_space_group_name_H-M "P M N A"
_symmetry_group_IT_number 53
_symmetry_cell_setting 'orthorhombic'
loop_
_space_group_symop_operation_xyz
x,y,z
1/2-x,-y,1/2+z
x,-y,-z
1/2-x,y,1/2-z
-x,-y,-z
1/2+x,y,1/2-z
-x,y,z
1/2+x,-y,1/2+z
loop_
_atom_site_type_symbol
_atom_site_label
_atom_site_fract_x
_atom_site_fract_y
_atom_site_fract_z
Si Si1 0.589967 0.632047 0.915715
Si Si2 0.173803 0.963643 0.165168
Si Si3 0.588521 0.172322 0.281864
Si Si4 0.909514 0.752289 0.096110
Si Si5 0.660513 0.431681 0.785505
O O1 0.500000 0.611383 0.957621
O O2 0.601355 0.751958 0.857053
O O3 0.615744 0.546175 0.791008
O O4 0.645479 0.623604 0.056648
O O5 0.250000 0.928527 0.250000
O O6 0.117700 0.861045 0.176823
O O7 0.136292 0.064631 0.248805
O O8 0.191516 0.000000 0.000000
O O9 0.500000 0.137132 0.303119
O O10 0.614761 0.237517 0.426344
O O11 0.870711 0.644576 0.157559
O O12 0.000000 0.740447 0.121300
O O13 0.750000 0.452591 0.750000
#
# Coordination Sequence:
#
# PCOD8220751 Si02
#       5
#     8   8   8   8   8
#     4  10  22  42  62  82 115 156 193 231 284 344
#     4  10  21  36  55  81 114 146 181 230 284 333
#     4   9  20  37  59  83 108 145 189 230 274 332
#     4  10  20  37  59  82 111 148 190 232 278 336
#     4  11  23  37  57  85 116 148 187 235 287 335
#
# _framework density 20.449573999999998
#
# number of rings (size 3 to 8) (size 9 to 14) (size 15 to 20)
#    0.000    2.000    0.000    3.600    0.000   12.000 
#    0.000    3.000    0.000    4.800    0.000    0.000 
#    0.000    0.000    0.000    0.000    0.000    0.000 
#
# Total GULP energy -495978.263089 kJ/mol
# GULP energy per Si atom -12399.456577 kJ/mol
# Density = 2.040303 g / cm^3
# Si number density = 20.449574 Si / 1000 Ang^3
#
#
#
# Elastic Constant Matrix: (Units=GPa)
#
#
# Indices 1 2 3 4 5 6 
#
# 1 87.1886 17.9828 24.9859 0.0000 0.0000 0.0000
# 2 17.9828 42.1230 8.2932 0.0000 0.0000 0.0000
# 3 24.9859 8.2932 39.3364 0.0000 0.0000 0.0000
# 4 0.0000 0.0000 0.0000 36.5801 0.0000 0.0000
# 5 0.0000 0.0000 0.0000 0.0000 36.1803 0.0000
# 6 0.0000 0.0000 0.0000 0.0000 0.0000 3.4527
#
#
#
# Elastic Compliance Matrix: (Units=1/GPa)
#
#
# Indices 1 2 3 4 5 6 
#
# 1 0.014856 -0.004679 -0.008450 0.000000 0.000000 0.000000
# 2 -0.004679 0.026241 -0.002561 0.000000 0.000000 0.000000
# 3 -0.008450 -0.002561 0.031329 0.000000 0.000000 0.000000
# 4 0.000000 0.000000 0.000000 0.027337 0.000000 0.000000
# 5 0.000000 0.000000 0.000000 0.000000 0.027639 0.000000
# 6 0.000000 0.000000 0.000000 0.000000 0.000000 0.289626
#
#
# Mechanical properties :
#
#
# Convention : Reuss Voigt Hill
#
# Bulk Modulus (GPa) = 24.36172 30.13020 27.24596
# Shear Modulus (GPa) = 10.82042 23.06838 16.94440
#
# Velocity S-wave (km/s) = 2.30277 3.36231 2.88165
# Velocity P-wave (km/s) = 4.35996 5.46254 4.94210
#
# Compressibility (1/GPa) = 0.04104801
#
# Stress axis : x y z
#
# Youngs Moduli (GPa) = 67.31367 38.10767 31.91947
#
# Poissons Ratio (x) = 0.17829 0.26971
# Poissons Ratio (y) = 0.31493 0.08174
# Poissons Ratio (z) = 0.56879 0.09758
#
# Static dielectric constant tensor:
#      x y z
#    x 3.682930 0.000000 0.000000 
#    y 0.000000 3.768550 0.000000 
#    z 0.000000 0.000000 3.586830 
# 
# 
# High freq. dielectric constant tensor:
#      x y z
#    x 1.801350 0.000000 0.000000 
#    y 0.000000 1.810770 0.000000 
#    z 0.000000 0.000000 1.789060 
# 
# From -- ./inp_files/8356.got.cif
#   From: 2010.03.12/outbox.cif.g09.slc.cpg/sg53_5_cif.got.tgz:8356.got - 2010.04.16 14:36:59.
