data_PCOD8220462
_publ_section_title
;
Structure prediction by ZEFSAII (Michael W. Deem and Ramdas Pophale) SiO2 
 PCOD8220462
Probable space group: P M N A
;
_chemical_formula_sum "Si O2"
_cell_formula_units_Z 56
_cell_length_a 8.734973
_cell_length_b 19.405774
_cell_length_c 15.900360
_cell_angle_alpha 90.000000
_cell_angle_beta 90.000000
_cell_angle_gamma 90.000000
_cell_volume 2695.252723
_symmetry_space_group_name_H-M "P M N A"
_symmetry_group_IT_number 53
_symmetry_cell_setting 'orthorhombic'
loop_
_space_group_symop_operation_xyz
x,y,z
1/2-x,-y,1/2+z
x,-y,-z
1/2-x,y,1/2-z
-x,-y,-z
1/2+x,y,1/2-z
-x,y,z
1/2+x,-y,1/2+z
loop_
_atom_site_type_symbol
_atom_site_label
_atom_site_fract_x
_atom_site_fract_y
_atom_site_fract_z
Si Si1 0.676125 0.207743 0.596528
Si Si2 0.320837 0.658020 0.836801
Si Si3 0.317762 0.578000 0.000052
Si Si4 0.826529 0.786746 0.905367
Si Si5 0.181612 0.659504 0.336172
Si Si6 0.181442 0.072508 0.657687
Si Si7 0.319869 0.067008 0.340666
O O1 0.500000 0.199803 0.624359
O O2 0.691139 0.235177 0.501842
O O3 0.759265 0.262261 0.656500
O O4 0.759937 0.134609 0.600538
O O5 0.250000 0.629742 0.750000
O O6 0.500000 0.648158 0.830444
O O7 0.281391 0.738592 0.848984
O O8 0.253541 0.615299 0.916155
O O9 0.500000 0.580594 0.999054
O O10 0.257359 0.615054 0.084703
O O11 0.256410 0.500000 0.000000
O O12 0.779941 0.866712 0.896988
O O13 0.000000 0.775970 0.873511
O O14 0.250000 0.627677 0.250000
O O15 0.000000 0.658943 0.331349
O O16 0.250000 0.081875 0.750000
O O17 0.000000 0.072449 0.661733
O O18 0.241363 0.000454 0.618181
O O19 0.250000 0.081360 0.250000
O O20 0.500000 0.053474 0.333304
#
# Coordination Sequence:
#
# PCOD8220462 Si02
#       7
#     8   8   8   8   8   8   8
#     4  11  22  38  59  84 117 155 198 251 304 358
#     4  11  22  38  63  92 124 163 205 251 300 359
#     4   9  20  40  64  91 126 164 201 245 299 360
#     4  10  22  38  59  85 117 155 199 251 303 358
#     4  11  22  39  63  92 123 161 206 250 302 359
#     4  11  22  37  56  80 111 150 197 248 301 359
#     4  10  20  36  55  79 110 149 194 244 301 357
#
# _framework density 20.777273000000001
#
# number of rings (size 3 to 8) (size 9 to 14) (size 15 to 20)
#    0.000    1.571    1.429    4.714    0.000    4.000 
#    0.000    2.857    0.000    6.000    0.000    0.000 
#    0.000    0.000    0.000    0.000    0.000    0.000 
#
# Total GULP energy -694554.204526 kJ/mol
# GULP energy per Si atom -12402.753652 kJ/mol
# Density = 2.072998 g / cm^3
# Si number density = 20.777273 Si / 1000 Ang^3
#
#
#
# Elastic Constant Matrix: (Units=GPa)
#
#
# Indices 1 2 3 4 5 6 
#
# 1 104.7333 40.2171 43.4811 0.0000 0.0000 0.0000
# 2 40.2171 125.6619 59.6415 0.0000 0.0000 0.0000
# 3 43.4811 59.6415 131.4775 0.0000 0.0000 0.0000
# 4 0.0000 0.0000 0.0000 31.4638 0.0000 0.0000
# 5 0.0000 0.0000 0.0000 0.0000 29.7229 0.0000
# 6 0.0000 0.0000 0.0000 0.0000 0.0000 21.4542
#
#
#
# Elastic Compliance Matrix: (Units=1/GPa)
#
#
# Indices 1 2 3 4 5 6 
#
# 1 0.011615 -0.002414 -0.002746 0.000000 0.000000 0.000000
# 2 -0.002414 0.010643 -0.004030 0.000000 0.000000 0.000000
# 3 -0.002746 -0.004030 0.010342 0.000000 0.000000 0.000000
# 4 0.000000 0.000000 0.000000 0.031783 0.000000 0.000000
# 5 0.000000 0.000000 0.000000 0.000000 0.033644 0.000000
# 6 0.000000 0.000000 0.000000 0.000000 0.000000 0.046611
#
#
# Mechanical properties :
#
#
# Convention : Reuss Voigt Hill
#
# Bulk Modulus (GPa) = 70.32068 72.06134 71.19101
# Shear Modulus (GPa) = 29.80496 31.09705 30.45100
#
# Velocity S-wave (km/s) = 3.79159 3.87290 3.83246
# Velocity P-wave (km/s) = 7.28606 7.39981 7.34315
#
# Compressibility (1/GPa) = 0.01422057
#
# Stress axis : x y z
#
# Youngs Moduli (GPa) = 86.09463 93.95906 96.69309
#
# Poissons Ratio (x) = 0.22681 0.26554
# Poissons Ratio (y) = 0.20782 0.38963
# Poissons Ratio (z) = 0.23644 0.37862
#
# Static dielectric constant tensor:
#      x y z
#    x 3.623720 0.000000 0.000000 
#    y 0.000000 3.855440 0.000000 
#    z 0.000000 0.000000 4.091490 
# 
# 
# High freq. dielectric constant tensor:
#      x y z
#    x 1.804810 0.000000 0.000000 
#    y 0.000000 1.813630 0.000000 
#    z 0.000000 0.000000 1.815490 
# 
# From -- ./inp_files/20449.got.cif
#   From: 2010.03.12/outbox.cif.g09.slc.cpg/sg53_11_cif.got.tgz:20449.got - 2010.04.16 14:36:59.
