data_PCOD8220894
_publ_section_title
;
Structure prediction by ZEFSAII (Michael W. Deem and Ramdas Pophale) SiO2 
 PCOD8220894
Probable space group: P M N A
;
_chemical_formula_sum "Si O2"
_cell_formula_units_Z 28
_cell_length_a 33.253684
_cell_length_b 8.452230
_cell_length_c 4.979739
_cell_angle_alpha 90.000000
_cell_angle_beta 90.000000
_cell_angle_gamma 90.000000
_cell_volume 1399.644213
_symmetry_space_group_name_H-M "P M N A"
_symmetry_group_IT_number 53
_symmetry_cell_setting 'orthorhombic'
loop_
_space_group_symop_operation_xyz
x,y,z
1/2-x,-y,1/2+z
x,-y,-z
1/2-x,y,1/2-z
-x,-y,-z
1/2+x,y,1/2-z
-x,y,z
1/2+x,-y,1/2+z
loop_
_atom_site_type_symbol
_atom_site_label
_atom_site_fract_x
_atom_site_fract_y
_atom_site_fract_z
Si Si1 0.084516 0.320434 0.404663
Si Si2 0.623321 0.819337 0.406360
Si Si3 0.207029 0.112140 0.751276
Si Si4 0.500000 0.386133 0.246188
O O1 0.088815 0.500000 0.500000
O O2 0.092237 0.209295 0.662277
O O3 0.040429 0.280833 0.277691
O O4 0.115672 0.291583 0.162981
O O5 0.668160 0.776366 0.296483
O O6 0.619576 0.000000 0.500000
O O7 0.250000 0.207715 0.750000
O O8 0.198250 0.000000 0.500000
O O9 0.212446 0.000000 0.000000
O O10 0.500000 0.500000 0.500000
O O11 0.500000 0.500000 0.000000
#
# Coordination Sequence:
#
# PCOD8220894 Si02
#       4
#     8   8   8   4
#     4  11  22  38  59  82 110 149 190 226 273 334
#     4  11  21  36  57  87 117 142 181 234 283 323
#     4   9  17  31  53  81 111 146 186 224 265 324
#     4  10  20  38  59  80 105 146 197 228 257 330
#
# _framework density 20.005082999999999
#
# number of rings (size 3 to 8) (size 9 to 14) (size 15 to 20)
#    0.000    1.714    0.000    8.571    0.000    0.000 
#    0.000    4.286    0.000    3.429    0.000    4.000 
#    0.000    0.000    0.000    0.000    0.000    0.000 
#
# Total GULP energy -346905.871960 kJ/mol
# GULP energy per Si atom -12389.495427 kJ/mol
# Density = 1.995955 g / cm^3
# Si number density = 20.005083 Si / 1000 Ang^3
#
#
#
# Elastic Constant Matrix: (Units=GPa)
#
#
# Indices 1 2 3 4 5 6 
#
# 1 163.1385 62.3129 64.2343 0.0000 0.0000 0.0000
# 2 62.3129 48.6382 32.1917 0.0000 0.0000 0.0000
# 3 64.2343 32.1917 157.6431 0.0000 0.0000 0.0000
# 4 0.0000 0.0000 0.0000 40.6279 0.0000 0.0000
# 5 0.0000 0.0000 0.0000 0.0000 36.9528 0.0000
# 6 0.0000 0.0000 0.0000 0.0000 0.0000 16.0208
#
#
#
# Elastic Compliance Matrix: (Units=1/GPa)
#
#
# Indices 1 2 3 4 5 6 
#
# 1 0.012590 -0.014724 -0.002123 0.000000 0.000000 0.000000
# 2 -0.014724 0.040994 -0.002371 0.000000 0.000000 0.000000
# 3 -0.002123 -0.002371 0.007693 0.000000 0.000000 0.000000
# 4 0.000000 0.000000 0.000000 0.024614 0.000000 0.000000
# 5 0.000000 0.000000 0.000000 0.000000 0.027062 0.000000
# 6 0.000000 0.000000 0.000000 0.000000 0.000000 0.062419
#
#
# Mechanical properties :
#
#
# Convention : Reuss Voigt Hill
#
# Bulk Modulus (GPa) = 43.78580 76.32192 60.05386
# Shear Modulus (GPa) = 22.58139 32.76568 27.67354
#
# Velocity S-wave (km/s) = 3.36338 4.05145 3.72334
# Velocity P-wave (km/s) = 6.08424 7.75369 6.96914
#
# Compressibility (1/GPa) = 0.02283845
#
# Stress axis : x y z
#
# Youngs Moduli (GPa) = 79.42883 24.39399 129.99110
#
# Poissons Ratio (x) = 0.35919 0.27599
# Poissons Ratio (y) = 1.16954 0.30827
# Poissons Ratio (z) = 0.16864 0.05785
#
# Static dielectric constant tensor:
#      x y z
#    x 7.616730 0.000000 0.000000 
#    y 0.000000 3.145270 0.000000 
#    z 0.000000 0.000000 3.899340 
# 
# 
# High freq. dielectric constant tensor:
#      x y z
#    x 1.802660 0.000000 0.000000 
#    y 0.000000 1.715810 0.000000 
#    z 0.000000 0.000000 1.815720 
# 
# From -- ./inp_files/4886.got.cif
#   From: 2010.03.12/outbox.cif.g09.slc.cpg/sg53_3_cif.got.tgz:4886.got - 2010.04.16 14:36:59.
