data_PCOD8220151
_publ_section_title
;
Structure prediction by ZEFSAII (Michael W. Deem and Ramdas Pophale) SiO2 
 PCOD8220151
Probable space group: P M N A
;
_chemical_formula_sum "Si O2"
_cell_formula_units_Z 56
_cell_length_a 8.758601
_cell_length_b 21.883167
_cell_length_c 14.419794
_cell_angle_alpha 90.000000
_cell_angle_beta 90.000000
_cell_angle_gamma 90.000000
_cell_volume 2763.783204
_symmetry_space_group_name_H-M "P M N A"
_symmetry_group_IT_number 53
_symmetry_cell_setting 'orthorhombic'
loop_
_space_group_symop_operation_xyz
x,y,z
1/2-x,-y,1/2+z
x,-y,-z
1/2-x,y,1/2-z
-x,-y,-z
1/2+x,y,1/2-z
-x,y,z
1/2+x,-y,1/2+z
loop_
_atom_site_type_symbol
_atom_site_label
_atom_site_fract_x
_atom_site_fract_y
_atom_site_fract_z
Si Si1 0.681165 0.599536 0.847767
Si Si2 0.823110 0.644103 0.027337
Si Si3 0.677362 0.469409 0.655983
Si Si4 0.320167 0.250318 0.851208
Si Si5 0.320757 0.132462 0.968790
Si Si6 0.821117 0.033508 0.845327
Si Si7 0.678875 0.891829 0.654569
O O1 0.750000 0.621879 0.750000
O O2 0.500000 0.601951 0.843183
O O3 0.736491 0.531287 0.871228
O O4 0.740761 0.644749 0.927806
O O5 0.800826 0.577895 0.073185
O O6 0.747163 0.693597 0.092658
O O7 0.000000 0.659930 0.013998
O O8 0.750000 0.441654 0.750000
O O9 0.500000 0.484534 0.673464
O O10 0.250000 0.248462 0.750000
O O11 0.500000 0.258781 0.843184
O O12 0.274676 0.188070 0.902670
O O13 0.500000 0.123898 0.976607
O O14 0.248176 0.070132 0.930952
O O15 0.252791 0.145857 0.070419
O O16 0.750000 0.058751 0.750000
O O17 0.000000 0.044848 0.842069
O O18 0.779213 0.962874 0.858961
O O19 0.750000 0.866990 0.750000
O O20 0.500000 0.880282 0.656559
#
# Coordination Sequence:
#
# PCOD8220151 Si02
#       7
#     8   8   8   8   8   8   8
#     4  11  22  37  59  86 118 153 190 234 284 339
#     4  11  23  39  60  85 115 152 193 238 287 338
#     4  10  20  34  55  85 119 152 189 233 283 340
#     4  11  25  43  62  86 115 149 191 236 283 336
#     4  11  23  38  58  84 115 152 193 237 285 338
#     4  10  20  34  55  85 118 152 190 233 285 342
#     4  10  21  37  58  85 117 151 189 235 285 340
#
# _framework density 20.262080999999998
#
# number of rings (size 3 to 8) (size 9 to 14) (size 15 to 20)
#    0.000    1.429    0.000    6.429    0.000   12.000 
#    0.000    0.714    0.000    3.429    0.000    0.000 
#    0.000    0.000    0.000    0.000    0.000    0.000 
#
# Total GULP energy -694730.688841 kJ/mol
# GULP energy per Si atom -12405.905158 kJ/mol
# Density = 2.021596 g / cm^3
# Si number density = 20.262081 Si / 1000 Ang^3
#
#
#
# Elastic Constant Matrix: (Units=GPa)
#
#
# Indices 1 2 3 4 5 6 
#
# 1 117.0751 55.1011 83.4442 0.0000 0.0000 0.0000
# 2 55.1011 54.8674 54.3196 0.0000 0.0000 0.0000
# 3 83.4442 54.3196 176.7367 0.0000 0.0000 0.0000
# 4 0.0000 0.0000 0.0000 18.7922 0.0000 0.0000
# 5 0.0000 0.0000 0.0000 0.0000 41.6525 0.0000
# 6 0.0000 0.0000 0.0000 0.0000 0.0000 -2.5332
#
#
#
# Elastic Compliance Matrix: (Units=1/GPa)
#
#
# Indices 1 2 3 4 5 6 
#
# 1 0.018198 -0.014042 -0.004276 0.000000 0.000000 0.000000
# 2 -0.014042 0.037032 -0.004752 0.000000 0.000000 0.000000
# 3 -0.004276 -0.004752 0.009138 0.000000 0.000000 0.000000
# 4 0.000000 0.000000 0.000000 0.053214 0.000000 0.000000
# 5 0.000000 0.000000 0.000000 0.000000 0.024008 0.000000
# 6 0.000000 0.000000 0.000000 0.000000 0.000000 -0.394757
#
#
# Mechanical properties :
#
#
# Convention : Reuss Voigt Hill
#
# Bulk Modulus (GPa) = 54.86253 81.60100 68.23176
# Shear Modulus (GPa) = -24.88177 21.96992 -1.45592
#
# Velocity S-wave (km/s) = -3.50808 3.29642 -0.84859
# Velocity P-wave (km/s) = 3.27512 7.40599 5.72604
#
# Compressibility (1/GPa) = 0.01822738
#
# Stress axis : x y z
#
# Youngs Moduli (GPa) = 54.94981 27.00335 109.43780
#
# Poissons Ratio (x) = 0.37919 0.46799
# Poissons Ratio (y) = 0.77163 0.52004
# Poissons Ratio (z) = 0.23498 0.12832
#
# Static dielectric constant tensor:
#      x y z
#    x 3.812650 0.000000 0.000000 
#    y 0.000000 3.501900 0.000000 
#    z 0.000000 0.000000 3.960980 
# 
# 
# High freq. dielectric constant tensor:
#      x y z
#    x 1.808660 0.000000 0.000000 
#    y 0.000000 1.767420 0.000000 
#    z 0.000000 0.000000 1.811030 
# 
# From -- ./inp_files/20568.got.cif
#   From: 2010.03.12/outbox.cif.g09.slc.cpg/sg53_11_cif.got.tgz:20568.got - 2010.04.16 14:36:59.
