data_PCOD8220662
_publ_section_title
;
Structure prediction by ZEFSAII (Michael W. Deem and Ramdas Pophale) SiO2 
 PCOD8220662
Probable space group: P M N A
;
_chemical_formula_sum "Si O2"
_cell_formula_units_Z 64
_cell_length_a 8.819232
_cell_length_b 15.354170
_cell_length_c 23.657448
_cell_angle_alpha 90.000000
_cell_angle_beta 90.000000
_cell_angle_gamma 90.000000
_cell_volume 3203.502050
_symmetry_space_group_name_H-M "P M N A"
_symmetry_group_IT_number 53
_symmetry_cell_setting 'orthorhombic'
loop_
_space_group_symop_operation_xyz
x,y,z
1/2-x,-y,1/2+z
x,-y,-z
1/2-x,y,1/2-z
-x,-y,-z
1/2+x,y,1/2-z
-x,y,z
1/2+x,-y,1/2+z
loop_
_atom_site_type_symbol
_atom_site_label
_atom_site_fract_x
_atom_site_fract_y
_atom_site_fract_z
Si Si1 0.180598 0.000268 0.810147
Si Si2 0.677330 0.399278 0.000754
Si Si3 0.322344 0.499678 0.310495
Si Si4 0.820850 0.338293 0.113488
Si Si5 0.325500 0.655740 0.387457
Si Si6 0.173564 0.849731 0.106202
Si Si7 0.820094 0.840529 0.627253
Si Si8 0.321013 0.902570 0.995176
O O1 0.250000 0.024143 0.750000
O O2 0.243057 0.907394 0.829816
O O3 0.000000 0.997680 0.806141
O O4 0.239159 0.075814 0.852649
O O5 0.500000 0.386261 0.012514
O O6 0.768903 0.349274 0.049077
O O7 0.724565 0.500000 0.000000
O O8 0.719847 0.357086 0.941412
O O9 0.250000 0.487747 0.250000
O O10 0.500000 0.496239 0.302093
O O11 0.267337 0.422295 0.351319
O O12 0.270777 0.591342 0.337806
O O13 0.739105 0.255561 0.142003
O O14 0.000000 0.324453 0.115438
O O15 0.500000 0.635157 0.404096
O O16 0.307427 0.754703 0.365140
O O17 0.000000 0.870772 0.092931
O O18 0.259750 0.845870 0.046744
O O19 0.765954 0.862087 0.563713
O O20 0.000000 0.846273 0.634482
O O21 0.500000 0.902820 0.998740
O O22 0.255180 0.000000 0.000000
#
# Coordination Sequence:
#
# PCOD8220662 Si02
#       8
#     8   8   8   8   8   8   8   8
#     4  11  24  42  62  87 118 157 203 250 299 353
#     4  11  22  36  59  92 125 158 198 246 299 356
#     4  10  23  41  62  85 115 155 200 245 296 350
#     4  11  23  40  62  89 121 161 201 245 300 361
#     4  10  21  40  62  88 121 159 198 242 299 361
#     4  10  22  38  61  90 120 154 197 244 292 352
#     4  11  23  40  63  91 122 158 197 247 300 357
#     4  10  20  36  59  87 121 156 191 234 295 356
#
# _framework density 19.978135999999999
#
# number of rings (size 3 to 8) (size 9 to 14) (size 15 to 20)
#    0.000    1.500    2.500    2.250    0.000    7.250 
#    0.000    1.250    0.000    0.000    0.000    0.000 
#    0.000    0.000    0.000    0.000    0.000    0.000 
#
# Total GULP energy -793925.181706 kJ/mol
# GULP energy per Si atom -12405.080964 kJ/mol
# Density = 1.993267 g / cm^3
# Si number density = 19.978136 Si / 1000 Ang^3
#
#
#
# Elastic Constant Matrix: (Units=GPa)
#
#
# Indices 1 2 3 4 5 6 
#
# 1 48.7685 25.2064 25.8241 0.0000 0.0000 0.0000
# 2 25.2064 111.3471 17.9619 0.0000 0.0000 0.0000
# 3 25.8241 17.9619 92.6203 0.0000 0.0000 0.0000
# 4 0.0000 0.0000 0.0000 15.5516 0.0000 0.0000
# 5 0.0000 0.0000 0.0000 0.0000 35.0962 0.0000
# 6 0.0000 0.0000 0.0000 0.0000 0.0000 -1.4266
#
#
#
# Elastic Compliance Matrix: (Units=1/GPa)
#
#
# Indices 1 2 3 4 5 6 
#
# 1 0.026465 -0.004956 -0.006418 0.000000 0.000000 0.000000
# 2 -0.004956 0.010199 -0.000596 0.000000 0.000000 0.000000
# 3 -0.006418 -0.000596 0.012702 0.000000 0.000000 0.000000
# 4 0.000000 0.000000 0.000000 0.064302 0.000000 0.000000
# 5 0.000000 0.000000 0.000000 0.000000 0.028493 0.000000
# 6 0.000000 0.000000 0.000000 0.000000 0.000000 -0.700970
#
#
# Mechanical properties :
#
#
# Convention : Reuss Voigt Hill
#
# Bulk Modulus (GPa) = 39.32946 43.41342 41.37144
# Shear Modulus (GPa) = -9.49859 22.09379 6.29760
#
# Velocity S-wave (km/s) = -2.18285 3.32911 1.77738
# Velocity P-wave (km/s) = 3.65731 6.04607 4.99654
#
# Compressibility (1/GPa) = 0.02542623
#
# Stress axis : x y z
#
# Youngs Moduli (GPa) = 37.78596 98.04918 78.72926
#
# Poissons Ratio (x) = 0.48591 0.50527
# Poissons Ratio (y) = 0.18726 0.04693
# Poissons Ratio (z) = 0.24250 0.05845
#
# Static dielectric constant tensor:
#      x y z
#    x 3.526940 0.000000 0.000000 
#    y 0.000000 3.903300 0.000000 
#    z 0.000000 0.000000 3.569030 
# 
# 
# High freq. dielectric constant tensor:
#      x y z
#    x 1.776290 0.000000 0.000000 
#    y 0.000000 1.797520 0.000000 
#    z 0.000000 0.000000 1.771370 
# 
# From -- ./inp_files/34254.got.cif
#   From: 2010.03.12/outbox.cif.g09.slc.cpg/sg53_18_cif.got.tgz:34254.got - 2010.04.16 14:36:59.
