data_PCOD8220683
_publ_section_title
;
Structure prediction by ZEFSAII (Michael W. Deem and Ramdas Pophale) SiO2 
 PCOD8220683
Probable space group: P M N A
;
_chemical_formula_sum "Si O2"
_cell_formula_units_Z 32
_cell_length_a 10.666629
_cell_length_b 8.978697
_cell_length_c 16.519168
_cell_angle_alpha 90.000000
_cell_angle_beta 90.000000
_cell_angle_gamma 90.000000
_cell_volume 1582.080858
_symmetry_space_group_name_H-M "P M N A"
_symmetry_group_IT_number 53
_symmetry_cell_setting 'orthorhombic'
loop_
_space_group_symop_operation_xyz
x,y,z
1/2-x,-y,1/2+z
x,-y,-z
1/2-x,y,1/2-z
-x,-y,-z
1/2+x,y,1/2-z
-x,y,z
1/2+x,-y,1/2+z
loop_
_atom_site_type_symbol
_atom_site_label
_atom_site_fract_x
_atom_site_fract_y
_atom_site_fract_z
Si Si1 0.637108 0.212373 0.344252
Si Si2 0.643096 0.833463 0.970804
Si Si3 0.142137 0.288759 0.641874
Si Si4 0.250000 0.961669 0.250000
Si Si5 0.250000 0.537505 0.750000
O O1 0.500000 0.212415 0.387745
O O2 0.754516 0.215835 0.405336
O O3 0.641658 0.357027 0.286227
O O4 0.642530 0.065743 0.288262
O O5 0.500000 0.823941 0.936035
O O6 0.657499 0.718819 0.045263
O O7 0.671626 0.000000 0.000000
O O8 0.196443 0.137280 0.678091
O O9 0.207901 0.435916 0.675023
O O10 0.000000 0.298455 0.669608
#
# Coordination Sequence:
#
# PCOD8220683 Si02
#       5
#     8   8   8   4   4
#     4  11  23  39  61  91 126 162 200 250 305 361
#     4  10  21  39  64  92 121 157 204 255 302 360
#     4  10  20  39  62  86 118 160 206 250 299 360
#     4  10  20  36  60  90 118 158 204 252 298 358
#     4  10  24  40  58  88 124 164 206 246 300 364
#
# _framework density 20.226527999999998
#
# number of rings (size 3 to 8) (size 9 to 14) (size 15 to 20)
#    0.000    1.750    2.500    1.500    0.000    6.500 
#    0.000    6.250    0.000    0.000    0.000    0.000 
#    0.000    0.000    0.000    0.000    0.000    0.000 
#
# Total GULP energy -396679.349030 kJ/mol
# GULP energy per Si atom -12396.229657 kJ/mol
# Density = 2.018049 g / cm^3
# Si number density = 20.226528 Si / 1000 Ang^3
#
#
#
# Elastic Constant Matrix: (Units=GPa)
#
#
# Indices 1 2 3 4 5 6 
#
# 1 136.6480 39.6661 49.3434 0.0000 0.0000 0.0000
# 2 39.6661 117.4957 33.0694 0.0000 0.0000 0.0000
# 3 49.3434 33.0694 78.9410 0.0000 0.0000 0.0000
# 4 0.0000 0.0000 0.0000 31.1157 0.0000 0.0000
# 5 0.0000 0.0000 0.0000 0.0000 32.0198 0.0000
# 6 0.0000 0.0000 0.0000 0.0000 0.0000 0.6275
#
#
#
# Elastic Compliance Matrix: (Units=1/GPa)
#
#
# Indices 1 2 3 4 5 6 
#
# 1 0.009773 -0.001791 -0.005358 0.000000 0.000000 0.000000
# 2 -0.001791 0.009977 -0.003060 0.000000 0.000000 0.000000
# 3 -0.005358 -0.003060 0.017299 0.000000 0.000000 0.000000
# 4 0.000000 0.000000 0.000000 0.032138 0.000000 0.000000
# 5 0.000000 0.000000 0.000000 0.000000 0.031231 0.000000
# 6 0.000000 0.000000 0.000000 0.000000 0.000000 1.593512
#
#
# Mechanical properties :
#
#
# Convention : Reuss Voigt Hill
#
# Bulk Modulus (GPa) = 60.13289 64.13806 62.13547
# Shear Modulus (GPa) = 2.90716 26.81965 14.86341
#
# Velocity S-wave (km/s) = 1.20018 3.64533 2.71375
# Velocity P-wave (km/s) = 5.63159 7.03538 6.37226
#
# Compressibility (1/GPa) = 0.01662984
#
# Stress axis : x y z
#
# Youngs Moduli (GPa) = 102.32360 100.23219 57.80739
#
# Poissons Ratio (x) = 0.17953 0.30975
# Poissons Ratio (y) = 0.18328 0.17688
# Poissons Ratio (z) = 0.54829 0.30669
#
# Static dielectric constant tensor:
#      x y z
#    x 3.530220 0.000000 0.000000 
#    y 0.000000 3.755260 0.000000 
#    z 0.000000 0.000000 3.594170 
# 
# 
# High freq. dielectric constant tensor:
#      x y z
#    x 1.782470 0.000000 0.000000 
#    y 0.000000 1.801230 0.000000 
#    z 0.000000 0.000000 1.785270 
# 
# From -- ./inp_files/21491.got.cif
#   From: 2010.03.12/outbox.cif.g09.slc.cpg/sg53_11_cif.got.tgz:21491.got - 2010.04.16 14:36:59.
