data_PCOD8220996
_publ_section_title
;
Structure prediction by ZEFSAII (Michael W. Deem and Ramdas Pophale) SiO2 
 PCOD8220996
Probable space group: P M N A
;
_chemical_formula_sum "Si O2"
_cell_formula_units_Z 40
_cell_length_a 17.477700
_cell_length_b 8.799595
_cell_length_c 12.411099
_cell_angle_alpha 90.000000
_cell_angle_beta 90.000000
_cell_angle_gamma 90.000000
_cell_volume 1908.785840
_symmetry_space_group_name_H-M "P M N A"
_symmetry_group_IT_number 53
_symmetry_cell_setting 'orthorhombic'
loop_
_space_group_symop_operation_xyz
x,y,z
1/2-x,-y,1/2+z
x,-y,-z
1/2-x,y,1/2-z
-x,-y,-z
1/2+x,y,1/2-z
-x,y,z
1/2+x,-y,1/2+z
loop_
_atom_site_type_symbol
_atom_site_label
_atom_site_fract_x
_atom_site_fract_y
_atom_site_fract_z
Si Si1 0.409731 0.173450 0.340342
Si Si2 0.086546 0.384876 0.354468
Si Si3 0.837428 0.133860 0.769342
Si Si4 0.821176 0.327400 0.971848
Si Si5 0.852772 0.309169 0.566613
O O1 0.500000 0.185030 0.359670
O O2 0.382620 0.283164 0.243463
O O3 0.365954 0.217328 0.448105
O O4 0.388213 0.001726 0.313544
O O5 0.140550 0.530269 0.370637
O O6 0.088784 0.290563 0.467081
O O7 0.000000 0.437486 0.332228
O O8 0.750000 0.082941 0.750000
O O9 0.843756 0.278642 0.850108
O O10 0.871171 0.179323 0.653042
O O11 0.731312 0.299176 0.985299
O O12 0.845035 0.500000 0.000000
#
# Coordination Sequence:
#
# PCOD8220996 Si02
#       5
#     8   8   8   8   8
#     4  11  26  43  61  90 130 171 206 253 312 373
#     4  10  21  39  64  94 125 162 206 254 310 373
#     4  10  24  39  61  91 125 163 209 256 310 369
#     4  11  22  40  65  92 121 162 209 258 312 364
#     4  10  20  39  63  95 121 159 206 260 311 362
#
# _framework density 20.955731
#
# number of rings (size 3 to 8) (size 9 to 14) (size 15 to 20)
#    0.000    1.600    2.000    3.000    2.800    4.400 
#    0.000    2.000    0.000    0.000    0.000    0.000 
#    0.000    0.000    0.000    0.000    0.000    0.000 
#
# Total GULP energy -496004.964331 kJ/mol
# GULP energy per Si atom -12400.124108 kJ/mol
# Density = 2.090804 g / cm^3
# Si number density = 20.955731 Si / 1000 Ang^3
#
#
#
# Elastic Constant Matrix: (Units=GPa)
#
#
# Indices 1 2 3 4 5 6 
#
# 1 78.5348 40.7538 38.3958 0.0000 0.0000 0.0000
# 2 40.7538 75.6282 28.2148 0.0000 0.0000 0.0000
# 3 38.3958 28.2148 90.6485 0.0000 0.0000 0.0000
# 4 0.0000 0.0000 0.0000 41.3998 0.0000 0.0000
# 5 0.0000 0.0000 0.0000 0.0000 24.8776 0.0000
# 6 0.0000 0.0000 0.0000 0.0000 0.0000 24.4583
#
#
#
# Elastic Compliance Matrix: (Units=1/GPa)
#
#
# Indices 1 2 3 4 5 6 
#
# 1 0.020056 -0.008642 -0.005805 0.000000 0.000000 0.000000
# 2 -0.008642 0.018683 -0.002155 0.000000 0.000000 0.000000
# 3 -0.005805 -0.002155 0.014161 0.000000 0.000000 0.000000
# 4 0.000000 0.000000 0.000000 0.024155 0.000000 0.000000
# 5 0.000000 0.000000 0.000000 0.000000 0.040197 0.000000
# 6 0.000000 0.000000 0.000000 0.000000 0.000000 0.040886
#
#
# Mechanical properties :
#
#
# Convention : Reuss Voigt Hill
#
# Bulk Modulus (GPa) = 50.77005 51.06003 50.91504
# Shear Modulus (GPa) = 25.26436 27.31025 26.28731
#
# Velocity S-wave (km/s) = 3.47595 3.61395 3.54562
# Velocity P-wave (km/s) = 6.35528 6.46782 6.41180
#
# Compressibility (1/GPa) = 0.01969665
#
# Stress axis : x y z
#
# Youngs Moduli (GPa) = 49.86081 53.52374 70.61519
#
# Poissons Ratio (x) = 0.46254 0.40994
# Poissons Ratio (y) = 0.43088 0.15217
# Poissons Ratio (z) = 0.28945 0.11534
#
# Static dielectric constant tensor:
#      x y z
#    x 3.624240 0.000000 0.000000 
#    y 0.000000 3.671330 0.000000 
#    z 0.000000 0.000000 4.149600 
# 
# 
# High freq. dielectric constant tensor:
#      x y z
#    x 1.811880 0.000000 0.000000 
#    y 0.000000 1.810840 0.000000 
#    z 0.000000 0.000000 1.838590 
# 
# From -- ./inp_files/16658.got.cif
#   From: 2010.03.12/outbox.cif.g09.slc.cpg/sg53_9_cif.got.tgz:16658.got - 2010.04.16 14:36:59.
