data_PCOD8220812
_publ_section_title
;
Structure prediction by ZEFSAII (Michael W. Deem and Ramdas Pophale) SiO2 
 PCOD8220812
Probable space group: P M N A
;
_chemical_formula_sum "Si O2"
_cell_formula_units_Z 64
_cell_length_a 27.091868
_cell_length_b 11.516667
_cell_length_c 9.607922
_cell_angle_alpha 90.000000
_cell_angle_beta 90.000000
_cell_angle_gamma 90.000000
_cell_volume 2997.748740
_symmetry_space_group_name_H-M "P M N A"
_symmetry_group_IT_number 53
_symmetry_cell_setting 'orthorhombic'
loop_
_space_group_symop_operation_xyz
x,y,z
1/2-x,-y,1/2+z
x,-y,-z
1/2-x,y,1/2-z
-x,-y,-z
1/2+x,y,1/2-z
-x,y,z
1/2+x,-y,1/2+z
loop_
_atom_site_type_symbol
_atom_site_label
_atom_site_fract_x
_atom_site_fract_y
_atom_site_fract_z
Si Si1 0.944495 0.514951 0.649077
Si Si2 0.301805 0.502634 0.668291
Si Si3 0.211192 0.874195 0.036603
Si Si4 0.675970 0.869839 0.995631
Si Si5 0.848922 0.742945 0.246433
Si Si6 0.944824 0.674722 0.140434
Si Si7 0.660171 0.247647 0.293754
Si Si8 0.446268 0.274961 0.334989
O O1 0.916277 0.500000 0.500000
O O2 0.923680 0.434947 0.772768
O O3 0.943316 0.647160 0.697256
O O4 0.000000 0.470701 0.626469
O O5 0.294104 0.500000 0.500000
O O6 0.250000 0.514021 0.750000
O O7 0.328988 0.387046 0.721472
O O8 0.336486 0.611595 0.715979
O O9 0.269329 0.877980 0.056012
O O10 0.188881 0.834952 0.182408
O O11 0.196883 0.783368 0.917515
O O12 0.189531 0.000000 0.000000
O O13 0.646018 0.778028 0.091209
O O14 0.678095 0.818192 0.842071
O O15 0.652447 0.000000 0.000000
O O16 0.902542 0.768649 0.175386
O O17 0.000000 0.715476 0.185713
O O18 0.945072 0.647277 0.975667
O O19 0.604154 0.201047 0.328180
O O20 0.500000 0.207213 0.332214
#
# Coordination Sequence:
#
# PCOD8220812 Si02
#       8
#     8   8   8   8   8   8   8   8
#     4   9  18  31  53  85 120 162 209 254 304 360
#     4  12  25  40  63  97 140 175 206 254 326 400
#     4  11  22  43  70  92 121 167 219 273 314 363
#     4  11  26  45  68  96 123 165 221 271 320 373
#     4  12  24  41  66  97 133 168 212 262 319 386
#     4  10  20  37  60  87 123 166 211 259 308 371
#     4  12  24  41  66  97 133 168 212 262 319 386
#     4  10  20  37  60  87 123 166 211 259 308 371
#
# _framework density 21.349354999999999
#
# number of rings (size 3 to 8) (size 9 to 14) (size 15 to 20)
#    0.000    1.125    2.500    4.125    3.500    3.500 
#    0.000    0.000    0.000    4.500    0.000    0.000 
#    0.000    0.000    0.000    0.000    0.000    0.000 
#
# Total GULP energy -792979.974657 kJ/mol
# GULP energy per Si atom -12390.312104 kJ/mol
# Density = 2.130076 g / cm^3
# Si number density = 21.349355 Si / 1000 Ang^3
#
#
#
# Elastic Constant Matrix: (Units=GPa)
#
#
# Indices 1 2 3 4 5 6 
#
# 1 106.7843 18.4846 11.2283 0.0000 0.0000 0.0000
# 2 18.4846 89.8303 13.4660 0.0000 0.0000 0.0000
# 3 11.2283 13.4660 92.7801 0.0000 0.0000 0.0000
# 4 0.0000 0.0000 0.0000 28.3470 0.0000 0.0000
# 5 0.0000 0.0000 0.0000 0.0000 23.9338 0.0000
# 6 0.0000 0.0000 0.0000 0.0000 0.0000 12.1315
#
#
#
# Elastic Compliance Matrix: (Units=1/GPa)
#
#
# Indices 1 2 3 4 5 6 
#
# 1 0.009785 -0.001877 -0.000912 0.000000 0.000000 0.000000
# 2 -0.001877 0.011740 -0.001477 0.000000 0.000000 0.000000
# 3 -0.000912 -0.001477 0.011103 0.000000 0.000000 0.000000
# 4 0.000000 0.000000 0.000000 0.035277 0.000000 0.000000
# 5 0.000000 0.000000 0.000000 0.000000 0.041782 0.000000
# 6 0.000000 0.000000 0.000000 0.000000 0.000000 0.082430
#
#
# Mechanical properties :
#
#
# Convention : Reuss Voigt Hill
#
# Bulk Modulus (GPa) = 41.49882 41.75026 41.62454
# Shear Modulus (GPa) = 23.96010 29.29685 26.62847
#
# Velocity S-wave (km/s) = 3.35369 3.70842 3.53551
# Velocity P-wave (km/s) = 5.87167 6.15912 6.01711
#
# Compressibility (1/GPa) = 0.02409707
#
# Stress axis : x y z
#
# Youngs Moduli (GPa) = 102.19256 85.18114 90.06697
#
# Poissons Ratio (x) = 0.15988 0.08213
# Poissons Ratio (y) = 0.19180 0.13301
# Poissons Ratio (z) = 0.09318 0.12579
#
# Static dielectric constant tensor:
#      x y z
#    x 4.120780 0.000000 0.000000 
#    y 0.000000 3.632870 0.000000 
#    z 0.000000 0.000000 4.029650 
# 
# 
# High freq. dielectric constant tensor:
#      x y z
#    x 1.845570 0.000000 0.000000 
#    y 0.000000 1.795120 0.000000 
#    z 0.000000 0.000000 1.854670 
# 
# From -- ./inp_files/13226.got.cif
#   From: 2010.03.12/outbox.cif.g09.slc.cpg/sg53_7_cif.got.tgz:13226.got - 2010.04.16 14:36:59.
