data_PCOD8220157
_publ_section_title
;
Structure prediction by ZEFSAII (Michael W. Deem and Ramdas Pophale) SiO2 
 PCOD8220157
Probable space group: P M N A
;
_chemical_formula_sum "Si O2"
_cell_formula_units_Z 64
_cell_length_a 8.950229
_cell_length_b 24.022005
_cell_length_c 14.444109
_cell_angle_alpha 90.000000
_cell_angle_beta 90.000000
_cell_angle_gamma 90.000000
_cell_volume 3105.518762
_symmetry_space_group_name_H-M "P M N A"
_symmetry_group_IT_number 53
_symmetry_cell_setting 'orthorhombic'
loop_
_space_group_symop_operation_xyz
x,y,z
1/2-x,-y,1/2+z
x,-y,-z
1/2-x,y,1/2-z
-x,-y,-z
1/2+x,y,1/2-z
-x,y,z
1/2+x,-y,1/2+z
loop_
_atom_site_type_symbol
_atom_site_label
_atom_site_fract_x
_atom_site_fract_y
_atom_site_fract_z
Si Si1 0.675879 0.884544 0.031183
Si Si2 0.171830 0.590008 0.164791
Si Si3 0.170064 0.312904 0.969664
Si Si4 0.674076 0.777919 0.150669
Si Si5 0.173100 0.101264 0.155372
Si Si6 0.175430 0.367217 0.155850
Si Si7 0.673012 0.029872 0.655909
Si Si8 0.671449 0.517694 0.894991
O O1 0.500000 0.892742 0.018061
O O2 0.715388 0.836675 0.104617
O O3 0.748578 0.941321 0.068637
O O4 0.747613 0.869244 0.931827
O O5 0.250000 0.623355 0.250000
O O6 0.194118 0.625734 0.072565
O O7 0.255291 0.531316 0.163082
O O8 0.000000 0.579392 0.186453
O O9 0.278133 0.269302 0.921500
O O10 0.000000 0.292831 0.954144
O O11 0.208017 0.320032 0.078175
O O12 0.750000 0.771770 0.250000
O O13 0.500000 0.771796 0.167938
O O14 0.250000 0.122202 0.250000
O O15 0.000000 0.118269 0.157857
O O16 0.195000 0.035525 0.143959
O O17 0.250000 0.345175 0.250000
O O18 0.242727 0.425856 0.125930
O O19 0.000000 0.375395 0.170030
O O20 0.750000 0.051115 0.750000
O O21 0.500000 0.046949 0.659000
O O22 0.500000 0.525641 0.865816
O O23 0.689457 0.500000 0.000000
#
# Coordination Sequence:
#
# PCOD8220157 Si02
#       8
#     8   8   8   8   8   8   8   8
#     4  11  23  38  58  87 120 159 203 247 299 356
#     4  11  22  37  57  84 116 150 189 233 284 342
#     4  10  23  42  64  87 114 151 194 241 294 347
#     4  11  25  43  65  91 120 152 192 242 296 353
#     4  10  21  37  58  86 121 161 203 248 297 352
#     4  11  23  41  63  89 120 155 195 240 291 346
#     4  10  20  34  55  86 122 161 203 247 299 356
#     4  11  22  36  57  86 118 156 195 233 283 341
#
# _framework density 20.608474000000001
#
# number of rings (size 3 to 8) (size 9 to 14) (size 15 to 20)
#    0.000    1.375    1.250    4.125    0.000    9.500 
#    0.000    0.625    0.000    1.500    0.000    0.000 
#    0.000    0.000    0.000    0.000    0.000    0.000 
#
# Total GULP energy -793809.968957 kJ/mol
# GULP energy per Si atom -12403.280765 kJ/mol
# Density = 2.056157 g / cm^3
# Si number density = 20.608474 Si / 1000 Ang^3
#
#
#
# Elastic Constant Matrix: (Units=GPa)
#
#
# Indices 1 2 3 4 5 6 
#
# 1 133.9317 42.6348 80.9933 0.0000 0.0000 0.0000
# 2 42.6348 49.5002 29.4136 0.0000 0.0000 0.0000
# 3 80.9933 29.4136 140.0409 0.0000 0.0000 0.0000
# 4 0.0000 0.0000 0.0000 26.0448 0.0000 0.0000
# 5 0.0000 0.0000 0.0000 0.0000 41.6927 0.0000
# 6 0.0000 0.0000 0.0000 0.0000 0.0000 586.3093
#
#
#
# Elastic Compliance Matrix: (Units=1/GPa)
#
#
# Indices 1 2 3 4 5 6 
#
# 1 0.013902 -0.008222 -0.006313 0.000000 0.000000 0.000000
# 2 -0.008222 0.027946 -0.001114 0.000000 0.000000 0.000000
# 3 -0.006313 -0.001114 0.011026 0.000000 0.000000 0.000000
# 4 0.000000 0.000000 0.000000 0.038395 0.000000 0.000000
# 5 0.000000 0.000000 0.000000 0.000000 0.023985 0.000000
# 6 0.000000 0.000000 0.000000 0.000000 0.000000 0.001706
#
#
# Mechanical properties :
#
#
# Convention : Reuss Voigt Hill
#
# Bulk Modulus (GPa) = 46.35135 69.95070 58.15102
# Shear Modulus (GPa) = 32.16457 142.17141 87.16799
#
# Velocity S-wave (km/s) = 3.95491 8.31484 6.51068
# Velocity P-wave (km/s) = 6.58751 11.23381 9.20853
#
# Compressibility (1/GPa) = 0.02157434
#
# Stress axis : x y z
#
# Youngs Moduli (GPa) = 71.93373 35.78335 90.69439
#
# Poissons Ratio (x) = 0.29422 0.57257
# Poissons Ratio (y) = 0.59146 0.10106
# Poissons Ratio (z) = 0.45413 0.03987
#
# Static dielectric constant tensor:
#      x y z
#    x 3.835610 0.000000 0.000000 
#    y 0.000000 3.451530 0.000000 
#    z 0.000000 0.000000 4.043750 
# 
# 
# High freq. dielectric constant tensor:
#      x y z
#    x 1.818640 0.000000 0.000000 
#    y 0.000000 1.780480 0.000000 
#    z 0.000000 0.000000 1.827350 
# 
# From -- ./inp_files/20940.got.cif
#   From: 2010.03.12/outbox.cif.g09.slc.cpg/sg53_11_cif.got.tgz:20940.got - 2010.04.16 14:36:59.
