data_PCOD8220458
_publ_section_title
;
Structure prediction by ZEFSAII (Michael W. Deem and Ramdas Pophale) SiO2 
 PCOD8220458
Probable space group: P M N A
;
_chemical_formula_sum "Si O2"
_cell_formula_units_Z 48
_cell_length_a 8.766432
_cell_length_b 9.370207
_cell_length_c 30.743196
_cell_angle_alpha 90.000000
_cell_angle_beta 90.000000
_cell_angle_gamma 90.000000
_cell_volume 2525.347034
_symmetry_space_group_name_H-M "P M N A"
_symmetry_group_IT_number 53
_symmetry_cell_setting 'orthorhombic'
loop_
_space_group_symop_operation_xyz
x,y,z
1/2-x,-y,1/2+z
x,-y,-z
1/2-x,y,1/2-z
-x,-y,-z
1/2+x,y,1/2-z
-x,y,z
1/2+x,-y,1/2+z
loop_
_atom_site_type_symbol
_atom_site_label
_atom_site_fract_x
_atom_site_fract_y
_atom_site_fract_z
Si Si1 0.821005 0.335859 0.294436
Si Si2 0.180540 0.337784 0.550418
Si Si3 0.679518 0.658140 0.952289
Si Si4 0.818616 0.144013 0.375259
Si Si5 0.679323 0.835098 0.373209
Si Si6 0.819655 0.340030 0.704901
O O1 0.750000 0.275249 0.250000
O O2 0.768331 0.237077 0.333919
O O3 0.765342 0.497434 0.303459
O O4 0.000000 0.332623 0.288846
O O5 0.239814 0.499185 0.558674
O O6 0.222914 0.293957 0.501003
O O7 0.272102 0.232173 0.581122
O O8 0.000000 0.322764 0.559163
O O9 0.500000 0.647272 0.947958
O O10 0.741879 0.773024 0.918026
O O11 0.000000 0.117408 0.376717
O O12 0.729170 0.997984 0.372717
O O13 0.500000 0.822712 0.366961
O O14 0.761511 0.755445 0.334140
O O15 0.750000 0.282440 0.750000
O O16 0.000000 0.327400 0.707435
#
# Coordination Sequence:
#
# PCOD8220458 Si02
#       6
#     8   8   8   8   8   8
#     4   9  19  35  59  85 108 135 174 220 269 320
#     4   9  17  35  61  85 106 135 177 229 278 326
#     4   8  16  33  61  87 104 131 181 232 277 327
#     4  10  20  36  55  78 108 145 183 223 269 321
#     4  12  25  37  50  77 114 152 186 219 263 320
#     4  10  20  38  62  86 109 138 177 225 273 322
#
# _framework density 19.007287999999999
#
# number of rings (size 3 to 8) (size 9 to 14) (size 15 to 20)
#    0.000    2.333    0.000    4.000    0.000    5.333 
#    0.000   10.000    0.000    0.000    0.000    0.000 
#    0.000    0.000    0.000    0.000    0.000    0.000 
#
# Total GULP energy -595223.255365 kJ/mol
# GULP energy per Si atom -12400.484487 kJ/mol
# Density = 1.896403 g / cm^3
# Si number density = 19.007288 Si / 1000 Ang^3
#
#
#
# Elastic Constant Matrix: (Units=GPa)
#
#
# Indices 1 2 3 4 5 6 
#
# 1 53.0321 32.0692 36.6994 0.0000 0.0000 0.0000
# 2 32.0692 110.8453 78.2428 0.0000 0.0000 0.0000
# 3 36.6994 78.2428 152.6576 0.0000 0.0000 0.0000
# 4 0.0000 0.0000 0.0000 -0.1445 0.0000 0.0000
# 5 0.0000 0.0000 0.0000 0.0000 29.0749 0.0000
# 6 0.0000 0.0000 0.0000 0.0000 0.0000 16.6153
#
#
#
# Elastic Compliance Matrix: (Units=1/GPa)
#
#
# Indices 1 2 3 4 5 6 
#
# 1 0.023967 -0.004492 -0.003459 0.000000 0.000000 0.000000
# 2 -0.004492 0.014978 -0.006597 0.000000 0.000000 0.000000
# 3 -0.003459 -0.006597 0.010763 0.000000 0.000000 0.000000
# 4 0.000000 0.000000 0.000000 -6.918385 0.000000 0.000000
# 5 0.000000 0.000000 0.000000 0.000000 0.034394 0.000000
# 6 0.000000 0.000000 0.000000 0.000000 0.000000 0.060186
#
#
# Mechanical properties :
#
#
# Convention : Reuss Voigt Hill
#
# Bulk Modulus (GPa) = 48.51655 67.83976 58.17815
# Shear Modulus (GPa) = -0.74205 20.41071 9.83433
#
# Velocity S-wave (km/s) = -0.62550 3.28050 2.27711
# Velocity P-wave (km/s) = 5.00589 7.07939 6.13094
#
# Compressibility (1/GPa) = 0.02061152
#
# Stress axis : x y z
#
# Youngs Moduli (GPa) = 41.72427 66.76610 92.90829
#
# Poissons Ratio (x) = 0.29992 0.32140
# Poissons Ratio (y) = 0.18743 0.61289
# Poissons Ratio (z) = 0.14434 0.44044
#
# Static dielectric constant tensor:
#      x y z
#    x 3.231890 0.000000 0.000000 
#    y 0.000000 3.610620 0.000000 
#    z 0.000000 0.000000 3.962910 
# 
# 
# High freq. dielectric constant tensor:
#      x y z
#    x 1.714610 0.000000 0.000000 
#    y 0.000000 1.738040 0.000000 
#    z 0.000000 0.000000 1.755990 
# 
# From -- ./inp_files/37682.got.cif
#   From: 2010.03.12/outbox.cif.g09.slc.cpg/sg53_19_cif.got.tgz:37682.got - 2010.04.16 14:36:59.
