data_PCOD8220901
_publ_section_title
;
Structure prediction by ZEFSAII (Michael W. Deem and Ramdas Pophale) SiO2 
 PCOD8220901
Probable space group: P M N A
;
_chemical_formula_sum "Si O2"
_cell_formula_units_Z 28
_cell_length_a 20.022306
_cell_length_b 12.938152
_cell_length_c 5.173782
_cell_angle_alpha 90.000000
_cell_angle_beta 90.000000
_cell_angle_gamma 90.000000
_cell_volume 1340.276704
_symmetry_space_group_name_H-M "P M N A"
_symmetry_group_IT_number 53
_symmetry_cell_setting 'orthorhombic'
loop_
_space_group_symop_operation_xyz
x,y,z
1/2-x,-y,1/2+z
x,-y,-z
1/2-x,y,1/2-z
-x,-y,-z
1/2+x,y,1/2-z
-x,y,z
1/2+x,-y,1/2+z
loop_
_atom_site_type_symbol
_atom_site_label
_atom_site_fract_x
_atom_site_fract_y
_atom_site_fract_z
Si Si1 0.852326 0.283383 0.422338
Si Si2 0.707619 0.500000 0.000000
Si Si3 0.250000 0.859828 0.750000
Si Si4 0.922546 0.796481 0.091822
Si Si5 0.357553 0.000000 0.500000
O O1 0.838156 0.404577 0.415903
O O2 0.783153 0.217103 0.465413
O O3 0.905342 0.263344 0.646591
O O4 0.881422 0.251937 0.143929
O O5 0.750000 0.466183 0.750000
O O6 0.189555 0.934929 0.814926
O O7 0.000000 0.784293 0.029711
O O8 0.904815 0.917222 0.143853
#
# Coordination Sequence:
#
# PCOD8220901 Si02
#       5
#     8   4   4   8   4
#     4  11  24  41  66  95 129 162 211 268 321 374
#     4  12  24  42  69 100 127 160 204 262 332 392
#     4  10  20  38  60 100 126 164 202 270 328 370
#     4  11  24  43  63  91 130 176 217 255 302 374
#     4  10  21  36  64  92 129 170 212 260 312 380
#
# _framework density 20.891207000000001
#
# number of rings (size 3 to 8) (size 9 to 14) (size 15 to 20)
#    0.000    1.143    1.429    4.714    4.000    3.429 
#    0.000   11.429    0.000    0.000    0.000    0.000 
#    0.000    0.000    0.000    0.000    0.000    0.000 
#
# Total GULP energy -347030.846279 kJ/mol
# GULP energy per Si atom -12393.958796 kJ/mol
# Density = 2.084366 g / cm^3
# Si number density = 20.891207 Si / 1000 Ang^3
#
#
#
# Elastic Constant Matrix: (Units=GPa)
#
#
# Indices 1 2 3 4 5 6 
#
# 1 100.6014 56.2233 21.9459 0.0000 0.0000 0.0000
# 2 56.2233 169.4139 36.2948 0.0000 0.0000 0.0000
# 3 21.9459 36.2948 91.1997 0.0000 0.0000 0.0000
# 4 0.0000 0.0000 0.0000 25.1950 0.0000 0.0000
# 5 0.0000 0.0000 0.0000 0.0000 30.1089 0.0000
# 6 0.0000 0.0000 0.0000 0.0000 0.0000 13.6456
#
#
#
# Elastic Compliance Matrix: (Units=1/GPa)
#
#
# Indices 1 2 3 4 5 6 
#
# 1 0.012381 -0.003794 -0.001469 0.000000 0.000000 0.000000
# 2 -0.003794 0.007616 -0.002118 0.000000 0.000000 0.000000
# 3 -0.001469 -0.002118 0.012161 0.000000 0.000000 0.000000
# 4 0.000000 0.000000 0.000000 0.039690 0.000000 0.000000
# 5 0.000000 0.000000 0.000000 0.000000 0.033213 0.000000
# 6 0.000000 0.000000 0.000000 0.000000 0.000000 0.073284
#
#
# Mechanical properties :
#
#
# Convention : Reuss Voigt Hill
#
# Bulk Modulus (GPa) = 57.48615 65.57146 61.52880
# Shear Modulus (GPa) = 25.13748 30.23996 27.68872
#
# Velocity S-wave (km/s) = 3.47256 3.80873 3.64452
# Velocity P-wave (km/s) = 6.60718 7.12721 6.87212
#
# Compressibility (1/GPa) = 0.01739550
#
# Stress axis : x y z
#
# Youngs Moduli (GPa) = 80.76755 131.30999 82.22775
#
# Poissons Ratio (x) = 0.49821 0.12083
# Poissons Ratio (y) = 0.30644 0.17414
# Poissons Ratio (z) = 0.11868 0.27808
#
# Static dielectric constant tensor:
#      x y z
#    x 3.942730 0.000000 0.000000 
#    y 0.000000 4.111650 0.000000 
#    z 0.000000 0.000000 3.779540 
# 
# 
# High freq. dielectric constant tensor:
#      x y z
#    x 1.816400 0.000000 0.000000 
#    y 0.000000 1.835370 0.000000 
#    z 0.000000 0.000000 1.806870 
# 
# From -- ./inp_files/2575.got.cif
#   From: 2010.03.12/outbox.cif.g09.slc.cpg/sg53_2_cif.got.tgz:2575.got - 2010.04.16 14:36:59.
