data_PCOD8220481
_publ_section_title
;
Structure prediction by ZEFSAII (Michael W. Deem and Ramdas Pophale) SiO2 
 PCOD8220481
Probable space group: P M N A
;
_chemical_formula_sum "Si O2"
_cell_formula_units_Z 40
_cell_length_a 8.696119
_cell_length_b 25.385068
_cell_length_c 9.613096
_cell_angle_alpha 90.000000
_cell_angle_beta 90.000000
_cell_angle_gamma 90.000000
_cell_volume 2122.106055
_symmetry_space_group_name_H-M "P M N A"
_symmetry_group_IT_number 53
_symmetry_cell_setting 'orthorhombic'
loop_
_space_group_symop_operation_xyz
x,y,z
1/2-x,-y,1/2+z
x,-y,-z
1/2-x,y,1/2-z
-x,-y,-z
1/2+x,y,1/2-z
-x,y,z
1/2+x,-y,1/2+z
loop_
_atom_site_type_symbol
_atom_site_label
_atom_site_fract_x
_atom_site_fract_y
_atom_site_fract_z
Si Si1 0.681310 0.952436 0.403948
Si Si2 0.818004 0.142398 0.100606
Si Si3 0.318417 0.746509 0.897879
Si Si4 0.319891 0.337867 0.598907
Si Si5 0.321524 0.456477 0.601804
O O1 0.750000 0.954613 0.250000
O O2 0.500000 0.956868 0.387524
O O3 0.730347 0.898873 0.481787
O O4 0.744020 0.000000 0.500000
O O5 0.750000 0.125258 0.250000
O O6 0.751649 0.198247 0.050680
O O7 0.000000 0.146202 0.117359
O O8 0.250000 0.730616 0.750000
O O9 0.500000 0.752331 0.886668
O O10 0.274230 0.700674 0.001814
O O11 0.250000 0.330618 0.750000
O O12 0.500000 0.323647 0.599597
O O13 0.290946 0.397447 0.545442
O O14 0.247141 0.500000 0.500000
O O15 0.250000 0.465414 0.750000
O O16 0.500000 0.467265 0.618771
#
# Coordination Sequence:
#
# PCOD8220481 Si02
#       5
#     8   8   8   8   8
#     4  10  22  38  57  83 112 143 180 221 265 317
#     4  10  20  36  57  81 110 142 180 223 268 319
#     4  11  22  37  57  81 110 144 183 225 272 322
#     4  10  20  36  56  79 109 143 181 223 270 323
#     4   9  19  35  54  78 107 139 176 219 266 318
#
# _framework density 18.8492
#
# number of rings (size 3 to 8) (size 9 to 14) (size 15 to 20)
#    0.000    2.000    0.000    4.800    0.000    4.800 
#    0.000    4.000    0.000    0.000    0.000    0.000 
#    0.000    0.000    0.000    0.000    0.000    0.000 
#
# Total GULP energy -496016.146512 kJ/mol
# GULP energy per Si atom -12400.403663 kJ/mol
# Density = 1.880630 g / cm^3
# Si number density = 18.849200 Si / 1000 Ang^3
#
#
#
# Elastic Constant Matrix: (Units=GPa)
#
#
# Indices 1 2 3 4 5 6 
#
# 1 81.9049 50.8613 43.7800 0.0000 0.0000 0.0000
# 2 50.8613 133.2769 84.5134 0.0000 0.0000 0.0000
# 3 43.7800 84.5134 110.6981 0.0000 0.0000 0.0000
# 4 0.0000 0.0000 0.0000 62.6322 0.0000 0.0000
# 5 0.0000 0.0000 0.0000 0.0000 35.0633 0.0000
# 6 0.0000 0.0000 0.0000 0.0000 0.0000 88.7700
#
#
#
# Elastic Compliance Matrix: (Units=1/GPa)
#
#
# Indices 1 2 3 4 5 6 
#
# 1 0.016620 -0.004215 -0.003355 0.000000 0.000000 0.000000
# 2 -0.004215 0.015614 -0.010253 0.000000 0.000000 0.000000
# 3 -0.003355 -0.010253 0.018188 0.000000 0.000000 0.000000
# 4 0.000000 0.000000 0.000000 0.015966 0.000000 0.000000
# 5 0.000000 0.000000 0.000000 0.000000 0.028520 0.000000
# 6 0.000000 0.000000 0.000000 0.000000 0.000000 0.011265
#
#
# Mechanical properties :
#
#
# Convention : Reuss Voigt Hill
#
# Bulk Modulus (GPa) = 67.68069 76.02104 71.85086
# Shear Modulus (GPa) = 34.07270 47.07477 40.57374
#
# Velocity S-wave (km/s) = 4.25626 5.00286 4.64459
# Velocity P-wave (km/s) = 7.75491 8.59012 8.18318
#
# Compressibility (1/GPa) = 0.01477526
#
# Stress axis : x y z
#
# Youngs Moduli (GPa) = 60.16808 64.04704 54.98014
#
# Poissons Ratio (x) = 0.26997 0.18446
# Poissons Ratio (y) = 0.25361 0.56372
# Poissons Ratio (z) = 0.20187 0.65669
#
# Static dielectric constant tensor:
#      x y z
#    x 3.505990 0.000000 0.000000 
#    y 0.000000 3.742800 0.000000 
#    z 0.000000 0.000000 3.473120 
# 
# 
# High freq. dielectric constant tensor:
#      x y z
#    x 1.739360 0.000000 0.000000 
#    y 0.000000 1.746090 0.000000 
#    z 0.000000 0.000000 1.731580 
# 
# From -- ./inp_files/6273.got.cif
#   From: 2010.03.12/outbox.cif.g09.slc.cpg/sg53_4_cif.got.tgz:6273.got - 2010.04.16 14:36:59.
