data_PCOD8220205
_publ_section_title
;
Structure prediction by ZEFSAII (Michael W. Deem and Ramdas Pophale) SiO2 
 PCOD8220205
Probable space group: P M N A
;
_chemical_formula_sum "Si O2"
_cell_formula_units_Z 28
_cell_length_a 20.177074
_cell_length_b 13.901044
_cell_length_c 4.946812
_cell_angle_alpha 90.000000
_cell_angle_beta 90.000000
_cell_angle_gamma 90.000000
_cell_volume 1387.493670
_symmetry_space_group_name_H-M "P M N A"
_symmetry_group_IT_number 53
_symmetry_cell_setting 'orthorhombic'
loop_
_space_group_symop_operation_xyz
x,y,z
1/2-x,-y,1/2+z
x,-y,-z
1/2-x,y,1/2-z
-x,-y,-z
1/2+x,y,1/2-z
-x,y,z
1/2+x,-y,1/2+z
loop_
_atom_site_type_symbol
_atom_site_label
_atom_site_fract_x
_atom_site_fract_y
_atom_site_fract_z
Si Si1 0.630930 0.805065 0.282812
Si Si2 0.828392 0.306057 0.274583
Si Si3 0.795126 0.500000 0.500000
Si Si4 0.500000 0.929645 0.254877
Si Si5 0.250000 0.061805 0.750000
O O1 0.633728 0.715002 0.492439
O O2 0.562294 0.860025 0.278168
O O3 0.689844 0.876109 0.369842
O O4 0.641838 0.769384 0.981379
O O5 0.750000 0.291432 0.250000
O O6 0.841180 0.414804 0.381191
O O7 0.750000 0.539886 0.250000
O O8 0.500000 0.000000 0.500000
O O9 0.500000 0.000000 0.000000
O O10 0.222302 0.000000 0.500000
#
# Coordination Sequence:
#
# PCOD8220205 Si02
#       5
#     8   8   4   4   4
#     4  12  23  39  63  87 123 161 206 257 302 372
#     4  11  20  38  61  95 125 156 202 251 313 365
#     4  10  20  34  60  95 132 161 192 252 314 380
#     4  12  26  46  62  85 122 169 218 250 306 376
#     4  12  22  36  56  86 114 150 198 258 314 344
#
# _framework density 20.180271000000001
#
# number of rings (size 3 to 8) (size 9 to 14) (size 15 to 20)
#    0.000    0.571    2.857    8.571    0.000    0.000 
#    0.000    0.000    0.000    5.143    0.000    0.000 
#    0.000    0.000    0.000    0.000    0.000    0.000 
#
# Total GULP energy -347213.538812 kJ/mol
# GULP energy per Si atom -12400.483529 kJ/mol
# Density = 2.013434 g / cm^3
# Si number density = 20.180271 Si / 1000 Ang^3
#
#
#
# Elastic Constant Matrix: (Units=GPa)
#
#
# Indices 1 2 3 4 5 6 
#
# 1 127.0422 61.6670 27.1388 0.0000 0.0000 0.0000
# 2 61.6670 118.6056 37.1766 0.0000 0.0000 0.0000
# 3 27.1388 37.1766 118.7048 0.0000 0.0000 0.0000
# 4 0.0000 0.0000 0.0000 56.3296 0.0000 0.0000
# 5 0.0000 0.0000 0.0000 0.0000 25.8062 0.0000
# 6 0.0000 0.0000 0.0000 0.0000 0.0000 29.4580
#
#
#
# Elastic Compliance Matrix: (Units=1/GPa)
#
#
# Indices 1 2 3 4 5 6 
#
# 1 0.010592 -0.005265 -0.000773 0.000000 0.000000 0.000000
# 2 -0.005265 0.011966 -0.002544 0.000000 0.000000 0.000000
# 3 -0.000773 -0.002544 0.009398 0.000000 0.000000 0.000000
# 4 0.000000 0.000000 0.000000 0.017753 0.000000 0.000000
# 5 0.000000 0.000000 0.000000 0.000000 0.038750 0.000000
# 6 0.000000 0.000000 0.000000 0.000000 0.000000 0.033947
#
#
# Mechanical properties :
#
#
# Convention : Reuss Voigt Hill
#
# Bulk Modulus (GPa) = 67.60100 68.47969 68.04034
# Shear Modulus (GPa) = 34.60217 38.21012 36.40614
#
# Velocity S-wave (km/s) = 4.14533 4.35609 4.25201
# Velocity P-wave (km/s) = 7.51551 7.70119 7.60892
#
# Compressibility (1/GPa) = 0.01479268
#
# Stress axis : x y z
#
# Youngs Moduli (GPa) = 94.40979 83.56919 106.40983
#
# Poissons Ratio (x) = 0.43999 0.08222
# Poissons Ratio (y) = 0.49707 0.27070
# Poissons Ratio (z) = 0.07295 0.21259
#
# Static dielectric constant tensor:
#      x y z
#    x 3.373570 0.000000 0.000000 
#    y 0.000000 3.917990 0.000000 
#    z 0.000000 0.000000 4.142100 
# 
# 
# High freq. dielectric constant tensor:
#      x y z
#    x 1.744020 0.000000 0.000000 
#    y 0.000000 1.799500 0.000000 
#    z 0.000000 0.000000 1.817110 
# 
# From -- ./inp_files/2572.got.cif
#   From: 2010.03.12/outbox.cif.g09.slc.cpg/sg53_2_cif.got.tgz:2572.got - 2010.04.16 14:36:59.
