data_PCOD8220302
_publ_section_title
;
Structure prediction by ZEFSAII (Michael W. Deem and Ramdas Pophale) SiO2 
 PCOD8220302
Probable space group: P M N A
;
_chemical_formula_sum "Si O2"
_cell_formula_units_Z 56
_cell_length_a 8.862013
_cell_length_b 14.656685
_cell_length_c 22.144041
_cell_angle_alpha 90.000000
_cell_angle_beta 90.000000
_cell_angle_gamma 90.000000
_cell_volume 2876.239285
_symmetry_space_group_name_H-M "P M N A"
_symmetry_group_IT_number 53
_symmetry_cell_setting 'orthorhombic'
loop_
_space_group_symop_operation_xyz
x,y,z
1/2-x,-y,1/2+z
x,-y,-z
1/2-x,y,1/2-z
-x,-y,-z
1/2+x,y,1/2-z
-x,y,z
1/2+x,-y,1/2+z
loop_
_atom_site_type_symbol
_atom_site_label
_atom_site_fract_x
_atom_site_fract_y
_atom_site_fract_z
Si Si1 0.329358 0.707046 0.904996
Si Si2 0.678314 0.195163 0.811143
Si Si3 0.671436 0.403031 0.975531
Si Si4 0.825605 0.119116 0.055589
Si Si5 0.174606 0.912703 0.080895
Si Si6 0.822596 0.375912 0.853115
Si Si7 0.177413 0.575243 0.812235
O O1 0.500000 0.703753 0.880433
O O2 0.271543 0.810671 0.904957
O O3 0.225437 0.644932 0.863662
O O4 0.319072 0.672073 0.973020
O O5 0.750000 0.152944 0.750000
O O6 0.500000 0.193583 0.805418
O O7 0.725462 0.136587 0.869087
O O8 0.734292 0.299045 0.816476
O O9 0.500000 0.413241 0.950906
O O10 0.781813 0.368613 0.923468
O O11 0.729949 0.500000 0.000000
O O12 0.000000 0.146940 0.059372
O O13 0.799149 0.020815 0.085560
O O14 0.774251 0.119968 0.985571
O O15 0.000000 0.888101 0.092100
O O16 0.766992 0.473605 0.828562
O O17 0.000000 0.360798 0.844861
O O18 0.250000 0.607546 0.750000
O O19 0.000000 0.578109 0.805824
#
# Coordination Sequence:
#
# PCOD8220302 Si02
#       7
#     8   8   8   8   8   8   8
#     4  11  22  36  57  85 118 154 192 236 284 336
#     4  12  25  40  60  86 119 157 197 243 293 350
#     4  10  20  35  55  83 119 156 192 236 288 337
#     4   9  19  37  63  91 120 152 188 235 291 348
#     4   9  19  39  64  90 119 152 189 235 291 348
#     4  11  23  38  59  86 116 154 197 240 289 347
#     4  11  24  40  58  79 108 149 195 240 285 336
#
# _framework density 19.469868000000002
#
# number of rings (size 3 to 8) (size 9 to 14) (size 15 to 20)
#    0.000    1.571    1.429    4.714    0.000    7.714 
#    0.000    2.143    0.000    3.429    0.000    0.000 
#    0.000    0.000    0.000    0.000    0.000    0.000 
#
# Total GULP energy -694677.899496 kJ/mol
# GULP energy per Si atom -12404.962491 kJ/mol
# Density = 1.942555 g / cm^3
# Si number density = 19.469868 Si / 1000 Ang^3
#
#
#
# Elastic Constant Matrix: (Units=GPa)
#
#
# Indices 1 2 3 4 5 6 
#
# 1 93.9274 41.8443 45.1986 0.0000 0.0000 0.0000
# 2 41.8443 100.4990 31.3804 0.0000 0.0000 0.0000
# 3 45.1986 31.3804 86.8946 0.0000 0.0000 0.0000
# 4 0.0000 0.0000 0.0000 18.9810 0.0000 0.0000
# 5 0.0000 0.0000 0.0000 0.0000 32.3856 0.0000
# 6 0.0000 0.0000 0.0000 0.0000 0.0000 24.7150
#
#
#
# Elastic Compliance Matrix: (Units=1/GPa)
#
#
# Indices 1 2 3 4 5 6 
#
# 1 0.015845 -0.004535 -0.006604 0.000000 0.000000 0.000000
# 2 -0.004535 0.012513 -0.002160 0.000000 0.000000 0.000000
# 3 -0.006604 -0.002160 0.015723 0.000000 0.000000 0.000000
# 4 0.000000 0.000000 0.000000 0.052684 0.000000 0.000000
# 5 0.000000 0.000000 0.000000 0.000000 0.030878 0.000000
# 6 0.000000 0.000000 0.000000 0.000000 0.000000 0.040461
#
#
# Mechanical properties :
#
#
# Convention : Reuss Voigt Hill
#
# Bulk Modulus (GPa) = 57.19801 57.57420 57.38611
# Shear Modulus (GPa) = 24.93389 26.07616 25.50503
#
# Velocity S-wave (km/s) = 3.58249 3.66363 3.62328
# Velocity P-wave (km/s) = 6.82303 6.89430 6.85876
#
# Compressibility (1/GPa) = 0.01748313
#
# Stress axis : x y z
#
# Youngs Moduli (GPa) = 63.11218 79.91659 63.60004
#
# Poissons Ratio (x) = 0.36244 0.42001
# Poissons Ratio (y) = 0.28622 0.13737
# Poissons Ratio (z) = 0.41679 0.17261
#
# Static dielectric constant tensor:
#      x y z
#    x 3.519450 0.000000 0.000000 
#    y 0.000000 3.544150 0.000000 
#    z 0.000000 0.000000 3.505240 
# 
# 
# High freq. dielectric constant tensor:
#      x y z
#    x 1.760200 0.000000 0.000000 
#    y 0.000000 1.759940 0.000000 
#    z 0.000000 0.000000 1.754250 
# 
# From -- ./inp_files/30762.got.cif
#   From: 2010.03.12/outbox.cif.g09.slc.cpg/sg53_16_cif.got.tgz:30762.got - 2010.04.16 14:36:59.
