data_PCOD8220275
_publ_section_title
;
Structure prediction by ZEFSAII (Michael W. Deem and Ramdas Pophale) SiO2 
 PCOD8220275
Probable space group: P M N A
;
_chemical_formula_sum "Si O2"
_cell_formula_units_Z 56
_cell_length_a 8.894341
_cell_length_b 19.236851
_cell_length_c 15.860915
_cell_angle_alpha 90.000000
_cell_angle_beta 90.000000
_cell_angle_gamma 90.000000
_cell_volume 2713.788481
_symmetry_space_group_name_H-M "P M N A"
_symmetry_group_IT_number 53
_symmetry_cell_setting 'orthorhombic'
loop_
_space_group_symop_operation_xyz
x,y,z
1/2-x,-y,1/2+z
x,-y,-z
1/2-x,y,1/2-z
-x,-y,-z
1/2+x,y,1/2-z
-x,y,z
1/2+x,-y,1/2+z
loop_
_atom_site_type_symbol
_atom_site_label
_atom_site_fract_x
_atom_site_fract_y
_atom_site_fract_z
Si Si1 0.670279 0.796579 0.407091
Si Si2 0.329526 0.786702 0.597288
Si Si3 0.677105 0.927091 0.159072
Si Si4 0.323529 0.657994 0.835611
Si Si5 0.675536 0.651195 0.336366
Si Si6 0.825522 0.418594 0.503846
Si Si7 0.323201 0.935452 0.659745
O O1 0.500000 0.823670 0.392804
O O2 0.689233 0.765395 0.500324
O O3 0.785143 0.859779 0.396092
O O4 0.709049 0.733551 0.344451
O O5 0.500000 0.774680 0.628945
O O6 0.221527 0.738850 0.653335
O O7 0.285913 0.867786 0.604610
O O8 0.750000 0.915891 0.250000
O O9 0.500000 0.935684 0.167292
O O10 0.747328 0.996644 0.116675
O O11 0.250000 0.627999 0.750000
O O12 0.500000 0.651151 0.825600
O O13 0.264598 0.614650 0.916426
O O14 0.750000 0.624119 0.250000
O O15 0.500000 0.635962 0.331667
O O16 0.738968 0.610389 0.415949
O O17 0.796199 0.500000 0.500000
O O18 0.000000 0.400054 0.515225
O O19 0.250000 0.923330 0.750000
O O20 0.500000 0.948702 0.668894
#
# Coordination Sequence:
#
# PCOD8220275 Si02
#       7
#     8   8   8   8   8   8   8
#     4  10  21  38  59  85 118 156 200 252 308 365
#     4  10  21  38  60  86 118 155 201 253 305 365
#     4  11  22  36  55  79 111 151 199 252 304 364
#     4  11  23  39  64  93 126 166 206 255 306 365
#     4  11  23  40  66  95 128 167 210 258 309 371
#     4  10  23  44  67  95 131 166 206 255 307 365
#     4  10  20  35  55  78 110 151 195 248 304 361
#
# _framework density 20.635359000000001
#
# number of rings (size 3 to 8) (size 9 to 14) (size 15 to 20)
#    0.000    1.571    1.429    4.286    0.000    7.143 
#    0.000    4.286    0.000    0.000    0.000    0.000 
#    0.000    0.000    0.000    0.000    0.000    0.000 
#
# Total GULP energy -694541.844219 kJ/mol
# GULP energy per Si atom -12402.532932 kJ/mol
# Density = 2.058839 g / cm^3
# Si number density = 20.635359 Si / 1000 Ang^3
#
#
#
# Elastic Constant Matrix: (Units=GPa)
#
#
# Indices 1 2 3 4 5 6 
#
# 1 114.8196 54.7255 57.6231 0.0000 0.0000 0.0000
# 2 54.7255 93.7539 51.8961 0.0000 0.0000 0.0000
# 3 57.6231 51.8961 129.7183 0.0000 0.0000 0.0000
# 4 0.0000 0.0000 0.0000 24.9959 0.0000 0.0000
# 5 0.0000 0.0000 0.0000 0.0000 33.8663 0.0000
# 6 0.0000 0.0000 0.0000 0.0000 0.0000 29.3107
#
#
#
# Elastic Compliance Matrix: (Units=1/GPa)
#
#
# Indices 1 2 3 4 5 6 
#
# 1 0.013249 -0.005749 -0.003585 0.000000 0.000000 0.000000
# 2 -0.005749 0.016195 -0.003925 0.000000 0.000000 0.000000
# 3 -0.003585 -0.003925 0.010872 0.000000 0.000000 0.000000
# 4 0.000000 0.000000 0.000000 0.040007 0.000000 0.000000
# 5 0.000000 0.000000 0.000000 0.000000 0.029528 0.000000
# 6 0.000000 0.000000 0.000000 0.000000 0.000000 0.034117
#
#
# Mechanical properties :
#
#
# Convention : Reuss Voigt Hill
#
# Bulk Modulus (GPa) = 72.48194 74.08678 73.28436
# Shear Modulus (GPa) = 28.55761 29.23773 28.89767
#
# Velocity S-wave (km/s) = 3.72414 3.76822 3.74625
# Velocity P-wave (km/s) = 7.32759 7.41036 7.36909
#
# Compressibility (1/GPa) = 0.01379654
#
# Stress axis : x y z
#
# Youngs Moduli (GPa) = 75.47936 61.74887 91.97896
#
# Poissons Ratio (x) = 0.35498 0.32978
# Poissons Ratio (y) = 0.43392 0.36104
# Poissons Ratio (z) = 0.27062 0.24238
#
# Static dielectric constant tensor:
#      x y z
#    x 3.725320 0.000000 0.000000 
#    y 0.000000 3.805860 0.000000 
#    z 0.000000 0.000000 3.720290 
# 
# 
# High freq. dielectric constant tensor:
#      x y z
#    x 1.807210 0.000000 0.000000 
#    y 0.000000 1.808070 0.000000 
#    z 0.000000 0.000000 1.807850 
# 
# From -- ./inp_files/20537.got.cif
#   From: 2010.03.12/outbox.cif.g09.slc.cpg/sg53_11_cif.got.tgz:20537.got - 2010.04.16 14:36:59.
