data_PCOD8220175
_publ_section_title
;
Structure prediction by ZEFSAII (Michael W. Deem and Ramdas Pophale) SiO2 
 PCOD8220175
Probable space group: P M N A
;
_chemical_formula_sum "Si O2"
_cell_formula_units_Z 40
_cell_length_a 20.911721
_cell_length_b 9.170865
_cell_length_c 11.091243
_cell_angle_alpha 90.000000
_cell_angle_beta 90.000000
_cell_angle_gamma 90.000000
_cell_volume 2127.062724
_symmetry_space_group_name_H-M "P M N A"
_symmetry_group_IT_number 53
_symmetry_cell_setting 'orthorhombic'
loop_
_space_group_symop_operation_xyz
x,y,z
1/2-x,-y,1/2+z
x,-y,-z
1/2-x,y,1/2-z
-x,-y,-z
1/2+x,y,1/2-z
-x,y,z
1/2+x,-y,1/2+z
loop_
_atom_site_type_symbol
_atom_site_label
_atom_site_fract_x
_atom_site_fract_y
_atom_site_fract_z
Si Si1 0.263998 0.278621 0.612660
Si Si2 0.324527 0.000000 0.500000
Si Si3 0.834413 0.500000 0.500000
Si Si4 0.900983 0.379608 0.907780
Si Si5 0.571734 0.171606 0.394222
Si Si6 0.929305 0.425072 0.294073
O O1 0.250000 0.237044 0.750000
O O2 0.205917 0.367037 0.553948
O O3 0.324679 0.384317 0.605839
O O4 0.277701 0.129166 0.541357
O O5 0.372114 0.949884 0.610462
O O6 0.878225 0.424673 0.399679
O O7 0.930001 0.419663 0.777114
O O8 0.925758 0.500000 0.000000
O O9 0.925466 0.228517 0.965723
O O10 0.500000 0.109461 0.370716
O O11 0.589745 0.296318 0.298434
O O12 0.000000 0.398537 0.348242
#
# Coordination Sequence:
#
# PCOD8220175 Si02
#       6
#     8   4   4   8   8   8
#     4  11  22  37  55  81 113 150 190 233 281 336
#     4  10  23  36  56  84 111 146 196 234 284 338
#     4  12  23  36  60  84 117 156 190 230 284 346
#     4   9  16  31  54  84 110 138 182 231 282 328
#     4   9  18  34  57  83 113 147 186 237 289 333
#     4  10  20  34  56  87 117 147 188 237 286 339
#
# _framework density 18.805275000000002
#
# number of rings (size 3 to 8) (size 9 to 14) (size 15 to 20)
#    0.000    2.000    3.000    1.200    0.000    4.000 
#    0.000    0.000    0.000    0.000    0.000    4.200 
#    0.000    0.000    0.000    0.000    0.000    0.000 
#
# Total GULP energy -495663.341779 kJ/mol
# GULP energy per Si atom -12391.583544 kJ/mol
# Density = 1.876247 g / cm^3
# Si number density = 18.805275 Si / 1000 Ang^3
#
#
#
# Elastic Constant Matrix: (Units=GPa)
#
#
# Indices 1 2 3 4 5 6 
#
# 1 123.1918 46.3048 53.8064 0.0000 0.0000 0.0000
# 2 46.3048 85.1802 36.4869 0.0000 0.0000 0.0000
# 3 53.8064 36.4869 92.8137 0.0000 0.0000 0.0000
# 4 0.0000 0.0000 0.0000 17.0597 0.0000 0.0000
# 5 0.0000 0.0000 0.0000 0.0000 28.5752 0.0000
# 6 0.0000 0.0000 0.0000 0.0000 0.0000 13.1442
#
#
#
# Elastic Compliance Matrix: (Units=1/GPa)
#
#
# Indices 1 2 3 4 5 6 
#
# 1 0.012038 -0.004275 -0.005299 0.000000 0.000000 0.000000
# 2 -0.004275 0.015635 -0.003668 0.000000 0.000000 0.000000
# 3 -0.005299 -0.003668 0.015288 0.000000 0.000000 0.000000
# 4 0.000000 0.000000 0.000000 0.058618 0.000000 0.000000
# 5 0.000000 0.000000 0.000000 0.000000 0.034995 0.000000
# 6 0.000000 0.000000 0.000000 0.000000 0.000000 0.076079
#
#
# Mechanical properties :
#
#
# Convention : Reuss Voigt Hill
#
# Bulk Modulus (GPa) = 60.68523 63.82021 62.25272
# Shear Modulus (GPa) = 20.43912 22.72833 21.58373
#
# Velocity S-wave (km/s) = 3.30037 3.48029 3.39152
# Velocity P-wave (km/s) = 6.84570 7.08244 6.96507
#
# Compressibility (1/GPa) = 0.01647847
#
# Stress axis : x y z
#
# Youngs Moduli (GPa) = 83.06784 63.95985 65.41061
#
# Poissons Ratio (x) = 0.27340 0.34658
# Poissons Ratio (y) = 0.35508 0.23995
# Poissons Ratio (z) = 0.44014 0.23462
#
# Static dielectric constant tensor:
#      x y z
#    x 3.554580 0.000000 0.000000 
#    y 0.000000 3.448380 0.000000 
#    z 0.000000 0.000000 3.335590 
# 
# 
# High freq. dielectric constant tensor:
#      x y z
#    x 1.742710 0.000000 0.000000 
#    y 0.000000 1.717540 0.000000 
#    z 0.000000 0.000000 1.707240 
# 
# From -- ./inp_files/17687.got.cif
#   From: 2010.03.12/outbox.cif.g09.slc.cpg/sg53_9_cif.got.tgz:17687.got - 2010.04.16 14:36:59.
