data_PCOD8220049
_publ_section_title
;
Structure prediction by ZEFSAII (Michael W. Deem and Ramdas Pophale) SiO2 
 PCOD8220049
Probable space group: P M N A
;
_chemical_formula_sum "Si O2"
_cell_formula_units_Z 56
_cell_length_a 8.734641
_cell_length_b 15.949364
_cell_length_c 19.770207
_cell_angle_alpha 90.000000
_cell_angle_beta 90.000000
_cell_angle_gamma 90.000000
_cell_volume 2754.226459
_symmetry_space_group_name_H-M "P M N A"
_symmetry_group_IT_number 53
_symmetry_cell_setting 'orthorhombic'
loop_
_space_group_symop_operation_xyz
x,y,z
1/2-x,-y,1/2+z
x,-y,-z
1/2-x,y,1/2-z
-x,-y,-z
1/2+x,y,1/2-z
-x,y,z
1/2+x,-y,1/2+z
loop_
_atom_site_type_symbol
_atom_site_label
_atom_site_fract_x
_atom_site_fract_y
_atom_site_fract_z
Si Si1 0.820105 0.071141 0.552707
Si Si2 0.323118 0.755963 0.452312
Si Si3 0.681618 0.339192 0.679796
Si Si4 0.824485 0.320640 0.090916
Si Si5 0.680893 0.007108 0.321413
Si Si6 0.679262 0.527783 0.680862
Si Si7 0.179500 0.815877 0.679454
O O1 0.774380 0.162848 0.525596
O O2 0.000000 0.065196 0.565314
O O3 0.766374 0.000000 0.500000
O O4 0.730843 0.060137 0.623014
O O5 0.500000 0.782445 0.445427
O O6 0.259667 0.717862 0.382129
O O7 0.303973 0.684609 0.510025
O O8 0.750000 0.303860 0.750000
O O9 0.500000 0.336570 0.683783
O O10 0.741768 0.434055 0.666911
O O11 0.776767 0.412855 0.117514
O O12 0.712379 0.252945 0.123374
O O13 0.000000 0.300828 0.111709
O O14 0.750000 0.978490 0.250000
O O15 0.500000 0.011187 0.315169
O O16 0.744982 0.097241 0.343811
O O17 0.750000 0.564766 0.750000
O O18 0.500000 0.524794 0.691904
O O19 0.250000 0.784777 0.750000
O O20 0.000000 0.830424 0.687787
#
# Coordination Sequence:
#
# PCOD8220049 Si02
#       7
#     8   8   8   8   8   8   8
#     4  11  24  41  60  83 113 149 189 233 283 339
#     4  10  22  38  57  82 111 146 187 231 283 338
#     4   9  19  37  59  83 111 145 186 232 281 332
#     4  10  20  34  53  80 113 148 187 230 277 331
#     4  11  22  38  60  84 111 143 184 233 284 338
#     4   9  18  33  55  82 112 147 186 228 274 326
#     4  11  21  34  53  79 113 150 187 228 276 330
#
# _framework density 20.332387000000001
#
# number of rings (size 3 to 8) (size 9 to 14) (size 15 to 20)
#    0.000    1.857    0.000    5.143    0.000    7.429 
#    0.000    4.286    0.000    0.000    0.000    6.000 
#    0.000    0.000    0.000    0.000    0.000    0.000 
#
# Total GULP energy -694561.662834 kJ/mol
# GULP energy per Si atom -12402.886836 kJ/mol
# Density = 2.028611 g / cm^3
# Si number density = 20.332387 Si / 1000 Ang^3
#
#
#
# Elastic Constant Matrix: (Units=GPa)
#
#
# Indices 1 2 3 4 5 6 
#
# 1 87.3419 25.3270 33.6220 0.0000 0.0000 0.0000
# 2 25.3270 92.8698 60.2114 0.0000 0.0000 0.0000
# 3 33.6220 60.2114 123.5739 0.0000 0.0000 0.0000
# 4 0.0000 0.0000 0.0000 39.6568 0.0000 0.0000
# 5 0.0000 0.0000 0.0000 0.0000 29.9106 0.0000
# 6 0.0000 0.0000 0.0000 0.0000 0.0000 23.7795
#
#
#
# Elastic Compliance Matrix: (Units=1/GPa)
#
#
# Indices 1 2 3 4 5 6 
#
# 1 0.012998 -0.001830 -0.002645 0.000000 0.000000 0.000000
# 2 -0.001830 0.015998 -0.007297 0.000000 0.000000 0.000000
# 3 -0.002645 -0.007297 0.012367 0.000000 0.000000 0.000000
# 4 0.000000 0.000000 0.000000 0.025216 0.000000 0.000000
# 5 0.000000 0.000000 0.000000 0.000000 0.033433 0.000000
# 6 0.000000 0.000000 0.000000 0.000000 0.000000 0.042053
#
#
# Mechanical properties :
#
#
# Convention : Reuss Voigt Hill
#
# Bulk Modulus (GPa) = 56.11826 60.23405 58.17615
# Shear Modulus (GPa) = 29.14617 30.97772 30.06194
#
# Velocity S-wave (km/s) = 3.79025 3.90752 3.84933
# Velocity P-wave (km/s) = 6.84215 7.07441 6.95925
#
# Compressibility (1/GPa) = 0.01781951
#
# Stress axis : x y z
#
# Youngs Moduli (GPa) = 76.93470 62.50865 80.85773
#
# Poissons Ratio (x) = 0.11439 0.21386
# Poissons Ratio (y) = 0.14079 0.59002
# Poissons Ratio (z) = 0.20348 0.45613
#
# Static dielectric constant tensor:
#      x y z
#    x 3.565890 0.000000 0.000000 
#    y 0.000000 3.716450 0.000000 
#    z 0.000000 0.000000 3.758210 
# 
# 
# High freq. dielectric constant tensor:
#      x y z
#    x 1.787560 0.000000 0.000000 
#    y 0.000000 1.788230 0.000000 
#    z 0.000000 0.000000 1.799130 
# 
# From -- ./inp_files/30824.got.cif
#   From: 2010.03.12/outbox.cif.g09.slc.cpg/sg53_16_cif.got.tgz:30824.got - 2010.04.16 14:36:59.
