data_PCOD8220435
_publ_section_title
;
Structure prediction by ZEFSAII (Michael W. Deem and Ramdas Pophale) SiO2 
 PCOD8220435
Probable space group: P M N A
;
_chemical_formula_sum "Si O2"
_cell_formula_units_Z 64
_cell_length_a 15.767505
_cell_length_b 20.196660
_cell_length_c 9.976479
_cell_angle_alpha 90.000000
_cell_angle_beta 90.000000
_cell_angle_gamma 90.000000
_cell_volume 3177.019091
_symmetry_space_group_name_H-M "P M N A"
_symmetry_group_IT_number 53
_symmetry_cell_setting 'orthorhombic'
loop_
_space_group_symop_operation_xyz
x,y,z
1/2-x,-y,1/2+z
x,-y,-z
1/2-x,y,1/2-z
-x,-y,-z
1/2+x,y,1/2-z
-x,y,z
1/2+x,-y,1/2+z
loop_
_atom_site_type_symbol
_atom_site_label
_atom_site_fract_x
_atom_site_fract_y
_atom_site_fract_z
Si Si1 0.746912 0.063797 0.408053
Si Si2 0.154332 0.757474 0.762627
Si Si3 0.400710 0.360007 0.836233
Si Si4 0.175450 0.499392 0.654001
Si Si5 0.903727 0.160509 0.009435
Si Si6 0.404496 0.633798 0.857850
Si Si7 0.095342 0.845440 0.530935
Si Si8 0.848458 0.779294 0.260127
O O1 0.750000 0.045753 0.250000
O O2 0.663027 0.106347 0.439004
O O3 0.834796 0.097913 0.450990
O O4 0.737970 0.000000 0.500000
O O5 0.250000 0.785168 0.750000
O O6 0.153445 0.678426 0.739656
O O7 0.097319 0.794301 0.653194
O O8 0.116073 0.772491 0.908287
O O9 0.500000 0.365666 0.811218
O O10 0.359172 0.429390 0.792430
O O11 0.363358 0.299826 0.747950
O O12 0.378423 0.347847 0.991004
O O13 0.206817 0.500000 0.500000
O O14 0.250000 0.522242 0.750000
O O15 0.103835 0.555661 0.668965
O O16 0.895145 0.179416 0.854778
O O17 0.000000 0.135123 0.034724
O O18 0.500000 0.654400 0.828627
O O19 0.112619 0.803913 0.398016
O O20 0.000000 0.876047 0.525002
O O21 0.750000 0.795673 0.250000
#
# Coordination Sequence:
#
# PCOD8220435 Si02
#       8
#     8   8   8   8   8   8   8   8
#     4  12  28  49  72 102 137 174 216 262 318 389
#     4  12  21  40  66  98 130 170 219 274 327 379
#     4  10  20  36  60  90 122 165 220 271 321 385
#     4  10  21  39  58  82 120 167 213 268 329 389
#     4  12  25  44  68  99 139 175 212 269 333 383
#     4  10  20  35  61  91 119 164 223 274 317 382
#     4  12  23  44  72  97 131 175 222 270 316 381
#     4  12  23  40  66 100 135 171 220 276 327 386
#
# _framework density 20.144667999999999
#
# number of rings (size 3 to 8) (size 9 to 14) (size 15 to 20)
#    0.000    0.750    5.000    3.375    1.750    2.000 
#    2.250    0.000    0.000    0.750    0.000    0.000 
#    0.000    0.000    0.000    0.000    0.000    0.000 
#
# Total GULP energy -793678.346393 kJ/mol
# GULP energy per Si atom -12401.224162 kJ/mol
# Density = 2.009882 g / cm^3
# Si number density = 20.144668 Si / 1000 Ang^3
#
#
#
# Elastic Constant Matrix: (Units=GPa)
#
#
# Indices 1 2 3 4 5 6 
#
# 1 135.8581 39.1726 23.7993 0.0000 0.0000 0.0000
# 2 39.1726 98.9912 40.7158 0.0000 0.0000 0.0000
# 3 23.7993 40.7158 73.9431 0.0000 0.0000 0.0000
# 4 0.0000 0.0000 0.0000 29.5683 0.0000 0.0000
# 5 0.0000 0.0000 0.0000 0.0000 24.6646 0.0000
# 6 0.0000 0.0000 0.0000 0.0000 0.0000 4.1439
#
#
#
# Elastic Compliance Matrix: (Units=1/GPa)
#
#
# Indices 1 2 3 4 5 6 
#
# 1 0.008381 -0.002853 -0.001126 0.000000 0.000000 0.000000
# 2 -0.002853 0.014031 -0.006808 0.000000 0.000000 0.000000
# 3 -0.001126 -0.006808 0.017635 0.000000 0.000000 0.000000
# 4 0.000000 0.000000 0.000000 0.033820 0.000000 0.000000
# 5 0.000000 0.000000 0.000000 0.000000 0.040544 0.000000
# 6 0.000000 0.000000 0.000000 0.000000 0.000000 0.241321
#
#
# Mechanical properties :
#
#
# Convention : Reuss Voigt Hill
#
# Bulk Modulus (GPa) = 54.13504 57.35198 55.74351
# Shear Modulus (GPa) = 13.03907 25.34900 19.19404
#
# Velocity S-wave (km/s) = 2.54691 3.55117 3.09011
# Velocity P-wave (km/s) = 5.96494 6.73396 6.36108
#
# Compressibility (1/GPa) = 0.01847232
#
# Stress axis : x y z
#
# Youngs Moduli (GPa) = 119.32359 71.27102 56.70542
#
# Poissons Ratio (x) = 0.20334 0.06387
# Poissons Ratio (y) = 0.34044 0.38603
# Poissons Ratio (z) = 0.13440 0.48519
#
# Static dielectric constant tensor:
#      x y z
#    x 3.745770 0.000000 0.000000 
#    y 0.000000 3.661180 0.000000 
#    z 0.000000 0.000000 3.681290 
# 
# 
# High freq. dielectric constant tensor:
#      x y z
#    x 1.796750 0.000000 0.000000 
#    y 0.000000 1.782390 0.000000 
#    z 0.000000 0.000000 1.783120 
# 
# From -- ./inp_files/8937.got.cif
#   From: 2010.03.12/outbox.cif.g09.slc.cpg/sg53_5_cif.got.tgz:8937.got - 2010.04.16 14:36:59.
