data_PCOD8220952
_publ_section_title
;
Structure prediction by ZEFSAII (Michael W. Deem and Ramdas Pophale) SiO2 
 PCOD8220952
Probable space group: P M N A
;
_chemical_formula_sum "Si O2"
_cell_formula_units_Z 48
_cell_length_a 8.737915
_cell_length_b 14.856760
_cell_length_c 18.410528
_cell_angle_alpha 90.000000
_cell_angle_beta 90.000000
_cell_angle_gamma 90.000000
_cell_volume 2390.001466
_symmetry_space_group_name_H-M "P M N A"
_symmetry_group_IT_number 53
_symmetry_cell_setting 'orthorhombic'
loop_
_space_group_symop_operation_xyz
x,y,z
1/2-x,-y,1/2+z
x,-y,-z
1/2-x,y,1/2-z
-x,-y,-z
1/2+x,y,1/2-z
-x,y,z
1/2+x,-y,1/2+z
loop_
_atom_site_type_symbol
_atom_site_label
_atom_site_fract_x
_atom_site_fract_y
_atom_site_fract_z
Si Si1 0.322263 0.629820 0.420198
Si Si2 0.180125 0.778403 0.324831
Si Si3 0.319862 0.473397 0.172003
Si Si4 0.822119 0.677883 0.916251
Si Si5 0.319927 0.125346 0.446361
Si Si6 0.180464 0.063556 0.896843
O O1 0.500000 0.624556 0.399663
O O2 0.252642 0.722272 0.390370
O O3 0.236698 0.544906 0.386900
O O4 0.298323 0.629194 0.506567
O O5 0.250000 0.741408 0.250000
O O6 0.227106 0.883065 0.334916
O O7 0.000000 0.765774 0.323176
O O8 0.250000 0.496178 0.250000
O O9 0.500000 0.479355 0.178763
O O10 0.270552 0.374450 0.145649
O O11 0.753762 0.779707 0.917989
O O12 0.000000 0.677559 0.894408
O O13 0.500000 0.136237 0.454861
O O14 0.258013 0.100804 0.526078
O O15 0.280632 0.043188 0.391440
O O16 0.000000 0.080126 0.886729
#
# Coordination Sequence:
#
# PCOD8220952 Si02
#       6
#     8   8   8   8   8   8
#     4  11  22  40  65  90 118 153 195 242 296 360
#     4  12  24  37  55  83 121 160 200 247 300 355
#     4  12  26  43  61  85 119 157 198 245 297 353
#     4  10  20  38  64  93 120 154 196 240 292 352
#     4   8  15  31  60  89 115 149 191 235 284 344
#     4   9  16  33  58  85 115 152 194 235 285 345
#
# _framework density 20.083670000000001
#
# number of rings (size 3 to 8) (size 9 to 14) (size 15 to 20)
#    0.000    1.667    1.667    5.500    0.000    3.333 
#    0.000    3.333    0.000    0.000    0.000    0.000 
#    0.000    0.000    0.000    0.000    0.000    0.000 
#
# Total GULP energy -595236.811120 kJ/mol
# GULP energy per Si atom -12400.766898 kJ/mol
# Density = 2.003796 g / cm^3
# Si number density = 20.083670 Si / 1000 Ang^3
#
#
#
# Elastic Constant Matrix: (Units=GPa)
#
#
# Indices 1 2 3 4 5 6 
#
# 1 107.8460 29.6769 27.2849 0.0000 0.0000 0.0000
# 2 29.6769 123.5480 15.6545 0.0000 0.0000 0.0000
# 3 27.2849 15.6545 43.2864 0.0000 0.0000 0.0000
# 4 0.0000 0.0000 0.0000 23.2629 0.0000 0.0000
# 5 0.0000 0.0000 0.0000 0.0000 26.9166 0.0000
# 6 0.0000 0.0000 0.0000 0.0000 0.0000 24.6975
#
#
#
# Elastic Compliance Matrix: (Units=1/GPa)
#
#
# Indices 1 2 3 4 5 6 
#
# 1 0.011452 -0.001924 -0.006523 0.000000 0.000000 0.000000
# 2 -0.001924 0.008806 -0.001972 0.000000 0.000000 0.000000
# 3 -0.006523 -0.001972 0.027927 0.000000 0.000000 0.000000
# 4 0.000000 0.000000 0.000000 0.042987 0.000000 0.000000
# 5 0.000000 0.000000 0.000000 0.000000 0.037152 0.000000
# 6 0.000000 0.000000 0.000000 0.000000 0.000000 0.040490
#
#
# Mechanical properties :
#
#
# Convention : Reuss Voigt Hill
#
# Bulk Modulus (GPa) = 36.56690 46.65698 41.61194
# Shear Modulus (GPa) = 25.15508 28.44637 26.80073
#
# Velocity S-wave (km/s) = 3.54293 3.76758 3.65698
# Velocity P-wave (km/s) = 5.91466 6.49677 6.21254
#
# Compressibility (1/GPa) = 0.02734714
#
# Stress axis : x y z
#
# Youngs Moduli (GPa) = 87.31871 113.55764 35.80817
#
# Poissons Ratio (x) = 0.21853 0.23357
# Poissons Ratio (y) = 0.16804 0.07060
# Poissons Ratio (z) = 0.56956 0.22390
#
# Static dielectric constant tensor:
#      x y z
#    x 3.393180 0.000000 0.000000 
#    y 0.000000 4.032450 0.000000 
#    z 0.000000 0.000000 3.466730 
# 
# 
# High freq. dielectric constant tensor:
#      x y z
#    x 1.763480 0.000000 0.000000 
#    y 0.000000 1.800450 0.000000 
#    z 0.000000 0.000000 1.766090 
# 
# From -- ./inp_files/26253.got.cif
#   From: 2010.03.12/outbox.cif.g09.slc.cpg/sg53_14_cif.got.tgz:26253.got - 2010.04.16 14:36:59.
