data_PCOD8220824
_publ_section_title
;
Structure prediction by ZEFSAII (Michael W. Deem and Ramdas Pophale) SiO2 
 PCOD8220824
Probable space group: P M N A
;
_chemical_formula_sum "Si O2"
_cell_formula_units_Z 56
_cell_length_a 10.034526
_cell_length_b 16.125055
_cell_length_c 17.118489
_cell_angle_alpha 90.000000
_cell_angle_beta 90.000000
_cell_angle_gamma 90.000000
_cell_volume 2769.896205
_symmetry_space_group_name_H-M "P M N A"
_symmetry_group_IT_number 53
_symmetry_cell_setting 'orthorhombic'
loop_
_space_group_symop_operation_xyz
x,y,z
1/2-x,-y,1/2+z
x,-y,-z
1/2-x,y,1/2-z
-x,-y,-z
1/2+x,y,1/2-z
-x,y,z
1/2+x,-y,1/2+z
loop_
_atom_site_type_symbol
_atom_site_label
_atom_site_fract_x
_atom_site_fract_y
_atom_site_fract_z
Si Si1 0.846495 0.025202 0.182249
Si Si2 0.842573 0.853179 0.113801
Si Si3 0.649398 0.681196 0.315741
Si Si4 0.346507 0.830679 0.560403
Si Si5 0.348297 0.313958 0.082274
Si Si6 0.853845 0.531823 0.684102
Si Si7 0.754862 0.426857 0.947513
O O1 0.750000 0.058838 0.250000
O O2 0.834491 0.085542 0.108959
O O3 0.000000 0.020967 0.211512
O O4 0.789869 0.935340 0.156697
O O5 0.795779 0.771894 0.160543
O O6 0.000000 0.857756 0.109041
O O7 0.788574 0.849602 0.025504
O O8 0.750000 0.645753 0.250000
O O9 0.500000 0.685968 0.281091
O O10 0.641740 0.622267 0.392293
O O11 0.500000 0.799085 0.558378
O O12 0.254700 0.759983 0.598038
O O13 0.500000 0.280596 0.080040
O O14 0.326908 0.374977 0.155314
O O15 0.319927 0.360439 0.000996
O O16 0.750000 0.505698 0.750000
O O17 0.850766 0.471026 0.609534
O O18 0.000000 0.524179 0.722175
O O19 0.824664 0.500000 0.000000
#
# Coordination Sequence:
#
# PCOD8220824 Si02
#       7
#     8   8   8   8   8   8   8
#     4  10  21  37  60  86 118 156 191 236 286 339
#     4   9  18  37  61  86 115 151 195 236 281 338
#     4  11  23  38  59  89 122 153 190 238 289 346
#     4  10  20  37  61  87 114 151 198 239 281 338
#     4  10  21  38  60  85 114 150 191 239 291 340
#     4  10  22  39  58  82 113 150 193 238 288 346
#     4  10  21  38  60  84 112 150 194 240 290 344
#
# _framework density 20.217365000000001
#
# number of rings (size 3 to 8) (size 9 to 14) (size 15 to 20)
#    0.000    2.000    1.429    1.714    0.000    8.286 
#    0.000    6.429    0.000    1.714    0.000    0.000 
#    0.000    0.000    0.000    0.000    0.000    0.000 
#
# Total GULP energy -694309.279974 kJ/mol
# GULP energy per Si atom -12398.380000 kJ/mol
# Density = 2.017135 g / cm^3
# Si number density = 20.217365 Si / 1000 Ang^3
#
#
#
# Elastic Constant Matrix: (Units=GPa)
#
#
# Indices 1 2 3 4 5 6 
#
# 1 95.7622 40.7141 40.9550 0.0000 0.0000 0.0000
# 2 40.7141 105.8868 30.6208 0.0000 0.0000 0.0000
# 3 40.9550 30.6208 89.8235 0.0000 0.0000 0.0000
# 4 0.0000 0.0000 0.0000 27.0438 0.0000 0.0000
# 5 0.0000 0.0000 0.0000 0.0000 27.1365 0.0000
# 6 0.0000 0.0000 0.0000 0.0000 0.0000 18.9117
#
#
#
# Elastic Compliance Matrix: (Units=1/GPa)
#
#
# Indices 1 2 3 4 5 6 
#
# 1 0.014370 -0.004028 -0.005179 0.000000 0.000000 0.000000
# 2 -0.004028 0.011606 -0.002120 0.000000 0.000000 0.000000
# 3 -0.005179 -0.002120 0.014217 0.000000 0.000000 0.000000
# 4 0.000000 0.000000 0.000000 0.036977 0.000000 0.000000
# 5 0.000000 0.000000 0.000000 0.000000 0.036851 0.000000
# 6 0.000000 0.000000 0.000000 0.000000 0.000000 0.052877
#
#
# Mechanical properties :
#
#
# Convention : Reuss Voigt Hill
#
# Bulk Modulus (GPa) = 57.01421 57.33915 57.17668
# Shear Modulus (GPa) = 25.58893 26.56391 26.07642
#
# Velocity S-wave (km/s) = 3.56151 3.62873 3.59528
# Velocity P-wave (km/s) = 6.72119 6.78084 6.75108
#
# Compressibility (1/GPa) = 0.01753949
#
# Stress axis : x y z
#
# Youngs Moduli (GPa) = 69.59052 86.16412 70.33850
#
# Poissons Ratio (x) = 0.34704 0.36427
# Poissons Ratio (y) = 0.28028 0.14912
# Poissons Ratio (z) = 0.36040 0.18267
#
# Static dielectric constant tensor:
#      x y z
#    x 3.395910 0.000000 0.000000 
#    y 0.000000 3.856920 0.000000 
#    z 0.000000 0.000000 3.657300 
# 
# 
# High freq. dielectric constant tensor:
#      x y z
#    x 1.763580 0.000000 0.000000 
#    y 0.000000 1.800170 0.000000 
#    z 0.000000 0.000000 1.790210 
# 
# From -- ./inp_files/21862.got.cif
#   From: 2010.03.12/outbox.cif.g09.slc.cpg/sg53_11_cif.got.tgz:21862.got - 2010.04.16 14:36:59.
