data_PCOD8220597
_publ_section_title
;
Structure prediction by ZEFSAII (Michael W. Deem and Ramdas Pophale) SiO2 
 PCOD8220597
Probable space group: P M N A
;
_chemical_formula_sum "Si O2"
_cell_formula_units_Z 64
_cell_length_a 9.049038
_cell_length_b 11.904125
_cell_length_c 29.959560
_cell_angle_alpha 90.000000
_cell_angle_beta 90.000000
_cell_angle_gamma 90.000000
_cell_volume 3227.270152
_symmetry_space_group_name_H-M "P M N A"
_symmetry_group_IT_number 53
_symmetry_cell_setting 'orthorhombic'
loop_
_space_group_symop_operation_xyz
x,y,z
1/2-x,-y,1/2+z
x,-y,-z
1/2-x,y,1/2-z
-x,-y,-z
1/2+x,y,1/2-z
-x,y,z
1/2+x,-y,1/2+z
loop_
_atom_site_type_symbol
_atom_site_label
_atom_site_fract_x
_atom_site_fract_y
_atom_site_fract_z
Si Si1 0.832298 0.922198 0.208487
Si Si2 0.325856 0.937897 0.937691
Si Si3 0.674552 0.575829 0.040946
Si Si4 0.175408 0.828313 0.471412
Si Si5 0.833162 0.118167 0.146948
Si Si6 0.176097 0.331401 0.795034
Si Si7 0.173648 0.329569 0.202527
Si Si8 0.175600 0.506562 0.360107
O O1 0.750000 0.978852 0.250000
O O2 0.805158 0.992673 0.164164
O O3 0.000000 0.920596 0.223330
O O4 0.775840 0.797130 0.199758
O O5 0.500000 0.939212 0.937425
O O6 0.271684 0.867695 0.895203
O O7 0.269810 0.068873 0.939055
O O8 0.269828 0.865413 0.979636
O O9 0.500000 0.585491 0.035484
O O10 0.740753 0.704156 0.040352
O O11 0.714980 0.513603 0.087308
O O12 0.738424 0.500000 0.000000
O O13 0.000000 0.821551 0.469232
O O14 0.798161 0.201809 0.187717
O O15 0.000000 0.136216 0.130478
O O16 0.250000 0.382296 0.750000
O O17 0.252828 0.384804 0.837722
O O18 0.000000 0.352286 0.794356
O O19 0.250000 0.352974 0.250000
O O20 0.247293 0.400187 0.162752
O O21 0.000000 0.359330 0.206664
O O22 0.000000 0.502634 0.352425
#
# Coordination Sequence:
#
# PCOD8220597 Si02
#       8
#     8   8   8   8   8   8   8   8
#     4   9  19  35  54  78 109 144 179 220 271 329
#     4   9  18  32  57  85 111 147 187 233 276 332
#     4   9  19  34  55  83 117 150 185 236 286 334
#     4   8  16  33  53  81 116 146 185 233 284 327
#     4  10  22  37  55  82 116 148 183 230 287 343
#     4  10  20  36  58  83 115 150 185 229 281 336
#     4  11  24  42  62  83 115 153 194 243 291 345
#     4  11  23  37  59  88 114 147 193 237 285 340
#
# _framework density 19.831002000000002
#
# number of rings (size 3 to 8) (size 9 to 14) (size 15 to 20)
#    0.000    2.375    0.000    2.625    3.500    2.000 
#    0.000    1.250    0.000    3.000    0.000    0.000 
#    0.000    0.000    0.000    0.000    0.000    0.000 
#
# Total GULP energy -793167.730014 kJ/mol
# GULP energy per Si atom -12393.245781 kJ/mol
# Density = 1.978587 g / cm^3
# Si number density = 19.831002 Si / 1000 Ang^3
#
#
#
# Elastic Constant Matrix: (Units=GPa)
#
#
# Indices 1 2 3 4 5 6 
#
# 1 60.0376 27.7291 45.5554 0.0000 0.0000 0.0000
# 2 27.7291 97.2440 49.5349 0.0000 0.0000 0.0000
# 3 45.5554 49.5349 129.2588 0.0000 0.0000 0.0000
# 4 0.0000 0.0000 0.0000 2.9083 0.0000 0.0000
# 5 0.0000 0.0000 0.0000 0.0000 28.3673 0.0000
# 6 0.0000 0.0000 0.0000 0.0000 0.0000 22.6522
#
#
#
# Elastic Compliance Matrix: (Units=1/GPa)
#
#
# Indices 1 2 3 4 5 6 
#
# 1 0.023455 -0.003078 -0.007087 0.000000 0.000000 0.000000
# 2 -0.003078 0.013182 -0.003967 0.000000 0.000000 0.000000
# 3 -0.007087 -0.003967 0.011754 0.000000 0.000000 0.000000
# 4 0.000000 0.000000 0.000000 0.343847 0.000000 0.000000
# 5 0.000000 0.000000 0.000000 0.000000 0.035252 0.000000
# 6 0.000000 0.000000 0.000000 0.000000 0.000000 0.044146
#
#
# Mechanical properties :
#
#
# Convention : Reuss Voigt Hill
#
# Bulk Modulus (GPa) = 49.68281 59.13101 54.40691
# Shear Modulus (GPa) = 9.86956 21.70030 15.78493
#
# Velocity S-wave (km/s) = 2.23330 3.31155 2.82436
# Velocity P-wave (km/s) = 5.63539 6.67113 6.17502
#
# Compressibility (1/GPa) = 0.02012769
#
# Stress axis : x y z
#
# Youngs Moduli (GPa) = 42.63428 75.86244 85.07632
#
# Poissons Ratio (x) = 0.23353 0.60292
# Poissons Ratio (y) = 0.13124 0.33747
# Poissons Ratio (z) = 0.30214 0.30092
#
# Static dielectric constant tensor:
#      x y z
#    x 3.357700 0.000000 0.000000 
#    y 0.000000 4.099880 0.000000 
#    z 0.000000 0.000000 3.569420 
# 
# 
# High freq. dielectric constant tensor:
#      x y z
#    x 1.743910 0.000000 0.000000 
#    y 0.000000 1.785850 0.000000 
#    z 0.000000 0.000000 1.774490 
# 
# From -- ./inp_files/38295.got.cif
#   From: 2010.03.12/outbox.cif.g09.slc.cpg/sg53_20_cif.got.tgz:38295.got - 2010.04.16 14:36:59.
