data_PCOD8220494
_publ_section_title
;
Structure prediction by ZEFSAII (Michael W. Deem and Ramdas Pophale) SiO2 
 PCOD8220494
Probable space group: P M N A
;
_chemical_formula_sum "Si O2"
_cell_formula_units_Z 48
_cell_length_a 8.616624
_cell_length_b 30.422359
_cell_length_c 9.463241
_cell_angle_alpha 90.000000
_cell_angle_beta 90.000000
_cell_angle_gamma 90.000000
_cell_volume 2480.675341
_symmetry_space_group_name_H-M "P M N A"
_symmetry_group_IT_number 53
_symmetry_cell_setting 'orthorhombic'
loop_
_space_group_symop_operation_xyz
x,y,z
1/2-x,-y,1/2+z
x,-y,-z
1/2-x,y,1/2-z
-x,-y,-z
1/2+x,y,1/2-z
-x,y,z
1/2+x,-y,1/2+z
loop_
_atom_site_type_symbol
_atom_site_label
_atom_site_fract_x
_atom_site_fract_y
_atom_site_fract_z
Si Si1 0.683664 0.040615 0.405562
Si Si2 0.817080 0.217951 0.902669
Si Si3 0.182446 0.541814 0.405139
Si Si4 0.818768 0.118379 0.901390
Si Si5 0.183449 0.383243 0.096090
Si Si6 0.682545 0.290322 0.100129
O O1 0.750000 0.036543 0.250000
O O2 0.500000 0.040684 0.394178
O O3 0.745847 0.085389 0.479116
O O4 0.742830 0.000000 0.500000
O O5 0.750000 0.227236 0.750000
O O6 0.778273 0.168017 0.948304
O O7 0.000000 0.227833 0.908672
O O8 0.721574 0.250036 0.000948
O O9 0.224774 0.500000 0.500000
O O10 0.250000 0.534064 0.250000
O O11 0.259855 0.583917 0.476028
O O12 0.000000 0.549520 0.394485
O O13 0.750000 0.106114 0.750000
O O14 0.000000 0.111960 0.883743
O O15 0.250000 0.395933 0.250000
O O16 0.238376 0.335163 0.046618
O O17 0.000000 0.384666 0.107033
O O18 0.750000 0.276793 0.250000
O O19 0.500000 0.298221 0.109815
#
# Coordination Sequence:
#
# PCOD8220494 Si02
#       6
#     8   8   8   8   8   8
#     4  10  21  36  54  79 109 141 180 224 271 325
#     4  10  20  36  56  81 112 146 186 230 279 332
#     4  11  24  41  62  89 120 154 193 236 283 335
#     4   9  19  35  55  79 108 142 181 226 273 326
#     4  11  22  39  62  87 117 152 191 235 284 336
#     4  11  22  38  59  84 114 149 189 232 282 335
#
# _framework density 19.34957
#
# number of rings (size 3 to 8) (size 9 to 14) (size 15 to 20)
#    0.000    1.667    0.000    6.000    0.000    5.667 
#    0.000    5.000    0.000    0.000    0.000    0.000 
#    0.000    0.000    0.000    0.000    0.000    0.000 
#
# Total GULP energy -595319.376598 kJ/mol
# GULP energy per Si atom -12402.487012 kJ/mol
# Density = 1.930553 g / cm^3
# Si number density = 19.349570 Si / 1000 Ang^3
#
#
#
# Elastic Constant Matrix: (Units=GPa)
#
#
# Indices 1 2 3 4 5 6 
#
# 1 89.8234 51.1315 62.8401 0.0000 0.0000 0.0000
# 2 51.1315 136.2904 97.9165 0.0000 0.0000 0.0000
# 3 62.8401 97.9165 142.8541 0.0000 0.0000 0.0000
# 4 0.0000 0.0000 0.0000 47.4487 0.0000 0.0000
# 5 0.0000 0.0000 0.0000 0.0000 37.6156 0.0000
# 6 0.0000 0.0000 0.0000 0.0000 0.0000 30.2057
#
#
#
# Elastic Compliance Matrix: (Units=1/GPa)
#
#
# Indices 1 2 3 4 5 6 
#
# 1 0.016329 -0.001902 -0.005879 0.000000 0.000000 0.000000
# 2 -0.001902 0.014678 -0.009224 0.000000 0.000000 0.000000
# 3 -0.005879 -0.009224 0.015908 0.000000 0.000000 0.000000
# 4 0.000000 0.000000 0.000000 0.021075 0.000000 0.000000
# 5 0.000000 0.000000 0.000000 0.000000 0.026585 0.000000
# 6 0.000000 0.000000 0.000000 0.000000 0.000000 0.033106
#
#
# Mechanical properties :
#
#
# Convention : Reuss Voigt Hill
#
# Bulk Modulus (GPa) = 77.48988 88.08268 82.78628
# Shear Modulus (GPa) = 30.12180 33.52598 31.82389
#
# Velocity S-wave (km/s) = 3.94981 4.16702 4.05987
# Velocity P-wave (km/s) = 7.80612 8.29293 8.05321
#
# Compressibility (1/GPa) = 0.01290491
#
# Stress axis : x y z
#
# Youngs Moduli (GPa) = 61.24178 68.13093 62.85977
#
# Poissons Ratio (x) = 0.12961 0.36955
# Poissons Ratio (y) = 0.11650 0.57980
# Poissons Ratio (z) = 0.36004 0.62842
#
# Static dielectric constant tensor:
#      x y z
#    x 3.621840 0.000000 0.000000 
#    y 0.000000 3.836940 0.000000 
#    z 0.000000 0.000000 3.557520 
# 
# 
# High freq. dielectric constant tensor:
#      x y z
#    x 1.762480 0.000000 0.000000 
#    y 0.000000 1.768090 0.000000 
#    z 0.000000 0.000000 1.755080 
# 
# From -- ./inp_files/6693.got.cif
#   From: 2010.03.12/outbox.cif.g09.slc.cpg/sg53_4_cif.got.tgz:6693.got - 2010.04.16 14:36:59.
