data_PCOD8220427
_publ_section_title
;
Structure prediction by ZEFSAII (Michael W. Deem and Ramdas Pophale) SiO2 
 PCOD8220427
Probable space group: P M N A
;
_chemical_formula_sum "Si O2"
_cell_formula_units_Z 56
_cell_length_a 15.181262
_cell_length_b 11.435132
_cell_length_c 15.168746
_cell_angle_alpha 90.000000
_cell_angle_beta 90.000000
_cell_angle_gamma 90.000000
_cell_volume 2633.290284
_symmetry_space_group_name_H-M "P M N A"
_symmetry_group_IT_number 53
_symmetry_cell_setting 'orthorhombic'
loop_
_space_group_symop_operation_xyz
x,y,z
1/2-x,-y,1/2+z
x,-y,-z
1/2-x,y,1/2-z
-x,-y,-z
1/2+x,y,1/2-z
-x,y,z
1/2+x,-y,1/2+z
loop_
_atom_site_type_symbol
_atom_site_label
_atom_site_fract_x
_atom_site_fract_y
_atom_site_fract_z
Si Si1 0.291686 0.239714 0.667100
Si Si2 0.400790 0.156916 0.420587
Si Si3 0.900859 0.181143 0.358026
Si Si4 0.597794 0.975878 0.270275
Si Si5 0.348169 0.348310 0.285234
Si Si6 0.224259 0.868504 0.492215
Si Si7 0.898052 0.447595 0.907075
O O1 0.250000 0.310758 0.750000
O O2 0.341824 0.135838 0.718111
O O3 0.213469 0.186460 0.605086
O O4 0.351506 0.323746 0.608166
O O5 0.500000 0.188287 0.455620
O O6 0.358254 0.263314 0.367755
O O7 0.330859 0.133274 0.497514
O O8 0.406667 0.041004 0.363253
O O9 0.905097 0.295818 0.295403
O O10 0.832892 0.205425 0.437564
O O11 0.000000 0.160448 0.393696
O O12 0.866022 0.067914 0.303107
O O13 0.500000 0.935212 0.242583
O O14 0.250000 0.358853 0.250000
O O15 0.382084 0.472472 0.320934
O O16 0.187557 0.000000 0.500000
O O17 0.000000 0.420613 0.917788
O O18 0.861611 0.500000 0.000000
#
# Coordination Sequence:
#
# PCOD8220427 Si02
#       7
#     8   8   8   8   8   8   8
#     4  12  25  41  60  90 127 167 206 253 319 386
#     4  10  20  35  59  97 131 160 205 257 315 368
#     4  10  22  40  65  97 128 168 218 260 305 370
#     4   9  19  36  60  91 131 167 199 251 311 374
#     4  11  20  38  68  95 125 160 208 263 312 373
#     4  12  23  38  62  94 131 172 213 261 313 374
#     4  11  25  44  66  92 123 160 206 265 324 379
#
# _framework density 21.266171
#
# number of rings (size 3 to 8) (size 9 to 14) (size 15 to 20)
#    0.000    1.286    2.857    4.714    0.000    2.857 
#    0.000    1.429    0.000    0.000    0.000    3.000 
#    0.000    0.000    0.000    0.000    0.000    0.000 
#
# Total GULP energy -694104.784464 kJ/mol
# GULP energy per Si atom -12394.728294 kJ/mol
# Density = 2.121777 g / cm^3
# Si number density = 21.266171 Si / 1000 Ang^3
#
#
#
# Elastic Constant Matrix: (Units=GPa)
#
#
# Indices 1 2 3 4 5 6 
#
# 1 86.4597 22.7909 42.8909 0.0000 0.0000 0.0000
# 2 22.7909 89.8146 35.7466 0.0000 0.0000 0.0000
# 3 42.8909 35.7466 104.4947 0.0000 0.0000 0.0000
# 4 0.0000 0.0000 0.0000 26.5679 0.0000 0.0000
# 5 0.0000 0.0000 0.0000 0.0000 14.2599 0.0000
# 6 0.0000 0.0000 0.0000 0.0000 0.0000 23.1065
#
#
#
# Elastic Compliance Matrix: (Units=1/GPa)
#
#
# Indices 1 2 3 4 5 6 
#
# 1 0.014705 -0.001539 -0.005509 0.000000 0.000000 0.000000
# 2 -0.001539 0.013050 -0.003833 0.000000 0.000000 0.000000
# 3 -0.005509 -0.003833 0.013142 0.000000 0.000000 0.000000
# 4 0.000000 0.000000 0.000000 0.037639 0.000000 0.000000
# 5 0.000000 0.000000 0.000000 0.000000 0.070127 0.000000
# 6 0.000000 0.000000 0.000000 0.000000 0.000000 0.043278
#
#
# Mechanical properties :
#
#
# Convention : Reuss Voigt Hill
#
# Bulk Modulus (GPa) = 52.25856 53.73621 52.99739
# Shear Modulus (GPa) = 22.71889 24.74289 23.73089
#
# Velocity S-wave (km/s) = 3.27205 3.41469 3.34413
# Velocity P-wave (km/s) = 6.23715 6.39297 6.31554
#
# Compressibility (1/GPa) = 0.01913562
#
# Stress axis : x y z
#
# Youngs Moduli (GPa) = 68.00520 76.62887 76.08991
#
# Poissons Ratio (x) = 0.11791 0.41921
# Poissons Ratio (y) = 0.10464 0.29163
# Poissons Ratio (z) = 0.37466 0.29369
#
# Static dielectric constant tensor:
#      x y z
#    x 3.852750 0.000000 0.000000 
#    y 0.000000 3.711800 0.000000 
#    z 0.000000 0.000000 3.870440 
# 
# 
# High freq. dielectric constant tensor:
#      x y z
#    x 1.827710 0.000000 0.000000 
#    y 0.000000 1.818030 0.000000 
#    z 0.000000 0.000000 1.834470 
# 
# From -- ./inp_files/22857.got.cif
#   From: 2010.03.12/outbox.cif.g09.slc.cpg/sg53_12_cif.got.tgz:22857.got - 2010.04.16 14:36:59.
