data_PCOD8220558
_publ_section_title
;
Structure prediction by ZEFSAII (Michael W. Deem and Ramdas Pophale) SiO2 
 PCOD8220558
Probable space group: P M N A
;
_chemical_formula_sum "Si O2"
_cell_formula_units_Z 48
_cell_length_a 9.487000
_cell_length_b 28.921771
_cell_length_c 9.094468
_cell_angle_alpha 90.000000
_cell_angle_beta 90.000000
_cell_angle_gamma 90.000000
_cell_volume 2495.347783
_symmetry_space_group_name_H-M "P M N A"
_symmetry_group_IT_number 53
_symmetry_cell_setting 'orthorhombic'
loop_
_space_group_symop_operation_xyz
x,y,z
1/2-x,-y,1/2+z
x,-y,-z
1/2-x,y,1/2-z
-x,-y,-z
1/2+x,y,1/2-z
-x,y,z
1/2+x,-y,1/2+z
loop_
_atom_site_type_symbol
_atom_site_label
_atom_site_fract_x
_atom_site_fract_y
_atom_site_fract_z
Si Si1 0.500000 0.549979 0.572612
Si Si2 0.337852 0.305168 0.893535
Si Si3 0.833952 0.801710 0.400040
Si Si4 0.752823 0.611646 0.577678
Si Si5 0.500000 0.451918 0.080161
Si Si6 0.667059 0.130557 0.398829
Si Si7 0.837649 0.041885 0.898990
O O1 0.500000 0.500000 0.500000
O O2 0.623263 0.582770 0.517295
O O3 0.500000 0.540456 0.745768
O O4 0.250000 0.315818 0.750000
O O5 0.500000 0.318429 0.866618
O O6 0.324151 0.252023 0.940855
O O7 0.267787 0.336623 0.017903
O O8 0.750000 0.812992 0.250000
O O9 0.751075 0.826451 0.531815
O O10 0.000000 0.816936 0.386539
O O11 0.750000 0.618384 0.750000
O O12 0.873263 0.578264 0.522479
O O13 0.500000 0.500000 0.000000
O O14 0.750000 0.117439 0.250000
O O15 0.500000 0.141568 0.370364
O O16 0.682741 0.088638 0.511240
O O17 0.750000 0.044628 0.750000
O O18 0.000000 0.033616 0.855737
O O19 0.781836 0.000000 0.000000
#
# Coordination Sequence:
#
# PCOD8220558 Si02
#       7
#     4   8   8   8   4   8   8
#     4  10  22  36  54  84 112 142 188 230 279 338
#     4  10  22  39  60  87 116 149 191 236 284 341
#     4  10  21  39  61  86 118 155 196 246 299 354
#     4  10  21  38  57  81 113 148 184 228 283 339
#     4  10  20  36  58  78 108 148 182 230 279 332
#     4  11  23  39  60  89 122 159 205 251 301 360
#     4  10  22  39  60  88 122 161 205 253 305 360
#
# _framework density 19.235796000000001
#
# number of rings (size 3 to 8) (size 9 to 14) (size 15 to 20)
#    0.000    1.833    0.833    2.500    1.167    5.667 
#    0.000    0.000    0.000    0.000    0.000    0.000 
#    0.000    0.000    0.000    0.000    0.000    0.000 
#
# Total GULP energy -594958.801356 kJ/mol
# GULP energy per Si atom -12394.975028 kJ/mol
# Density = 1.919201 g / cm^3
# Si number density = 19.235796 Si / 1000 Ang^3
#
#
#
# Elastic Constant Matrix: (Units=GPa)
#
#
# Indices 1 2 3 4 5 6 
#
# 1 161.3556 58.6561 61.4570 0.0000 0.0000 0.0000
# 2 58.6561 104.6960 51.1313 0.0000 0.0000 0.0000
# 3 61.4570 51.1313 90.5500 0.0000 0.0000 0.0000
# 4 0.0000 0.0000 0.0000 41.3941 0.0000 0.0000
# 5 0.0000 0.0000 0.0000 0.0000 36.7886 0.0000
# 6 0.0000 0.0000 0.0000 0.0000 0.0000 34.9963
#
#
#
# Elastic Compliance Matrix: (Units=1/GPa)
#
#
# Indices 1 2 3 4 5 6 
#
# 1 0.008922 -0.002819 -0.004464 0.000000 0.000000 0.000000
# 2 -0.002819 0.014079 -0.006037 0.000000 0.000000 0.000000
# 3 -0.004464 -0.006037 0.017482 0.000000 0.000000 0.000000
# 4 0.000000 0.000000 0.000000 0.024158 0.000000 0.000000
# 5 0.000000 0.000000 0.000000 0.000000 0.027182 0.000000
# 6 0.000000 0.000000 0.000000 0.000000 0.000000 0.028574
#
#
# Mechanical properties :
#
#
# Convention : Reuss Voigt Hill
#
# Bulk Modulus (GPa) = 72.23198 77.67671 74.95435
# Shear Modulus (GPa) = 32.97005 34.99295 33.98150
#
# Velocity S-wave (km/s) = 4.14453 4.26979 4.20763
# Velocity P-wave (km/s) = 7.78044 8.04842 7.91556
#
# Compressibility (1/GPa) = 0.01384428
#
# Stress axis : x y z
#
# Youngs Moduli (GPa) = 112.07752 71.02807 57.20040
#
# Poissons Ratio (x) = 0.20020 0.25535
# Poissons Ratio (y) = 0.31590 0.34532
# Poissons Ratio (z) = 0.50032 0.42880
#
# Static dielectric constant tensor:
#      x y z
#    x 3.824620 0.000000 0.000000 
#    y 0.000000 3.673930 0.000000 
#    z 0.000000 0.000000 3.224980 
# 
# 
# High freq. dielectric constant tensor:
#      x y z
#    x 1.767410 0.000000 0.000000 
#    y 0.000000 1.760950 0.000000 
#    z 0.000000 0.000000 1.741520 
# 
# From -- ./inp_files/6792.got.cif
#   From: 2010.03.12/outbox.cif.g09.slc.cpg/sg53_4_cif.got.tgz:6792.got - 2010.04.16 14:36:59.
