data_PCOD8220336
_publ_section_title
;
Structure prediction by ZEFSAII (Michael W. Deem and Ramdas Pophale) SiO2 
 PCOD8220336
Probable space group: P M N A
;
_chemical_formula_sum "Si O2"
_cell_formula_units_Z 64
_cell_length_a 8.942699
_cell_length_b 15.032488
_cell_length_c 22.590772
_cell_angle_alpha 90.000000
_cell_angle_beta 90.000000
_cell_angle_gamma 90.000000
_cell_volume 3036.900419
_symmetry_space_group_name_H-M "P M N A"
_symmetry_group_IT_number 53
_symmetry_cell_setting 'orthorhombic'
loop_
_space_group_symop_operation_xyz
x,y,z
1/2-x,-y,1/2+z
x,-y,-z
1/2-x,y,1/2-z
-x,-y,-z
1/2+x,y,1/2-z
-x,y,z
1/2+x,-y,1/2+z
loop_
_atom_site_type_symbol
_atom_site_label
_atom_site_fract_x
_atom_site_fract_y
_atom_site_fract_z
Si Si1 0.822973 0.000874 0.809415
Si Si2 0.323440 0.440401 0.055914
Si Si3 0.830607 0.185434 0.305753
Si Si4 0.171694 0.698459 0.306450
Si Si5 0.827971 0.142075 0.613301
Si Si6 0.168888 0.757507 0.569233
Si Si7 0.177673 0.502535 0.687429
Si Si8 0.326232 0.896227 0.499552
O O1 0.750000 0.041225 0.750000
O O2 0.757348 0.904140 0.822258
O O3 0.000000 0.996235 0.804080
O O4 0.779825 0.065408 0.862597
O O5 0.500000 0.455637 0.058321
O O6 0.282767 0.337264 0.041252
O O7 0.262949 0.459860 0.123316
O O8 0.259514 0.500000 0.000000
O O9 0.750000 0.232393 0.250000
O O10 0.827454 0.254699 0.359567
O O11 0.000000 0.159307 0.288627
O O12 0.250000 0.742256 0.250000
O O13 0.207713 0.761089 0.361456
O O14 0.229496 0.599694 0.318896
O O15 0.000000 0.695822 0.290812
O O16 0.783501 0.153053 0.545685
O O17 0.000000 0.114347 0.622553
O O18 0.282434 0.839926 0.557651
O O19 0.000000 0.782571 0.549285
O O20 0.250000 0.540187 0.750000
O O21 0.000000 0.516332 0.693071
O O22 0.500000 0.884130 0.484892
O O23 0.283854 0.000000 0.500000
#
# Coordination Sequence:
#
# PCOD8220336 Si02
#       8
#     8   8   8   8   8   8   8   8
#     4  11  21  34  53  79 113 152 195 241 295 352
#     4   9  19  36  63  91 119 156 203 252 298 357
#     4  10  20  35  56  83 114 147 188 235 288 347
#     4   9  19  33  53  82 114 149 189 235 287 347
#     4  11  22  35  55  81 110 148 197 247 296 352
#     4  10  22  39  61  89 116 149 196 246 292 347
#     4   9  18  35  59  88 119 156 198 242 297 355
#     4  11  25  42  59  82 114 155 198 242 299 361
#
# _framework density 21.074119
#
# number of rings (size 3 to 8) (size 9 to 14) (size 15 to 20)
#    0.000    2.000    0.000    4.125    1.750    6.500 
#    0.000    0.625    0.000    0.750    0.000    0.000 
#    0.000    0.000    0.000    0.000    0.000    0.000 
#
# Total GULP energy -793016.255301 kJ/mol
# GULP energy per Si atom -12390.878989 kJ/mol
# Density = 2.102615 g / cm^3
# Si number density = 21.074119 Si / 1000 Ang^3
#
#
#
# Elastic Constant Matrix: (Units=GPa)
#
#
# Indices 1 2 3 4 5 6 
#
# 1 77.6546 38.7739 30.3738 0.0000 0.0000 0.0000
# 2 38.7739 93.1632 38.7358 0.0000 0.0000 0.0000
# 3 30.3738 38.7358 116.4625 0.0000 0.0000 0.0000
# 4 0.0000 0.0000 0.0000 41.4079 0.0000 0.0000
# 5 0.0000 0.0000 0.0000 0.0000 34.0657 0.0000
# 6 0.0000 0.0000 0.0000 0.0000 0.0000 15.5476
#
#
#
# Elastic Compliance Matrix: (Units=1/GPa)
#
#
# Indices 1 2 3 4 5 6 
#
# 1 0.016809 -0.006003 -0.002387 0.000000 0.000000 0.000000
# 2 -0.006003 0.014600 -0.003291 0.000000 0.000000 0.000000
# 3 -0.002387 -0.003291 0.010303 0.000000 0.000000 0.000000
# 4 0.000000 0.000000 0.000000 0.024150 0.000000 0.000000
# 5 0.000000 0.000000 0.000000 0.000000 0.029355 0.000000
# 6 0.000000 0.000000 0.000000 0.000000 0.000000 0.064319
#
#
# Mechanical properties :
#
#
# Convention : Reuss Voigt Hill
#
# Bulk Modulus (GPa) = 54.49271 55.89415 55.19343
# Shear Modulus (GPa) = 26.45296 30.16403 28.30849
#
# Velocity S-wave (km/s) = 3.54677 3.78740 3.66906
# Velocity P-wave (km/s) = 6.53350 6.76063 6.64803
#
# Compressibility (1/GPa) = 0.01835108
#
# Stress axis : x y z
#
# Youngs Moduli (GPa) = 59.49315 68.49091 97.05482
#
# Poissons Ratio (x) = 0.41116 0.23168
# Poissons Ratio (y) = 0.35715 0.31936
# Poissons Ratio (z) = 0.14202 0.22537
#
# Static dielectric constant tensor:
#      x y z
#    x 3.633480 0.000000 0.000000 
#    y 0.000000 3.763870 0.000000 
#    z 0.000000 0.000000 5.033940 
# 
# 
# High freq. dielectric constant tensor:
#      x y z
#    x 1.804420 0.000000 0.000000 
#    y 0.000000 1.821010 0.000000 
#    z 0.000000 0.000000 1.838480 
# 
# From -- ./inp_files/34277.got.cif
#   From: 2010.03.12/outbox.cif.g09.slc.cpg/sg53_18_cif.got.tgz:34277.got - 2010.04.16 14:36:59.
