data_PCOD8220209
_publ_section_title
;
Structure prediction by ZEFSAII (Michael W. Deem and Ramdas Pophale) SiO2 
 PCOD8220209
Probable space group: P M N A
;
_chemical_formula_sum "Si O2"
_cell_formula_units_Z 56
_cell_length_a 9.171931
_cell_length_b 16.688450
_cell_length_c 21.060528
_cell_angle_alpha 90.000000
_cell_angle_beta 90.000000
_cell_angle_gamma 90.000000
_cell_volume 3223.636287
_symmetry_space_group_name_H-M "P M N A"
_symmetry_group_IT_number 53
_symmetry_cell_setting 'orthorhombic'
loop_
_space_group_symop_operation_xyz
x,y,z
1/2-x,-y,1/2+z
x,-y,-z
1/2-x,y,1/2-z
-x,-y,-z
1/2+x,y,1/2-z
-x,y,z
1/2+x,-y,1/2+z
loop_
_atom_site_type_symbol
_atom_site_label
_atom_site_fract_x
_atom_site_fract_y
_atom_site_fract_z
Si Si1 0.332157 0.138851 0.312899
Si Si2 0.328304 0.551050 0.438249
Si Si3 0.665993 0.700675 0.613054
Si Si4 0.826858 0.299891 0.515303
Si Si5 0.331606 0.545908 0.685982
Si Si6 0.828413 0.121536 0.525763
Si Si7 0.327782 0.030008 0.098221
O O1 0.250000 0.165808 0.250000
O O2 0.500000 0.122089 0.297431
O O3 0.311375 0.209611 0.363214
O O4 0.259214 0.057803 0.339649
O O5 0.280756 0.500000 0.500000
O O6 0.500000 0.566777 0.439471
O O7 0.245361 0.635876 0.437891
O O8 0.278661 0.506198 0.374246
O O9 0.500000 0.686327 0.588892
O O10 0.776218 0.683005 0.556268
O O11 0.699896 0.638997 0.670044
O O12 0.769744 0.211525 0.536676
O O13 0.000000 0.307091 0.518967
O O14 0.250000 0.520247 0.750000
O O15 0.500000 0.530177 0.699149
O O16 0.769290 0.083929 0.460269
O O17 0.000000 0.123896 0.518276
O O18 0.786899 0.063065 0.584351
O O19 0.500000 0.040585 0.109460
#
# Coordination Sequence:
#
# PCOD8220209 Si02
#       7
#     8   8   8   8   8   8   8
#     4  11  22  33  49  74 106 141 177 213 255 308
#     4  10  20  37  56  74 106 146 178 212 267 324
#     4  10  20  35  51  73 107 145 175 205 259 321
#     4  11  20  31  53  83 109 133 173 222 262 304
#     4  10  21  37  56  75 102 141 179 217 260 314
#     4   8  16  30  51  76 101 132 163 205 261 305
#     4   9  16  32  53  71  99 135 171 206 250 306
#
# _framework density 17.371686
#
# number of rings (size 3 to 8) (size 9 to 14) (size 15 to 20)
#    0.000    2.143    2.857    2.143    0.000    2.000 
#    0.000    2.857    0.000    0.857    0.000    2.000 
#    0.000    0.000    0.000    0.000    0.000    0.000 
#
# Total GULP energy -694322.713712 kJ/mol
# GULP energy per Si atom -12398.619888 kJ/mol
# Density = 1.733215 g / cm^3
# Si number density = 17.371686 Si / 1000 Ang^3
#
#
#
# Elastic Constant Matrix: (Units=GPa)
#
#
# Indices 1 2 3 4 5 6 
#
# 1 61.5232 40.1472 37.5875 0.0000 0.0000 0.0000
# 2 40.1472 115.2908 43.4579 0.0000 0.0000 0.0000
# 3 37.5875 43.4579 87.2450 0.0000 0.0000 0.0000
# 4 0.0000 0.0000 0.0000 22.3916 0.0000 0.0000
# 5 0.0000 0.0000 0.0000 0.0000 29.3868 0.0000
# 6 0.0000 0.0000 0.0000 0.0000 0.0000 22.8894
#
#
#
# Elastic Compliance Matrix: (Units=1/GPa)
#
#
# Indices 1 2 3 4 5 6 
#
# 1 0.024735 -0.005659 -0.007838 0.000000 0.000000 0.000000
# 2 -0.005659 0.011973 -0.003526 0.000000 0.000000 0.000000
# 3 -0.007838 -0.003526 0.016595 0.000000 0.000000 0.000000
# 4 0.000000 0.000000 0.000000 0.044660 0.000000 0.000000
# 5 0.000000 0.000000 0.000000 0.000000 0.034029 0.000000
# 6 0.000000 0.000000 0.000000 0.000000 0.000000 0.043688
#
#
# Mechanical properties :
#
#
# Convention : Reuss Voigt Hill
#
# Bulk Modulus (GPa) = 51.92636 56.27159 54.09898
# Shear Modulus (GPa) = 23.13252 24.45800 23.79526
#
# Velocity S-wave (km/s) = 3.65310 3.75630 3.70506
# Velocity P-wave (km/s) = 6.91012 7.16073 7.03654
#
# Compressibility (1/GPa) = 0.01925804
#
# Stress axis : x y z
#
# Youngs Moduli (GPa) = 40.42790 83.51794 60.25884
#
# Poissons Ratio (x) = 0.47264 0.47230
# Poissons Ratio (y) = 0.22879 0.21248
# Poissons Ratio (z) = 0.31687 0.29449
#
# Static dielectric constant tensor:
#      x y z
#    x 3.080380 0.000000 0.000000 
#    y 0.000000 3.530640 0.000000 
#    z 0.000000 0.000000 3.026680 
# 
# 
# High freq. dielectric constant tensor:
#      x y z
#    x 1.659130 0.000000 0.000000 
#    y 0.000000 1.673970 0.000000 
#    z 0.000000 0.000000 1.648490 
# 
# From -- ./inp_files/31021.got.cif
#   From: 2010.03.12/outbox.cif.g09.slc.cpg/sg53_16_cif.got.tgz:31021.got - 2010.04.16 14:36:59.
