data_PCOD8220042
_publ_section_title
;
Structure prediction by ZEFSAII (Michael W. Deem and Ramdas Pophale) SiO2 
 PCOD8220042
Probable space group: P M N A
;
_chemical_formula_sum "Si O2"
_cell_formula_units_Z 64
_cell_length_a 8.857821
_cell_length_b 18.680208
_cell_length_c 19.643036
_cell_angle_alpha 90.000000
_cell_angle_beta 90.000000
_cell_angle_gamma 90.000000
_cell_volume 3250.253391
_symmetry_space_group_name_H-M "P M N A"
_symmetry_group_IT_number 53
_symmetry_cell_setting 'orthorhombic'
loop_
_space_group_symop_operation_xyz
x,y,z
1/2-x,-y,1/2+z
x,-y,-z
1/2-x,y,1/2-z
-x,-y,-z
1/2+x,y,1/2-z
-x,y,z
1/2+x,-y,1/2+z
loop_
_atom_site_type_symbol
_atom_site_label
_atom_site_fract_x
_atom_site_fract_y
_atom_site_fract_z
Si Si1 0.834699 0.964770 0.428545
Si Si2 0.678172 0.587422 0.180823
Si Si3 0.171462 0.571250 0.043122
Si Si4 0.321258 0.921609 0.819843
Si Si5 0.822636 0.702550 0.535842
Si Si6 0.170684 0.738054 0.187177
Si Si7 0.322332 0.759316 0.820177
Si Si8 0.830744 0.179412 0.951018
O O1 0.719040 0.901112 0.439310
O O2 0.000000 0.938049 0.401785
O O3 0.861818 0.000000 0.500000
O O4 0.763953 0.024227 0.378031
O O5 0.750000 0.553742 0.250000
O O6 0.500000 0.577018 0.183567
O O7 0.740912 0.550989 0.112318
O O8 0.724473 0.669759 0.173999
O O9 0.000000 0.593388 0.061111
O O10 0.178513 0.500000 0.000000
O O11 0.239960 0.636730 0.000235
O O12 0.250000 0.949420 0.750000
O O13 0.500000 0.923197 0.814570
O O14 0.265716 0.840441 0.835412
O O15 0.777178 0.708667 0.615837
O O16 0.779209 0.777756 0.501128
O O17 0.000000 0.690862 0.527231
O O18 0.250000 0.780107 0.250000
O O19 0.173176 0.787424 0.122991
O O20 0.000000 0.713883 0.205517
O O21 0.250000 0.729694 0.750000
O O22 0.500000 0.758498 0.809760
O O23 0.000000 0.181276 0.981164
#
# Coordination Sequence:
#
# PCOD8220042 Si02
#       8
#     8   8   8   8   8   8   8   8
#     4  10  21  37  55  75 105 146 191 240 292 348
#     4  11  21  36  62  90 120 157 197 239 284 340
#     4  11  24  42  63  90 125 161 198 243 297 353
#     4   9  18  34  55  78 108 146 187 234 286 343
#     4  11  22  38  62  88 116 151 194 241 291 352
#     4  10  20  34  53  79 113 148 189 235 284 338
#     4   9  19  36  59  87 114 146 190 237 290 349
#     4  11  23  36  54  81 114 149 190 242 293 349
#
# _framework density 19.690771999999999
#
# number of rings (size 3 to 8) (size 9 to 14) (size 15 to 20)
#    0.000    1.750    1.250    4.125    0.000    6.750 
#    0.000    5.625    0.000    1.500    0.000    0.000 
#    0.000    0.000    0.000    0.000    0.000    0.000 
#
# Total GULP energy -793437.958600 kJ/mol
# GULP energy per Si atom -12397.468103 kJ/mol
# Density = 1.964596 g / cm^3
# Si number density = 19.690772 Si / 1000 Ang^3
#
#
#
# Elastic Constant Matrix: (Units=GPa)
#
#
# Indices 1 2 3 4 5 6 
#
# 1 108.7078 32.1758 57.3735 0.0000 0.0000 0.0000
# 2 32.1758 47.6636 40.3908 0.0000 0.0000 0.0000
# 3 57.3735 40.3908 136.7301 0.0000 0.0000 0.0000
# 4 0.0000 0.0000 0.0000 17.3931 0.0000 0.0000
# 5 0.0000 0.0000 0.0000 0.0000 36.5420 0.0000
# 6 0.0000 0.0000 0.0000 0.0000 0.0000 18.0316
#
#
#
# Elastic Compliance Matrix: (Units=1/GPa)
#
#
# Indices 1 2 3 4 5 6 
#
# 1 0.012797 -0.005453 -0.003759 0.000000 0.000000 0.000000
# 2 -0.005453 0.030310 -0.006665 0.000000 0.000000 0.000000
# 3 -0.003759 -0.006665 0.010860 0.000000 0.000000 0.000000
# 4 0.000000 0.000000 0.000000 0.057494 0.000000 0.000000
# 5 0.000000 0.000000 0.000000 0.000000 0.027366 0.000000
# 6 0.000000 0.000000 0.000000 0.000000 0.000000 0.055458
#
#
# Mechanical properties :
#
#
# Convention : Reuss Voigt Hill
#
# Bulk Modulus (GPa) = 45.02141 61.44238 53.23190
# Shear Modulus (GPa) = 21.41840 25.27077 23.34458
#
# Velocity S-wave (km/s) = 3.30167 3.58632 3.44693
# Velocity P-wave (km/s) = 6.11952 6.95847 6.55243
#
# Compressibility (1/GPa) = 0.02221166
#
# Stress axis : x y z
#
# Youngs Moduli (GPa) = 78.14400 32.99227 92.08197
#
# Poissons Ratio (x) = 0.17992 0.34611
# Poissons Ratio (y) = 0.42615 0.61377
# Poissons Ratio (z) = 0.29372 0.21991
#
# Static dielectric constant tensor:
#      x y z
#    x 3.872010 0.000000 0.000000 
#    y 0.000000 3.338620 0.000000 
#    z 0.000000 0.000000 4.098370 
# 
# 
# High freq. dielectric constant tensor:
#      x y z
#    x 1.773930 0.000000 0.000000 
#    y 0.000000 1.741110 0.000000 
#    z 0.000000 0.000000 1.785300 
# 
# From -- ./inp_files/27008.got.cif
#   From: 2010.03.12/outbox.cif.g09.slc.cpg/sg53_14_cif.got.tgz:27008.got - 2010.04.16 14:36:59.
