data_PCOD8220707
_publ_section_title
;
Structure prediction by ZEFSAII (Michael W. Deem and Ramdas Pophale) SiO2 
 PCOD8220707
Probable space group: P M N A
;
_chemical_formula_sum "Si O2"
_cell_formula_units_Z 64
_cell_length_a 19.205965
_cell_length_b 17.741353
_cell_length_c 9.286697
_cell_angle_alpha 90.000000
_cell_angle_beta 90.000000
_cell_angle_gamma 90.000000
_cell_volume 3164.347323
_symmetry_space_group_name_H-M "P M N A"
_symmetry_group_IT_number 53
_symmetry_cell_setting 'orthorhombic'
loop_
_space_group_symop_operation_xyz
x,y,z
1/2-x,-y,1/2+z
x,-y,-z
1/2-x,y,1/2-z
-x,-y,-z
1/2+x,y,1/2-z
-x,y,z
1/2+x,-y,1/2+z
loop_
_atom_site_type_symbol
_atom_site_label
_atom_site_fract_x
_atom_site_fract_y
_atom_site_fract_z
Si Si1 0.420968 0.055008 0.711872
Si Si2 0.920488 0.314802 0.857482
Si Si3 0.417368 0.195940 0.881807
Si Si4 0.419446 0.513555 0.336608
Si Si5 0.580274 0.897407 0.614724
Si Si6 0.309735 0.443798 0.129014
Si Si7 0.681927 0.278845 0.081523
Si Si8 0.832526 0.247801 0.102001
O O1 0.500000 0.044751 0.758027
O O2 0.388589 0.113404 0.828976
O O3 0.416351 0.091030 0.555325
O O4 0.389897 0.970120 0.704124
O O5 0.895390 0.256027 0.738325
O O6 0.908917 0.398510 0.799114
O O7 0.000000 0.299411 0.899089
O O8 0.877585 0.300722 0.000977
O O9 0.500000 0.194574 0.909216
O O10 0.379175 0.224107 0.024842
O O11 0.392091 0.500000 0.500000
O O12 0.500000 0.489138 0.326909
O O13 0.379845 0.466646 0.214259
O O14 0.500000 0.879809 0.658729
O O15 0.632561 0.830683 0.646587
O O16 0.250000 0.440435 0.250000
O O17 0.320398 0.366443 0.036172
O O18 0.289733 0.500000 0.000000
O O19 0.754708 0.238220 0.036809
O O20 0.674024 0.292141 0.250884
#
# Coordination Sequence:
#
# PCOD8220707 Si02
#       8
#     8   8   8   8   8   8   8   8
#     4   8  15  31  58  93 121 144 194 254 294 346
#     4  10  20  36  62  91 114 148 201 255 301 359
#     4  10  20  38  61  90 123 152 199 258 308 356
#     4  10  22  39  62  92 123 154 200 259 311 370
#     4   9  16  31  62  92 115 155 200 246 298 345
#     4  12  25  43  65  87 119 163 211 255 315 378
#     4  11  26  41  55  85 124 165 197 253 303 368
#     4  11  21  38  58  79 126 164 202 244 294 368
#
# _framework density 20.225339999999999
#
# number of rings (size 3 to 8) (size 9 to 14) (size 15 to 20)
#    0.000    1.875    2.500    3.000    1.750    2.250 
#    0.000    0.625   11.000    2.250    0.000    0.000 
#    0.000    0.000    0.000    0.000    0.000    0.000 
#
# Total GULP energy -793092.357109 kJ/mol
# GULP energy per Si atom -12392.068080 kJ/mol
# Density = 2.017931 g / cm^3
# Si number density = 20.225340 Si / 1000 Ang^3
#
#
#
# Elastic Constant Matrix: (Units=GPa)
#
#
# Indices 1 2 3 4 5 6 
#
# 1 77.7805 44.2449 33.6443 0.0000 0.0000 0.0000
# 2 44.2449 118.9410 22.9066 0.0000 0.0000 0.0000
# 3 33.6443 22.9066 59.3070 0.0000 0.0000 0.0000
# 4 0.0000 0.0000 0.0000 34.6659 0.0000 0.0000
# 5 0.0000 0.0000 0.0000 0.0000 148.6403 0.0000
# 6 0.0000 0.0000 0.0000 0.0000 0.0000 20.7988
#
#
#
# Elastic Compliance Matrix: (Units=1/GPa)
#
#
# Indices 1 2 3 4 5 6 
#
# 1 0.020071 -0.005697 -0.009185 0.000000 0.000000 0.000000
# 2 -0.005697 0.010700 -0.000901 0.000000 0.000000 0.000000
# 3 -0.009185 -0.000901 0.022420 0.000000 0.000000 0.000000
# 4 0.000000 0.000000 0.000000 0.028847 0.000000 0.000000
# 5 0.000000 0.000000 0.000000 0.000000 0.006728 0.000000
# 6 0.000000 0.000000 0.000000 0.000000 0.000000 0.048080
#
#
# Mechanical properties :
#
#
# Convention : Reuss Voigt Hill
#
# Bulk Modulus (GPa) = 46.24453 50.84667 48.54560
# Shear Modulus (GPa) = 28.47051 51.16986 39.82019
#
# Velocity S-wave (km/s) = 3.75596 5.03536 4.44196
# Velocity P-wave (km/s) = 6.45940 7.68121 7.09665
#
# Compressibility (1/GPa) = 0.02162418
#
# Stress axis : x y z
#
# Youngs Moduli (GPa) = 49.82395 93.45529 44.60255
#
# Poissons Ratio (x) = 0.53242 0.40970
# Poissons Ratio (y) = 0.28385 0.04019
# Poissons Ratio (z) = 0.45766 0.08420
#
# Static dielectric constant tensor:
#      x y z
#    x 3.593560 0.000000 0.000000 
#    y 0.000000 4.611390 0.000000 
#    z 0.000000 0.000000 4.136640 
# 
# 
# High freq. dielectric constant tensor:
#      x y z
#    x 1.770100 0.000000 0.000000 
#    y 0.000000 1.804610 0.000000 
#    z 0.000000 0.000000 1.776520 
# 
# From -- ./inp_files/11221.got.cif
#   From: 2010.03.12/outbox.cif.g09.slc.cpg/sg53_6_cif.got.tgz:11221.got - 2010.04.16 14:36:59.
