data_PCOD8220578
_publ_section_title
;
Structure prediction by ZEFSAII (Michael W. Deem and Ramdas Pophale) SiO2 
 PCOD8220578
Probable space group: P M N A
;
_chemical_formula_sum "Si O2"
_cell_formula_units_Z 64
_cell_length_a 9.105236
_cell_length_b 25.131048
_cell_length_c 14.255738
_cell_angle_alpha 90.000000
_cell_angle_beta 90.000000
_cell_angle_gamma 90.000000
_cell_volume 3262.056745
_symmetry_space_group_name_H-M "P M N A"
_symmetry_group_IT_number 53
_symmetry_cell_setting 'orthorhombic'
loop_
_space_group_symop_operation_xyz
x,y,z
1/2-x,-y,1/2+z
x,-y,-z
1/2-x,y,1/2-z
-x,-y,-z
1/2+x,y,1/2-z
-x,y,z
1/2+x,-y,1/2+z
loop_
_atom_site_type_symbol
_atom_site_label
_atom_site_fract_x
_atom_site_fract_y
_atom_site_fract_z
Si Si1 0.672132 0.406317 0.842434
Si Si2 0.830546 0.626141 0.543174
Si Si3 0.328724 0.857334 0.153006
Si Si4 0.170313 0.973486 0.346357
Si Si5 0.824987 0.282138 0.149567
Si Si6 0.168398 0.474036 0.339596
Si Si7 0.672388 0.809907 0.961871
Si Si8 0.328763 0.912517 0.848756
O O1 0.750000 0.382391 0.750000
O O2 0.500000 0.405103 0.824379
O O3 0.727740 0.466693 0.861965
O O4 0.711476 0.370408 0.933103
O O5 0.723250 0.662166 0.604509
O O6 0.807922 0.564633 0.572203
O O7 0.000000 0.643694 0.559696
O O8 0.250000 0.842319 0.250000
O O9 0.500000 0.856999 0.175313
O O10 0.280438 0.916140 0.112019
O O11 0.292198 0.814129 0.072951
O O12 0.250000 0.982377 0.250000
O O13 0.000000 0.969927 0.325050
O O14 0.203564 0.029652 0.400709
O O15 0.750000 0.273909 0.250000
O O16 0.772149 0.236151 0.079990
O O17 0.000000 0.280683 0.161312
O O18 0.250000 0.449189 0.250000
O O19 0.000000 0.477426 0.311388
O O20 0.500000 0.797768 0.944725
O O21 0.721946 0.865685 0.916992
O O22 0.250000 0.905394 0.750000
O O23 0.500000 0.907346 0.827701
#
# Coordination Sequence:
#
# PCOD8220578 Si02
#       8
#     8   8   8   8   8   8   8   8
#     4   9  18  33  54  82 117 153 186 223 267 316
#     4  10  20  36  58  82 111 148 188 228 270 318
#     4   9  18  33  54  78 107 140 175 217 264 316
#     4   8  14  26  45  72 104 137 170 207 255 311
#     4  12  26  43  62  83 108 138 175 222 272 321
#     4   9  17  30  51  81 115 150 185 221 267 320
#     4  10  21  37  56  79 105 138 180 224 270 318
#     4   9  17  29  48  74 105 138 173 212 258 316
#
# _framework density 19.619524999999999
#
# number of rings (size 3 to 8) (size 9 to 14) (size 15 to 20)
#    0.000    2.500    0.000    2.250    0.000    6.000 
#    0.000    3.125    0.000    3.750    0.000    9.625 
#    0.000    0.000    0.000    0.000    0.000    0.000 
#
# Total GULP energy -792972.575425 kJ/mol
# GULP energy per Si atom -12390.196491 kJ/mol
# Density = 1.957487 g / cm^3
# Si number density = 19.619525 Si / 1000 Ang^3
#
#
#
# Elastic Constant Matrix: (Units=GPa)
#
#
# Indices 1 2 3 4 5 6 
#
# 1 58.9260 28.9858 37.1518 0.0000 0.0000 0.0000
# 2 28.9858 64.9174 32.2508 0.0000 0.0000 0.0000
# 3 37.1518 32.2508 98.5680 0.0000 0.0000 0.0000
# 4 0.0000 0.0000 0.0000 27.7428 0.0000 0.0000
# 5 0.0000 0.0000 0.0000 0.0000 29.7119 0.0000
# 6 0.0000 0.0000 0.0000 0.0000 0.0000 26.7012
#
#
#
# Elastic Compliance Matrix: (Units=1/GPa)
#
#
# Indices 1 2 3 4 5 6 
#
# 1 0.025181 -0.007795 -0.006940 0.000000 0.000000 0.000000
# 2 -0.007795 0.020807 -0.003870 0.000000 0.000000 0.000000
# 3 -0.006940 -0.003870 0.014027 0.000000 0.000000 0.000000
# 4 0.000000 0.000000 0.000000 0.036045 0.000000 0.000000
# 5 0.000000 0.000000 0.000000 0.000000 0.033657 0.000000
# 6 0.000000 0.000000 0.000000 0.000000 0.000000 0.037451
#
#
# Mechanical properties :
#
#
# Convention : Reuss Voigt Hill
#
# Bulk Modulus (GPa) = 43.85129 46.57647 45.21388
# Shear Modulus (GPa) = 23.58692 25.09937 24.34315
#
# Velocity S-wave (km/s) = 3.47106 3.58062 3.52627
# Velocity P-wave (km/s) = 6.20191 6.39420 6.29879
#
# Compressibility (1/GPa) = 0.02280435
#
# Stress axis : x y z
#
# Youngs Moduli (GPa) = 39.71275 48.05992 71.28879
#
# Poissons Ratio (x) = 0.37464 0.49478
# Poissons Ratio (y) = 0.30957 0.27588
# Poissons Ratio (z) = 0.27563 0.18598
#
# Static dielectric constant tensor:
#      x y z
#    x 3.461200 0.000000 0.000000 
#    y 0.000000 3.718150 0.000000 
#    z 0.000000 0.000000 3.520660 
# 
# 
# High freq. dielectric constant tensor:
#      x y z
#    x 1.747970 0.000000 0.000000 
#    y 0.000000 1.760930 0.000000 
#    z 0.000000 0.000000 1.759910 
# 
# From -- ./inp_files/20863.got.cif
#   From: 2010.03.12/outbox.cif.g09.slc.cpg/sg53_11_cif.got.tgz:20863.got - 2010.04.16 14:36:59.
