data_PCOD8220567
_publ_section_title
;
Structure prediction by ZEFSAII (Michael W. Deem and Ramdas Pophale) SiO2 
 PCOD8220567
Probable space group: P M N A
;
_chemical_formula_sum "Si O2"
_cell_formula_units_Z 32
_cell_length_a 9.956466
_cell_length_b 19.198966
_cell_length_c 8.691995
_cell_angle_alpha 90.000000
_cell_angle_beta 90.000000
_cell_angle_gamma 90.000000
_cell_volume 1661.508328
_symmetry_space_group_name_H-M "P M N A"
_symmetry_group_IT_number 53
_symmetry_cell_setting 'orthorhombic'
loop_
_space_group_symop_operation_xyz
x,y,z
1/2-x,-y,1/2+z
x,-y,-z
1/2-x,y,1/2-z
-x,-y,-z
1/2+x,y,1/2-z
-x,y,z
1/2+x,-y,1/2+z
loop_
_atom_site_type_symbol
_atom_site_label
_atom_site_fract_x
_atom_site_fract_y
_atom_site_fract_z
Si Si1 0.653071 0.935912 0.105568
Si Si2 0.500000 0.577715 0.436213
Si Si3 0.754040 0.334290 0.568269
Si Si4 0.657050 0.198279 0.104761
Si Si5 0.500000 0.426089 0.924279
O O1 0.750000 0.931531 0.250000
O O2 0.500000 0.946872 0.162990
O O3 0.665754 0.865624 0.010396
O O4 0.699180 0.000000 0.000000
O O5 0.500000 0.500000 0.500000
O O6 0.624487 0.624251 0.490752
O O7 0.500000 0.565873 0.256430
O O8 0.750000 0.318191 0.750000
O O9 0.772662 0.262866 0.478771
O O10 0.872455 0.384525 0.518171
O O11 0.750000 0.180203 0.250000
O O12 0.500000 0.212529 0.148988
O O13 0.500000 0.500000 0.000000
#
# Coordination Sequence:
#
# PCOD8220567 Si02
#       5
#     8   4   8   8   4
#     4  10  22  41  65  94 129 165 204 249 296 351
#     4  10  22  36  58  88 113 148 201 244 300 368
#     4  10  21  39  59  83 116 156 196 247 299 361
#     4  11  24  40  60  90 123 159 202 251 300 355
#     4  10  20  36  58  80 115 154 189 244 302 352
#
# _framework density 19.259606999999999
#
# number of rings (size 3 to 8) (size 9 to 14) (size 15 to 20)
#    0.000    1.750    1.250    2.250    1.750    3.500 
#    0.000    0.000    0.000    0.000    0.000    0.000 
#    0.000    0.000    0.000    0.000    0.000    0.000 
#
# Total GULP energy -396778.397751 kJ/mol
# GULP energy per Si atom -12399.324930 kJ/mol
# Density = 1.921577 g / cm^3
# Si number density = 19.259607 Si / 1000 Ang^3
#
#
#
# Elastic Constant Matrix: (Units=GPa)
#
#
# Indices 1 2 3 4 5 6 
#
# 1 160.7740 60.1492 58.4069 0.0000 0.0000 0.0000
# 2 60.1492 133.4306 39.8871 0.0000 0.0000 0.0000
# 3 58.4069 39.8871 73.4459 0.0000 0.0000 0.0000
# 4 0.0000 0.0000 0.0000 36.6307 0.0000 0.0000
# 5 0.0000 0.0000 0.0000 0.0000 46.1170 0.0000
# 6 0.0000 0.0000 0.0000 0.0000 0.0000 18.0463
#
#
#
# Elastic Compliance Matrix: (Units=1/GPa)
#
#
# Indices 1 2 3 4 5 6 
#
# 1 0.009337 -0.002375 -0.006136 0.000000 0.000000 0.000000
# 2 -0.002375 0.009551 -0.003298 0.000000 0.000000 0.000000
# 3 -0.006136 -0.003298 0.020286 0.000000 0.000000 0.000000
# 4 0.000000 0.000000 0.000000 0.027299 0.000000 0.000000
# 5 0.000000 0.000000 0.000000 0.000000 0.021684 0.000000
# 6 0.000000 0.000000 0.000000 0.000000 0.000000 0.055413
#
#
# Mechanical properties :
#
#
# Convention : Reuss Voigt Hill
#
# Bulk Modulus (GPa) = 64.28145 76.05966 70.17055
# Shear Modulus (GPa) = 29.00657 34.10596 31.55626
#
# Velocity S-wave (km/s) = 3.88504 4.21272 4.05219
# Velocity P-wave (km/s) = 7.31939 7.95237 7.64244
#
# Compressibility (1/GPa) = 0.01555659
#
# Stress axis : x y z
#
# Youngs Moduli (GPa) = 107.09535 104.69915 49.29502
#
# Poissons Ratio (x) = 0.24867 0.30246
# Poissons Ratio (y) = 0.25436 0.16259
# Poissons Ratio (z) = 0.65710 0.34533
#
# Static dielectric constant tensor:
#      x y z
#    x 3.670690 0.000000 0.000000 
#    y 0.000000 3.596370 0.000000 
#    z 0.000000 0.000000 3.376520 
# 
# 
# High freq. dielectric constant tensor:
#      x y z
#    x 1.766190 0.000000 0.000000 
#    y 0.000000 1.770220 0.000000 
#    z 0.000000 0.000000 1.740500 
# 
# From -- ./inp_files/6068.got.cif
#   From: 2010.03.12/outbox.cif.g09.slc.cpg/sg53_4_cif.got.tgz:6068.got - 2010.04.16 14:36:59.
