data_PCOD8220615
_publ_section_title
;
Structure prediction by ZEFSAII (Michael W. Deem and Ramdas Pophale) SiO2 
 PCOD8220615
Probable space group: P M N A
;
_chemical_formula_sum "Si O2"
_cell_formula_units_Z 48
_cell_length_a 9.472203
_cell_length_b 29.417819
_cell_length_c 8.963569
_cell_angle_alpha 90.000000
_cell_angle_beta 90.000000
_cell_angle_gamma 90.000000
_cell_volume 2497.712426
_symmetry_space_group_name_H-M "P M N A"
_symmetry_group_IT_number 53
_symmetry_cell_setting 'orthorhombic'
loop_
_space_group_symop_operation_xyz
x,y,z
1/2-x,-y,1/2+z
x,-y,-z
1/2-x,y,1/2-z
-x,-y,-z
1/2+x,y,1/2-z
-x,y,z
1/2+x,-y,1/2+z
loop_
_atom_site_type_symbol
_atom_site_label
_atom_site_fract_x
_atom_site_fract_y
_atom_site_fract_z
Si Si1 0.500000 0.450007 0.430303
Si Si2 0.337765 0.299474 0.888851
Si Si3 0.835193 0.785252 0.599657
Si Si4 0.753031 0.600363 0.425003
Si Si5 0.500000 0.451517 0.075199
Si Si6 0.668262 0.130406 0.405139
Si Si7 0.836508 0.042062 0.900429
O O1 0.500000 0.500000 0.500000
O O2 0.622650 0.418813 0.488413
O O3 0.500000 0.455918 0.253073
O O4 0.250000 0.280427 0.750000
O O5 0.500000 0.309436 0.843101
O O6 0.264771 0.345556 0.945962
O O7 0.327180 0.261476 0.012820
O O8 0.750000 0.776283 0.750000
O O9 0.748333 0.826257 0.518706
O O10 0.000000 0.798831 0.625909
O O11 0.750000 0.587128 0.250000
O O12 0.872129 0.576614 0.516482
O O13 0.500000 0.500000 0.000000
O O14 0.750000 0.121108 0.250000
O O15 0.500000 0.139152 0.380599
O O16 0.693409 0.088115 0.511564
O O17 0.750000 0.042705 0.750000
O O18 0.000000 0.036433 0.859182
O O19 0.784188 0.000000 0.000000
#
# Coordination Sequence:
#
# PCOD8220615 Si02
#       7
#     4   8   8   8   4   8   8
#     4  12  26  42  64  96 122 162 202 242 305 352
#     4  10  23  41  63  89 119 156 197 241 295 351
#     4  10  21  38  59  88 121 157 198 245 297 352
#     4  11  23  43  64  90 123 160 202 246 300 358
#     4  12  24  42  66  90 126 158 198 252 291 360
#     4  10  20  36  58  85 117 156 201 247 299 355
#     4  10  22  38  57  84 117 154 199 248 301 360
#
# _framework density 19.217586000000001
#
# number of rings (size 3 to 8) (size 9 to 14) (size 15 to 20)
#    0.000    1.500    0.833    5.000    3.500    5.000 
#    0.000    3.333    0.000    0.000    0.000    0.000 
#    0.000    0.000    0.000    0.000    0.000    0.000 
#
# Total GULP energy -594851.133748 kJ/mol
# GULP energy per Si atom -12392.731953 kJ/mol
# Density = 1.917385 g / cm^3
# Si number density = 19.217586 Si / 1000 Ang^3
#
#
#
# Elastic Constant Matrix: (Units=GPa)
#
#
# Indices 1 2 3 4 5 6 
#
# 1 161.7295 67.2395 69.7694 0.0000 0.0000 0.0000
# 2 67.2395 128.1551 72.9403 0.0000 0.0000 0.0000
# 3 69.7694 72.9403 131.4443 0.0000 0.0000 0.0000
# 4 0.0000 0.0000 0.0000 38.4491 0.0000 0.0000
# 5 0.0000 0.0000 0.0000 0.0000 37.2228 0.0000
# 6 0.0000 0.0000 0.0000 0.0000 0.0000 33.9800
#
#
#
# Elastic Compliance Matrix: (Units=1/GPa)
#
#
# Indices 1 2 3 4 5 6 
#
# 1 0.008664 -0.002819 -0.003035 0.000000 0.000000 0.000000
# 2 -0.002819 0.012322 -0.005342 0.000000 0.000000 0.000000
# 3 -0.003035 -0.005342 0.012183 0.000000 0.000000 0.000000
# 4 0.000000 0.000000 0.000000 0.026008 0.000000 0.000000
# 5 0.000000 0.000000 0.000000 0.000000 0.026865 0.000000
# 6 0.000000 0.000000 0.000000 0.000000 0.000000 0.029429
#
#
# Mechanical properties :
#
#
# Convention : Reuss Voigt Hill
#
# Bulk Modulus (GPa) = 92.77266 93.46971 93.12119
# Shear Modulus (GPa) = 35.34696 36.02236 35.68466
#
# Velocity S-wave (km/s) = 4.29336 4.33419 4.31382
# Velocity P-wave (km/s) = 8.54148 8.59011 8.56583
#
# Compressibility (1/GPa) = 0.01077904
#
# Stress axis : x y z
#
# Youngs Moduli (GPa) = 115.41746 81.15501 82.08312
#
# Poissons Ratio (x) = 0.22874 0.24911
# Poissons Ratio (y) = 0.32531 0.43846
# Poissons Ratio (z) = 0.35027 0.43350
#
# Static dielectric constant tensor:
#      x y z
#    x 3.816710 0.000000 0.000000 
#    y 0.000000 3.804400 0.000000 
#    z 0.000000 0.000000 3.367120 
# 
# 
# High freq. dielectric constant tensor:
#      x y z
#    x 1.769100 0.000000 0.000000 
#    y 0.000000 1.767540 0.000000 
#    z 0.000000 0.000000 1.743010 
# 
# From -- ./inp_files/6859.got.cif
#   From: 2010.03.12/outbox.cif.g09.slc.cpg/sg53_4_cif.got.tgz:6859.got - 2010.04.16 14:36:59.
