data_PCOD8220841
_publ_section_title
;
Structure prediction by ZEFSAII (Michael W. Deem and Ramdas Pophale) SiO2 
 PCOD8220841
Probable space group: P M N A
;
_chemical_formula_sum "Si O2"
_cell_formula_units_Z 48
_cell_length_a 9.142804
_cell_length_b 29.012897
_cell_length_c 9.278705
_cell_angle_alpha 90.000000
_cell_angle_beta 90.000000
_cell_angle_gamma 90.000000
_cell_volume 2461.262151
_symmetry_space_group_name_H-M "P M N A"
_symmetry_group_IT_number 53
_symmetry_cell_setting 'orthorhombic'
loop_
_space_group_symop_operation_xyz
x,y,z
1/2-x,-y,1/2+z
x,-y,-z
1/2-x,y,1/2-z
-x,-y,-z
1/2+x,y,1/2-z
-x,y,z
1/2+x,-y,1/2+z
loop_
_atom_site_type_symbol
_atom_site_label
_atom_site_fract_x
_atom_site_fract_y
_atom_site_fract_z
Si Si1 0.500000 0.450540 0.074102
Si Si2 0.000000 0.454719 0.091924
Si Si3 0.672281 0.124627 0.391963
Si Si4 0.331476 0.040703 0.600030
Si Si5 0.678177 0.778870 0.900267
Si Si6 0.324507 0.704608 0.402992
Si Si7 0.744055 0.614376 0.582467
O O1 0.500000 0.465550 0.239642
O O2 0.621670 0.414777 0.027162
O O3 0.500000 0.500000 0.000000
O O4 0.130950 0.424030 0.043877
O O5 0.000000 0.500000 0.000000
O O6 0.750000 0.103207 0.250000
O O7 0.500000 0.135647 0.362348
O O8 0.690009 0.089407 0.522253
O O9 0.763781 0.169961 0.433585
O O10 0.250000 0.042102 0.750000
O O11 0.500000 0.030305 0.632783
O O12 0.266931 0.000000 0.500000
O O13 0.750000 0.761799 0.750000
O O14 0.500000 0.776816 0.894822
O O15 0.742647 0.747951 0.027187
O O16 0.250000 0.696880 0.250000
O O17 0.500000 0.712433 0.392404
O O18 0.286385 0.660507 0.497117
O O19 0.750000 0.628490 0.750000
#
# Coordination Sequence:
#
# PCOD8220841 Si02
#       7
#     4   4   8   8   8   8   8
#     4  10  22  36  60  92 120 154 200 244 291 358
#     4  10  20  38  60  86 120 158 196 240 295 348
#     4  10  20  37  61  90 124 160 206 257 305 365
#     4  10  22  38  58  87 122 163 209 258 311 367
#     4  11  23  41  67  94 124 164 206 251 306 370
#     4  12  26  43  63  91 124 159 203 256 312 367
#     4  10  22  40  63  87 119 159 199 243 296 361
#
# _framework density 19.502189999999999
#
# number of rings (size 3 to 8) (size 9 to 14) (size 15 to 20)
#    0.000    1.500    0.833    5.000    2.333    3.667 
#    0.000    1.667    0.000    0.000    0.000    0.000 
#    0.000    0.000    0.000    0.000    0.000    0.000 
#
# Total GULP energy -594709.032135 kJ/mol
# GULP energy per Si atom -12389.771503 kJ/mol
# Density = 1.945780 g / cm^3
# Si number density = 19.502190 Si / 1000 Ang^3
#
#
#
# Elastic Constant Matrix: (Units=GPa)
#
#
# Indices 1 2 3 4 5 6 
#
# 1 176.8233 58.0725 61.2964 0.0000 0.0000 0.0000
# 2 58.0725 97.5441 63.1110 0.0000 0.0000 0.0000
# 3 61.2964 63.1110 114.0251 0.0000 0.0000 0.0000
# 4 0.0000 0.0000 0.0000 39.8813 0.0000 0.0000
# 5 0.0000 0.0000 0.0000 0.0000 37.3989 0.0000
# 6 0.0000 0.0000 0.0000 0.0000 0.0000 37.3657
#
#
#
# Elastic Compliance Matrix: (Units=1/GPa)
#
#
# Indices 1 2 3 4 5 6 
#
# 1 0.007432 -0.002866 -0.002409 0.000000 0.000000 0.000000
# 2 -0.002866 0.017076 -0.007911 0.000000 0.000000 0.000000
# 3 -0.002409 -0.007911 0.014443 0.000000 0.000000 0.000000
# 4 0.000000 0.000000 0.000000 0.025074 0.000000 0.000000
# 5 0.000000 0.000000 0.000000 0.000000 0.026739 0.000000
# 6 0.000000 0.000000 0.000000 0.000000 0.000000 0.026763
#
#
# Mechanical properties :
#
#
# Convention : Reuss Voigt Hill
#
# Bulk Modulus (GPa) = 79.48946 83.70581 81.59763
# Shear Modulus (GPa) = 33.76296 36.65669 35.20982
#
# Velocity S-wave (km/s) = 4.16533 4.34016 4.25364
# Velocity P-wave (km/s) = 7.99881 8.25411 8.12747
#
# Compressibility (1/GPa) = 0.01258028
#
# Stress axis : x y z
#
# Youngs Moduli (GPa) = 134.56064 58.56084 69.23583
#
# Poissons Ratio (x) = 0.16783 0.16677
# Poissons Ratio (y) = 0.38564 0.54771
# Poissons Ratio (z) = 0.32413 0.46326
#
# Static dielectric constant tensor:
#      x y z
#    x 3.920750 0.000000 0.000000 
#    y 0.000000 3.610730 0.000000 
#    z 0.000000 0.000000 3.520800 
# 
# 
# High freq. dielectric constant tensor:
#      x y z
#    x 1.781730 0.000000 0.000000 
#    y 0.000000 1.774460 0.000000 
#    z 0.000000 0.000000 1.756520 
# 
# From -- ./inp_files/6845.got.cif
#   From: 2010.03.12/outbox.cif.g09.slc.cpg/sg53_4_cif.got.tgz:6845.got - 2010.04.16 14:36:59.
