data_PCOD8220085
_publ_section_title
;
Structure prediction by ZEFSAII (Michael W. Deem and Ramdas Pophale) SiO2 
 PCOD8220085
Probable space group: P M N A
;
_chemical_formula_sum "Si O2"
_cell_formula_units_Z 48
_cell_length_a 8.718433
_cell_length_b 18.235684
_cell_length_c 15.292674
_cell_angle_alpha 90.000000
_cell_angle_beta 90.000000
_cell_angle_gamma 90.000000
_cell_volume 2431.330078
_symmetry_space_group_name_H-M "P M N A"
_symmetry_group_IT_number 53
_symmetry_cell_setting 'orthorhombic'
loop_
_space_group_symop_operation_xyz
x,y,z
1/2-x,-y,1/2+z
x,-y,-z
1/2-x,y,1/2-z
-x,-y,-z
1/2+x,y,1/2-z
-x,y,z
1/2+x,-y,1/2+z
loop_
_atom_site_type_symbol
_atom_site_label
_atom_site_fract_x
_atom_site_fract_y
_atom_site_fract_z
Si Si1 0.679727 0.906523 0.340200
Si Si2 0.681062 0.936169 0.841469
Si Si3 0.319955 0.598293 0.163373
Si Si4 0.327933 0.539241 0.592536
Si Si5 0.680068 0.674537 0.984184
Si Si6 0.321433 0.169720 0.481620
O O1 0.750000 0.874899 0.250000
O O2 0.500000 0.918601 0.327034
O O3 0.716317 0.849869 0.417770
O O4 0.753944 0.984081 0.364816
O O5 0.750000 0.907215 0.750000
O O6 0.500000 0.941060 0.832347
O O7 0.723963 0.881623 0.918708
O O8 0.250000 0.636464 0.250000
O O9 0.500000 0.591663 0.171109
O O10 0.251638 0.516236 0.159540
O O11 0.272663 0.647391 0.080746
O O12 0.330205 0.500000 0.500000
O O13 0.500000 0.557672 0.624148
O O14 0.229502 0.613842 0.586960
O O15 0.500000 0.689638 0.976288
O O16 0.773959 0.747283 0.963525
O O17 0.500000 0.158579 0.460910
#
# Coordination Sequence:
#
# PCOD8220085 Si02
#       6
#     8   8   8   8   8   8
#     4  10  21  37  58  84 115 150 190 236 282 333
#     4  11  22  38  61  85 111 145 188 237 286 338
#     4  10  20  34  54  80 109 141 180 224 269 321
#     4   9  17  32  54  76 100 133 172 212 257 310
#     4  10  21  36  54  78 109 144 181 222 271 327
#     4  11  23  38  57  83 116 153 191 232 283 340
#
# _framework density 19.742280999999998
#
# number of rings (size 3 to 8) (size 9 to 14) (size 15 to 20)
#    0.000    1.833    0.000    5.500    0.000    9.333 
#    0.000    4.167    0.000    0.000    0.000    0.000 
#    0.000    0.000    0.000    0.000    0.000    0.000 
#
# Total GULP energy -595329.798113 kJ/mol
# GULP energy per Si atom -12402.704127 kJ/mol
# Density = 1.969735 g / cm^3
# Si number density = 19.742281 Si / 1000 Ang^3
#
#
#
# Elastic Constant Matrix: (Units=GPa)
#
#
# Indices 1 2 3 4 5 6 
#
# 1 103.9396 22.2481 24.3396 0.0000 0.0000 0.0000
# 2 22.2481 66.1640 4.3792 0.0000 0.0000 0.0000
# 3 24.3396 4.3792 36.8465 0.0000 0.0000 0.0000
# 4 0.0000 0.0000 0.0000 -92.4938 0.0000 0.0000
# 5 0.0000 0.0000 0.0000 0.0000 33.6033 0.0000
# 6 0.0000 0.0000 0.0000 0.0000 0.0000 23.0213
#
#
#
# Elastic Compliance Matrix: (Units=1/GPa)
#
#
# Indices 1 2 3 4 5 6 
#
# 1 0.012172 -0.003589 -0.007614 0.000000 0.000000 0.000000
# 2 -0.003589 0.016292 0.000435 0.000000 0.000000 0.000000
# 3 -0.007614 0.000435 0.032117 0.000000 0.000000 0.000000
# 4 0.000000 0.000000 0.000000 -0.010812 0.000000 0.000000
# 5 0.000000 0.000000 0.000000 0.000000 0.029759 0.000000
# 6 0.000000 0.000000 0.000000 0.000000 0.000000 0.043438
#
#
# Mechanical properties :
#
#
# Convention : Reuss Voigt Hill
#
# Bulk Modulus (GPa) = 25.61169 34.32045 29.96607
# Shear Modulus (GPa) = 31.74217 3.22504 17.48361
#
# Velocity S-wave (km/s) = 4.01412 1.27950 2.97912
# Velocity P-wave (km/s) = 5.87243 4.42773 5.20049
#
# Compressibility (1/GPa) = 0.03904467
#
# Stress axis : x y z
#
# Youngs Moduli (GPa) = 82.15460 61.37966 31.13568
#
# Poissons Ratio (x) = 0.22029 0.23707
# Poissons Ratio (y) = 0.29486 -0.01353
# Poissons Ratio (z) = 0.62552 -0.02667
#
# Static dielectric constant tensor:
#      x y z
#    x 3.710310 0.000000 0.000000 
#    y 0.000000 3.483460 0.000000 
#    z 0.000000 0.000000 3.739730 
# 
# 
# High freq. dielectric constant tensor:
#      x y z
#    x 1.786790 0.000000 0.000000 
#    y 0.000000 1.758750 0.000000 
#    z 0.000000 0.000000 1.764030 
# 
# From -- ./inp_files/20144.got.cif
#   From: 2010.03.12/outbox.cif.g09.slc.cpg/sg53_11_cif.got.tgz:20144.got - 2010.04.16 14:36:59.
