data_PCOD8220369
_publ_section_title
;
Structure prediction by ZEFSAII (Michael W. Deem and Ramdas Pophale) SiO2 
 PCOD8220369
Probable space group: P M N A
;
_chemical_formula_sum "Si O2"
_cell_formula_units_Z 64
_cell_length_a 9.527921
_cell_length_b 14.518052
_cell_length_c 24.457293
_cell_angle_alpha 90.000000
_cell_angle_beta 90.000000
_cell_angle_gamma 90.000000
_cell_volume 3383.100362
_symmetry_space_group_name_H-M "P M N A"
_symmetry_group_IT_number 53
_symmetry_cell_setting 'orthorhombic'
loop_
_space_group_symop_operation_xyz
x,y,z
1/2-x,-y,1/2+z
x,-y,-z
1/2-x,y,1/2-z
-x,-y,-z
1/2+x,y,1/2-z
-x,y,z
1/2+x,-y,1/2+z
loop_
_atom_site_type_symbol
_atom_site_label
_atom_site_fract_x
_atom_site_fract_y
_atom_site_fract_z
Si Si1 0.658317 0.778733 0.990514
Si Si2 0.149581 0.060512 0.050235
Si Si3 0.841779 0.865159 0.699303
Si Si4 0.161889 0.579625 0.802705
Si Si5 0.840983 0.038425 0.633524
Si Si6 0.341728 0.699484 0.878278
Si Si7 0.661195 0.247311 0.883972
Si Si8 0.662379 0.362679 0.697149
O O1 0.500000 0.819038 0.991674
O O2 0.698349 0.746847 0.051520
O O3 0.763995 0.853655 0.969655
O O4 0.669081 0.698467 0.944525
O O5 0.235626 0.993151 0.088058
O O6 0.000000 0.092037 0.077473
O O7 0.106687 0.000000 0.000000
O O8 0.750000 0.831929 0.750000
O O9 0.813778 0.973359 0.686253
O O10 0.808202 0.802065 0.646018
O O11 0.000000 0.850424 0.718371
O O12 0.250000 0.612567 0.750000
O O13 0.229556 0.626910 0.855759
O O14 0.174160 0.471221 0.811180
O O15 0.000000 0.610060 0.795782
O O16 0.000000 0.023182 0.612649
O O17 0.814827 0.146713 0.643403
O O18 0.500000 0.670350 0.860980
O O19 0.500000 0.278560 0.874514
O O20 0.768750 0.316547 0.855731
O O21 0.750000 0.330336 0.750000
O O22 0.500000 0.332054 0.703627
#
# Coordination Sequence:
#
# PCOD8220369 Si02
#       8
#     8   8   8   8   8   8   8   8
#     4  10  20  36  57  81 113 152 190 229 278 334
#     4  11  21  31  49  79 110 143 189 237 278 318
#     4  10  21  35  51  75 109 147 186 228 279 333
#     4  10  21  38  61  87 111 144 185 231 285 337
#     4  10  20  36  55  75 106 149 191 230 274 330
#     4  10  20  35  57  84 112 146 187 232 279 333
#     4  10  21  36  60  87 111 147 193 234 280 332
#     4  10  22  41  64  86 113 144 182 233 285 336
#
# _framework density 18.917560000000002
#
# number of rings (size 3 to 8) (size 9 to 14) (size 15 to 20)
#    0.000    1.875    2.500    1.500    0.000    6.000 
#    0.000    1.875    0.000    3.750    0.000    0.000 
#    0.000    0.000    0.000    0.000    0.000    0.000 
#
# Total GULP energy -793285.689289 kJ/mol
# GULP energy per Si atom -12395.088895 kJ/mol
# Density = 1.887450 g / cm^3
# Si number density = 18.917560 Si / 1000 Ang^3
#
#
#
# Elastic Constant Matrix: (Units=GPa)
#
#
# Indices 1 2 3 4 5 6 
#
# 1 107.5965 37.6469 35.1668 0.0000 0.0000 0.0000
# 2 37.6469 47.1034 27.4443 0.0000 0.0000 0.0000
# 3 35.1668 27.4443 79.2055 0.0000 0.0000 0.0000
# 4 0.0000 0.0000 0.0000 28.6937 0.0000 0.0000
# 5 0.0000 0.0000 0.0000 0.0000 29.6557 0.0000
# 6 0.0000 0.0000 0.0000 0.0000 0.0000 32.9602
#
#
#
# Elastic Compliance Matrix: (Units=1/GPa)
#
#
# Indices 1 2 3 4 5 6 
#
# 1 0.013380 -0.009062 -0.002801 0.000000 0.000000 0.000000
# 2 -0.009062 0.032737 -0.007320 0.000000 0.000000 0.000000
# 3 -0.002801 -0.007320 0.016405 0.000000 0.000000 0.000000
# 4 0.000000 0.000000 0.000000 0.034851 0.000000 0.000000
# 5 0.000000 0.000000 0.000000 0.000000 0.033720 0.000000
# 6 0.000000 0.000000 0.000000 0.000000 0.000000 0.030340
#
#
# Mechanical properties :
#
#
# Convention : Reuss Voigt Hill
#
# Bulk Modulus (GPa) = 41.39515 48.26907 44.83211
# Shear Modulus (GPa) = 24.05565 27.17176 25.61370
#
# Velocity S-wave (km/s) = 3.56982 3.79400 3.68362
# Velocity P-wave (km/s) = 6.23866 6.69055 6.46855
#
# Compressibility (1/GPa) = 0.02415742
#
# Stress axis : x y z
#
# Youngs Moduli (GPa) = 74.73785 30.54603 60.95632
#
# Poissons Ratio (x) = 0.27681 0.17072
# Poissons Ratio (y) = 0.67728 0.44619
# Poissons Ratio (z) = 0.20932 0.22359
#
# Static dielectric constant tensor:
#      x y z
#    x 3.573180 0.000000 0.000000 
#    y 0.000000 3.290990 0.000000 
#    z 0.000000 0.000000 3.453130 
# 
# 
# High freq. dielectric constant tensor:
#      x y z
#    x 1.748390 0.000000 0.000000 
#    y 0.000000 1.716130 0.000000 
#    z 0.000000 0.000000 1.728450 
# 
# From -- ./inp_files/34320.got.cif
#   From: 2010.03.12/outbox.cif.g09.slc.cpg/sg53_18_cif.got.tgz:34320.got - 2010.04.16 14:36:59.
