data_PCOD8220594
_publ_section_title
;
Structure prediction by ZEFSAII (Michael W. Deem and Ramdas Pophale) SiO2 
 PCOD8220594
Probable space group: P M N A
;
_chemical_formula_sum "Si O2"
_cell_formula_units_Z 40
_cell_length_a 9.026954
_cell_length_b 25.130851
_cell_length_c 9.189057
_cell_angle_alpha 90.000000
_cell_angle_beta 90.000000
_cell_angle_gamma 90.000000
_cell_volume 2084.583856
_symmetry_space_group_name_H-M "P M N A"
_symmetry_group_IT_number 53
_symmetry_cell_setting 'orthorhombic'
loop_
_space_group_symop_operation_xyz
x,y,z
1/2-x,-y,1/2+z
x,-y,-z
1/2-x,y,1/2-z
-x,-y,-z
1/2+x,y,1/2-z
-x,y,z
1/2+x,-y,1/2+z
loop_
_atom_site_type_symbol
_atom_site_label
_atom_site_fract_x
_atom_site_fract_y
_atom_site_fract_z
Si Si1 0.674694 0.634186 0.098984
Si Si2 0.672109 0.756093 0.102761
Si Si3 0.674039 0.149596 0.096736
Si Si4 0.174437 0.949908 0.405196
Si Si5 0.828660 0.551037 0.899876
O O1 0.750000 0.616771 0.250000
O O2 0.500000 0.623103 0.110414
O O3 0.711277 0.695445 0.062801
O O4 0.745461 0.601119 0.968905
O O5 0.750000 0.774583 0.250000
O O6 0.500000 0.763469 0.132525
O O7 0.724341 0.793804 0.971019
O O8 0.750000 0.141103 0.250000
O O9 0.500000 0.147355 0.123025
O O10 0.725627 0.103340 0.987726
O O11 0.250000 0.952379 0.250000
O O12 0.000000 0.950976 0.380245
O O13 0.227604 0.000000 0.500000
O O14 0.750000 0.536578 0.750000
O O15 0.000000 0.565785 0.874378
O O16 0.810930 0.500000 0.000000
#
# Coordination Sequence:
#
# PCOD8220594 Si02
#       5
#     8   8   8   8   8
#     4  10  20  36  58  83 112 144 181 224 270 322
#     4   9  19  35  55  80 108 141 180 221 266 318
#     4  10  21  36  53  77 109 142 180 223 267 317
#     4  10  21  36  55  80 108 139 178 222 267 319
#     4  11  24  40  59  83 111 144 181 222 270 322
#
# _framework density 19.188482
#
# number of rings (size 3 to 8) (size 9 to 14) (size 15 to 20)
#    0.000    2.000    0.000    3.000    0.000    6.800 
#    0.000    2.000    0.000    0.000    0.000    0.000 
#    0.000    0.000    0.000    0.000    0.000    0.000 
#
# Total GULP energy -496175.386680 kJ/mol
# GULP energy per Si atom -12404.384667 kJ/mol
# Density = 1.914481 g / cm^3
# Si number density = 19.188482 Si / 1000 Ang^3
#
#
#
# Elastic Constant Matrix: (Units=GPa)
#
#
# Indices 1 2 3 4 5 6 
#
# 1 80.8798 49.3717 66.6863 0.0000 0.0000 0.0000
# 2 49.3717 106.0219 68.1328 0.0000 0.0000 0.0000
# 3 66.6863 68.1328 158.8474 0.0000 0.0000 0.0000
# 4 0.0000 0.0000 0.0000 31.7667 0.0000 0.0000
# 5 0.0000 0.0000 0.0000 0.0000 41.8846 0.0000
# 6 0.0000 0.0000 0.0000 0.0000 0.0000 22.1961
#
#
#
# Elastic Compliance Matrix: (Units=1/GPa)
#
#
# Indices 1 2 3 4 5 6 
#
# 1 0.021156 -0.005721 -0.006428 0.000000 0.000000 0.000000
# 2 -0.005721 0.014568 -0.003847 0.000000 0.000000 0.000000
# 3 -0.006428 -0.003847 0.010644 0.000000 0.000000 0.000000
# 4 0.000000 0.000000 0.000000 0.031479 0.000000 0.000000
# 5 0.000000 0.000000 0.000000 0.000000 0.023875 0.000000
# 6 0.000000 0.000000 0.000000 0.000000 0.000000 0.045053
#
#
# Mechanical properties :
#
#
# Convention : Reuss Voigt Hill
#
# Bulk Modulus (GPa) = 69.55664 79.34787 74.45226
# Shear Modulus (GPa) = 27.23911 29.94003 28.58957
#
# Velocity S-wave (km/s) = 3.77179 3.95436 3.86415
# Velocity P-wave (km/s) = 7.43615 7.89246 7.66770
#
# Compressibility (1/GPa) = 0.01437677
#
# Stress axis : x y z
#
# Youngs Moduli (GPa) = 47.26747 68.64211 93.95196
#
# Poissons Ratio (x) = 0.39272 0.60389
# Poissons Ratio (y) = 0.27043 0.36141
# Poissons Ratio (z) = 0.30382 0.26405
#
# Static dielectric constant tensor:
#      x y z
#    x 3.515950 0.000000 0.000000 
#    y 0.000000 3.766970 0.000000 
#    z 0.000000 0.000000 3.531730 
# 
# 
# High freq. dielectric constant tensor:
#      x y z
#    x 1.746620 0.000000 0.000000 
#    y 0.000000 1.761190 0.000000 
#    z 0.000000 0.000000 1.750090 
# 
# From -- ./inp_files/6257.got.cif
#   From: 2010.03.12/outbox.cif.g09.slc.cpg/sg53_4_cif.got.tgz:6257.got - 2010.04.16 14:36:59.
