data_PCOD8220905
_publ_section_title
;
Structure prediction by ZEFSAII (Michael W. Deem and Ramdas Pophale) SiO2 
 PCOD8220905
Probable space group: P M N A
;
_chemical_formula_sum "Si O2"
_cell_formula_units_Z 48
_cell_length_a 9.431604
_cell_length_b 29.359248
_cell_length_c 8.827683
_cell_angle_alpha 90.000000
_cell_angle_beta 90.000000
_cell_angle_gamma 90.000000
_cell_volume 2444.427803
_symmetry_space_group_name_H-M "P M N A"
_symmetry_group_IT_number 53
_symmetry_cell_setting 'orthorhombic'
loop_
_space_group_symop_operation_xyz
x,y,z
1/2-x,-y,1/2+z
x,-y,-z
1/2-x,y,1/2-z
-x,-y,-z
1/2+x,y,1/2-z
-x,y,z
1/2+x,-y,1/2+z
loop_
_atom_site_type_symbol
_atom_site_label
_atom_site_fract_x
_atom_site_fract_y
_atom_site_fract_z
Si Si1 0.672166 0.294765 0.590673
Si Si2 0.500000 0.453195 0.416093
Si Si3 0.000000 0.449420 0.434885
Si Si4 0.833280 0.780624 0.597981
Si Si5 0.665022 0.955358 0.903646
Si Si6 0.755733 0.387542 0.072318
Si Si7 0.161422 0.129522 0.598859
O O1 0.750000 0.287087 0.750000
O O2 0.500000 0.288443 0.602490
O O3 0.742649 0.259820 0.474610
O O4 0.713490 0.343918 0.528574
O O5 0.500000 0.500000 0.500000
O O6 0.500000 0.461415 0.239493
O O7 0.630611 0.424463 0.468622
O O8 0.000000 0.500000 0.500000
O O9 0.877231 0.415613 0.485497
O O10 0.750000 0.793744 0.750000
O O11 0.824934 0.823704 0.489987
O O12 0.000000 0.767164 0.626189
O O13 0.750000 0.958874 0.750000
O O14 0.500000 0.950475 0.863772
O O15 0.720055 0.911640 0.996521
O O16 0.697493 0.000000 0.000000
O O17 0.750000 0.373471 0.250000
O O18 0.250000 0.133546 0.750000
O O19 0.000000 0.119384 0.645184
#
# Coordination Sequence:
#
# PCOD8220905 Si02
#       7
#     8   4   4   8   8   8   8
#     4  12  26  43  64  92 124 159 203 255 309 367
#     4  10  20  38  60  84 120 158 196 240 295 352
#     4  10  22  36  60  92 120 154 200 246 291 356
#     4  11  24  42  66  93 124 163 205 252 307 370
#     4  10  21  37  58  87 123 163 211 262 314 374
#     4  10  22  40  62  87 119 159 198 242 299 360
#     4  10  22  39  60  90 125 163 208 258 312 369
#
# _framework density 19.636496999999999
#
# number of rings (size 3 to 8) (size 9 to 14) (size 15 to 20)
#    0.000    1.500    0.833    3.500    2.333    5.000 
#    0.000    0.000    0.000    0.000    0.000    0.000 
#    0.000    0.000    0.000    0.000    0.000    0.000 
#
# Total GULP energy -594929.719618 kJ/mol
# GULP energy per Si atom -12394.369159 kJ/mol
# Density = 1.959180 g / cm^3
# Si number density = 19.636497 Si / 1000 Ang^3
#
#
#
# Elastic Constant Matrix: (Units=GPa)
#
#
# Indices 1 2 3 4 5 6 
#
# 1 153.7419 51.4734 61.2028 0.0000 0.0000 0.0000
# 2 51.4734 112.4106 36.5538 0.0000 0.0000 0.0000
# 3 61.2028 36.5538 103.6323 0.0000 0.0000 0.0000
# 4 0.0000 0.0000 0.0000 34.1365 0.0000 0.0000
# 5 0.0000 0.0000 0.0000 0.0000 19.1570 0.0000
# 6 0.0000 0.0000 0.0000 0.0000 0.0000 20.9311
#
#
#
# Elastic Compliance Matrix: (Units=1/GPa)
#
#
# Indices 1 2 3 4 5 6 
#
# 1 0.009206 -0.002765 -0.004462 0.000000 0.000000 0.000000
# 2 -0.002765 0.010879 -0.002204 0.000000 0.000000 0.000000
# 3 -0.004462 -0.002204 0.013062 0.000000 0.000000 0.000000
# 4 0.000000 0.000000 0.000000 0.029294 0.000000 0.000000
# 5 0.000000 0.000000 0.000000 0.000000 0.052200 0.000000
# 6 0.000000 0.000000 0.000000 0.000000 0.000000 0.047776
#
#
# Mechanical properties :
#
#
# Convention : Reuss Voigt Hill
#
# Bulk Modulus (GPa) = 70.00254 74.24943 72.12598
# Shear Modulus (GPa) = 26.87582 29.54858 28.21220
#
# Velocity S-wave (km/s) = 3.70356 3.88336 3.79452
# Velocity P-wave (km/s) = 7.34950 7.61586 7.48386
#
# Compressibility (1/GPa) = 0.01428520
#
# Stress axis : x y z
#
# Youngs Moduli (GPa) = 108.62212 91.92206 76.55728
#
# Poissons Ratio (x) = 0.25414 0.34158
# Poissons Ratio (y) = 0.30031 0.16877
# Poissons Ratio (z) = 0.48465 0.20264
#
# Static dielectric constant tensor:
#      x y z
#    x 3.913730 0.000000 0.000000 
#    y 0.000000 3.890320 0.000000 
#    z 0.000000 0.000000 3.562540 
# 
# 
# High freq. dielectric constant tensor:
#      x y z
#    x 1.780890 0.000000 0.000000 
#    y 0.000000 1.785830 0.000000 
#    z 0.000000 0.000000 1.767840 
# 
# From -- ./inp_files/6826.got.cif
#   From: 2010.03.12/outbox.cif.g09.slc.cpg/sg53_4_cif.got.tgz:6826.got - 2010.04.16 14:36:59.
