data_PCOD8220092
_publ_section_title
;
Structure prediction by ZEFSAII (Michael W. Deem and Ramdas Pophale) SiO2 
 PCOD8220092
Probable space group: P M N A
;
_chemical_formula_sum "Si O2"
_cell_formula_units_Z 48
_cell_length_a 9.125323
_cell_length_b 14.748557
_cell_length_c 19.267179
_cell_angle_alpha 90.000000
_cell_angle_beta 90.000000
_cell_angle_gamma 90.000000
_cell_volume 2593.079960
_symmetry_space_group_name_H-M "P M N A"
_symmetry_group_IT_number 53
_symmetry_cell_setting 'orthorhombic'
loop_
_space_group_symop_operation_xyz
x,y,z
1/2-x,-y,1/2+z
x,-y,-z
1/2-x,y,1/2-z
-x,-y,-z
1/2+x,y,1/2-z
-x,y,z
1/2+x,-y,1/2+z
loop_
_atom_site_type_symbol
_atom_site_label
_atom_site_fract_x
_atom_site_fract_y
_atom_site_fract_z
Si Si1 0.827735 0.109862 0.323042
Si Si2 0.829209 0.364428 0.819842
Si Si3 0.173980 0.960128 0.428605
Si Si4 0.329478 0.424890 0.319764
Si Si5 0.330630 0.286254 0.090491
Si Si6 0.670767 0.244918 0.931121
O O1 0.750000 0.114184 0.250000
O O2 0.783277 0.197215 0.367598
O O3 0.000000 0.105816 0.310588
O O4 0.772148 0.020890 0.364153
O O5 0.750000 0.331040 0.750000
O O6 0.797723 0.469895 0.833343
O O7 0.766172 0.311253 0.884843
O O8 0.000000 0.343873 0.811689
O O9 0.225933 0.857280 0.416969
O O10 0.000000 0.963538 0.434882
O O11 0.241187 0.000000 0.500000
O O12 0.250000 0.390890 0.250000
O O13 0.500000 0.404059 0.311155
O O14 0.266237 0.370887 0.385180
O O15 0.500000 0.309602 0.103376
O O16 0.298168 0.269726 0.010310
O O17 0.500000 0.256185 0.912580
#
# Coordination Sequence:
#
# PCOD8220092 Si02
#       6
#     8   8   8   8   8   8
#     4  10  20  34  54  81 111 144 183 225 271 324
#     4  10  22  40  59  80 109 145 185 231 280 331
#     4   9  16  33  58  79 105 145 187 223 265 321
#     4  10  21  37  57  79 108 147 186 227 279 331
#     4  10  20  34  55  83 113 146 184 224 271 330
#     4  10  20  35  59  86 110 145 188 228 273 326
#
# _framework density 18.510807
#
# number of rings (size 3 to 8) (size 9 to 14) (size 15 to 20)
#    0.000    2.167    1.667    1.500    0.000    6.000 
#    0.000    5.833    0.000    1.000    0.000    0.000 
#    0.000    0.000    0.000    0.000    0.000    0.000 
#
# Total GULP energy -595353.471650 kJ/mol
# GULP energy per Si atom -12403.197326 kJ/mol
# Density = 1.846868 g / cm^3
# Si number density = 18.510807 Si / 1000 Ang^3
#
#
#
# Elastic Constant Matrix: (Units=GPa)
#
#
# Indices 1 2 3 4 5 6 
#
# 1 71.5999 58.5045 61.0600 0.0000 0.0000 0.0000
# 2 58.5045 107.7037 74.2879 0.0000 0.0000 0.0000
# 3 61.0600 74.2879 135.4078 0.0000 0.0000 0.0000
# 4 0.0000 0.0000 0.0000 38.9488 0.0000 0.0000
# 5 0.0000 0.0000 0.0000 0.0000 33.1289 0.0000
# 6 0.0000 0.0000 0.0000 0.0000 0.0000 33.5071
#
#
#
# Elastic Compliance Matrix: (Units=1/GPa)
#
#
# Indices 1 2 3 4 5 6 
#
# 1 0.028797 -0.010756 -0.007085 0.000000 0.000000 0.000000
# 2 -0.010756 0.018955 -0.005549 0.000000 0.000000 0.000000
# 3 -0.007085 -0.005549 0.013624 0.000000 0.000000 0.000000
# 4 0.000000 0.000000 0.000000 0.025675 0.000000 0.000000
# 5 0.000000 0.000000 0.000000 0.000000 0.030185 0.000000
# 6 0.000000 0.000000 0.000000 0.000000 0.000000 0.029844
#
#
# Mechanical properties :
#
#
# Convention : Reuss Voigt Hill
#
# Bulk Modulus (GPa) = 68.50723 78.04624 73.27674
# Shear Modulus (GPa) = 25.16059 29.17422 27.16740
#
# Velocity S-wave (km/s) = 3.69078 3.97427 3.83515
# Velocity P-wave (km/s) = 7.43318 7.95700 7.69955
#
# Compressibility (1/GPa) = 0.01459700
#
# Stress axis : x y z
#
# Youngs Moduli (GPa) = 34.72601 52.75787 73.40041
#
# Poissons Ratio (x) = 0.56746 0.52001
# Poissons Ratio (y) = 0.37351 0.40728
# Poissons Ratio (z) = 0.24602 0.29274
#
# Static dielectric constant tensor:
#      x y z
#    x 3.202340 0.000000 0.000000 
#    y 0.000000 3.545030 0.000000 
#    z 0.000000 0.000000 3.421590 
# 
# 
# High freq. dielectric constant tensor:
#      x y z
#    x 1.698690 0.000000 0.000000 
#    y 0.000000 1.727250 0.000000 
#    z 0.000000 0.000000 1.725140 
# 
# From -- ./inp_files/26151.got.cif
#   From: 2010.03.12/outbox.cif.g09.slc.cpg/sg53_14_cif.got.tgz:26151.got - 2010.04.16 14:36:59.
