data_PCOD8220995
_publ_section_title
;
Structure prediction by ZEFSAII (Michael W. Deem and Ramdas Pophale) SiO2 
 PCOD8220995
Probable space group: P M N A
;
_chemical_formula_sum "Si O2"
_cell_formula_units_Z 48
_cell_length_a 14.306603
_cell_length_b 9.787686
_cell_length_c 18.660779
_cell_angle_alpha 90.000000
_cell_angle_beta 90.000000
_cell_angle_gamma 90.000000
_cell_volume 2613.041599
_symmetry_space_group_name_H-M "P M N A"
_symmetry_group_IT_number 53
_symmetry_cell_setting 'orthorhombic'
loop_
_space_group_symop_operation_xyz
x,y,z
1/2-x,-y,1/2+z
x,-y,-z
1/2-x,y,1/2-z
-x,-y,-z
1/2+x,y,1/2-z
-x,y,z
1/2+x,-y,1/2+z
loop_
_atom_site_type_symbol
_atom_site_label
_atom_site_fract_x
_atom_site_fract_y
_atom_site_fract_z
Si Si1 0.798249 0.032836 0.676561
Si Si2 0.000000 0.953709 0.270017
Si Si3 0.302254 0.282558 0.180357
Si Si4 0.500000 0.554914 0.618672
Si Si5 0.500000 0.265169 0.239859
Si Si6 0.821428 0.869879 0.047870
Si Si7 0.197105 0.380127 0.049982
Si Si8 0.000000 0.768355 0.132130
O O1 0.750000 0.086613 0.750000
O O2 0.908896 0.062173 0.680198
O O3 0.759517 0.107836 0.606519
O O4 0.773645 0.873921 0.666545
O O5 0.000000 0.837540 0.209910
O O6 0.000000 0.106000 0.234765
O O7 0.250000 0.338337 0.250000
O O8 0.412615 0.299152 0.189649
O O9 0.266238 0.378679 0.117236
O O10 0.500000 0.643327 0.690149
O O11 0.410352 0.595506 0.571957
O O12 0.500000 0.395441 0.639487
O O13 0.911172 0.817762 0.089131
O O14 0.786907 0.758726 0.992162
O O15 0.846745 0.000000 0.000000
O O16 0.233286 0.500000 0.000000
#
# Coordination Sequence:
#
# PCOD8220995 Si02
#       8
#     8   4   8   4   4   8   8   4
#     4  10  20  39  63  93 124 156 209 256 299 369
#     4  10  22  40  68  92 124 161 207 257 307 355
#     4  10  20  39  65  91 120 161 210 252 297 368
#     4  12  24  41  60  92 132 160 202 254 312 376
#     4  10  22  40  68  94 116 163 216 252 290 370
#     4  12  24  39  62  93 125 160 205 255 315 365
#     4  12  24  42  61  90 130 165 201 252 315 367
#     4  12  24  40  58  97 130 159 193 264 319 368
#
# _framework density 18.369396999999999
#
# number of rings (size 3 to 8) (size 9 to 14) (size 15 to 20)
#    0.000    1.000    6.667    1.000    2.333    0.000 
#    3.000    4.167    0.000    0.000    0.000    0.000 
#    0.000    0.000    0.000    0.000    0.000    0.000 
#
# Total GULP energy -595313.193043 kJ/mol
# GULP energy per Si atom -12402.358188 kJ/mol
# Density = 1.832759 g / cm^3
# Si number density = 18.369397 Si / 1000 Ang^3
#
#
#
# Elastic Constant Matrix: (Units=GPa)
#
#
# Indices 1 2 3 4 5 6 
#
# 1 126.2227 35.5343 59.9654 0.0000 0.0000 0.0000
# 2 35.5343 111.9712 66.1111 0.0000 0.0000 0.0000
# 3 59.9654 66.1111 130.7677 0.0000 0.0000 0.0000
# 4 0.0000 0.0000 0.0000 41.2005 0.0000 0.0000
# 5 0.0000 0.0000 0.0000 0.0000 12.4170 0.0000
# 6 0.0000 0.0000 0.0000 0.0000 0.0000 7.7992
#
#
#
# Elastic Compliance Matrix: (Units=1/GPa)
#
#
# Indices 1 2 3 4 5 6 
#
# 1 0.010165 -0.000675 -0.004320 0.000000 0.000000 0.000000
# 2 -0.000675 0.012776 -0.006149 0.000000 0.000000 0.000000
# 3 -0.004320 -0.006149 0.012737 0.000000 0.000000 0.000000
# 4 0.000000 0.000000 0.000000 0.024272 0.000000 0.000000
# 5 0.000000 0.000000 0.000000 0.000000 0.080535 0.000000
# 6 0.000000 0.000000 0.000000 0.000000 0.000000 0.128219
#
#
# Mechanical properties :
#
#
# Convention : Reuss Voigt Hill
#
# Bulk Modulus (GPa) = 74.68938 76.90924 75.79931
# Shear Modulus (GPa) = 16.92307 26.10673 21.51490
#
# Velocity S-wave (km/s) = 3.03853 3.77398 3.42605
# Velocity P-wave (km/s) = 7.28410 7.80702 7.55009
#
# Compressibility (1/GPa) = 0.01338878
#
# Stress axis : x y z
#
# Youngs Moduli (GPa) = 98.37804 78.27210 78.51164
#
# Poissons Ratio (x) = 0.05285 0.33916
# Poissons Ratio (y) = 0.06643 0.48280
# Poissons Ratio (z) = 0.42498 0.48132
#
# Static dielectric constant tensor:
#      x y z
#    x 3.205420 0.000000 0.000000 
#    y 0.000000 3.442230 0.000000 
#    z 0.000000 0.000000 3.449220 
# 
# 
# High freq. dielectric constant tensor:
#      x y z
#    x 1.715110 0.000000 0.000000 
#    y 0.000000 1.706320 0.000000 
#    z 0.000000 0.000000 1.718080 
# 
# From -- ./inp_files/28348.got.cif
#   From: 2010.03.12/outbox.cif.g09.slc.cpg/sg53_15_cif.got.tgz:28348.got - 2010.04.16 14:36:59.
