data_PCOD8220299
_publ_section_title
;
Structure prediction by ZEFSAII (Michael W. Deem and Ramdas Pophale) SiO2 
 PCOD8220299
Probable space group: P M N A
;
_chemical_formula_sum "Si O2"
_cell_formula_units_Z 64
_cell_length_a 16.885191
_cell_length_b 15.788121
_cell_length_c 12.530391
_cell_angle_alpha 90.000000
_cell_angle_beta 90.000000
_cell_angle_gamma 90.000000
_cell_volume 3340.419781
_symmetry_space_group_name_H-M "P M N A"
_symmetry_group_IT_number 53
_symmetry_cell_setting 'orthorhombic'
loop_
_space_group_symop_operation_xyz
x,y,z
1/2-x,-y,1/2+z
x,-y,-z
1/2-x,y,1/2-z
-x,-y,-z
1/2+x,y,1/2-z
-x,y,z
1/2+x,-y,1/2+z
loop_
_atom_site_type_symbol
_atom_site_label
_atom_site_fract_x
_atom_site_fract_y
_atom_site_fract_z
Si Si1 0.408766 0.599968 0.502041
Si Si2 0.156448 0.348077 0.228902
Si Si3 0.668884 0.251889 0.979637
Si Si4 0.090406 0.827681 0.292004
Si Si5 0.331762 0.166875 0.195432
Si Si6 0.408056 0.584109 0.934360
Si Si7 0.406969 0.002520 0.121012
Si Si8 0.691835 0.298039 0.659395
O O1 0.404083 0.500000 0.500000
O O2 0.500000 0.631057 0.502027
O O3 0.364158 0.632586 0.607190
O O4 0.365026 0.632525 0.394942
O O5 0.250000 0.354264 0.250000
O O6 0.128682 0.250560 0.250613
O O7 0.111696 0.415793 0.306940
O O8 0.597734 0.221448 0.904252
O O9 0.754036 0.253234 0.926566
O O10 0.683518 0.186641 0.072960
O O11 0.647652 0.345177 0.017281
O O12 0.124433 0.922238 0.310673
O O13 0.140558 0.779147 0.203925
O O14 0.000000 0.827703 0.254250
O O15 0.250000 0.140617 0.250000
O O16 0.388255 0.085158 0.192677
O O17 0.500000 0.604742 0.950435
O O18 0.385153 0.500000 0.000000
O O19 0.500000 0.993514 0.109489
O O20 0.370715 0.000000 0.000000
O O21 0.750000 0.339779 0.750000
#
# Coordination Sequence:
#
# PCOD8220299 Si02
#       8
#     8   8   8   8   8   8   8   8
#     4  11  24  41  60  84 116 154 198 244 293 351
#     4  10  22  39  60  85 116 156 197 239 291 352
#     4  10  20  35  55  82 113 148 186 234 287 340
#     4  10  20  36  57  81 111 147 188 234 285 341
#     4  10  20  35  56  82 114 145 185 229 282 341
#     4  10  21  36  57  87 119 152 195 244 295 347
#     4  10  20  35  57  86 114 145 185 232 286 345
#     4  10  22  38  58  83 113 151 195 239 295 348
#
# _framework density 19.159268999999998
#
# number of rings (size 3 to 8) (size 9 to 14) (size 15 to 20)
#    0.000    1.875    1.250    3.375    0.000    8.500 
#    0.000    2.500    0.000    0.000    0.000    7.875 
#    0.000    0.000    0.000    0.000    0.000    0.000 
#
# Total GULP energy -793273.722679 kJ/mol
# GULP energy per Si atom -12394.901917 kJ/mol
# Density = 1.911566 g / cm^3
# Si number density = 19.159269 Si / 1000 Ang^3
#
#
#
# Elastic Constant Matrix: (Units=GPa)
#
#
# Indices 1 2 3 4 5 6 
#
# 1 88.3323 41.1229 43.4342 0.0000 0.0000 0.0000
# 2 41.1229 99.5781 46.3934 0.0000 0.0000 0.0000
# 3 43.4342 46.3934 92.2653 0.0000 0.0000 0.0000
# 4 0.0000 0.0000 0.0000 17.4650 0.0000 0.0000
# 5 0.0000 0.0000 0.0000 0.0000 28.3733 0.0000
# 6 0.0000 0.0000 0.0000 0.0000 0.0000 18.1773
#
#
#
# Elastic Compliance Matrix: (Units=1/GPa)
#
#
# Indices 1 2 3 4 5 6 
#
# 1 0.015871 -0.004014 -0.005453 0.000000 0.000000 0.000000
# 2 -0.004014 0.014130 -0.005215 0.000000 0.000000 0.000000
# 3 -0.005453 -0.005215 0.016028 0.000000 0.000000 0.000000
# 4 0.000000 0.000000 0.000000 0.057257 0.000000 0.000000
# 5 0.000000 0.000000 0.000000 0.000000 0.035244 0.000000
# 6 0.000000 0.000000 0.000000 0.000000 0.000000 0.055014
#
#
# Mechanical properties :
#
#
# Convention : Reuss Voigt Hill
#
# Bulk Modulus (GPa) = 60.00895 60.23074 60.11984
# Shear Modulus (GPa) = 21.88545 22.75148 22.31847
#
# Velocity S-wave (km/s) = 3.38345 3.44974 3.41675
# Velocity P-wave (km/s) = 6.83028 6.88278 6.85658
#
# Compressibility (1/GPa) = 0.01666418
#
# Stress axis : x y z
#
# Youngs Moduli (GPa) = 63.00899 70.77289 62.39162
#
# Poissons Ratio (x) = 0.28405 0.34023
# Poissons Ratio (y) = 0.25289 0.32540
# Poissons Ratio (z) = 0.34359 0.36911
#
# Static dielectric constant tensor:
#      x y z
#    x 3.485370 0.000000 0.000000 
#    y 0.000000 3.567390 0.000000 
#    z 0.000000 0.000000 3.732200 
# 
# 
# High freq. dielectric constant tensor:
#      x y z
#    x 1.743490 0.000000 0.000000 
#    y 0.000000 1.743590 0.000000 
#    z 0.000000 0.000000 1.748050 
# 
# From -- ./inp_files/17101.got.cif
#   From: 2010.03.12/outbox.cif.g09.slc.cpg/sg53_9_cif.got.tgz:17101.got - 2010.04.16 14:36:59.
