data_PCOD8220381
_publ_section_title
;
Structure prediction by ZEFSAII (Michael W. Deem and Ramdas Pophale) SiO2 
 PCOD8220381
Probable space group: P M N A
;
_chemical_formula_sum "Si O2"
_cell_formula_units_Z 48
_cell_length_a 8.616946
_cell_length_b 11.200249
_cell_length_c 23.334569
_cell_angle_alpha 90.000000
_cell_angle_beta 90.000000
_cell_angle_gamma 90.000000
_cell_volume 2252.064542
_symmetry_space_group_name_H-M "P M N A"
_symmetry_group_IT_number 53
_symmetry_cell_setting 'orthorhombic'
loop_
_space_group_symop_operation_xyz
x,y,z
1/2-x,-y,1/2+z
x,-y,-z
1/2-x,y,1/2-z
-x,-y,-z
1/2+x,y,1/2-z
-x,y,z
1/2+x,-y,1/2+z
loop_
_atom_site_type_symbol
_atom_site_label
_atom_site_fract_x
_atom_site_fract_y
_atom_site_fract_z
Si Si1 0.182575 0.137368 0.686430
Si Si2 0.817353 0.222986 0.477886
Si Si3 0.680693 0.710998 0.407522
Si Si4 0.325679 0.537431 0.914412
Si Si5 0.676226 0.303720 0.191660
Si Si6 0.681574 0.089880 0.374358
O O1 0.250000 0.127797 0.750000
O O2 0.245573 0.254898 0.653801
O O3 0.000000 0.146074 0.692047
O O4 0.228979 0.025590 0.647552
O O5 0.757949 0.208128 0.542627
O O6 0.773431 0.356404 0.456717
O O7 0.735805 0.123797 0.438368
O O8 0.000000 0.201613 0.473159
O O9 0.500000 0.738527 0.406482
O O10 0.709061 0.572088 0.420844
O O11 0.500000 0.494017 0.929978
O O12 0.319630 0.583215 0.849673
O O13 0.750000 0.350570 0.250000
O O14 0.500000 0.257223 0.199182
O O15 0.781441 0.196780 0.168821
O O16 0.500000 0.062574 0.374218
#
# Coordination Sequence:
#
# PCOD8220381 Si02
#       6
#     8   8   8   8   8   8
#     4  12  26  46  67  88 119 160 204 247 297 355
#     4  10  21  40  65  93 124 159 200 246 299 354
#     4  12  25  40  61  91 124 160 202 246 297 357
#     4   9  20  38  59  85 121 163 204 247 298 356
#     4  10  20  35  57  86 119 157 202 250 302 357
#     4  11  22  39  63  92 123 154 196 249 304 358
#
# _framework density 21.313775
#
# number of rings (size 3 to 8) (size 9 to 14) (size 15 to 20)
#    0.000    1.333    0.000    7.500    0.000    7.333 
#    0.000    5.000    0.000    0.000    0.000    0.000 
#    0.000    0.000    0.000    0.000    0.000    0.000 
#
# Total GULP energy -595425.229574 kJ/mol
# GULP energy per Si atom -12404.692283 kJ/mol
# Density = 2.126526 g / cm^3
# Si number density = 21.313775 Si / 1000 Ang^3
#
#
#
# Elastic Constant Matrix: (Units=GPa)
#
#
# Indices 1 2 3 4 5 6 
#
# 1 97.0781 21.1380 27.4409 0.0000 0.0000 0.0000
# 2 21.1380 58.9470 25.6964 0.0000 0.0000 0.0000
# 3 27.4409 25.6964 100.1084 0.0000 0.0000 0.0000
# 4 0.0000 0.0000 0.0000 10.3325 0.0000 0.0000
# 5 0.0000 0.0000 0.0000 0.0000 34.7221 0.0000
# 6 0.0000 0.0000 0.0000 0.0000 0.0000 26.7451
#
#
#
# Elastic Compliance Matrix: (Units=1/GPa)
#
#
# Indices 1 2 3 4 5 6 
#
# 1 0.011660 -0.003139 -0.002390 0.000000 0.000000 0.000000
# 2 -0.003139 0.019947 -0.004260 0.000000 0.000000 0.000000
# 3 -0.002390 -0.004260 0.011738 0.000000 0.000000 0.000000
# 4 0.000000 0.000000 0.000000 0.096782 0.000000 0.000000
# 5 0.000000 0.000000 0.000000 0.000000 0.028800 0.000000
# 6 0.000000 0.000000 0.000000 0.000000 0.000000 0.037390
#
#
# Mechanical properties :
#
#
# Convention : Reuss Voigt Hill
#
# Bulk Modulus (GPa) = 42.07605 44.96489 43.52047
# Shear Modulus (GPa) = 21.38422 26.48384 23.93403
#
# Velocity S-wave (km/s) = 3.17094 3.52883 3.35466
# Velocity P-wave (km/s) = 5.76112 6.14378 5.95552
#
# Compressibility (1/GPa) = 0.02376649
#
# Stress axis : x y z
#
# Youngs Moduli (GPa) = 85.76163 50.13296 85.19496
#
# Poissons Ratio (x) = 0.15738 0.20365
# Poissons Ratio (y) = 0.26923 0.36290
# Poissons Ratio (z) = 0.20501 0.21355
#
# Static dielectric constant tensor:
#      x y z
#    x 3.854550 0.000000 0.000000 
#    y 0.000000 3.711200 0.000000 
#    z 0.000000 0.000000 4.108540 
# 
# 
# High freq. dielectric constant tensor:
#      x y z
#    x 1.843090 0.000000 0.000000 
#    y 0.000000 1.826370 0.000000 
#    z 0.000000 0.000000 1.850620 
# 
# From -- ./inp_files/33928.got.cif
#   From: 2010.03.12/outbox.cif.g09.slc.cpg/sg53_17_cif.got.tgz:33928.got - 2010.04.16 14:36:59.
