data_PCOD8220347
_publ_section_title
;
Structure prediction by ZEFSAII (Michael W. Deem and Ramdas Pophale) SiO2 
 PCOD8220347
Probable space group: P M N A
;
_chemical_formula_sum "Si O2"
_cell_formula_units_Z 64
_cell_length_a 9.070846
_cell_length_b 20.679623
_cell_length_c 18.510445
_cell_angle_alpha 90.000000
_cell_angle_beta 90.000000
_cell_angle_gamma 90.000000
_cell_volume 3472.220289
_symmetry_space_group_name_H-M "P M N A"
_symmetry_group_IT_number 53
_symmetry_cell_setting 'orthorhombic'
loop_
_space_group_symop_operation_xyz
x,y,z
1/2-x,-y,1/2+z
x,-y,-z
1/2-x,y,1/2-z
-x,-y,-z
1/2+x,y,1/2-z
-x,y,z
1/2+x,-y,1/2+z
loop_
_atom_site_type_symbol
_atom_site_label
_atom_site_fract_x
_atom_site_fract_y
_atom_site_fract_z
Si Si1 0.668240 0.498592 0.084660
Si Si2 0.171623 0.931989 0.462748
Si Si3 0.172772 0.599791 0.821572
Si Si4 0.172970 0.623946 0.325829
Si Si5 0.672643 0.252515 0.321599
Si Si6 0.828300 0.815444 0.967776
Si Si7 0.667938 0.746392 0.387221
Si Si8 0.327556 0.114250 0.675623
O O1 0.500000 0.482310 0.105275
O O2 0.773582 0.441697 0.111154
O O3 0.715615 0.566840 0.119179
O O4 0.691780 0.500000 0.000000
O O5 0.230237 0.877890 0.517557
O O6 0.258538 0.929752 0.387263
O O7 0.000000 0.920022 0.447410
O O8 0.201895 0.000000 0.500000
O O9 0.250000 0.571925 0.750000
O O10 0.220956 0.673615 0.834862
O O11 0.000000 0.592246 0.811970
O O12 0.250000 0.610091 0.250000
O O13 0.223709 0.691126 0.360439
O O14 0.000000 0.628438 0.312159
O O15 0.750000 0.224256 0.250000
O O16 0.500000 0.247066 0.309398
O O17 0.723443 0.211922 0.390850
O O18 0.000000 0.835573 0.968603
O O19 0.801304 0.760655 0.028463
O O20 0.500000 0.723568 0.375356
O O21 0.701090 0.810589 0.341195
O O22 0.250000 0.095087 0.750000
O O23 0.500000 0.098695 0.680565
#
# Coordination Sequence:
#
# PCOD8220347 Si02
#       8
#     8   8   8   8   8   8   8   8
#     4  10  23  40  54  74 106 139 178 227 273 323
#     4  10  21  37  57  83 114 148 188 228 266 318
#     4  10  20  35  57  80 103 137 178 222 273 327
#     4  11  23  37  54  76 104 140 176 217 269 322
#     4   9  19  35  55  82 111 139 178 226 274 326
#     4   9  19  36  57  81 111 145 180 222 271 321
#     4   9  19  34  55  81 109 140 175 220 268 320
#     4  10  20  35  57  84 114 148 184 226 272 320
#
# _framework density 18.432009000000001
#
# number of rings (size 3 to 8) (size 9 to 14) (size 15 to 20)
#    0.000    2.250    0.000    3.000    1.750    7.750 
#    0.000    0.625    0.000    1.500    0.000    0.000 
#    0.000    0.000    0.000    0.000    0.000    0.000 
#
# Total GULP energy -793837.618029 kJ/mol
# GULP energy per Si atom -12403.712782 kJ/mol
# Density = 1.839006 g / cm^3
# Si number density = 18.432009 Si / 1000 Ang^3
#
#
#
# Elastic Constant Matrix: (Units=GPa)
#
#
# Indices 1 2 3 4 5 6 
#
# 1 93.9619 56.3929 69.0230 0.0000 0.0000 0.0000
# 2 56.3929 87.8003 67.1881 0.0000 0.0000 0.0000
# 3 69.0230 67.1881 146.9157 0.0000 0.0000 0.0000
# 4 0.0000 0.0000 0.0000 22.6076 0.0000 0.0000
# 5 0.0000 0.0000 0.0000 0.0000 35.2323 0.0000
# 6 0.0000 0.0000 0.0000 0.0000 0.0000 25.2338
#
#
#
# Elastic Compliance Matrix: (Units=1/GPa)
#
#
# Indices 1 2 3 4 5 6 
#
# 1 0.019711 -0.008574 -0.005339 0.000000 0.000000 0.000000
# 2 -0.008574 0.021251 -0.005690 0.000000 0.000000 0.000000
# 3 -0.005339 -0.005690 0.011917 0.000000 0.000000 0.000000
# 4 0.000000 0.000000 0.000000 0.044233 0.000000 0.000000
# 5 0.000000 0.000000 0.000000 0.000000 0.028383 0.000000
# 6 0.000000 0.000000 0.000000 0.000000 0.000000 0.039629
#
#
# Mechanical properties :
#
#
# Convention : Reuss Voigt Hill
#
# Bulk Modulus (GPa) = 73.14377 79.32063 76.23220
# Shear Modulus (GPa) = 23.93619 25.68634 24.81126
#
# Velocity S-wave (km/s) = 3.60755 3.73711 3.67290
# Velocity P-wave (km/s) = 7.55789 7.85805 7.70943
#
# Compressibility (1/GPa) = 0.01367170
#
# Stress axis : x y z
#
# Youngs Moduli (GPa) = 50.73424 47.05663 83.91118
#
# Poissons Ratio (x) = 0.40347 0.44801
# Poissons Ratio (y) = 0.43500 0.47748
# Poissons Ratio (z) = 0.27088 0.26777
#
# Static dielectric constant tensor:
#      x y z
#    x 3.412810 0.000000 0.000000 
#    y 0.000000 3.250100 0.000000 
#    z 0.000000 0.000000 3.514340 
# 
# 
# High freq. dielectric constant tensor:
#      x y z
#    x 1.720720 0.000000 0.000000 
#    y 0.000000 1.702420 0.000000 
#    z 0.000000 0.000000 1.724960 
# 
# From -- ./inp_files/26796.got.cif
#   From: 2010.03.12/outbox.cif.g09.slc.cpg/sg53_14_cif.got.tgz:26796.got - 2010.04.16 14:36:59.
