data_PCOD8220359
_publ_section_title
;
Structure prediction by ZEFSAII (Michael W. Deem and Ramdas Pophale) SiO2 
 PCOD8220359
Probable space group: P M N A
;
_chemical_formula_sum "Si O2"
_cell_formula_units_Z 56
_cell_length_a 9.320052
_cell_length_b 18.796088
_cell_length_c 16.973956
_cell_angle_alpha 90.000000
_cell_angle_beta 90.000000
_cell_angle_gamma 90.000000
_cell_volume 2973.506397
_symmetry_space_group_name_H-M "P M N A"
_symmetry_group_IT_number 53
_symmetry_cell_setting 'orthorhombic'
loop_
_space_group_symop_operation_xyz
x,y,z
1/2-x,-y,1/2+z
x,-y,-z
1/2-x,y,1/2-z
-x,-y,-z
1/2+x,y,1/2-z
-x,y,z
1/2+x,-y,1/2+z
loop_
_atom_site_type_symbol
_atom_site_label
_atom_site_fract_x
_atom_site_fract_y
_atom_site_fract_z
Si Si1 0.165230 0.329116 0.169872
Si Si2 0.160915 0.277610 0.580383
Si Si3 0.168500 0.792291 0.945827
Si Si4 0.338542 0.144444 0.825351
Si Si5 0.333387 0.472535 0.413871
Si Si6 0.830619 0.919337 0.490455
Si Si7 0.165670 0.414138 0.675223
O O1 0.250000 0.342856 0.250000
O O2 0.203473 0.251544 0.133882
O O3 0.197033 0.388973 0.102574
O O4 0.000000 0.332456 0.193746
O O5 0.279914 0.257019 0.517461
O O6 0.176942 0.228682 0.658408
O O7 0.183587 0.358889 0.603918
O O8 0.000000 0.265294 0.545364
O O9 0.250725 0.868111 0.946484
O O10 0.000000 0.806031 0.955203
O O11 0.250000 0.120076 0.750000
O O12 0.500000 0.122061 0.806489
O O13 0.284071 0.103373 0.902933
O O14 0.284604 0.500000 0.500000
O O15 0.500000 0.491409 0.400749
O O16 0.237483 0.512177 0.349485
O O17 0.000000 0.910866 0.504487
O O18 0.778791 0.000000 0.500000
O O19 0.250000 0.383282 0.750000
O O20 0.000000 0.426739 0.696861
#
# Coordination Sequence:
#
# PCOD8220359 Si02
#       7
#     8   8   8   8   8   8   8
#     4  10  22  38  56  79 107 143 185 229 278 329
#     4   9  19  34  51  74 105 140 175 209 254 318
#     4  10  20  35  57  83 106 132 174 222 265 311
#     4   9  17  30  49  74 102 134 171 207 250 306
#     4  10  21  38  57  76 103 139 180 229 283 332
#     4   9  19  37  58  79 108 145 178 210 259 322
#     4  11  22  34  50  75 106 138 175 218 264 316
#
# _framework density 18.832984
#
# number of rings (size 3 to 8) (size 9 to 14) (size 15 to 20)
#    0.000    2.286    0.000    3.429    0.000    8.000 
#    0.000    0.714    0.000    3.429    0.000    0.000 
#    0.000    0.000    0.000    0.000    0.000    0.000 
#
# Total GULP energy -694302.453892 kJ/mol
# GULP energy per Si atom -12398.258105 kJ/mol
# Density = 1.879012 g / cm^3
# Si number density = 18.832984 Si / 1000 Ang^3
#
#
#
# Elastic Constant Matrix: (Units=GPa)
#
#
# Indices 1 2 3 4 5 6 
#
# 1 74.3363 45.1386 39.9247 0.0000 0.0000 0.0000
# 2 45.1386 121.5232 38.4225 0.0000 0.0000 0.0000
# 3 39.9247 38.4225 84.2623 0.0000 0.0000 0.0000
# 4 0.0000 0.0000 0.0000 19.7601 0.0000 0.0000
# 5 0.0000 0.0000 0.0000 0.0000 32.4183 0.0000
# 6 0.0000 0.0000 0.0000 0.0000 0.0000 25.7261
#
#
#
# Elastic Compliance Matrix: (Units=1/GPa)
#
#
# Indices 1 2 3 4 5 6 
#
# 1 0.020642 -0.005346 -0.007343 0.000000 0.000000 0.000000
# 2 -0.005346 0.010999 -0.002483 0.000000 0.000000 0.000000
# 3 -0.007343 -0.002483 0.016479 0.000000 0.000000 0.000000
# 4 0.000000 0.000000 0.000000 0.050607 0.000000 0.000000
# 5 0.000000 0.000000 0.000000 0.000000 0.030847 0.000000
# 6 0.000000 0.000000 0.000000 0.000000 0.000000 0.038871
#
#
# Mechanical properties :
#
#
# Convention : Reuss Voigt Hill
#
# Bulk Modulus (GPa) = 56.24989 58.56593 57.40791
# Shear Modulus (GPa) = 24.42428 26.02330 25.22379
#
# Velocity S-wave (km/s) = 3.60514 3.72128 3.66367
# Velocity P-wave (km/s) = 6.87474 7.04478 6.96028
#
# Compressibility (1/GPa) = 0.01777781
#
# Stress axis : x y z
#
# Youngs Moduli (GPa) = 48.44456 90.91353 60.68317
#
# Poissons Ratio (x) = 0.48599 0.44560
# Poissons Ratio (y) = 0.25897 0.15066
# Poissons Ratio (z) = 0.35573 0.22572
#
# Static dielectric constant tensor:
#      x y z
#    x 3.413930 0.000000 0.000000 
#    y 0.000000 3.524440 0.000000 
#    z 0.000000 0.000000 3.251100 
# 
# 
# High freq. dielectric constant tensor:
#      x y z
#    x 1.731730 0.000000 0.000000 
#    y 0.000000 1.728830 0.000000 
#    z 0.000000 0.000000 1.716340 
# 
# From -- ./inp_files/20469.got.cif
#   From: 2010.03.12/outbox.cif.g09.slc.cpg/sg53_11_cif.got.tgz:20469.got - 2010.04.16 14:36:59.
