data_PCOD8220452
_publ_section_title
;
Structure prediction by ZEFSAII (Michael W. Deem and Ramdas Pophale) SiO2 
 PCOD8220452
Probable space group: P M N A
;
_chemical_formula_sum "Si O2"
_cell_formula_units_Z 64
_cell_length_a 8.738439
_cell_length_b 20.127674
_cell_length_c 19.921335
_cell_angle_alpha 90.000000
_cell_angle_beta 90.000000
_cell_angle_gamma 90.000000
_cell_volume 3503.853079
_symmetry_space_group_name_H-M "P M N A"
_symmetry_group_IT_number 53
_symmetry_cell_setting 'orthorhombic'
loop_
_space_group_symop_operation_xyz
x,y,z
1/2-x,-y,1/2+z
x,-y,-z
1/2-x,y,1/2-z
-x,-y,-z
1/2+x,y,1/2-z
-x,y,z
1/2+x,-y,1/2+z
loop_
_atom_site_type_symbol
_atom_site_label
_atom_site_fract_x
_atom_site_fract_y
_atom_site_fract_z
Si Si1 0.318518 0.925489 0.320111
Si Si2 0.179855 0.817870 0.076042
Si Si3 0.680611 0.814900 0.576307
Si Si4 0.818044 0.568768 0.320785
Si Si5 0.320407 0.676322 0.921245
Si Si6 0.318813 0.426828 0.320796
Si Si7 0.319635 0.924865 0.680382
Si Si8 0.820982 0.319889 0.575208
O O1 0.250000 0.900574 0.250000
O O2 0.500000 0.922403 0.315659
O O3 0.254225 0.877288 0.378171
O O4 0.262591 0.000487 0.336175
O O5 0.244200 0.747628 0.101117
O O6 0.000000 0.814538 0.083462
O O7 0.228527 0.832535 0.999609
O O8 0.500000 0.801343 0.582646
O O9 0.771268 0.750055 0.601025
O O10 0.735725 0.876510 0.621269
O O11 0.750000 0.593177 0.250000
O O12 0.750180 0.497788 0.341217
O O13 0.765178 0.620132 0.377895
O O14 0.000000 0.563251 0.315287
O O15 0.500000 0.666206 0.908605
O O16 0.224563 0.624604 0.878207
O O17 0.274252 0.664052 0.998698
O O18 0.250000 0.402419 0.250000
O O19 0.500000 0.432598 0.313877
O O20 0.250000 0.899077 0.750000
O O21 0.500000 0.923077 0.687526
O O22 0.000000 0.309015 0.581045
#
# Coordination Sequence:
#
# PCOD8220452 Si02
#       8
#     8   8   8   8   8   8   8   8
#     4   9  18  32  49  72  99 131 166 205 251 300
#     4   9  18  32  51  73  99 129 167 210 251 294
#     4   9  18  33  51  73  99 130 167 210 252 296
#     4  10  20  36  55  77 104 135 170 209 251 299
#     4  10  20  36  55  76 103 136 170 208 251 300
#     4  11  22  37  56  79 105 134 168 208 251 299
#     4   9  18  32  50  71  99 130 164 204 250 300
#     4   9  20  36  54  75 103 137 171 206 251 302
#
# _framework density 18.265605000000001
#
# number of rings (size 3 to 8) (size 9 to 14) (size 15 to 20)
#    0.000    2.500    0.000    2.625    0.000    4.500 
#    0.000    8.750    0.000    0.000    0.000    7.000 
#    0.000    0.000    0.000    0.000    0.000    0.000 
#
# Total GULP energy -793698.096210 kJ/mol
# GULP energy per Si atom -12401.532753 kJ/mol
# Density = 1.822403 g / cm^3
# Si number density = 18.265605 Si / 1000 Ang^3
#
#
#
# Elastic Constant Matrix: (Units=GPa)
#
#
# Indices 1 2 3 4 5 6 
#
# 1 50.9142 38.9161 34.6467 0.0000 0.0000 0.0000
# 2 38.9161 135.3878 98.5037 0.0000 0.0000 0.0000
# 3 34.6467 98.5037 120.0055 0.0000 0.0000 0.0000
# 4 0.0000 0.0000 0.0000 38.6173 0.0000 0.0000
# 5 0.0000 0.0000 0.0000 0.0000 27.5023 0.0000
# 6 0.0000 0.0000 0.0000 0.0000 0.0000 28.7430
#
#
#
# Elastic Compliance Matrix: (Units=1/GPa)
#
#
# Indices 1 2 3 4 5 6 
#
# 1 0.025708 -0.004939 -0.003368 0.000000 0.000000 0.000000
# 2 -0.004939 0.019286 -0.014405 0.000000 0.000000 0.000000
# 3 -0.003368 -0.014405 0.021129 0.000000 0.000000 0.000000
# 4 0.000000 0.000000 0.000000 0.025895 0.000000 0.000000
# 5 0.000000 0.000000 0.000000 0.000000 0.036361 0.000000
# 6 0.000000 0.000000 0.000000 0.000000 0.000000 0.034791
#
#
# Mechanical properties :
#
#
# Convention : Reuss Voigt Hill
#
# Bulk Modulus (GPa) = 48.30981 72.27117 60.29049
# Shear Modulus (GPa) = 23.20252 27.92192 25.56222
#
# Velocity S-wave (km/s) = 3.56797 3.91405 3.74501
# Velocity P-wave (km/s) = 6.59392 7.75107 7.19579
#
# Compressibility (1/GPa) = 0.02069973
#
# Stress axis : x y z
#
# Youngs Moduli (GPa) = 38.89841 51.85020 47.32800
#
# Poissons Ratio (x) = 0.25609 0.15940
# Poissons Ratio (y) = 0.19212 0.68175
# Poissons Ratio (z) = 0.13101 0.74689
#
# Static dielectric constant tensor:
#      x y z
#    x 3.297430 0.000000 0.000000 
#    y 0.000000 3.554980 0.000000 
#    z 0.000000 0.000000 3.508240 
# 
# 
# High freq. dielectric constant tensor:
#      x y z
#    x 1.705750 0.000000 0.000000 
#    y 0.000000 1.712110 0.000000 
#    z 0.000000 0.000000 1.709250 
# 
# From -- ./inp_files/31176.got.cif
#   From: 2010.03.12/outbox.cif.g09.slc.cpg/sg53_16_cif.got.tgz:31176.got - 2010.04.16 14:36:59.
