data_PCOD8220439
_publ_section_title
;
Structure prediction by ZEFSAII (Michael W. Deem and Ramdas Pophale) SiO2 
 PCOD8220439
Probable space group: P M N A
;
_chemical_formula_sum "Si O2"
_cell_formula_units_Z 40
_cell_length_a 17.083663
_cell_length_b 5.168455
_cell_length_c 25.998954
_cell_angle_alpha 90.000000
_cell_angle_beta 90.000000
_cell_angle_gamma 90.000000
_cell_volume 2295.607372
_symmetry_space_group_name_H-M "P M N A"
_symmetry_group_IT_number 53
_symmetry_cell_setting 'orthorhombic'
loop_
_space_group_symop_operation_xyz
x,y,z
1/2-x,-y,1/2+z
x,-y,-z
1/2-x,y,1/2-z
-x,-y,-z
1/2+x,y,1/2-z
-x,y,z
1/2+x,-y,1/2+z
loop_
_atom_site_type_symbol
_atom_site_label
_atom_site_fract_x
_atom_site_fract_y
_atom_site_fract_z
Si Si1 0.194853 0.490536 0.940025
Si Si2 0.734367 0.980940 0.612487
Si Si3 0.089045 0.476795 0.251319
Si Si4 0.911490 0.296581 0.138414
Si Si5 0.676246 0.984584 0.214855
O O1 0.251750 0.725801 0.922102
O O2 0.111971 0.519078 0.909704
O O3 0.236410 0.223999 0.925418
O O4 0.177083 0.500000 0.000000
O O5 0.648304 0.948216 0.639542
O O6 0.800562 0.015358 0.655149
O O7 0.098852 0.462734 0.189997
O O8 0.144617 0.701296 0.272024
O O9 0.000000 0.540132 0.266496
O O10 0.110952 0.202556 0.276610
O O11 0.000000 0.193256 0.132333
O O12 0.750000 0.055078 0.250000
#
# Coordination Sequence:
#
# PCOD8220439 Si02
#       5
#     8   8   8   8   8
#     4  10  20  36  52  76 108 143 190 235 270 310
#     4  10  21  35  53  79 101 147 184 228 268 321
#     4  11  23  36  54  82 115 149 184 224 269 332
#     4   9  21  35  51  77 113 150 186 221 265 315
#     4  12  20  36  57  78 111 146 189 220 279 330
#
# _framework density 17.424581
#
# number of rings (size 3 to 8) (size 9 to 14) (size 15 to 20)
#    1.200    0.400    2.000    4.200    0.000    1.200 
#    0.000    1.000    0.000    0.000    0.000    0.000 
#    0.000   56.000    0.000    0.000    0.000    0.000 
#
# Total GULP energy -495838.925041 kJ/mol
# GULP energy per Si atom -12395.973126 kJ/mol
# Density = 1.738492 g / cm^3
# Si number density = 17.424581 Si / 1000 Ang^3
#
#
#
# Elastic Constant Matrix: (Units=GPa)
#
#
# Indices 1 2 3 4 5 6 
#
# 1 56.1801 21.2908 46.1688 0.0000 0.0000 0.0000
# 2 21.2908 113.8623 41.3004 0.0000 0.0000 0.0000
# 3 46.1688 41.3004 124.4989 0.0000 0.0000 0.0000
# 4 0.0000 0.0000 0.0000 26.2389 0.0000 0.0000
# 5 0.0000 0.0000 0.0000 0.0000 17.5770 0.0000
# 6 0.0000 0.0000 0.0000 0.0000 0.0000 21.3434
#
#
#
# Elastic Compliance Matrix: (Units=1/GPa)
#
#
# Indices 1 2 3 4 5 6 
#
# 1 0.025838 -0.001541 -0.009070 0.000000 0.000000 0.000000
# 2 -0.001541 0.010076 -0.002771 0.000000 0.000000 0.000000
# 3 -0.009070 -0.002771 0.012315 0.000000 0.000000 0.000000
# 4 0.000000 0.000000 0.000000 0.038111 0.000000 0.000000
# 5 0.000000 0.000000 0.000000 0.000000 0.056893 0.000000
# 6 0.000000 0.000000 0.000000 0.000000 0.000000 0.046853
#
#
# Mechanical properties :
#
#
# Convention : Reuss Voigt Hill
#
# Bulk Modulus (GPa) = 46.59037 56.89567 51.74302
# Shear Modulus (GPa) = 22.32087 25.41728 23.86908
#
# Velocity S-wave (km/s) = 3.58299 3.82344 3.70516
# Velocity P-wave (km/s) = 6.62672 7.22600 6.93284
#
# Compressibility (1/GPa) = 0.02146366
#
# Stress axis : x y z
#
# Youngs Moduli (GPa) = 38.70253 99.24751 81.20151
#
# Poissons Ratio (x) = 0.15298 0.73653
# Poissons Ratio (y) = 0.05965 0.22500
# Poissons Ratio (z) = 0.35105 0.27500
#
# Static dielectric constant tensor:
#      x y z
#    x 3.053450 0.000000 0.000000 
#    y 0.000000 3.207240 0.000000 
#    z 0.000000 0.000000 3.115050 
# 
# 
# High freq. dielectric constant tensor:
#      x y z
#    x 1.642240 0.000000 0.000000 
#    y 0.000000 1.684530 0.000000 
#    z 0.000000 0.000000 1.664400 
# 
# From -- ./inp_files/35153.got.cif
#   From: 2010.03.12/outbox.cif.g09.slc.cpg/sg53_18_cif.got.tgz:35153.got - 2010.04.16 14:36:59.
