data_PCOD8220093
_publ_section_title
;
Structure prediction by ZEFSAII (Michael W. Deem and Ramdas Pophale) SiO2 
 PCOD8220093
Probable space group: P M N A
;
_chemical_formula_sum "Si O2"
_cell_formula_units_Z 64
_cell_length_a 14.541061
_cell_length_b 9.451711
_cell_length_c 25.241715
_cell_angle_alpha 90.000000
_cell_angle_beta 90.000000
_cell_angle_gamma 90.000000
_cell_volume 3469.168459
_symmetry_space_group_name_H-M "P M N A"
_symmetry_group_IT_number 53
_symmetry_cell_setting 'orthorhombic'
loop_
_space_group_symop_operation_xyz
x,y,z
1/2-x,-y,1/2+z
x,-y,-z
1/2-x,y,1/2-z
-x,-y,-z
1/2+x,y,1/2-z
-x,y,z
1/2+x,-y,1/2+z
loop_
_atom_site_type_symbol
_atom_site_label
_atom_site_fract_x
_atom_site_fract_y
_atom_site_fract_z
Si Si1 0.101600 0.814322 0.784714
Si Si2 0.720786 0.685100 0.364642
Si Si3 0.898354 0.518564 0.340121
Si Si4 0.106734 0.646107 0.028660
Si Si5 0.399887 0.111025 0.454977
Si Si6 0.346950 0.509012 0.726095
Si Si7 0.772994 0.982955 0.861162
Si Si8 0.896274 0.193069 0.339541
O O1 0.111231 0.649002 0.801396
O O2 0.114629 0.831200 0.722576
O O3 0.000000 0.864830 0.802149
O O4 0.177562 0.912072 0.811313
O O5 0.822372 0.616765 0.367855
O O6 0.668285 0.659384 0.419236
O O7 0.661558 0.614971 0.317288
O O8 0.733536 0.849929 0.351927
O O9 0.905694 0.544425 0.276446
O O10 0.871969 0.355837 0.352749
O O11 0.000000 0.554403 0.363028
O O12 0.000000 0.674804 0.044037
O O13 0.121218 0.500000 0.000000
O O14 0.142410 0.752441 0.983526
O O15 0.500000 0.145324 0.428419
O O16 0.417596 0.000000 0.500000
O O17 0.329886 0.049316 0.413267
O O18 0.250000 0.556051 0.750000
O O19 0.672315 0.914350 0.869124
O O20 0.000000 0.158102 0.358148
#
# Coordination Sequence:
#
# PCOD8220093 Si02
#       8
#     8   8   8   8   8   8   8   8
#     4  10  20  34  54  81 111 148 188 222 262 320
#     4  11  23  35  54  85 114 142 180 226 276 328
#     4   9  19  38  58  78 109 148 186 226 271 317
#     4  10  23  40  58  82 109 139 180 227 271 322
#     4  10  21  40  58  77 111 147 175 213 273 331
#     4   9  18  34  54  78 110 148 186 222 264 316
#     4  12  22  34  56  83 113 146 180 221 275 330
#     4   9  20  38  58  80 109 146 189 227 262 317
#
# _framework density 18.448225000000001
#
# number of rings (size 3 to 8) (size 9 to 14) (size 15 to 20)
#    0.000    2.000    1.250    4.125    3.500    5.000 
#    0.000    1.250    0.000    1.500    0.000    0.000 
#    0.000    0.000    0.000    0.000    0.000    0.000 
#
# Total GULP energy -793376.439482 kJ/mol
# GULP energy per Si atom -12396.506867 kJ/mol
# Density = 1.840624 g / cm^3
# Si number density = 18.448225 Si / 1000 Ang^3
#
#
#
# Elastic Constant Matrix: (Units=GPa)
#
#
# Indices 1 2 3 4 5 6 
#
# 1 114.5831 51.7463 35.2956 0.0000 0.0000 0.0000
# 2 51.7463 121.3935 35.6124 0.0000 0.0000 0.0000
# 3 35.2956 35.6124 48.2958 0.0000 0.0000 0.0000
# 4 0.0000 0.0000 0.0000 25.6973 0.0000 0.0000
# 5 0.0000 0.0000 0.0000 0.0000 -6.3249 0.0000
# 6 0.0000 0.0000 0.0000 0.0000 0.0000 62.5068
#
#
#
# Elastic Compliance Matrix: (Units=1/GPa)
#
#
# Indices 1 2 3 4 5 6 
#
# 1 0.012220 -0.003304 -0.006494 0.000000 0.000000 0.000000
# 2 -0.003304 0.011405 -0.005995 0.000000 0.000000 0.000000
# 3 -0.006494 -0.005995 0.029873 0.000000 0.000000 0.000000
# 4 0.000000 0.000000 0.000000 0.038915 0.000000 0.000000
# 5 0.000000 0.000000 0.000000 0.000000 -0.158105 0.000000
# 6 0.000000 0.000000 0.000000 0.000000 0.000000 0.015998
#
#
# Mechanical properties :
#
#
# Convention : Reuss Voigt Hill
#
# Bulk Modulus (GPa) = 45.63996 58.84234 52.24115
# Shear Modulus (GPa) = -462.74604 27.15038 -217.79783
#
# Velocity S-wave (km/s) = -15.85495 3.84044 -10.87728
# Velocity P-wave (km/s) = 17.61759 7.18544 11.37429
#
# Compressibility (1/GPa) = 0.02191062
#
# Stress axis : x y z
#
# Youngs Moduli (GPa) = 81.83476 87.68304 33.47536
#
# Poissons Ratio (x) = 0.28968 0.21740
# Poissons Ratio (y) = 0.27036 0.20069
# Poissons Ratio (z) = 0.53147 0.52568
#
# Static dielectric constant tensor:
#      x y z
#    x 3.727410 0.000000 0.000000 
#    y 0.000000 3.454190 0.000000 
#    z 0.000000 0.000000 3.133970 
# 
# 
# High freq. dielectric constant tensor:
#      x y z
#    x 1.722350 0.000000 0.000000 
#    y 0.000000 1.717940 0.000000 
#    z 0.000000 0.000000 1.689860 
# 
# From -- ./inp_files/35382.got.cif
#   From: 2010.03.12/outbox.cif.g09.slc.cpg/sg53_18_cif.got.tgz:35382.got - 2010.04.16 14:36:59.
