data_PCOD8220694
_publ_section_title
;
Structure prediction by ZEFSAII (Michael W. Deem and Ramdas Pophale) SiO2 
 PCOD8220694
Probable space group: P M N A
;
_chemical_formula_sum "Si O2"
_cell_formula_units_Z 56
_cell_length_a 14.382568
_cell_length_b 20.242953
_cell_length_c 9.932376
_cell_angle_alpha 90.000000
_cell_angle_beta 90.000000
_cell_angle_gamma 90.000000
_cell_volume 2891.768047
_symmetry_space_group_name_H-M "P M N A"
_symmetry_group_IT_number 53
_symmetry_cell_setting 'orthorhombic'
loop_
_space_group_symop_operation_xyz
x,y,z
1/2-x,-y,1/2+z
x,-y,-z
1/2-x,y,1/2-z
-x,-y,-z
1/2+x,y,1/2-z
-x,y,z
1/2+x,-y,1/2+z
loop_
_atom_site_type_symbol
_atom_site_label
_atom_site_fract_x
_atom_site_fract_y
_atom_site_fract_z
Si Si1 0.176005 0.750424 0.362645
Si Si2 0.104803 0.174894 0.170168
Si Si3 0.395917 0.862284 0.968714
Si Si4 0.268043 0.055549 0.402368
Si Si5 0.107295 0.387678 0.684892
Si Si6 0.290987 0.426443 0.548456
Si Si7 0.205065 0.301417 0.105695
O O1 0.250000 0.771623 0.250000
O O2 0.116134 0.814298 0.403032
O O3 0.111047 0.692107 0.304470
O O4 0.222463 0.723803 0.496984
O O5 0.126283 0.176698 0.329669
O O6 0.167747 0.120342 0.097184
O O7 0.122199 0.247901 0.111530
O O8 0.000000 0.154395 0.139503
O O9 0.500000 0.890173 0.969536
O O10 0.328400 0.925075 0.975537
O O11 0.250000 0.029420 0.250000
O O12 0.313170 0.000000 0.500000
O O13 0.180282 0.413820 0.572687
O O14 0.143744 0.418153 0.822919
O O15 0.000000 0.409076 0.654702
O O16 0.306419 0.500000 0.500000
O O17 0.329390 0.374372 0.437716
O O18 0.250000 0.308287 0.250000
#
# Coordination Sequence:
#
# PCOD8220694 Si02
#       7
#     8   8   8   8   8   8   8
#     4  11  19  37  60  89 119 153 195 248 305 354
#     4  10  20  37  61  90 121 155 200 248 297 352
#     4  10  20  36  61  87 119 159 201 244 295 357
#     4  10  21  39  61  85 121 161 198 247 297 352
#     4  10  21  39  59  84 118 156 198 249 309 360
#     4  10  23  40  60  85 118 162 202 250 304 363
#     4  11  19  37  63  85 114 156 203 248 297 355
#
# _framework density 19.365314999999999
#
# number of rings (size 3 to 8) (size 9 to 14) (size 15 to 20)
#    0.000    1.714    5.714    0.857    2.000    2.286 
#    0.000    0.000    0.000    0.000    0.000    0.000 
#    0.000    0.000    0.000    0.000    0.000    0.000 
#
# Total GULP energy -694162.410025 kJ/mol
# GULP energy per Si atom -12395.757322 kJ/mol
# Density = 1.932124 g / cm^3
# Si number density = 19.365315 Si / 1000 Ang^3
#
#
#
# Elastic Constant Matrix: (Units=GPa)
#
#
# Indices 1 2 3 4 5 6 
#
# 1 91.3575 41.0162 26.7618 0.0000 0.0000 0.0000
# 2 41.0162 120.9640 50.4427 0.0000 0.0000 0.0000
# 3 26.7618 50.4427 87.6479 0.0000 0.0000 0.0000
# 4 0.0000 0.0000 0.0000 36.7257 0.0000 0.0000
# 5 0.0000 0.0000 0.0000 0.0000 20.6378 0.0000
# 6 0.0000 0.0000 0.0000 0.0000 0.0000 29.2445
#
#
#
# Elastic Compliance Matrix: (Units=1/GPa)
#
#
# Indices 1 2 3 4 5 6 
#
# 1 0.013149 -0.003664 -0.001906 0.000000 0.000000 0.000000
# 2 -0.003664 0.011898 -0.005729 0.000000 0.000000 0.000000
# 3 -0.001906 -0.005729 0.015288 0.000000 0.000000 0.000000
# 4 0.000000 0.000000 0.000000 0.027229 0.000000 0.000000
# 5 0.000000 0.000000 0.000000 0.000000 0.048455 0.000000
# 6 0.000000 0.000000 0.000000 0.000000 0.000000 0.034194
#
#
# Mechanical properties :
#
#
# Convention : Reuss Voigt Hill
#
# Bulk Modulus (GPa) = 56.37641 59.60120 57.98880
# Shear Modulus (GPa) = 27.97595 29.43817 28.70706
#
# Velocity S-wave (km/s) = 3.80497 3.90314 3.85437
# Velocity P-wave (km/s) = 6.96268 7.15240 7.05818
#
# Compressibility (1/GPa) = 0.01773792
#
# Stress axis : x y z
#
# Youngs Moduli (GPa) = 76.04963 84.04638 65.40865
#
# Poissons Ratio (x) = 0.30792 0.12470
# Poissons Ratio (y) = 0.27862 0.37472
# Poissons Ratio (z) = 0.14498 0.48150
#
# Static dielectric constant tensor:
#      x y z
#    x 3.218510 0.000000 0.000000 
#    y 0.000000 3.568600 0.000000 
#    z 0.000000 0.000000 3.580190 
# 
# 
# High freq. dielectric constant tensor:
#      x y z
#    x 1.740290 0.000000 0.000000 
#    y 0.000000 1.747700 0.000000 
#    z 0.000000 0.000000 1.749620 
# 
# From -- ./inp_files/8818.got.cif
#   From: 2010.03.12/outbox.cif.g09.slc.cpg/sg53_5_cif.got.tgz:8818.got - 2010.04.16 14:36:59.
