data_PCOD8220450
_publ_section_title
;
Structure prediction by ZEFSAII (Michael W. Deem and Ramdas Pophale) SiO2 
 PCOD8220450
Probable space group: P M N A
;
_chemical_formula_sum "Si O2"
_cell_formula_units_Z 48
_cell_length_a 8.996102
_cell_length_b 16.032439
_cell_length_c 18.529071
_cell_angle_alpha 90.000000
_cell_angle_beta 90.000000
_cell_angle_gamma 90.000000
_cell_volume 2672.437841
_symmetry_space_group_name_H-M "P M N A"
_symmetry_group_IT_number 53
_symmetry_cell_setting 'orthorhombic'
loop_
_space_group_symop_operation_xyz
x,y,z
1/2-x,-y,1/2+z
x,-y,-z
1/2-x,y,1/2-z
-x,-y,-z
1/2+x,y,1/2-z
-x,y,z
1/2+x,-y,1/2+z
loop_
_atom_site_type_symbol
_atom_site_label
_atom_site_fract_x
_atom_site_fract_y
_atom_site_fract_z
Si Si1 0.828894 0.168747 0.675936
Si Si2 0.672854 0.908662 0.027607
Si Si3 0.172270 0.486217 0.676568
Si Si4 0.676056 0.754362 0.540905
Si Si5 0.174546 0.329237 0.588060
Si Si6 0.675668 0.675048 0.825800
O O1 0.750000 0.143734 0.750000
O O2 0.792036 0.101220 0.613081
O O3 0.780721 0.260520 0.648119
O O4 0.000000 0.168153 0.695434
O O5 0.500000 0.886874 0.013560
O O6 0.774795 0.846261 0.982580
O O7 0.714071 0.000000 0.000000
O O8 0.250000 0.460060 0.750000
O O9 0.219685 0.421171 0.614760
O O10 0.213623 0.579589 0.651844
O O11 0.000000 0.477892 0.693018
O O12 0.500000 0.749566 0.547779
O O13 0.732865 0.685608 0.484260
O O14 0.750896 0.736667 0.617366
O O15 0.000000 0.321620 0.569526
O O16 0.750000 0.696577 0.750000
O O17 0.500000 0.690331 0.821398
#
# Coordination Sequence:
#
# PCOD8220450 Si02
#       6
#     8   8   8   8   8   8
#     4   9  17  29  49  76 104 133 164 201 248 303
#     4   9  19  38  60  78 101 136 172 208 258 317
#     4   9  18  31  50  74 102 138 178 219 261 303
#     4  11  22  35  53  78 104 133 170 213 261 309
#     4   9  18  33  50  72 103 139 175 209 253 309
#     4  10  20  36  55  75 102 137 177 220 262 305
#
# _framework density 17.961129
#
# number of rings (size 3 to 8) (size 9 to 14) (size 15 to 20)
#    0.000    2.500    0.000    3.500    0.000    5.000 
#    0.000    4.167    0.000    2.000    0.000    0.000 
#    0.000    0.000    0.000    0.000    0.000    0.000 
#
# Total GULP energy -595199.058678 kJ/mol
# GULP energy per Si atom -12399.980389 kJ/mol
# Density = 1.792025 g / cm^3
# Si number density = 17.961129 Si / 1000 Ang^3
#
#
#
# Elastic Constant Matrix: (Units=GPa)
#
#
# Indices 1 2 3 4 5 6 
#
# 1 83.7119 33.6553 61.5493 0.0000 0.0000 0.0000
# 2 33.6553 62.3919 59.1037 0.0000 0.0000 0.0000
# 3 61.5493 59.1037 135.9740 0.0000 0.0000 0.0000
# 4 0.0000 0.0000 0.0000 23.3364 0.0000 0.0000
# 5 0.0000 0.0000 0.0000 0.0000 36.8383 0.0000
# 6 0.0000 0.0000 0.0000 0.0000 0.0000 37.3577
#
#
#
# Elastic Compliance Matrix: (Units=1/GPa)
#
#
# Indices 1 2 3 4 5 6 
#
# 1 0.018331 -0.003447 -0.006799 0.000000 0.000000 0.000000
# 2 -0.003447 0.027895 -0.010565 0.000000 0.000000 0.000000
# 3 -0.006799 -0.010565 0.015024 0.000000 0.000000 0.000000
# 4 0.000000 0.000000 0.000000 0.042851 0.000000 0.000000
# 5 0.000000 0.000000 0.000000 0.000000 0.027146 0.000000
# 6 0.000000 0.000000 0.000000 0.000000 0.000000 0.026768
#
#
# Mechanical properties :
#
#
# Convention : Reuss Voigt Hill
#
# Bulk Modulus (GPa) = 50.94773 65.63271 58.29022
# Shear Modulus (GPa) = 24.25063 28.02445 26.13754
#
# Velocity S-wave (km/s) = 3.67846 3.95433 3.81888
# Velocity P-wave (km/s) = 6.81678 7.58088 7.20896
#
# Compressibility (1/GPa) = 0.01962796
#
# Stress axis : x y z
#
# Youngs Moduli (GPa) = 54.55345 35.84843 66.55930
#
# Poissons Ratio (x) = 0.12357 0.45254
# Poissons Ratio (y) = 0.18805 0.70319
# Poissons Ratio (z) = 0.37091 0.37873
#
# Static dielectric constant tensor:
#      x y z
#    x 3.258190 0.000000 0.000000 
#    y 0.000000 3.290950 0.000000 
#    z 0.000000 0.000000 3.352590 
# 
# 
# High freq. dielectric constant tensor:
#      x y z
#    x 1.693030 0.000000 0.000000 
#    y 0.000000 1.684070 0.000000 
#    z 0.000000 0.000000 1.695600 
# 
# From -- ./inp_files/26441.got.cif
#   From: 2010.03.12/outbox.cif.g09.slc.cpg/sg53_14_cif.got.tgz:26441.got - 2010.04.16 14:36:59.
