data_PCOD8220664
_publ_section_title
;
Structure prediction by ZEFSAII (Michael W. Deem and Ramdas Pophale) SiO2 
 PCOD8220664
Probable space group: P M N A
;
_chemical_formula_sum "Si O2"
_cell_formula_units_Z 48
_cell_length_a 8.592758
_cell_length_b 14.696486
_cell_length_c 18.733243
_cell_angle_alpha 90.000000
_cell_angle_beta 90.000000
_cell_angle_gamma 90.000000
_cell_volume 2365.696638
_symmetry_space_group_name_H-M "P M N A"
_symmetry_group_IT_number 53
_symmetry_cell_setting 'orthorhombic'
loop_
_space_group_symop_operation_xyz
x,y,z
1/2-x,-y,1/2+z
x,-y,-z
1/2-x,y,1/2-z
-x,-y,-z
1/2+x,y,1/2-z
-x,y,z
1/2+x,-y,1/2+z
loop_
_atom_site_type_symbol
_atom_site_label
_atom_site_fract_x
_atom_site_fract_y
_atom_site_fract_z
Si Si1 0.817302 0.037254 0.827501
Si Si2 0.819454 0.378930 0.544134
Si Si3 0.681788 0.449084 0.400606
Si Si4 0.182029 0.711305 0.676774
Si Si5 0.180931 0.138412 0.080790
Si Si6 0.818828 0.172582 0.567232
O O1 0.750000 0.015943 0.750000
O O2 0.737035 0.127138 0.859348
O O3 0.000000 0.053443 0.822111
O O4 0.774417 0.953628 0.878780
O O5 0.717542 0.396074 0.473891
O O6 0.771325 0.454235 0.602848
O O7 0.782536 0.279578 0.574837
O O8 0.000000 0.389454 0.523468
O O9 0.500000 0.467483 0.393800
O O10 0.739445 0.386807 0.335584
O O11 0.250000 0.752890 0.750000
O O12 0.218726 0.779093 0.612158
O O13 0.000000 0.698266 0.683135
O O14 0.000000 0.161710 0.089989
O O15 0.223251 0.127750 0.997811
O O16 0.000000 0.154204 0.554296
#
# Coordination Sequence:
#
# PCOD8220664 Si02
#       6
#     8   8   8   8   8   8
#     4  11  25  43  63  88 122 162 204 254 308 367
#     4  10  20  36  59  88 120 156 199 248 298 352
#     4  11  21  35  58  87 119 158 199 246 300 358
#     4  12  24  39  59  87 124 164 204 254 311 371
#     4  11  23  40  63  92 123 159 204 254 307 365
#     4  11  23  39  64  94 124 161 204 253 304 360
#
# _framework density 20.290006000000002
#
# number of rings (size 3 to 8) (size 9 to 14) (size 15 to 20)
#    0.000    1.000    1.667    7.000    0.000    8.000 
#    0.000    0.833    0.000    4.000    0.000    0.000 
#    0.000    0.000    0.000    0.000    0.000    0.000 
#
# Total GULP energy -595538.966209 kJ/mol
# GULP energy per Si atom -12407.061796 kJ/mol
# Density = 2.024382 g / cm^3
# Si number density = 20.290006 Si / 1000 Ang^3
#
#
#
# Elastic Constant Matrix: (Units=GPa)
#
#
# Indices 1 2 3 4 5 6 
#
# 1 104.1396 47.0228 20.7451 0.0000 0.0000 0.0000
# 2 47.0228 118.3442 28.1876 0.0000 0.0000 0.0000
# 3 20.7451 28.1876 59.1886 0.0000 0.0000 0.0000
# 4 0.0000 0.0000 0.0000 15.8256 0.0000 0.0000
# 5 0.0000 0.0000 0.0000 0.0000 34.9882 0.0000
# 6 0.0000 0.0000 0.0000 0.0000 0.0000 25.9843
#
#
#
# Elastic Compliance Matrix: (Units=1/GPa)
#
#
# Indices 1 2 3 4 5 6 
#
# 1 0.011945 -0.004229 -0.002173 0.000000 0.000000 0.000000
# 2 -0.004229 0.011028 -0.003770 0.000000 0.000000 0.000000
# 3 -0.002173 -0.003770 0.019452 0.000000 0.000000 0.000000
# 4 0.000000 0.000000 0.000000 0.063189 0.000000 0.000000
# 5 0.000000 0.000000 0.000000 0.000000 0.028581 0.000000
# 6 0.000000 0.000000 0.000000 0.000000 0.000000 0.038485
#
#
# Mechanical properties :
#
#
# Convention : Reuss Voigt Hill
#
# Bulk Modulus (GPa) = 45.28488 52.62037 48.95263
# Shear Modulus (GPa) = 24.95232 27.74076 26.34654
#
# Velocity S-wave (km/s) = 3.51063 3.70160 3.60738
# Velocity P-wave (km/s) = 6.22896 6.65278 6.44436
#
# Compressibility (1/GPa) = 0.02208243
#
# Stress axis : x y z
#
# Youngs Moduli (GPa) = 83.71941 90.67815 51.40860
#
# Poissons Ratio (x) = 0.38344 0.11170
# Poissons Ratio (y) = 0.35401 0.19380
# Poissons Ratio (z) = 0.18190 0.34184
#
# Static dielectric constant tensor:
#      x y z
#    x 3.723750 0.000000 0.000000 
#    y 0.000000 3.890360 0.000000 
#    z 0.000000 0.000000 1.742110 
# 
# 
# High freq. dielectric constant tensor:
#      x y z
#    x 1.807800 0.000000 0.000000 
#    y 0.000000 1.802130 0.000000 
#    z 0.000000 0.000000 1.774630 
# 
# From -- ./inp_files/30510.got.cif
#   From: 2010.03.12/outbox.cif.g09.slc.cpg/sg53_16_cif.got.tgz:30510.got - 2010.04.16 14:36:59.
