data_PCOD8220087
_publ_section_title
;
Structure prediction by ZEFSAII (Michael W. Deem and Ramdas Pophale) SiO2 
 PCOD8220087
Probable space group: P M N A
;
_chemical_formula_sum "Si O2"
_cell_formula_units_Z 64
_cell_length_a 9.067220
_cell_length_b 21.668125
_cell_length_c 16.062961
_cell_angle_alpha 90.000000
_cell_angle_beta 90.000000
_cell_angle_gamma 90.000000
_cell_volume 3155.884428
_symmetry_space_group_name_H-M "P M N A"
_symmetry_group_IT_number 53
_symmetry_cell_setting 'orthorhombic'
loop_
_space_group_symop_operation_xyz
x,y,z
1/2-x,-y,1/2+z
x,-y,-z
1/2-x,y,1/2-z
-x,-y,-z
1/2+x,y,1/2-z
-x,y,z
1/2+x,-y,1/2+z
loop_
_atom_site_type_symbol
_atom_site_label
_atom_site_fract_x
_atom_site_fract_y
_atom_site_fract_z
Si Si1 0.668922 0.258789 0.085228
Si Si2 0.824445 0.498362 0.092713
Si Si3 0.168752 0.866043 0.165685
Si Si4 0.328536 0.624770 0.332425
Si Si5 0.825254 0.631122 0.835512
Si Si6 0.667411 0.746569 0.425471
Si Si7 0.171610 0.131469 0.336009
Si Si8 0.829213 0.072500 0.005317
O O1 0.500000 0.280609 0.081805
O O2 0.773555 0.317610 0.099501
O O3 0.690562 0.205298 0.153413
O O4 0.719778 0.231635 0.996544
O O5 0.762793 0.558672 0.139584
O O6 0.768474 0.436470 0.137560
O O7 0.000000 0.499940 0.089588
O O8 0.759343 0.500000 0.000000
O O9 0.250000 0.887256 0.250000
O O10 0.188187 0.792266 0.153069
O O11 0.230513 0.899261 0.082082
O O12 0.000000 0.885292 0.178480
O O13 0.250000 0.647422 0.250000
O O14 0.500000 0.618791 0.313605
O O15 0.297019 0.676091 0.401787
O O16 0.750000 0.649531 0.750000
O O17 0.000000 0.632963 0.826987
O O18 0.500000 0.752313 0.458995
O O19 0.250000 0.111319 0.250000
O O20 0.240215 0.096900 0.415127
O O21 0.000000 0.113472 0.330357
O O22 0.000000 0.091221 0.017613
O O23 0.806820 0.000000 0.000000
#
# Coordination Sequence:
#
# PCOD8220087 Si02
#       8
#     8   8   8   8   8   8   8   8
#     4  11  23  38  59  88 118 152 197 249 304 356
#     4   9  18  34  54  76 104 143 189 236 288 353
#     4  10  21  37  60  90 124 162 203 249 301 358
#     4  10  20  34  54  80 110 146 190 236 292 353
#     4  11  22  36  56  80 111 150 191 239 294 353
#     4  10  20  36  59  85 114 154 197 243 299 357
#     4  11  24  41  64  93 125 164 206 255 309 363
#     4  10  22  42  66  93 128 167 207 251 301 358
#
# _framework density 20.279577
#
# number of rings (size 3 to 8) (size 9 to 14) (size 15 to 20)
#    0.000    1.750    1.250    3.000    0.000    6.750 
#    0.000    1.875    0.000    2.625    0.000    0.000 
#    0.000    0.000    0.000    0.000    0.000    0.000 
#
# Total GULP energy -793646.415791 kJ/mol
# GULP energy per Si atom -12400.725247 kJ/mol
# Density = 2.023342 g / cm^3
# Si number density = 20.279577 Si / 1000 Ang^3
#
#
#
# Elastic Constant Matrix: (Units=GPa)
#
#
# Indices 1 2 3 4 5 6 
#
# 1 80.5643 37.7035 61.4280 0.0000 0.0000 0.0000
# 2 37.7035 99.1906 38.4704 0.0000 0.0000 0.0000
# 3 61.4280 38.4704 145.3340 0.0000 0.0000 0.0000
# 4 0.0000 0.0000 0.0000 19.8030 0.0000 0.0000
# 5 0.0000 0.0000 0.0000 0.0000 37.9086 0.0000
# 6 0.0000 0.0000 0.0000 0.0000 0.0000 23.6248
#
#
#
# Elastic Compliance Matrix: (Units=1/GPa)
#
#
# Indices 1 2 3 4 5 6 
#
# 1 0.020229 -0.004873 -0.007260 0.000000 0.000000 0.000000
# 2 -0.004873 0.012409 -0.001225 0.000000 0.000000 0.000000
# 3 -0.007260 -0.001225 0.010274 0.000000 0.000000 0.000000
# 4 0.000000 0.000000 0.000000 0.050497 0.000000 0.000000
# 5 0.000000 0.000000 0.000000 0.000000 0.026379 0.000000
# 6 0.000000 0.000000 0.000000 0.000000 0.000000 0.042328
#
#
# Mechanical properties :
#
#
# Convention : Reuss Voigt Hill
#
# Bulk Modulus (GPa) = 61.74868 66.69918 64.22393
# Shear Modulus (GPa) = 25.74251 28.76642 27.25447
#
# Velocity S-wave (km/s) = 3.56670 3.77037 3.66995
# Velocity P-wave (km/s) = 6.89033 7.20524 7.04954
#
# Compressibility (1/GPa) = 0.01619468
#
# Stress axis : x y z
#
# Youngs Moduli (GPa) = 49.43465 80.58599 97.33773
#
# Poissons Ratio (x) = 0.39273 0.70667
# Poissons Ratio (y) = 0.24092 0.11923
# Poissons Ratio (z) = 0.35890 0.09871
#
# Static dielectric constant tensor:
#      x y z
#    x 3.466210 0.000000 0.000000 
#    y 0.000000 3.760150 0.000000 
#    z 0.000000 0.000000 3.651220 
# 
# 
# High freq. dielectric constant tensor:
#      x y z
#    x 1.772190 0.000000 0.000000 
#    y 0.000000 1.799830 0.000000 
#    z 0.000000 0.000000 1.797770 
# 
# From -- ./inp_files/20858.got.cif
#   From: 2010.03.12/outbox.cif.g09.slc.cpg/sg53_11_cif.got.tgz:20858.got - 2010.04.16 14:36:59.
