data_PCOD8220084
_publ_section_title
;
Structure prediction by ZEFSAII (Michael W. Deem and Ramdas Pophale) SiO2 
 PCOD8220084
Probable space group: P M N A
;
_chemical_formula_sum "Si O2"
_cell_formula_units_Z 48
_cell_length_a 8.729846
_cell_length_b 30.854529
_cell_length_c 9.542896
_cell_angle_alpha 90.000000
_cell_angle_beta 90.000000
_cell_angle_gamma 90.000000
_cell_volume 2570.429487
_symmetry_space_group_name_H-M "P M N A"
_symmetry_group_IT_number 53
_symmetry_cell_setting 'orthorhombic'
loop_
_space_group_symop_operation_xyz
x,y,z
1/2-x,-y,1/2+z
x,-y,-z
1/2-x,y,1/2-z
-x,-y,-z
1/2+x,y,1/2-z
-x,y,z
1/2+x,-y,1/2+z
loop_
_atom_site_type_symbol
_atom_site_label
_atom_site_fract_x
_atom_site_fract_y
_atom_site_fract_z
Si Si1 0.322223 0.701998 0.900546
Si Si2 0.819298 0.963623 0.102491
Si Si3 0.320483 0.458545 0.904063
Si Si4 0.677659 0.203112 0.098102
Si Si5 0.681312 0.615396 0.593862
Si Si6 0.820055 0.133363 0.898307
O O1 0.250000 0.707917 0.750000
O O2 0.500000 0.689159 0.888432
O O3 0.301582 0.749068 0.974517
O O4 0.232040 0.662031 0.971905
O O5 0.750000 0.975515 0.250000
O O6 0.769746 0.915182 0.055198
O O7 0.000000 0.967020 0.112662
O O8 0.751263 0.000000 0.000000
O O9 0.250000 0.465686 0.750000
O O10 0.500000 0.449372 0.887689
O O11 0.287857 0.500000 0.000000
O O12 0.241156 0.418922 0.982501
O O13 0.750000 0.202541 0.250000
O O14 0.500000 0.191305 0.110036
O O15 0.762274 0.167133 0.010234
O O16 0.750000 0.608165 0.750000
O O17 0.500000 0.612135 0.605462
O O18 0.750000 0.145892 0.750000
O O19 0.000000 0.136915 0.884389
#
# Coordination Sequence:
#
# PCOD8220084 Si02
#       6
#     8   8   8   8   8   8
#     4   9  17  31  52  78 108 141 179 221 266 316
#     4   9  19  35  53  75 102 133 171 213 260 314
#     4  11  24  41  61  85 114 147 184 226 271 321
#     4  10  20  34  54  80 109 141 179 223 266 313
#     4  11  21  35  58  85 114 147 183 224 270 320
#     4  10  20  35  54  75 104 140 176 217 265 319
#
# _framework density 18.673919999999999
#
# number of rings (size 3 to 8) (size 9 to 14) (size 15 to 20)
#    0.000    2.000    0.000    5.000    0.000    6.333 
#    0.000    2.500    0.000    4.000    0.000    0.000 
#    0.000    0.000    0.000    0.000    0.000    0.000 
#
# Total GULP energy -594947.055710 kJ/mol
# GULP energy per Si atom -12394.730327 kJ/mol
# Density = 1.863142 g / cm^3
# Si number density = 18.673920 Si / 1000 Ang^3
#
#
#
# Elastic Constant Matrix: (Units=GPa)
#
#
# Indices 1 2 3 4 5 6 
#
# 1 95.8613 52.9696 52.8028 0.0000 0.0000 0.0000
# 2 52.9696 142.8272 78.2172 0.0000 0.0000 0.0000
# 3 52.8028 78.2172 98.6626 0.0000 0.0000 0.0000
# 4 0.0000 0.0000 0.0000 33.7698 0.0000 0.0000
# 5 0.0000 0.0000 0.0000 0.0000 32.5298 0.0000
# 6 0.0000 0.0000 0.0000 0.0000 0.0000 30.7077
#
#
#
# Elastic Compliance Matrix: (Units=1/GPa)
#
#
# Indices 1 2 3 4 5 6 
#
# 1 0.015134 -0.002080 -0.006450 0.000000 0.000000 0.000000
# 2 -0.002080 0.012659 -0.008923 0.000000 0.000000 0.000000
# 3 -0.006450 -0.008923 0.020661 0.000000 0.000000 0.000000
# 4 0.000000 0.000000 0.000000 0.029612 0.000000 0.000000
# 5 0.000000 0.000000 0.000000 0.000000 0.030741 0.000000
# 6 0.000000 0.000000 0.000000 0.000000 0.000000 0.032565
#
#
# Mechanical properties :
#
#
# Convention : Reuss Voigt Hill
#
# Bulk Modulus (GPa) = 73.81038 78.37002 76.09020
# Shear Modulus (GPa) = 27.65542 29.62555 28.64048
#
# Velocity S-wave (km/s) = 3.85251 3.98737 3.92052
# Velocity P-wave (km/s) = 7.70719 7.95346 7.83129
#
# Compressibility (1/GPa) = 0.01354823
#
# Stress axis : x y z
#
# Youngs Moduli (GPa) = 66.07499 78.99317 48.39944
#
# Poissons Ratio (x) = 0.16433 0.31220
# Poissons Ratio (y) = 0.13745 0.43185
# Poissons Ratio (z) = 0.42622 0.70483
#
# Static dielectric constant tensor:
#      x y z
#    x 3.759140 0.000000 0.000000 
#    y 0.000000 4.102420 0.000000 
#    z 0.000000 0.000000 3.210500 
# 
# 
# High freq. dielectric constant tensor:
#      x y z
#    x 1.741120 0.000000 0.000000 
#    y 0.000000 1.747590 0.000000 
#    z 0.000000 0.000000 1.697080 
# 
# From -- ./inp_files/6573.got.cif
#   From: 2010.03.12/outbox.cif.g09.slc.cpg/sg53_4_cif.got.tgz:6573.got - 2010.04.16 14:36:59.
