data_PCOD8220861
_publ_section_title
;
Structure prediction by ZEFSAII (Michael W. Deem and Ramdas Pophale) SiO2 
 PCOD8220861
Probable space group: P M N A
;
_chemical_formula_sum "Si O2"
_cell_formula_units_Z 48
_cell_length_a 8.037847
_cell_length_b 7.861042
_cell_length_c 37.931338
_cell_angle_alpha 90.000000
_cell_angle_beta 90.000000
_cell_angle_gamma 90.000000
_cell_volume 2396.723942
_symmetry_space_group_name_H-M "P M N A"
_symmetry_group_IT_number 53
_symmetry_cell_setting 'orthorhombic'
loop_
_space_group_symop_operation_xyz
x,y,z
1/2-x,-y,1/2+z
x,-y,-z
1/2-x,y,1/2-z
-x,-y,-z
1/2+x,y,1/2-z
-x,y,z
1/2+x,-y,1/2+z
loop_
_atom_site_type_symbol
_atom_site_label
_atom_site_fract_x
_atom_site_fract_y
_atom_site_fract_z
Si Si1 0.184022 0.267875 0.588028
Si Si2 0.000000 0.858871 0.051213
Si Si3 0.317831 0.581457 0.961790
Si Si4 0.311958 0.705674 0.336519
Si Si5 0.195285 0.600894 0.710477
Si Si6 0.000000 0.226222 0.023704
Si Si7 0.195425 0.988003 0.710469
O O1 0.333520 0.148552 0.574706
O O2 0.204331 0.447502 0.569288
O O3 0.192283 0.294267 0.629851
O O4 0.000000 0.190654 0.579251
O O5 0.000000 0.028958 0.029664
O O6 0.000000 0.722982 0.018403
O O7 0.500000 0.671050 0.957926
O O8 0.166616 0.710355 0.957119
O O9 0.306753 0.500000 0.000000
O O10 0.500000 0.704086 0.350232
O O11 0.283794 0.534227 0.314499
O O12 0.285447 0.877426 0.314418
O O13 0.250000 0.560666 0.750000
O O14 0.247060 0.794430 0.700065
O O15 0.000000 0.575544 0.707044
O O16 0.250000 0.028022 0.750000
O O17 0.000000 0.014008 0.706834
#
# Coordination Sequence:
#
# PCOD8220861 Si02
#       7
#     8   4   8   8   8   4   8
#     4  11  23  42  62  84 122 159 202 253 304 368
#     4  11  23  40  59  96 121 164 197 250 311 368
#     4  10  20  37  63  89 115 158 205 249 302 360
#     4  12  24  39  61  88 122 163 206 251 314 377
#     4  10  21  39  63  91 121 156 206 257 306 364
#     4  11  22  37  66  89 128 153 206 253 302 369
#     4  10  21  39  62  87 120 160 205 257 309 365
#
# _framework density 20.027339000000001
#
# number of rings (size 3 to 8) (size 9 to 14) (size 15 to 20)
#    0.000    1.333    2.500    3.750    0.000    2.667 
#    3.000    1.667    0.000    0.000    0.000    0.000 
#    0.000    0.000    0.000    0.000    0.000    0.000 
#
# Total GULP energy -595062.913032 kJ/mol
# GULP energy per Si atom -12397.144021 kJ/mol
# Density = 1.998176 g / cm^3
# Si number density = 20.027339 Si / 1000 Ang^3
#
#
#
# Elastic Constant Matrix: (Units=GPa)
#
#
# Indices 1 2 3 4 5 6 
#
# 1 144.3625 41.7303 34.3422 0.0000 0.0000 0.0000
# 2 41.7303 86.0525 48.7768 0.0000 0.0000 0.0000
# 3 34.3422 48.7768 101.7220 0.0000 0.0000 0.0000
# 4 0.0000 0.0000 0.0000 22.1824 0.0000 0.0000
# 5 0.0000 0.0000 0.0000 0.0000 41.6302 0.0000
# 6 0.0000 0.0000 0.0000 0.0000 0.0000 -2.3076
#
#
#
# Elastic Compliance Matrix: (Units=1/GPa)
#
#
# Indices 1 2 3 4 5 6 
#
# 1 0.008158 -0.003289 -0.001177 0.000000 0.000000 0.000000
# 2 -0.003289 0.017284 -0.007178 0.000000 0.000000 0.000000
# 3 -0.001177 -0.007178 0.013670 0.000000 0.000000 0.000000
# 4 0.000000 0.000000 0.000000 0.045081 0.000000 0.000000
# 5 0.000000 0.000000 0.000000 0.000000 0.024021 0.000000
# 6 0.000000 0.000000 0.000000 0.000000 0.000000 -0.433357
#
#
# Mechanical properties :
#
#
# Convention : Reuss Voigt Hill
#
# Bulk Modulus (GPa) = 63.19232 64.64839 63.92036
# Shear Modulus (GPa) = -16.85877 26.12019 4.63071
#
# Velocity S-wave (km/s) = -2.90451 3.61533 1.52224
# Velocity P-wave (km/s) = 4.51368 7.05532 5.92245
#
# Compressibility (1/GPa) = 0.01582471
#
# Stress axis : x y z
#
# Youngs Moduli (GPa) = 122.58359 57.85658 73.15367
#
# Poissons Ratio (x) = 0.19028 0.08611
# Poissons Ratio (y) = 0.40315 0.52507
# Poissons Ratio (z) = 0.14429 0.41527
#
# Static dielectric constant tensor:
#      x y z
#    x 4.015010 0.000000 0.000000 
#    y 0.000000 3.571820 0.000000 
#    z 0.000000 0.000000 4.126500 
# 
# 
# High freq. dielectric constant tensor:
#      x y z
#    x 1.806060 0.000000 0.000000 
#    y 0.000000 1.766470 0.000000 
#    z 0.000000 0.000000 1.778530 
# 
# From -- ./inp_files/37827.got.cif
#   From: 2010.03.12/outbox.cif.g09.slc.cpg/sg53_19_cif.got.tgz:37827.got - 2010.04.16 14:36:59.
