data_PCOD8220692
_publ_section_title
;
Structure prediction by ZEFSAII (Michael W. Deem and Ramdas Pophale) SiO2 
 PCOD8220692
Probable space group: P M N A
;
_chemical_formula_sum "Si O2"
_cell_formula_units_Z 64
_cell_length_a 18.321298
_cell_length_b 14.104542
_cell_length_c 13.441302
_cell_angle_alpha 90.000000
_cell_angle_beta 90.000000
_cell_angle_gamma 90.000000
_cell_volume 3473.414125
_symmetry_space_group_name_H-M "P M N A"
_symmetry_group_IT_number 53
_symmetry_cell_setting 'orthorhombic'
loop_
_space_group_symop_operation_xyz
x,y,z
1/2-x,-y,1/2+z
x,-y,-z
1/2-x,y,1/2-z
-x,-y,-z
1/2+x,y,1/2-z
-x,y,z
1/2+x,-y,1/2+z
loop_
_atom_site_type_symbol
_atom_site_label
_atom_site_fract_x
_atom_site_fract_y
_atom_site_fract_z
Si Si1 0.917568 0.498705 0.117373
Si Si2 0.083693 0.799052 0.340451
Si Si3 0.173793 0.666425 0.209506
Si Si4 0.416797 0.128740 0.220929
Si Si5 0.583146 0.711779 0.627487
Si Si6 0.676908 0.815832 0.462775
Si Si7 0.667268 0.110832 0.019908
Si Si8 0.582861 0.945710 0.335556
O O1 0.866064 0.577893 0.161791
O O2 0.891409 0.394830 0.153276
O O3 0.000000 0.520173 0.152542
O O4 0.911527 0.500000 0.000000
O O5 0.125343 0.706864 0.299782
O O6 0.115929 0.832396 0.444859
O O7 0.092358 0.884084 0.263209
O O8 0.000000 0.770616 0.357036
O O9 0.250000 0.627502 0.250000
O O10 0.191717 0.748804 0.130994
O O11 0.500000 0.106973 0.185383
O O12 0.410693 0.231454 0.270066
O O13 0.361260 0.128086 0.130479
O O14 0.393777 0.052056 0.305182
O O15 0.500000 0.710082 0.586936
O O16 0.631160 0.757218 0.541739
O O17 0.751222 0.849888 0.512694
O O18 0.633225 0.908748 0.425214
O O19 0.664824 0.000000 0.000000
O O20 0.500000 0.941985 0.374932
#
# Coordination Sequence:
#
# PCOD8220692 Si02
#       8
#     8   8   8   8   8   8   8   8
#     4  10  20  38  66  92 113 148 198 247 298 358
#     4  10  20  36  61  86 111 154 203 244 284 336
#     4  11  21  39  60  89 126 150 188 247 304 355
#     4  10  22  40  60  83 117 158 202 246 289 344
#     4  10  22  41  63  89 117 151 196 249 301 355
#     4  11  23  37  57  87 123 154 190 241 303 359
#     4  12  24  38  56  83 122 165 204 242 285 346
#     4   9  19  35  58  85 113 151 195 239 288 347
#
# _framework density 18.425674999999998
#
# number of rings (size 3 to 8) (size 9 to 14) (size 15 to 20)
#    0.000    1.625    3.750    1.125    1.750    2.000 
#    2.250    1.875    0.000    0.000    0.000    3.500 
#    0.000    0.000    0.000    0.000    0.000    0.000 
#
# Total GULP energy -793794.804652 kJ/mol
# GULP energy per Si atom -12403.043823 kJ/mol
# Density = 1.838374 g / cm^3
# Si number density = 18.425675 Si / 1000 Ang^3
#
#
#
# Elastic Constant Matrix: (Units=GPa)
#
#
# Indices 1 2 3 4 5 6 
#
# 1 114.2983 46.2086 46.8240 0.0000 0.0000 0.0000
# 2 46.2086 108.1047 39.3325 0.0000 0.0000 0.0000
# 3 46.8240 39.3325 55.1823 0.0000 0.0000 0.0000
# 4 0.0000 0.0000 0.0000 23.6040 0.0000 0.0000
# 5 0.0000 0.0000 0.0000 0.0000 48.3071 0.0000
# 6 0.0000 0.0000 0.0000 0.0000 0.0000 9.9553
#
#
#
# Elastic Compliance Matrix: (Units=1/GPa)
#
#
# Indices 1 2 3 4 5 6 
#
# 1 0.013791 -0.002210 -0.010127 0.000000 0.000000 0.000000
# 2 -0.002210 0.012843 -0.007279 0.000000 0.000000 0.000000
# 3 -0.010127 -0.007279 0.031903 0.000000 0.000000 0.000000
# 4 0.000000 0.000000 0.000000 0.042366 0.000000 0.000000
# 5 0.000000 0.000000 0.000000 0.000000 0.020701 0.000000
# 6 0.000000 0.000000 0.000000 0.000000 0.000000 0.100449
#
#
# Mechanical properties :
#
#
# Convention : Reuss Voigt Hill
#
# Bulk Modulus (GPa) = 51.79898 60.25726 56.02812
# Shear Modulus (GPa) = 18.67618 26.05463 22.36540
#
# Velocity S-wave (km/s) = 3.18715 3.76445 3.48777
# Velocity P-wave (km/s) = 6.45890 7.18809 6.83323
#
# Compressibility (1/GPa) = 0.01930540
#
# Stress axis : x y z
#
# Youngs Moduli (GPa) = 72.50961 77.86064 31.34516
#
# Poissons Ratio (x) = 0.17211 0.31743
# Poissons Ratio (y) = 0.16028 0.22816
# Poissons Ratio (z) = 0.73429 0.56673
#
# Static dielectric constant tensor:
#      x y z
#    x 3.458400 0.000000 0.000000 
#    y 0.000000 3.598320 0.000000 
#    z 0.000000 0.000000 3.426130 
# 
# 
# High freq. dielectric constant tensor:
#      x y z
#    x 1.719010 0.000000 0.000000 
#    y 0.000000 1.715820 0.000000 
#    z 0.000000 0.000000 1.707110 
# 
# From -- ./inp_files/17104.got.cif
#   From: 2010.03.12/outbox.cif.g09.slc.cpg/sg53_9_cif.got.tgz:17104.got - 2010.04.16 14:36:59.
