data_PCOD8220701
_publ_section_title
;
Structure prediction by ZEFSAII (Michael W. Deem and Ramdas Pophale) SiO2 
 PCOD8220701
Probable space group: P M N A
;
_chemical_formula_sum "Si O2"
_cell_formula_units_Z 64
_cell_length_a 13.489929
_cell_length_b 12.613732
_cell_length_c 18.519845
_cell_angle_alpha 90.000000
_cell_angle_beta 90.000000
_cell_angle_gamma 90.000000
_cell_volume 3151.306251
_symmetry_space_group_name_H-M "P M N A"
_symmetry_group_IT_number 53
_symmetry_cell_setting 'orthorhombic'
loop_
_space_group_symop_operation_xyz
x,y,z
1/2-x,-y,1/2+z
x,-y,-z
1/2-x,y,1/2-z
-x,-y,-z
1/2+x,y,1/2-z
-x,y,z
1/2+x,-y,1/2+z
loop_
_atom_site_type_symbol
_atom_site_label
_atom_site_fract_x
_atom_site_fract_y
_atom_site_fract_z
Si Si1 0.386362 0.594232 0.295225
Si Si2 0.808755 0.537030 0.358098
Si Si3 0.113510 0.723175 0.444939
Si Si4 0.116786 0.083701 0.651678
Si Si5 0.616889 0.989161 0.583282
Si Si6 0.113396 0.692129 0.609801
Si Si7 0.383226 0.163808 0.695891
Si Si8 0.230495 0.121130 0.333132
O O1 0.500000 0.567728 0.317093
O O2 0.372854 0.576031 0.210214
O O3 0.308127 0.521759 0.338876
O O4 0.355878 0.713974 0.316081
O O5 0.820148 0.624173 0.420341
O O6 0.849406 0.427393 0.387644
O O7 0.150448 0.831936 0.408665
O O8 0.124913 0.738054 0.529944
O O9 0.000000 0.698861 0.423037
O O10 0.161620 0.124306 0.727948
O O11 0.000000 0.072398 0.654225
O O12 0.158472 0.968043 0.633135
O O13 0.500000 0.973150 0.590187
O O14 0.655652 0.092134 0.628915
O O15 0.648763 0.000000 0.500000
O O16 0.667976 0.886095 0.619932
O O17 0.180781 0.763738 0.661692
O O18 0.000000 0.697082 0.636482
O O19 0.500000 0.151242 0.700773
O O20 0.250000 0.097649 0.250000
#
# Coordination Sequence:
#
# PCOD8220701 Si02
#       8
#     8   8   8   8   8   8   8   8
#     4  10  21  35  59  95 127 159 210 272 321 364
#     4  11  22  37  65  90 124 166 213 259 324 380
#     4  10  21  39  66  95 122 155 200 264 333 382
#     4  10  20  36  61  93 125 154 196 255 320 377
#     4  10  23  41  61  88 126 171 214 254 304 376
#     4  11  26  44  61  89 127 166 210 259 316 389
#     4   9  17  34  58  89 125 157 196 256 312 361
#     4  12  26  39  62  88 124 169 211 250 316 371
#
# _framework density 20.309038999999999
#
# number of rings (size 3 to 8) (size 9 to 14) (size 15 to 20)
#    0.000    1.625    2.500    1.875    5.250    1.500 
#    0.000    2.500    0.000    1.500    0.000    0.000 
#    0.000    0.000    0.000    0.000    0.000    0.000 
#
# Total GULP energy -793737.183491 kJ/mol
# GULP energy per Si atom -12402.143492 kJ/mol
# Density = 2.026281 g / cm^3
# Si number density = 20.309039 Si / 1000 Ang^3
#
#
#
# Elastic Constant Matrix: (Units=GPa)
#
#
# Indices 1 2 3 4 5 6 
#
# 1 76.4209 17.5641 19.8117 0.0000 0.0000 0.0000
# 2 17.5641 90.0365 21.2678 0.0000 0.0000 0.0000
# 3 19.8117 21.2678 81.7495 0.0000 0.0000 0.0000
# 4 0.0000 0.0000 0.0000 29.5069 0.0000 0.0000
# 5 0.0000 0.0000 0.0000 0.0000 24.7072 0.0000
# 6 0.0000 0.0000 0.0000 0.0000 0.0000 34.4607
#
#
#
# Elastic Compliance Matrix: (Units=1/GPa)
#
#
# Indices 1 2 3 4 5 6 
#
# 1 0.014327 -0.002104 -0.002925 0.000000 0.000000 0.000000
# 2 -0.002104 0.012143 -0.002649 0.000000 0.000000 0.000000
# 3 -0.002925 -0.002649 0.013630 0.000000 0.000000 0.000000
# 4 0.000000 0.000000 0.000000 0.033890 0.000000 0.000000
# 5 0.000000 0.000000 0.000000 0.000000 0.040474 0.000000
# 6 0.000000 0.000000 0.000000 0.000000 0.000000 0.029019
#
#
# Mechanical properties :
#
#
# Convention : Reuss Voigt Hill
#
# Bulk Modulus (GPa) = 40.41284 40.61048 40.51166
# Shear Modulus (GPa) = 29.92441 30.37251 30.14846
#
# Velocity S-wave (km/s) = 3.84272 3.87139 3.85708
# Velocity P-wave (km/s) = 6.29530 6.32639 6.31086
#
# Compressibility (1/GPa) = 0.02474461
#
# Stress axis : x y z
#
# Youngs Moduli (GPa) = 69.79712 82.35315 73.36491
#
# Poissons Ratio (x) = 0.17328 0.21458
# Poissons Ratio (y) = 0.14686 0.19435
# Poissons Ratio (z) = 0.20414 0.21817
#
# Static dielectric constant tensor:
#      x y z
#    x 3.745870 0.000000 0.000000 
#    y 0.000000 3.543460 0.000000 
#    z 0.000000 0.000000 3.635410 
# 
# 
# High freq. dielectric constant tensor:
#      x y z
#    x 1.806130 0.000000 0.000000 
#    y 0.000000 1.781030 0.000000 
#    z 0.000000 0.000000 1.784690 
# 
# From -- ./inp_files/28573.got.cif
#   From: 2010.03.12/outbox.cif.g09.slc.cpg/sg53_15_cif.got.tgz:28573.got - 2010.04.16 14:36:59.
