data_PCOD8220379
_publ_section_title
;
Structure prediction by ZEFSAII (Michael W. Deem and Ramdas Pophale) SiO2 
 PCOD8220379
Probable space group: P M N A
;
_chemical_formula_sum "Si O2"
_cell_formula_units_Z 40
_cell_length_a 15.041462
_cell_length_b 14.742781
_cell_length_c 8.480275
_cell_angle_alpha 90.000000
_cell_angle_beta 90.000000
_cell_angle_gamma 90.000000
_cell_volume 1880.526254
_symmetry_space_group_name_H-M "P M N A"
_symmetry_group_IT_number 53
_symmetry_cell_setting 'orthorhombic'
loop_
_space_group_symop_operation_xyz
x,y,z
1/2-x,-y,1/2+z
x,-y,-z
1/2-x,y,1/2-z
-x,-y,-z
1/2+x,y,1/2-z
-x,y,z
1/2+x,-y,1/2+z
loop_
_atom_site_type_symbol
_atom_site_label
_atom_site_fract_x
_atom_site_fract_y
_atom_site_fract_z
Si Si1 0.902622 0.414567 0.420787
Si Si2 0.254609 0.099983 0.565085
Si Si3 0.602052 0.232302 0.936647
Si Si4 0.396936 0.243650 0.564957
Si Si5 0.828017 0.415651 0.115190
O O1 0.850321 0.500000 0.500000
O O2 0.857484 0.319725 0.471133
O O3 0.911947 0.428026 0.231847
O O4 0.000000 0.411170 0.498423
O O5 0.250000 0.093520 0.750000
O O6 0.164177 0.149414 0.507364
O O7 0.343548 0.153677 0.511000
O O8 0.259511 0.000000 0.500000
O O9 0.500000 0.209934 0.985167
O O10 0.609316 0.254015 0.752333
O O11 0.500000 0.237305 0.509377
O O12 0.344542 0.327650 0.489976
O O13 0.750000 0.405753 0.250000
O O14 0.814771 0.500000 0.000000
#
# Coordination Sequence:
#
# PCOD8220379 Si02
#       5
#     8   8   8   8   8
#     4  10  20  35  57  85 118 155 195 240 291 354
#     4  10  22  39  60  86 119 157 202 257 312 369
#     4   9  19  38  63  91 124 162 203 251 310 372
#     4  10  22  41  64  88 120 163 207 254 308 365
#     4  12  25  38  57  86 121 159 203 249 301 360
#
# _framework density 21.270641999999999
#
# number of rings (size 3 to 8) (size 9 to 14) (size 15 to 20)
#    0.000    1.800    0.000    3.600    0.000    8.800 
#    0.000    0.000    0.000    0.000    0.000    0.000 
#    0.000    0.000    0.000    0.000    0.000    0.000 
#
# Total GULP energy -495554.450202 kJ/mol
# GULP energy per Si atom -12388.861255 kJ/mol
# Density = 2.122223 g / cm^3
# Si number density = 21.270642 Si / 1000 Ang^3
#
#
#
# Elastic Constant Matrix: (Units=GPa)
#
#
# Indices 1 2 3 4 5 6 
#
# 1 139.9813 87.3693 37.9338 0.0000 0.0000 0.0000
# 2 87.3693 201.8829 55.1217 0.0000 0.0000 0.0000
# 3 37.9338 55.1217 63.9439 0.0000 0.0000 0.0000
# 4 0.0000 0.0000 0.0000 42.3150 0.0000 0.0000
# 5 0.0000 0.0000 0.0000 0.0000 19.5733 0.0000
# 6 0.0000 0.0000 0.0000 0.0000 0.0000 789.7575
#
#
#
# Elastic Compliance Matrix: (Units=1/GPa)
#
#
# Indices 1 2 3 4 5 6 
#
# 1 0.010192 -0.003610 -0.002935 0.000000 0.000000 0.000000
# 2 -0.003610 0.007756 -0.004545 0.000000 0.000000 0.000000
# 3 -0.002935 -0.004545 0.021298 0.000000 0.000000 0.000000
# 4 0.000000 0.000000 0.000000 0.023632 0.000000 0.000000
# 5 0.000000 0.000000 0.000000 0.000000 0.051090 0.000000
# 6 0.000000 0.000000 0.000000 0.000000 0.000000 0.001266
#
#
# Mechanical properties :
#
#
# Convention : Reuss Voigt Hill
#
# Bulk Modulus (GPa) = 58.59068 85.18418 71.88743
# Shear Modulus (GPa) = 34.94010 185.35472 110.14741
#
# Velocity S-wave (km/s) = 4.05735 9.34507 7.20390
# Velocity P-wave (km/s) = 7.03950 12.51300 10.15209
#
# Compressibility (1/GPa) = 0.01706756
#
# Stress axis : x y z
#
# Youngs Moduli (GPa) = 98.11641 128.92539 46.95360
#
# Poissons Ratio (x) = 0.46536 0.13780
# Poissons Ratio (y) = 0.35415 0.21340
# Poissons Ratio (z) = 0.28794 0.58597
#
# Static dielectric constant tensor:
#      x y z
#    x 4.407830 0.000000 0.000000 
#    y 0.000000 3.284570 0.000000 
#    z 0.000000 0.000000 4.009100 
# 
# 
# High freq. dielectric constant tensor:
#      x y z
#    x 1.854180 0.000000 0.000000 
#    y 0.000000 1.829300 0.000000 
#    z 0.000000 0.000000 1.831570 
# 
# From -- ./inp_files/8369.got.cif
#   From: 2010.03.12/outbox.cif.g09.slc.cpg/sg53_5_cif.got.tgz:8369.got - 2010.04.16 14:36:59.
