data_PCOD8220516
_publ_section_title
;
Structure prediction by ZEFSAII (Michael W. Deem and Ramdas Pophale) SiO2 
 PCOD8220516
Probable space group: P M N A
;
_chemical_formula_sum "Si O2"
_cell_formula_units_Z 64
_cell_length_a 8.730708
_cell_length_b 19.883754
_cell_length_c 20.084738
_cell_angle_alpha 90.000000
_cell_angle_beta 90.000000
_cell_angle_gamma 90.000000
_cell_volume 3486.695456
_symmetry_space_group_name_H-M "P M N A"
_symmetry_group_IT_number 53
_symmetry_cell_setting 'orthorhombic'
loop_
_space_group_symop_operation_xyz
x,y,z
1/2-x,-y,1/2+z
x,-y,-z
1/2-x,y,1/2-z
-x,-y,-z
1/2+x,y,1/2-z
-x,y,z
1/2+x,-y,1/2+z
loop_
_atom_site_type_symbol
_atom_site_label
_atom_site_fract_x
_atom_site_fract_y
_atom_site_fract_z
Si Si1 0.178743 0.306339 0.603247
Si Si2 0.820339 0.525227 0.930237
Si Si3 0.823478 0.330035 0.035237
Si Si4 0.819254 0.049608 0.819941
Si Si5 0.179931 0.906669 0.680196
Si Si6 0.318677 0.424557 0.679655
Si Si7 0.821334 0.832400 0.081688
Si Si8 0.824053 0.817537 0.929707
O O1 0.219109 0.332296 0.529824
O O2 0.265325 0.350673 0.657879
O O3 0.228299 0.229212 0.612950
O O4 0.000000 0.313026 0.615940
O O5 0.784339 0.604688 0.919945
O O6 0.750888 0.481130 0.870584
O O7 0.000000 0.511598 0.931651
O O8 0.748485 0.500000 0.000000
O O9 0.793829 0.262460 0.077303
O O10 0.000000 0.331889 0.010735
O O11 0.750000 0.074925 0.750000
O O12 0.774310 0.101018 0.878333
O O13 0.000000 0.042596 0.811837
O O14 0.750713 0.978004 0.840756
O O15 0.250000 0.881337 0.750000
O O16 0.214760 0.853236 0.622831
O O17 0.000000 0.914714 0.689106
O O18 0.250000 0.444004 0.750000
O O19 0.500000 0.425849 0.683664
O O20 0.000000 0.815533 0.088908
O O21 0.780120 0.842322 0.003932
O O22 0.000000 0.835393 0.913574
#
# Coordination Sequence:
#
# PCOD8220516 Si02
#       8
#     8   8   8   8   8   8   8   8
#     4  11  21  33  52  79 110 143 180 222 268 317
#     4   9  16  31  59  84 102 138 184 223 265 321
#     4   9  17  34  58  82 107 141 182 220 267 324
#     4  10  20  36  57  80 107 141 183 224 268 323
#     4  11  22  37  57  79 107 142 182 225 274 328
#     4  11  22  37  55  77 110 144 183 227 274 329
#     4   9  20  37  57  80 110 148 183 221 270 326
#     4   9  18  34  56  81 110 142 181 225 270 323
#
# _framework density 18.355488999999999
#
# number of rings (size 3 to 8) (size 9 to 14) (size 15 to 20)
#    0.000    2.125    1.250    4.500    0.000    4.000 
#    0.000    6.250    0.000    1.500    0.000    0.000 
#    0.000    0.000    0.000    0.000    0.000    0.000 
#
# Total GULP energy -793652.715820 kJ/mol
# GULP energy per Si atom -12400.823685 kJ/mol
# Density = 1.831371 g / cm^3
# Si number density = 18.355489 Si / 1000 Ang^3
#
#
#
# Elastic Constant Matrix: (Units=GPa)
#
#
# Indices 1 2 3 4 5 6 
#
# 1 82.2232 43.4002 41.0815 0.0000 0.0000 0.0000
# 2 43.4002 125.2447 79.6764 0.0000 0.0000 0.0000
# 3 41.0815 79.6764 120.0953 0.0000 0.0000 0.0000
# 4 0.0000 0.0000 0.0000 29.2628 0.0000 0.0000
# 5 0.0000 0.0000 0.0000 0.0000 29.9781 0.0000
# 6 0.0000 0.0000 0.0000 0.0000 0.0000 18.1013
#
#
#
# Elastic Compliance Matrix: (Units=1/GPa)
#
#
# Indices 1 2 3 4 5 6 
#
# 1 0.015487 -0.003454 -0.003006 0.000000 0.000000 0.000000
# 2 -0.003454 0.014586 -0.008495 0.000000 0.000000 0.000000
# 3 -0.003006 -0.008495 0.014991 0.000000 0.000000 0.000000
# 4 0.000000 0.000000 0.000000 0.034173 0.000000 0.000000
# 5 0.000000 0.000000 0.000000 0.000000 0.033358 0.000000
# 6 0.000000 0.000000 0.000000 0.000000 0.000000 0.055245
#
#
# Mechanical properties :
#
#
# Convention : Reuss Voigt Hill
#
# Bulk Modulus (GPa) = 65.99368 72.87548 69.43458
# Shear Modulus (GPa) = 24.65465 26.36210 25.50838
#
# Velocity S-wave (km/s) = 3.66891 3.79383 3.73189
# Velocity P-wave (km/s) = 7.34704 7.67980 7.51526
#
# Compressibility (1/GPa) = 0.01515297
#
# Stress axis : x y z
#
# Youngs Moduli (GPa) = 64.56919 68.56031 66.70656
#
# Poissons Ratio (x) = 0.23683 0.20052
# Poissons Ratio (y) = 0.22305 0.56668
# Poissons Ratio (z) = 0.19410 0.58243
#
# Static dielectric constant tensor:
#      x y z
#    x 3.238540 0.000000 0.000000 
#    y 0.000000 3.529710 0.000000 
#    z 0.000000 0.000000 3.336670 
# 
# 
# High freq. dielectric constant tensor:
#      x y z
#    x 1.702210 0.000000 0.000000 
#    y 0.000000 1.719630 0.000000 
#    z 0.000000 0.000000 1.699000 
# 
# From -- ./inp_files/26756.got.cif
#   From: 2010.03.12/outbox.cif.g09.slc.cpg/sg53_14_cif.got.tgz:26756.got - 2010.04.16 14:36:59.
