data_PCOD8220340
_publ_section_title
;
Structure prediction by ZEFSAII (Michael W. Deem and Ramdas Pophale) SiO2 
 PCOD8220340
Probable space group: P M N A
;
_chemical_formula_sum "Si O2"
_cell_formula_units_Z 64
_cell_length_a 15.585834
_cell_length_b 24.940851
_cell_length_c 7.904855
_cell_angle_alpha 90.000000
_cell_angle_beta 90.000000
_cell_angle_gamma 90.000000
_cell_volume 3072.806567
_symmetry_space_group_name_H-M "P M N A"
_symmetry_group_IT_number 53
_symmetry_cell_setting 'orthorhombic'
loop_
_space_group_symop_operation_xyz
x,y,z
1/2-x,-y,1/2+z
x,-y,-z
1/2-x,y,1/2-z
-x,-y,-z
1/2+x,y,1/2-z
-x,y,z
1/2+x,-y,1/2+z
loop_
_atom_site_type_symbol
_atom_site_label
_atom_site_fract_x
_atom_site_fract_y
_atom_site_fract_z
Si Si1 0.100718 0.824732 0.022516
Si Si2 0.402917 0.299170 0.534000
Si Si3 0.672228 0.463277 0.651069
Si Si4 0.245233 0.629891 0.934755
Si Si5 0.897700 0.104161 0.672188
Si Si6 0.594449 0.626153 0.145556
Si Si7 0.596295 0.119149 0.195812
Si Si8 0.155898 0.990915 0.802148
O O1 0.141896 0.845060 0.843564
O O2 0.000000 0.836843 0.016791
O O3 0.119736 0.762794 0.056087
O O4 0.140220 0.858116 0.179493
O O5 0.500000 0.306746 0.456916
O O6 0.326022 0.322938 0.419335
O O7 0.398697 0.328605 0.712576
O O8 0.630893 0.500000 0.500000
O O9 0.750000 0.494562 0.750000
O O10 0.717295 0.412944 0.569093
O O11 0.605006 0.435373 0.779643
O O12 0.250000 0.604077 0.750000
O O13 0.340059 0.645648 0.000012
O O14 0.860512 0.125063 0.490666
O O15 0.000000 0.104677 0.669077
O O16 0.866104 0.043930 0.698088
O O17 0.500000 0.626585 0.063244
O O18 0.500000 0.140567 0.178037
O O19 0.592926 0.056980 0.250303
O O20 0.250000 0.971472 0.750000
O O21 0.145595 0.000000 0.000000
#
# Coordination Sequence:
#
# PCOD8220340 Si02
#       8
#     8   8   8   8   8   8   8   8
#     4   9  18  35  58  81 108 140 177 227 281 334
#     4   9  18  36  59  82 111 148 190 240 295 347
#     4   9  17  31  55  84 117 158 198 242 294 344
#     4  10  20  35  56  83 118 155 199 239 289 353
#     4  10  20  36  58  83 106 137 177 217 270 333
#     4   9  19  36  58  83 116 157 202 248 291 346
#     4  10  20  36  58  82 108 136 175 219 265 335
#     4  12  23  36  54  75 108 141 175 218 268 326
#
# _framework density 20.827864999999999
#
# number of rings (size 3 to 8) (size 9 to 14) (size 15 to 20)
#    0.000    2.250    1.250    3.000    0.000    2.250 
#    2.250    1.875    0.000   12.750    0.000    0.000 
#    0.000    0.000    0.000    0.000    0.000    0.000 
#
# Total GULP energy -792934.206356 kJ/mol
# GULP energy per Si atom -12389.596974 kJ/mol
# Density = 2.078046 g / cm^3
# Si number density = 20.827865 Si / 1000 Ang^3
#
#
#
# Elastic Constant Matrix: (Units=GPa)
#
#
# Indices 1 2 3 4 5 6 
#
# 1 81.6454 19.3774 26.0625 0.0000 0.0000 0.0000
# 2 19.3774 91.6768 28.0870 0.0000 0.0000 0.0000
# 3 26.0625 28.0870 129.7622 0.0000 0.0000 0.0000
# 4 0.0000 0.0000 0.0000 2.9348 0.0000 0.0000
# 5 0.0000 0.0000 0.0000 0.0000 19.4773 0.0000
# 6 0.0000 0.0000 0.0000 0.0000 0.0000 -19.1478
#
#
#
# Elastic Compliance Matrix: (Units=1/GPa)
#
#
# Indices 1 2 3 4 5 6 
#
# 1 0.013476 -0.002163 -0.002239 0.000000 0.000000 0.000000
# 2 -0.002163 0.012030 -0.002169 0.000000 0.000000 0.000000
# 3 -0.002239 -0.002169 0.008626 0.000000 0.000000 0.000000
# 4 0.000000 0.000000 0.000000 0.340733 0.000000 0.000000
# 5 0.000000 0.000000 0.000000 0.000000 0.051342 0.000000
# 6 0.000000 0.000000 0.000000 0.000000 0.000000 -0.052225
#
#
# Mechanical properties :
#
#
# Convention : Reuss Voigt Hill
#
# Bulk Modulus (GPa) = 47.64161 50.01536 48.82848
# Shear Modulus (GPa) = 12.68654 15.95670 14.32162
#
# Velocity S-wave (km/s) = 2.47070 2.77090 2.62509
# Velocity P-wave (km/s) = 5.57340 5.85687 5.71689
#
# Compressibility (1/GPa) = 0.02099006
#
# Stress axis : x y z
#
# Youngs Moduli (GPa) = 74.20649 83.12800 115.93410
#
# Poissons Ratio (x) = 0.17977 0.25952
# Poissons Ratio (y) = 0.16047 0.25152
# Poissons Ratio (z) = 0.16611 0.18034
#
# Static dielectric constant tensor:
#      x y z
#    x 3.926630 0.000000 0.000000 
#    y 0.000000 3.624050 0.000000 
#    z 0.000000 0.000000 2.569790 
# 
# 
# High freq. dielectric constant tensor:
#      x y z
#    x 1.796760 0.000000 0.000000 
#    y 0.000000 1.798450 0.000000 
#    z 0.000000 0.000000 1.820090 
# 
# From -- ./inp_files/8958.got.cif
#   From: 2010.03.12/outbox.cif.g09.slc.cpg/sg53_5_cif.got.tgz:8958.got - 2010.04.16 14:36:59.
