data_PCOD8220490
_publ_section_title
;
Structure prediction by ZEFSAII (Michael W. Deem and Ramdas Pophale) SiO2 
 PCOD8220490
Probable space group: P M N A
;
_chemical_formula_sum "Si O2"
_cell_formula_units_Z 48
_cell_length_a 8.584137
_cell_length_b 30.521245
_cell_length_c 9.404136
_cell_angle_alpha 90.000000
_cell_angle_beta 90.000000
_cell_angle_gamma 90.000000
_cell_volume 2463.869982
_symmetry_space_group_name_H-M "P M N A"
_symmetry_group_IT_number 53
_symmetry_cell_setting 'orthorhombic'
loop_
_space_group_symop_operation_xyz
x,y,z
1/2-x,-y,1/2+z
x,-y,-z
1/2-x,y,1/2-z
-x,-y,-z
1/2+x,y,1/2-z
-x,y,z
1/2+x,-y,1/2+z
loop_
_atom_site_type_symbol
_atom_site_label
_atom_site_fract_x
_atom_site_fract_y
_atom_site_fract_z
Si Si1 0.184191 0.540956 0.591608
Si Si2 0.318056 0.864701 0.405961
Si Si3 0.815530 0.623512 0.406893
Si Si4 0.182674 0.207884 0.398997
Si Si5 0.184072 0.301510 0.095669
Si Si6 0.319574 0.962105 0.403654
O O1 0.247595 0.500000 0.500000
O O2 0.250000 0.539968 0.750000
O O3 0.240414 0.584427 0.509924
O O4 0.000000 0.539108 0.603594
O O5 0.250000 0.863478 0.250000
O O6 0.500000 0.851808 0.407609
O O7 0.216166 0.830356 0.491524
O O8 0.291713 0.913585 0.469464
O O9 0.750000 0.615491 0.250000
O O10 0.750397 0.668240 0.471498
O O11 0.000000 0.626023 0.397340
O O12 0.250000 0.191470 0.250000
O O13 0.267361 0.252426 0.446108
O O14 0.000000 0.217236 0.386641
O O15 0.250000 0.315174 0.250000
O O16 0.000000 0.305774 0.101346
O O17 0.250000 0.965784 0.250000
O O18 0.500000 0.971786 0.387101
O O19 0.241445 0.000000 0.500000
#
# Coordination Sequence:
#
# PCOD8220490 Si02
#       6
#     8   8   8   8   8   8
#     4  10  22  39  60  87 118 153 193 236 283 336
#     4  10  20  36  56  80 111 146 185 228 277 331
#     4  11  23  39  59  86 118 152 193 237 284 336
#     4  11  22  38  59  84 113 146 186 230 279 333
#     4  11  22  39  61  85 114 148 187 231 281 334
#     4   9  19  35  54  78 108 142 181 225 272 325
#
# _framework density 19.481548
#
# number of rings (size 3 to 8) (size 9 to 14) (size 15 to 20)
#    0.000    1.667    0.000    6.000    0.000    5.333 
#    0.000    5.000    0.000    0.000    0.000    0.000 
#    0.000    0.000    0.000    0.000    0.000    0.000 
#
# Total GULP energy -595263.223868 kJ/mol
# GULP energy per Si atom -12401.317164 kJ/mol
# Density = 1.943721 g / cm^3
# Si number density = 19.481548 Si / 1000 Ang^3
#
#
#
# Elastic Constant Matrix: (Units=GPa)
#
#
# Indices 1 2 3 4 5 6 
#
# 1 79.6216 31.4941 37.4231 0.0000 0.0000 0.0000
# 2 31.4941 112.2911 70.1456 0.0000 0.0000 0.0000
# 3 37.4231 70.1456 120.5867 0.0000 0.0000 0.0000
# 4 0.0000 0.0000 0.0000 47.8586 0.0000 0.0000
# 5 0.0000 0.0000 0.0000 0.0000 36.1686 0.0000
# 6 0.0000 0.0000 0.0000 0.0000 0.0000 29.8454
#
#
#
# Elastic Compliance Matrix: (Units=1/GPa)
#
#
# Indices 1 2 3 4 5 6 
#
# 1 0.014996 -0.002040 -0.003467 0.000000 0.000000 0.000000
# 2 -0.002040 0.014266 -0.007665 0.000000 0.000000 0.000000
# 3 -0.003467 -0.007665 0.013828 0.000000 0.000000 0.000000
# 4 0.000000 0.000000 0.000000 0.020895 0.000000 0.000000
# 5 0.000000 0.000000 0.000000 0.000000 0.027648 0.000000
# 6 0.000000 0.000000 0.000000 0.000000 0.000000 0.033506
#
#
# Mechanical properties :
#
#
# Convention : Reuss Voigt Hill
#
# Bulk Modulus (GPa) = 59.72134 65.62501 62.67318
# Shear Modulus (GPa) = 31.83375 34.33693 33.08534
#
# Velocity S-wave (km/s) = 4.04672 4.20281 4.12550
# Velocity P-wave (km/s) = 7.24958 7.57036 7.41171
#
# Compressibility (1/GPa) = 0.01674443
#
# Stress axis : x y z
#
# Youngs Moduli (GPa) = 66.68466 70.09655 72.31782
#
# Poissons Ratio (x) = 0.14300 0.25074
# Poissons Ratio (y) = 0.13604 0.55435
# Poissons Ratio (z) = 0.23121 0.53732
#
# Static dielectric constant tensor:
#      x y z
#    x 3.618590 0.000000 0.000000 
#    y 0.000000 3.879550 0.000000 
#    z 0.000000 0.000000 3.528600 
# 
# 
# High freq. dielectric constant tensor:
#      x y z
#    x 1.766920 0.000000 0.000000 
#    y 0.000000 1.774150 0.000000 
#    z 0.000000 0.000000 1.758480 
# 
# From -- ./inp_files/6724.got.cif
#   From: 2010.03.12/outbox.cif.g09.slc.cpg/sg53_4_cif.got.tgz:6724.got - 2010.04.16 14:36:59.
