data_PCOD8220592
_publ_section_title
;
Structure prediction by ZEFSAII (Michael W. Deem and Ramdas Pophale) SiO2 
 PCOD8220592
Probable space group: P M N A
;
_chemical_formula_sum "Si O2"
_cell_formula_units_Z 48
_cell_length_a 8.595044
_cell_length_b 11.750367
_cell_length_c 25.284543
_cell_angle_alpha 90.000000
_cell_angle_beta 90.000000
_cell_angle_gamma 90.000000
_cell_volume 2553.610432
_symmetry_space_group_name_H-M "P M N A"
_symmetry_group_IT_number 53
_symmetry_cell_setting 'orthorhombic'
loop_
_space_group_symop_operation_xyz
x,y,z
1/2-x,-y,1/2+z
x,-y,-z
1/2-x,y,1/2-z
-x,-y,-z
1/2+x,y,1/2-z
-x,y,z
1/2+x,-y,1/2+z
loop_
_atom_site_type_symbol
_atom_site_label
_atom_site_fract_x
_atom_site_fract_y
_atom_site_fract_z
Si Si1 0.183154 0.265012 0.601235
Si Si2 0.183133 0.878203 0.192879
Si Si3 0.682524 0.881142 0.806540
Si Si4 0.317970 0.492981 0.560978
Si Si5 0.317205 0.723432 0.903129
Si Si6 0.315267 0.126571 0.999331
O O1 0.267568 0.221905 0.653666
O O2 0.223622 0.395771 0.591206
O O3 0.247511 0.191681 0.552079
O O4 0.000000 0.250625 0.608549
O O5 0.250000 0.847406 0.250000
O O6 0.000000 0.885474 0.196888
O O7 0.246452 0.000107 0.172896
O O8 0.750000 0.844713 0.750000
O O9 0.500000 0.900274 0.801591
O O10 0.722964 0.780760 0.847179
O O11 0.261678 0.500000 0.500000
O O12 0.500000 0.466314 0.564006
O O13 0.279661 0.608251 0.592000
O O14 0.500000 0.697194 0.908999
O O15 0.258006 0.808175 0.948698
O O16 0.500000 0.120986 0.998260
O O17 0.243809 0.000000 0.000000
#
# Coordination Sequence:
#
# PCOD8220592 Si02
#       6
#     8   8   8   8   8   8
#     4  11  21  36  60  84 113 150 194 239 285 341
#     4  11  22  38  60  86 119 153 191 234 286 343
#     4  10  20  36  60  87 117 151 192 236 284 340
#     4  11  23  38  56  81 117 154 191 238 293 347
#     4  10  20  36  58  83 111 150 198 238 281 343
#     4   9  17  30  52  82 112 141 180 231 282 337
#
# _framework density 18.796916
#
# number of rings (size 3 to 8) (size 9 to 14) (size 15 to 20)
#    0.000    1.667    1.667    5.000    0.000    4.667 
#    0.000    0.833    0.000    4.500    0.000    0.000 
#    0.000    0.000    0.000    0.000    0.000    0.000 
#
# Total GULP energy -595415.854933 kJ/mol
# GULP energy per Si atom -12404.496978 kJ/mol
# Density = 1.875413 g / cm^3
# Si number density = 18.796916 Si / 1000 Ang^3
#
#
#
# Elastic Constant Matrix: (Units=GPa)
#
#
# Indices 1 2 3 4 5 6 
#
# 1 81.7179 31.2084 43.8504 0.0000 0.0000 0.0000
# 2 31.2084 133.5637 65.3358 0.0000 0.0000 0.0000
# 3 43.8504 65.3358 116.8959 0.0000 0.0000 0.0000
# 4 0.0000 0.0000 0.0000 33.1212 0.0000 0.0000
# 5 0.0000 0.0000 0.0000 0.0000 24.0207 0.0000
# 6 0.0000 0.0000 0.0000 0.0000 0.0000 27.5972
#
#
#
# Elastic Compliance Matrix: (Units=1/GPa)
#
#
# Indices 1 2 3 4 5 6 
#
# 1 0.015431 -0.001065 -0.005193 0.000000 0.000000 0.000000
# 2 -0.001065 0.010378 -0.005401 0.000000 0.000000 0.000000
# 3 -0.005193 -0.005401 0.013521 0.000000 0.000000 0.000000
# 4 0.000000 0.000000 0.000000 0.030192 0.000000 0.000000
# 5 0.000000 0.000000 0.000000 0.000000 0.041631 0.000000
# 6 0.000000 0.000000 0.000000 0.000000 0.000000 0.036236
#
#
# Mechanical properties :
#
#
# Convention : Reuss Voigt Hill
#
# Bulk Modulus (GPa) = 62.45449 68.10738 65.28093
# Shear Modulus (GPa) = 28.40201 29.73334 29.06768
#
# Velocity S-wave (km/s) = 3.89137 3.98153 3.93670
# Velocity P-wave (km/s) = 7.31357 7.57949 7.44772
#
# Compressibility (1/GPa) = 0.01601166
#
# Stress axis : x y z
#
# Youngs Moduli (GPa) = 64.80615 96.35844 73.95735
#
# Poissons Ratio (x) = 0.10264 0.38406
# Poissons Ratio (y) = 0.06903 0.39943
# Poissons Ratio (z) = 0.33654 0.52042
#
# Static dielectric constant tensor:
#      x y z
#    x 3.305580 0.000000 0.000000 
#    y 0.000000 3.453290 0.000000 
#    z 0.000000 0.000000 3.544060 
# 
# 
# High freq. dielectric constant tensor:
#      x y z
#    x 1.723740 0.000000 0.000000 
#    y 0.000000 1.732150 0.000000 
#    z 0.000000 0.000000 1.732370 
# 
# From -- ./inp_files/33873.got.cif
#   From: 2010.03.12/outbox.cif.g09.slc.cpg/sg53_17_cif.got.tgz:33873.got - 2010.04.16 14:36:59.
