data_PCOD8220407
_publ_section_title
;
Structure prediction by ZEFSAII (Michael W. Deem and Ramdas Pophale) SiO2 
 PCOD8220407
Probable space group: P M N A
;
_chemical_formula_sum "Si O2"
_cell_formula_units_Z 64
_cell_length_a 9.244476
_cell_length_b 12.853461
_cell_length_c 27.813308
_cell_angle_alpha 90.000000
_cell_angle_beta 90.000000
_cell_angle_gamma 90.000000
_cell_volume 3304.874929
_symmetry_space_group_name_H-M "P M N A"
_symmetry_group_IT_number 53
_symmetry_cell_setting 'orthorhombic'
loop_
_space_group_symop_operation_xyz
x,y,z
1/2-x,-y,1/2+z
x,-y,-z
1/2-x,y,1/2-z
-x,-y,-z
1/2+x,y,1/2-z
-x,y,z
1/2+x,-y,1/2+z
loop_
_atom_site_type_symbol
_atom_site_label
_atom_site_fract_x
_atom_site_fract_y
_atom_site_fract_z
Si Si1 0.668978 0.239211 0.799818
Si Si2 0.334790 0.360367 0.360388
Si Si3 0.670641 0.435682 0.861288
Si Si4 0.665809 0.943671 0.951887
Si Si5 0.166822 0.737930 0.959952
Si Si6 0.668651 0.398021 0.969671
Si Si7 0.165210 0.025208 0.650592
Si Si8 0.171595 0.840260 0.799939
O O1 0.750000 0.226973 0.750000
O O2 0.500000 0.246173 0.788854
O O3 0.722906 0.342556 0.827056
O O4 0.705952 0.141303 0.833437
O O5 0.500000 0.385273 0.347716
O O6 0.240754 0.457611 0.342425
O O7 0.312922 0.345503 0.417377
O O8 0.284246 0.256233 0.333491
O O9 0.500000 0.450615 0.860016
O O10 0.722947 0.411750 0.915333
O O11 0.500000 0.907219 0.957669
O O12 0.764529 0.844725 0.941903
O O13 0.684403 0.021399 0.906948
O O14 0.720390 0.000000 0.000000
O O15 0.000000 0.757227 0.971749
O O16 0.245372 0.698480 0.007867
O O17 0.500000 0.370520 0.971747
O O18 0.705595 0.500000 0.000000
O O19 0.272661 0.946269 0.676543
O O20 0.000000 0.997434 0.665090
O O21 0.250000 0.821146 0.750000
O O22 0.000000 0.849301 0.792767
#
# Coordination Sequence:
#
# PCOD8220407 Si02
#       8
#     8   8   8   8   8   8   8   8
#     4  10  23  42  62  86 117 154 199 251 302 349
#     4  10  22  39  58  84 122 158 191 239 298 357
#     4  10  22  39  62  88 118 155 201 253 295 348
#     4  10  22  38  61  90 121 159 197 238 290 354
#     4  11  22  37  57  84 122 160 193 239 294 354
#     4  10  20  35  58  87 115 151 198 242 286 344
#     4  10  21  39  63  90 119 154 196 243 295 353
#     4  11  23  40  61  88 118 151 193 246 301 356
#
# _framework density 19.365331000000001
#
# number of rings (size 3 to 8) (size 9 to 14) (size 15 to 20)
#    0.000    1.750    2.500    1.125    1.750    5.000 
#    0.000    2.500    0.000    0.000    0.000    0.000 
#    0.000    0.000    0.000    0.000    0.000    0.000 
#
# Total GULP energy -793895.168333 kJ/mol
# GULP energy per Si atom -12404.612005 kJ/mol
# Density = 1.932126 g / cm^3
# Si number density = 19.365331 Si / 1000 Ang^3
#
#
#
# Elastic Constant Matrix: (Units=GPa)
#
#
# Indices 1 2 3 4 5 6 
#
# 1 65.5195 52.3454 37.7735 0.0000 0.0000 0.0000
# 2 52.3454 123.3316 33.7537 0.0000 0.0000 0.0000
# 3 37.7735 33.7537 89.6214 0.0000 0.0000 0.0000
# 4 0.0000 0.0000 0.0000 31.6001 0.0000 0.0000
# 5 0.0000 0.0000 0.0000 0.0000 27.7185 0.0000
# 6 0.0000 0.0000 0.0000 0.0000 0.0000 30.4990
#
#
#
# Elastic Compliance Matrix: (Units=1/GPa)
#
#
# Indices 1 2 3 4 5 6 
#
# 1 0.027425 -0.009451 -0.008000 0.000000 0.000000 0.000000
# 2 -0.009451 0.012297 -0.000648 0.000000 0.000000 0.000000
# 3 -0.008000 -0.000648 0.014774 0.000000 0.000000 0.000000
# 4 0.000000 0.000000 0.000000 0.031645 0.000000 0.000000
# 5 0.000000 0.000000 0.000000 0.000000 0.036077 0.000000
# 6 0.000000 0.000000 0.000000 0.000000 0.000000 0.032788
#
#
# Mechanical properties :
#
#
# Convention : Reuss Voigt Hill
#
# Bulk Modulus (GPa) = 54.64821 58.46863 56.55842
# Shear Modulus (GPa) = 25.34185 28.27018 26.80601
#
# Velocity S-wave (km/s) = 3.62141 3.82492 3.72456
# Velocity P-wave (km/s) = 6.76513 7.05441 6.91128
#
# Compressibility (1/GPa) = 0.01829886
#
# Stress axis : x y z
#
# Youngs Moduli (GPa) = 36.46313 81.32297 67.68730
#
# Poissons Ratio (x) = 0.76855 0.54148
# Poissons Ratio (y) = 0.34460 0.04386
# Poissons Ratio (z) = 0.29169 0.05270
#
# Static dielectric constant tensor:
#      x y z
#    x 3.447020 0.000000 0.000000 
#    y 0.000000 3.505570 0.000000 
#    z 0.000000 0.000000 3.621440 
# 
# 
# High freq. dielectric constant tensor:
#      x y z
#    x 1.747920 0.000000 0.000000 
#    y 0.000000 1.757420 0.000000 
#    z 0.000000 0.000000 1.759300 
# 
# From -- ./inp_files/38166.got.cif
#   From: 2010.03.12/outbox.cif.g09.slc.cpg/sg53_20_cif.got.tgz:38166.got - 2010.04.16 14:36:59.
