data_PCOD8220420
_publ_section_title
;
Structure prediction by ZEFSAII (Michael W. Deem and Ramdas Pophale) SiO2 
 PCOD8220420
Probable space group: P M N A
;
_chemical_formula_sum "Si O2"
_cell_formula_units_Z 36
_cell_length_a 7.528793
_cell_length_b 8.428951
_cell_length_c 30.816120
_cell_angle_alpha 90.000000
_cell_angle_beta 90.000000
_cell_angle_gamma 90.000000
_cell_volume 1955.585653
_symmetry_space_group_name_H-M "P M N A"
_symmetry_group_IT_number 53
_symmetry_cell_setting 'orthorhombic'
loop_
_space_group_symop_operation_xyz
x,y,z
1/2-x,-y,1/2+z
x,-y,-z
1/2-x,y,1/2-z
-x,-y,-z
1/2+x,y,1/2-z
-x,y,z
1/2+x,-y,1/2+z
loop_
_atom_site_type_symbol
_atom_site_label
_atom_site_fract_x
_atom_site_fract_y
_atom_site_fract_z
Si Si1 0.000000 0.109232 0.120572
Si Si2 0.500000 0.805996 0.427934
Si Si3 0.203172 0.407486 0.543517
Si Si4 0.000000 0.195153 0.831757
Si Si5 0.795308 0.405449 0.702322
Si Si6 0.795817 0.366956 0.375771
O O1 0.177627 0.211314 0.120462
O O2 0.000000 0.997635 0.077200
O O3 0.000000 0.996499 0.163529
O O4 0.324540 0.748947 0.453440
O O5 0.500000 0.727114 0.379844
O O6 0.252608 0.500000 0.500000
O O7 0.244899 0.521075 0.583685
O O8 0.000000 0.349682 0.543445
O O9 0.823638 0.249988 0.806366
O O10 0.750000 0.472141 0.750000
O O11 0.746250 0.543477 0.668625
O O12 0.000000 0.354372 0.697577
O O13 0.000000 0.312060 0.375769
#
# Coordination Sequence:
#
# PCOD8220420 Si02
#       6
#     4   4   8   4   8   8
#     4  10  22  36  57  78 122 156 174 230 281 347
#     4  10  20  35  59  79 111 157 183 232 275 337
#     4  10  20  36  60  87 112 144 195 245 277 320
#     4  10  21  37  55  86 112 148 184 232 280 331
#     4  11  21  36  64  85 106 143 193 240 276 325
#     4  10  20  36  57  83 111 150 187 228 282 332
#
# _framework density 18.408808000000001
#
# number of rings (size 3 to 8) (size 9 to 14) (size 15 to 20)
#    0.667    1.111    3.333    1.667    0.000    1.778 
#    0.000    3.333    0.000    4.000    0.000    0.000 
#    0.000    0.000    0.000    0.000    0.000    0.000 
#
# Total GULP energy -446349.491031 kJ/mol
# GULP energy per Si atom -12398.596973 kJ/mol
# Density = 1.836691 g / cm^3
# Si number density = 18.408808 Si / 1000 Ang^3
#
#
#
# Elastic Constant Matrix: (Units=GPa)
#
#
# Indices 1 2 3 4 5 6 
#
# 1 115.6535 52.1753 13.3746 0.0000 0.0000 0.0000
# 2 52.1753 80.5062 2.3202 0.0000 0.0000 0.0000
# 3 13.3746 2.3202 77.0641 0.0000 0.0000 0.0000
# 4 0.0000 0.0000 0.0000 7.3934 0.0000 0.0000
# 5 0.0000 0.0000 0.0000 0.0000 26.8896 0.0000
# 6 0.0000 0.0000 0.0000 0.0000 0.0000 23.4703
#
#
#
# Elastic Compliance Matrix: (Units=1/GPa)
#
#
# Indices 1 2 3 4 5 6 
#
# 1 0.012499 -0.008045 -0.001927 0.000000 0.000000 0.000000
# 2 -0.008045 0.017610 0.000866 0.000000 0.000000 0.000000
# 3 -0.001927 0.000866 0.013285 0.000000 0.000000 0.000000
# 4 0.000000 0.000000 0.000000 0.135255 0.000000 0.000000
# 5 0.000000 0.000000 0.000000 0.000000 0.037189 0.000000
# 6 0.000000 0.000000 0.000000 0.000000 0.000000 0.042607
#
#
# Mechanical properties :
#
#
# Convention : Reuss Voigt Hill
#
# Bulk Modulus (GPa) = 39.71094 45.44043 42.57569
# Shear Modulus (GPa) = 17.54079 25.24091 21.39085
#
# Velocity S-wave (km/s) = 3.09017 3.70690 3.41250
# Velocity P-wave (km/s) = 5.86095 6.56194 6.22133
#
# Compressibility (1/GPa) = 0.02518198
#
# Stress axis : x y z
#
# Youngs Moduli (GPa) = 80.00893 56.78547 75.27535
#
# Poissons Ratio (x) = 0.45682 0.14505
# Poissons Ratio (y) = 0.64365 -0.06519
# Poissons Ratio (z) = 0.15417 -0.04918
#
# Static dielectric constant tensor:
#      x y z
#    x 3.511390 0.000000 0.000000 
#    y 0.000000 3.018180 0.000000 
#    z 0.000000 0.000000 3.519060 
# 
# 
# High freq. dielectric constant tensor:
#      x y z
#    x 1.732550 0.000000 0.000000 
#    y 0.000000 1.682030 0.000000 
#    z 0.000000 0.000000 1.717890 
# 
# From -- ./inp_files/37504.got.cif
#   From: 2010.03.12/outbox.cif.g09.slc.cpg/sg53_19_cif.got.tgz:37504.got - 2010.04.16 14:36:59.
