data_PCOD8220565
_publ_section_title
;
Structure prediction by ZEFSAII (Michael W. Deem and Ramdas Pophale) SiO2 
 PCOD8220565
Probable space group: P M N A
;
_chemical_formula_sum "Si O2"
_cell_formula_units_Z 48
_cell_length_a 9.935693
_cell_length_b 29.137800
_cell_length_c 9.043282
_cell_angle_alpha 90.000000
_cell_angle_beta 90.000000
_cell_angle_gamma 90.000000
_cell_volume 2618.068442
_symmetry_space_group_name_H-M "P M N A"
_symmetry_group_IT_number 53
_symmetry_cell_setting 'orthorhombic'
loop_
_space_group_symop_operation_xyz
x,y,z
1/2-x,-y,1/2+z
x,-y,-z
1/2-x,y,1/2-z
-x,-y,-z
1/2+x,y,1/2-z
-x,y,z
1/2+x,-y,1/2+z
loop_
_atom_site_type_symbol
_atom_site_label
_atom_site_fract_x
_atom_site_fract_y
_atom_site_fract_z
Si Si1 0.655315 0.641404 0.112693
Si Si2 0.651036 0.462539 0.877570
Si Si3 0.500000 0.953038 0.915837
Si Si4 0.658569 0.803984 0.106015
Si Si5 0.254222 0.109037 0.076524
Si Si6 0.846272 0.719141 0.611084
Si Si7 0.500000 0.950199 0.571667
O O1 0.750000 0.655023 0.250000
O O2 0.500000 0.650008 0.159869
O O3 0.681055 0.588812 0.063895
O O4 0.692691 0.671835 0.970611
O O5 0.750000 0.476978 0.750000
O O6 0.500000 0.465106 0.815362
O O7 0.676842 0.500000 0.000000
O O8 0.372416 0.924776 0.965893
O O9 0.500000 0.962034 0.742963
O O10 0.500000 0.000000 0.000000
O O11 0.750000 0.796446 0.250000
O O12 0.500000 0.812956 0.143941
O O13 0.726035 0.845122 0.015654
O O14 0.673398 0.759303 0.006440
O O15 0.250000 0.121911 0.250000
O O16 0.124045 0.081361 0.023778
O O17 0.750000 0.726845 0.750000
O O18 0.000000 0.717990 0.668721
O O19 0.500000 0.000000 0.500000
#
# Coordination Sequence:
#
# PCOD8220565 Si02
#       7
#     8   8   4   8   8   8   4
#     4   9  18  34  55  78 109 146 186 233 280 330
#     4   9  18  32  50  75 108 146 187 233 283 331
#     4  10  20  36  58  80 114 150 178 224 269 310
#     4  11  24  40  59  85 113 143 181 227 273 324
#     4  10  21  39  59  82 113 148 182 222 271 320
#     4  10  22  39  58  83 113 145 182 225 276 331
#     4  10  22  36  58  88 112 144 188 222 265 322
#
# _framework density 18.334126999999999
#
# number of rings (size 3 to 8) (size 9 to 14) (size 15 to 20)
#    0.000    2.167    0.833    1.500    1.167    3.667 
#    0.000    0.000    0.000    0.000    0.000    0.000 
#    0.000    0.000    0.000    0.000    0.000    0.000 
#
# Total GULP energy -595128.751293 kJ/mol
# GULP energy per Si atom -12398.515652 kJ/mol
# Density = 1.829240 g / cm^3
# Si number density = 18.334127 Si / 1000 Ang^3
#
#
#
# Elastic Constant Matrix: (Units=GPa)
#
#
# Indices 1 2 3 4 5 6 
#
# 1 136.1357 64.1531 67.8808 0.0000 0.0000 0.0000
# 2 64.1531 95.5537 50.2593 0.0000 0.0000 0.0000
# 3 67.8808 50.2593 85.9809 0.0000 0.0000 0.0000
# 4 0.0000 0.0000 0.0000 45.6827 0.0000 0.0000
# 5 0.0000 0.0000 0.0000 0.0000 39.8426 0.0000
# 6 0.0000 0.0000 0.0000 0.0000 0.0000 36.9636
#
#
#
# Elastic Compliance Matrix: (Units=1/GPa)
#
#
# Indices 1 2 3 4 5 6 
#
# 1 0.013607 -0.005032 -0.007801 0.000000 0.000000 0.000000
# 2 -0.005032 0.016973 -0.005948 0.000000 0.000000 0.000000
# 3 -0.007801 -0.005948 0.021266 0.000000 0.000000 0.000000
# 4 0.000000 0.000000 0.000000 0.021890 0.000000 0.000000
# 5 0.000000 0.000000 0.000000 0.000000 0.025099 0.000000
# 6 0.000000 0.000000 0.000000 0.000000 0.000000 0.027054
#
#
# Mechanical properties :
#
#
# Convention : Reuss Voigt Hill
#
# Bulk Modulus (GPa) = 70.01421 75.80632 72.91027
# Shear Modulus (GPa) = 29.72455 33.52293 31.62374
#
# Velocity S-wave (km/s) = 4.03087 4.28067 4.15764
# Velocity P-wave (km/s) = 7.74175 8.11598 7.93107
#
# Compressibility (1/GPa) = 0.01428281
#
# Stress axis : x y z
#
# Youngs Moduli (GPa) = 73.49325 58.91877 47.02335
#
# Poissons Ratio (x) = 0.29650 0.36682
# Poissons Ratio (y) = 0.36984 0.27970
# Poissons Ratio (z) = 0.57330 0.35046
#
# Static dielectric constant tensor:
#      x y z
#    x 3.618340 0.000000 0.000000 
#    y 0.000000 3.535960 0.000000 
#    z 0.000000 0.000000 3.264160 
# 
# 
# High freq. dielectric constant tensor:
#      x y z
#    x 1.725030 0.000000 0.000000 
#    y 0.000000 1.728690 0.000000 
#    z 0.000000 0.000000 1.696520 
# 
# From -- ./inp_files/6787.got.cif
#   From: 2010.03.12/outbox.cif.g09.slc.cpg/sg53_4_cif.got.tgz:6787.got - 2010.04.16 14:36:59.
