data_PCOD8220963
_publ_section_title
;
Structure prediction by ZEFSAII (Michael W. Deem and Ramdas Pophale) SiO2 
 PCOD8220963
Probable space group: P M N A
;
_chemical_formula_sum "Si O2"
_cell_formula_units_Z 56
_cell_length_a 13.909076
_cell_length_b 12.647992
_cell_length_c 14.490277
_cell_angle_alpha 90.000000
_cell_angle_beta 90.000000
_cell_angle_gamma 90.000000
_cell_volume 2549.156800
_symmetry_space_group_name_H-M "P M N A"
_symmetry_group_IT_number 53
_symmetry_cell_setting 'orthorhombic'
loop_
_space_group_symop_operation_xyz
x,y,z
1/2-x,-y,1/2+z
x,-y,-z
1/2-x,y,1/2-z
-x,-y,-z
1/2+x,y,1/2-z
-x,y,z
1/2+x,-y,1/2+z
loop_
_atom_site_type_symbol
_atom_site_label
_atom_site_fract_x
_atom_site_fract_y
_atom_site_fract_z
Si Si1 0.385124 0.472103 0.280760
Si Si2 0.891024 0.285449 0.095386
Si Si3 0.743739 0.098678 0.358207
Si Si4 0.614298 0.423571 0.078133
Si Si5 0.614182 0.808035 0.986803
Si Si6 0.759151 0.858700 0.142424
Si Si7 0.891949 0.669892 0.106721
O O1 0.500000 0.474542 0.286101
O O2 0.347900 0.364984 0.328708
O O3 0.345137 0.464974 0.176327
O O4 0.343210 0.576456 0.332336
O O5 0.829658 0.177938 0.091688
O O6 0.000000 0.251274 0.118906
O O7 0.887872 0.355281 0.002025
O O8 0.750000 0.124021 0.250000
O O9 0.847386 0.110836 0.408782
O O10 0.709655 0.979299 0.376703
O O11 0.500000 0.428701 0.081879
O O12 0.647313 0.306172 0.051635
O O13 0.656499 0.500000 0.000000
O O14 0.500000 0.819561 0.997374
O O15 0.661523 0.829061 0.086913
O O16 0.750000 0.839332 0.250000
O O17 0.844386 0.783738 0.112850
O O18 0.000000 0.683562 0.142600
#
# Coordination Sequence:
#
# PCOD8220963 Si02
#       7
#     8   8   8   8   8   8   8
#     4   9  18  35  62  96 131 162 209 267 317 392
#     4  10  20  38  65  96 128 167 211 263 329 391
#     4  11  24  43  65  95 133 169 223 285 330 389
#     4   9  19  36  60  92 127 166 210 263 322 383
#     4  11  24  45  71  95 130 180 230 277 336 401
#     4  11  26  44  63  95 133 171 222 281 334 392
#     4  10  21  39  66  95 128 169 208 256 332 403
#
# _framework density 21.968048
#
# number of rings (size 3 to 8) (size 9 to 14) (size 15 to 20)
#    0.000    1.857    1.429    1.714    2.000    5.714 
#    2.571    5.000    0.000    0.000    0.000    0.000 
#    0.000    0.000    0.000    0.000    0.000    0.000 
#
# Total GULP energy -694297.423538 kJ/mol
# GULP energy per Si atom -12398.168277 kJ/mol
# Density = 2.191805 g / cm^3
# Si number density = 21.968048 Si / 1000 Ang^3
#
#
#
# Elastic Constant Matrix: (Units=GPa)
#
#
# Indices 1 2 3 4 5 6 
#
# 1 72.7623 44.5513 39.7472 0.0000 0.0000 0.0000
# 2 44.5513 128.9273 60.4276 0.0000 0.0000 0.0000
# 3 39.7472 60.4276 168.3282 0.0000 0.0000 0.0000
# 4 0.0000 0.0000 0.0000 28.5116 0.0000 0.0000
# 5 0.0000 0.0000 0.0000 0.0000 22.0959 0.0000
# 6 0.0000 0.0000 0.0000 0.0000 0.0000 29.9924
#
#
#
# Elastic Compliance Matrix: (Units=1/GPa)
#
#
# Indices 1 2 3 4 5 6 
#
# 1 0.018240 -0.005151 -0.002458 0.000000 0.000000 0.000000
# 2 -0.005151 0.010780 -0.002654 0.000000 0.000000 0.000000
# 3 -0.002458 -0.002654 0.007474 0.000000 0.000000 0.000000
# 4 0.000000 0.000000 0.000000 0.035073 0.000000 0.000000
# 5 0.000000 0.000000 0.000000 0.000000 0.045257 0.000000
# 6 0.000000 0.000000 0.000000 0.000000 0.000000 0.033342
#
#
# Mechanical properties :
#
#
# Convention : Reuss Voigt Hill
#
# Bulk Modulus (GPa) = 62.62174 73.27443 67.94809
# Shear Modulus (GPa) = 28.40693 31.13944 29.77318
#
# Velocity S-wave (km/s) = 3.59987 3.76904 3.68543
# Velocity P-wave (km/s) = 6.77100 7.23659 7.00767
#
# Compressibility (1/GPa) = 0.01596890
#
# Stress axis : x y z
#
# Youngs Moduli (GPa) = 54.82518 92.76507 133.80163
#
# Poissons Ratio (x) = 0.47782 0.32887
# Poissons Ratio (y) = 0.28240 0.35505
# Poissons Ratio (z) = 0.13475 0.24616
#
# Static dielectric constant tensor:
#      x y z
#    x 3.761170 0.000000 0.000000 
#    y 0.000000 4.026440 0.000000 
#    z 0.000000 0.000000 4.432690 
# 
# 
# High freq. dielectric constant tensor:
#      x y z
#    x 1.852500 0.000000 0.000000 
#    y 0.000000 1.868620 0.000000 
#    z 0.000000 0.000000 1.879910 
# 
# From -- ./inp_files/22792.got.cif
#   From: 2010.03.12/outbox.cif.g09.slc.cpg/sg53_12_cif.got.tgz:22792.got - 2010.04.16 14:36:59.
