data_PCOD8220063
_publ_section_title
;
Structure prediction by ZEFSAII (Michael W. Deem and Ramdas Pophale) SiO2 
 PCOD8220063
Probable space group: P M N A
;
_chemical_formula_sum "Si O2"
_cell_formula_units_Z 64
_cell_length_a 9.189828
_cell_length_b 23.042501
_cell_length_c 16.008654
_cell_angle_alpha 90.000000
_cell_angle_beta 90.000000
_cell_angle_gamma 90.000000
_cell_volume 3389.938476
_symmetry_space_group_name_H-M "P M N A"
_symmetry_group_IT_number 53
_symmetry_cell_setting 'orthorhombic'
loop_
_space_group_symop_operation_xyz
x,y,z
1/2-x,-y,1/2+z
x,-y,-z
1/2-x,y,1/2-z
-x,-y,-z
1/2+x,y,1/2-z
-x,y,z
1/2+x,-y,1/2+z
loop_
_atom_site_type_symbol
_atom_site_label
_atom_site_fract_x
_atom_site_fract_y
_atom_site_fract_z
Si Si1 0.669492 0.062018 0.333321
Si Si2 0.667680 0.432118 0.581490
Si Si3 0.165744 0.529742 0.666295
Si Si4 0.828338 0.737770 0.996460
Si Si5 0.664625 0.682678 0.330673
Si Si6 0.169562 0.073455 0.833543
Si Si7 0.328004 0.129377 0.495567
Si Si8 0.333730 0.364642 0.059825
O O1 0.750000 0.084731 0.250000
O O2 0.500000 0.075782 0.321517
O O3 0.733072 0.094361 0.415453
O O4 0.699208 0.994344 0.347005
O O5 0.500000 0.447645 0.563082
O O6 0.756593 0.491030 0.595847
O O7 0.679865 0.386891 0.658567
O O8 0.735859 0.400636 0.503019
O O9 0.250000 0.517426 0.750000
O O10 0.171002 0.598280 0.645192
O O11 0.000000 0.508463 0.675799
O O12 0.782087 0.804018 0.984017
O O13 0.739691 0.698837 0.928830
O O14 0.000000 0.727885 0.983392
O O15 0.777144 0.716797 0.088056
O O16 0.750000 0.704267 0.250000
O O17 0.500000 0.701329 0.315563
O O18 0.250000 0.096139 0.750000
O O19 0.000000 0.087102 0.821518
O O20 0.233603 0.105316 0.916133
O O21 0.500000 0.121383 0.498622
O O22 0.500000 0.358291 0.028222
#
# Coordination Sequence:
#
# PCOD8220063 Si02
#       8
#     8   8   8   8   8   8   8   8
#     4   9  17  31  52  77 104 136 173 214 261 309
#     4  10  20  34  54  78 102 130 164 201 246 303
#     4  11  23  36  52  76 103 129 160 202 251 302
#     4   9  19  35  52  70  94 129 174 214 249 297
#     4   9  18  30  45  68  96 126 159 196 240 291
#     4   9  17  30  50  78 110 140 171 207 251 308
#     4   9  17  32  54  75  99 137 180 216 253 307
#     4  10  21  37  54  73  99 130 165 206 251 298
#
# _framework density 18.879398999999999
#
# number of rings (size 3 to 8) (size 9 to 14) (size 15 to 20)
#    0.000    2.500    0.000    3.000    0.000    9.000 
#    0.000    2.500    0.000    6.000    0.000    0.000 
#    0.000    0.000    0.000    0.000    0.000    0.000 
#
# Total GULP energy -793431.657745 kJ/mol
# GULP energy per Si atom -12397.369652 kJ/mol
# Density = 1.883643 g / cm^3
# Si number density = 18.879399 Si / 1000 Ang^3
#
#
#
# Elastic Constant Matrix: (Units=GPa)
#
#
# Indices 1 2 3 4 5 6 
#
# 1 84.4454 37.3133 32.4686 0.0000 0.0000 0.0000
# 2 37.3133 97.0893 43.2942 0.0000 0.0000 0.0000
# 3 32.4686 43.2942 84.8995 0.0000 0.0000 0.0000
# 4 0.0000 0.0000 0.0000 20.0072 0.0000 0.0000
# 5 0.0000 0.0000 0.0000 0.0000 25.1381 0.0000
# 6 0.0000 0.0000 0.0000 0.0000 0.0000 23.2079
#
#
#
# Elastic Compliance Matrix: (Units=1/GPa)
#
#
# Indices 1 2 3 4 5 6 
#
# 1 0.015086 -0.004174 -0.003641 0.000000 0.000000 0.000000
# 2 -0.004174 0.014486 -0.005791 0.000000 0.000000 0.000000
# 3 -0.003641 -0.005791 0.016124 0.000000 0.000000 0.000000
# 4 0.000000 0.000000 0.000000 0.049982 0.000000 0.000000
# 5 0.000000 0.000000 0.000000 0.000000 0.039780 0.000000
# 6 0.000000 0.000000 0.000000 0.000000 0.000000 0.043089
#
#
# Mechanical properties :
#
#
# Convention : Reuss Voigt Hill
#
# Bulk Modulus (GPa) = 54.09913 54.73180 54.41547
# Shear Modulus (GPa) = 23.59365 23.89453 23.74409
#
# Velocity S-wave (km/s) = 3.53895 3.56144 3.55021
# Velocity P-wave (km/s) = 6.73915 6.77975 6.75948
#
# Compressibility (1/GPa) = 0.01848459
#
# Stress axis : x y z
#
# Youngs Moduli (GPa) = 66.28497 69.03041 62.01932
#
# Poissons Ratio (x) = 0.28817 0.22580
# Poissons Ratio (y) = 0.27670 0.35914
# Poissons Ratio (z) = 0.24133 0.39974
#
# Static dielectric constant tensor:
#      x y z
#    x 3.379690 0.000000 0.000000 
#    y 0.000000 3.599750 0.000000 
#    z 0.000000 0.000000 3.441970 
# 
# 
# High freq. dielectric constant tensor:
#      x y z
#    x 1.720330 0.000000 0.000000 
#    y 0.000000 1.728290 0.000000 
#    z 0.000000 0.000000 1.723520 
# 
# From -- ./inp_files/20987.got.cif
#   From: 2010.03.12/outbox.cif.g09.slc.cpg/sg53_11_cif.got.tgz:20987.got - 2010.04.16 14:36:59.
