data_PCOD8220900
_publ_section_title
;
Structure prediction by ZEFSAII (Michael W. Deem and Ramdas Pophale) SiO2 
 PCOD8220900
Probable space group: P M N A
;
_chemical_formula_sum "Si O2"
_cell_formula_units_Z 40
_cell_length_a 20.782570
_cell_length_b 8.825754
_cell_length_c 10.731862
_cell_angle_alpha 90.000000
_cell_angle_beta 90.000000
_cell_angle_gamma 90.000000
_cell_volume 1968.457985
_symmetry_space_group_name_H-M "P M N A"
_symmetry_group_IT_number 53
_symmetry_cell_setting 'orthorhombic'
loop_
_space_group_symop_operation_xyz
x,y,z
1/2-x,-y,1/2+z
x,-y,-z
1/2-x,y,1/2-z
-x,-y,-z
1/2+x,y,1/2-z
-x,y,z
1/2+x,-y,1/2+z
loop_
_atom_site_type_symbol
_atom_site_label
_atom_site_fract_x
_atom_site_fract_y
_atom_site_fract_z
Si Si1 0.695041 0.000000 0.500000
Si Si2 0.750000 0.545643 0.750000
Si Si3 0.706642 0.228846 0.053214
Si Si4 0.638072 0.340936 0.821863
Si Si5 0.000000 0.601782 0.376089
Si Si6 0.000000 0.959132 0.359474
Si Si7 0.633821 0.996040 0.758125
O O1 0.741675 0.141759 0.533432
O O2 0.651610 0.951098 0.617357
O O3 0.752602 0.648271 0.628086
O O4 0.686390 0.443990 0.743569
O O5 0.674038 0.104749 0.144468
O O6 0.655099 0.320130 0.969262
O O7 0.568452 0.425490 0.806148
O O8 0.644883 0.174452 0.766488
O O9 0.000000 0.500000 0.500000
O O10 0.000000 0.781644 0.383764
O O11 0.940891 0.031884 0.284853
O O12 0.000000 0.000000 0.500000
#
# Coordination Sequence:
#
# PCOD8220900 Si02
#       7
#     4   4   8   8   4   4   8
#     4  12  22  37  62  85 128 160 204 260 318 370
#     4  12  24  36  58  96 126 162 214 254 332 384
#     4  12  22  39  62  92 123 165 213 262 320 381
#     4  11  23  39  63  92 129 164 208 270 315 388
#     4  10  20  38  59  89 126 161 196 251 328 371
#     4  10  22  39  65  93 116 161 212 263 307 379
#     4  11  22  40  63  89 124 165 211 256 322 371
#
# _framework density 20.320473
#
# number of rings (size 3 to 8) (size 9 to 14) (size 15 to 20)
#    0.000    0.800    4.000    5.400    0.000    0.400 
#    0.000    0.000    0.000    0.000    0.000    7.000 
#    0.000    0.000    0.000    0.000    0.000    0.000 
#
# Total GULP energy -495531.920378 kJ/mol
# GULP energy per Si atom -12388.298009 kJ/mol
# Density = 2.027422 g / cm^3
# Si number density = 20.320473 Si / 1000 Ang^3
#
#
#
# Elastic Constant Matrix: (Units=GPa)
#
#
# Indices 1 2 3 4 5 6 
#
# 1 172.6047 49.6109 50.6499 0.0000 0.0000 0.0000
# 2 49.6109 68.5102 6.0973 0.0000 0.0000 0.0000
# 3 50.6499 6.0973 75.5996 0.0000 0.0000 0.0000
# 4 0.0000 0.0000 0.0000 36.6716 0.0000 0.0000
# 5 0.0000 0.0000 0.0000 0.0000 24.0215 0.0000
# 6 0.0000 0.0000 0.0000 0.0000 0.0000 20.3482
#
#
#
# Elastic Compliance Matrix: (Units=1/GPa)
#
#
# Indices 1 2 3 4 5 6 
#
# 1 0.009242 -0.006186 -0.005693 0.000000 0.000000 0.000000
# 2 -0.006186 0.018842 0.002625 0.000000 0.000000 0.000000
# 3 -0.005693 0.002625 0.016830 0.000000 0.000000 0.000000
# 4 0.000000 0.000000 0.000000 0.027269 0.000000 0.000000
# 5 0.000000 0.000000 0.000000 0.000000 0.041629 0.000000
# 6 0.000000 0.000000 0.000000 0.000000 0.000000 0.049144
#
#
# Mechanical properties :
#
#
# Convention : Reuss Voigt Hill
#
# Bulk Modulus (GPa) = 37.87027 58.82563 48.34795
# Shear Modulus (GPa) = 26.27871 30.23202 28.25537
#
# Velocity S-wave (km/s) = 3.60003 3.86134 3.73297
# Velocity P-wave (km/s) = 5.99644 6.99226 6.51341
#
# Compressibility (1/GPa) = 0.02640594
#
# Stress axis : x y z
#
# Youngs Moduli (GPa) = 108.19935 53.07223 59.41716
#
# Poissons Ratio (x) = 0.32830 0.33827
# Poissons Ratio (y) = 0.66932 -0.15596
# Poissons Ratio (z) = 0.61599 -0.13930
#
# Static dielectric constant tensor:
#      x y z
#    x 4.227600 0.000000 0.000000 
#    y 0.000000 3.892780 0.000000 
#    z 0.000000 0.000000 3.548870 
# 
# 
# High freq. dielectric constant tensor:
#      x y z
#    x 1.803810 0.000000 0.000000 
#    y 0.000000 1.807130 0.000000 
#    z 0.000000 0.000000 1.767050 
# 
# From -- ./inp_files/17702.got.cif
#   From: 2010.03.12/outbox.cif.g09.slc.cpg/sg53_9_cif.got.tgz:17702.got - 2010.04.16 14:36:59.
