data_PCOD8220524
_publ_section_title
;
Structure prediction by ZEFSAII (Michael W. Deem and Ramdas Pophale) SiO2 
 PCOD8220524
Probable space group: P M N A
;
_chemical_formula_sum "Si O2"
_cell_formula_units_Z 32
_cell_length_a 8.932355
_cell_length_b 20.329769
_cell_length_c 9.246180
_cell_angle_alpha 90.000000
_cell_angle_beta 90.000000
_cell_angle_gamma 90.000000
_cell_volume 1679.038918
_symmetry_space_group_name_H-M "P M N A"
_symmetry_group_IT_number 53
_symmetry_cell_setting 'orthorhombic'
loop_
_space_group_symop_operation_xyz
x,y,z
1/2-x,-y,1/2+z
x,-y,-z
1/2-x,y,1/2-z
-x,-y,-z
1/2+x,y,1/2-z
-x,y,z
1/2+x,-y,1/2+z
loop_
_atom_site_type_symbol
_atom_site_label
_atom_site_fract_x
_atom_site_fract_y
_atom_site_fract_z
Si Si1 0.826895 0.443531 0.399548
Si Si2 0.324534 0.939115 0.594293
Si Si3 0.176814 0.186807 0.904250
Si Si4 0.175332 0.705069 0.594786
O O1 0.756262 0.500000 0.500000
O O2 0.750000 0.453553 0.250000
O O3 0.798396 0.369827 0.457861
O O4 0.000000 0.456985 0.376390
O O5 0.250000 0.938277 0.750000
O O6 0.500000 0.946536 0.618971
O O7 0.283067 0.872818 0.510434
O O8 0.262639 0.000000 0.500000
O O9 0.250000 0.172038 0.750000
O O10 0.000000 0.195899 0.884865
O O11 0.247235 0.252177 0.971480
O O12 0.250000 0.718817 0.750000
O O13 0.000000 0.722172 0.607846
#
# Coordination Sequence:
#
# PCOD8220524 Si02
#       4
#     8   8   8   8
#     4   9  19  35  54  78 107 140 179 222 269 321
#     4  10  22  39  59  84 112 144 182 223 269 320
#     4  11  23  38  57  82 112 145 183 226 273 325
#     4  10  20  36  57  80 109 144 183 226 272 325
#
# _framework density 19.058522
#
# number of rings (size 3 to 8) (size 9 to 14) (size 15 to 20)
#    0.000    2.000    0.000    3.000    0.000    7.000 
#    0.000    2.500    0.000    0.000    0.000    0.000 
#    0.000    0.000    0.000    0.000    0.000    0.000 
#
# Total GULP energy -396844.524288 kJ/mol
# GULP energy per Si atom -12401.391384 kJ/mol
# Density = 1.901514 g / cm^3
# Si number density = 19.058522 Si / 1000 Ang^3
#
#
#
# Elastic Constant Matrix: (Units=GPa)
#
#
# Indices 1 2 3 4 5 6 
#
# 1 82.5738 65.7228 72.6032 0.0000 0.0000 0.0000
# 2 65.7228 140.0767 83.8227 0.0000 0.0000 0.0000
# 3 72.6032 83.8227 138.4633 0.0000 0.0000 0.0000
# 4 0.0000 0.0000 0.0000 38.9836 0.0000 0.0000
# 5 0.0000 0.0000 0.0000 0.0000 37.3709 0.0000
# 6 0.0000 0.0000 0.0000 0.0000 0.0000 26.1390
#
#
#
# Elastic Compliance Matrix: (Units=1/GPa)
#
#
# Indices 1 2 3 4 5 6 
#
# 1 0.025511 -0.006217 -0.009613 0.000000 0.000000 0.000000
# 2 -0.006217 0.012709 -0.004434 0.000000 0.000000 0.000000
# 3 -0.009613 -0.004434 0.014947 0.000000 0.000000 0.000000
# 4 0.000000 0.000000 0.000000 0.025652 0.000000 0.000000
# 5 0.000000 0.000000 0.000000 0.000000 0.026759 0.000000
# 6 0.000000 0.000000 0.000000 0.000000 0.000000 0.038257
#
#
# Mechanical properties :
#
#
# Convention : Reuss Voigt Hill
#
# Bulk Modulus (GPa) = 79.11978 89.49015 84.30496
# Shear Modulus (GPa) = 26.51453 29.76304 28.13879
#
# Velocity S-wave (km/s) = 3.73395 3.95608 3.84662
# Velocity P-wave (km/s) = 7.75848 8.24165 8.00371
#
# Compressibility (1/GPa) = 0.01263907
#
# Stress axis : x y z
#
# Youngs Moduli (GPa) = 39.19890 78.68275 66.90324
#
# Poissons Ratio (x) = 0.48917 0.64314
# Poissons Ratio (y) = 0.24370 0.29665
# Poissons Ratio (z) = 0.37682 0.34888
#
# Static dielectric constant tensor:
#      x y z
#    x 3.532080 0.000000 0.000000 
#    y 0.000000 3.891220 0.000000 
#    z 0.000000 0.000000 3.494420 
# 
# 
# High freq. dielectric constant tensor:
#      x y z
#    x 1.745130 0.000000 0.000000 
#    y 0.000000 1.758300 0.000000 
#    z 0.000000 0.000000 1.743150 
# 
# From -- ./inp_files/6007.got.cif
#   From: 2010.03.12/outbox.cif.g09.slc.cpg/sg53_4_cif.got.tgz:6007.got - 2010.04.16 14:36:59.
