data_PCOD8220671
_publ_section_title
;
Structure prediction by ZEFSAII (Michael W. Deem and Ramdas Pophale) SiO2 
 PCOD8220671
Probable space group: P M N A
;
_chemical_formula_sum "Si O2"
_cell_formula_units_Z 64
_cell_length_a 9.067656
_cell_length_b 12.593717
_cell_length_c 27.901159
_cell_angle_alpha 90.000000
_cell_angle_beta 90.000000
_cell_angle_gamma 90.000000
_cell_volume 3186.186622
_symmetry_space_group_name_H-M "P M N A"
_symmetry_group_IT_number 53
_symmetry_cell_setting 'orthorhombic'
loop_
_space_group_symop_operation_xyz
x,y,z
1/2-x,-y,1/2+z
x,-y,-z
1/2-x,y,1/2-z
-x,-y,-z
1/2+x,y,1/2-z
-x,y,z
1/2+x,-y,1/2+z
loop_
_atom_site_type_symbol
_atom_site_label
_atom_site_fract_x
_atom_site_fract_y
_atom_site_fract_z
Si Si1 0.671060 0.474130 0.145406
Si Si2 0.830358 0.899488 0.871644
Si Si3 0.330780 0.525733 0.447066
Si Si4 0.170211 0.135222 0.853530
Si Si5 0.170245 0.313928 0.701707
Si Si6 0.673951 0.895937 0.972051
Si Si7 0.674298 0.288583 0.299904
Si Si8 0.832400 0.770495 0.047182
O O1 0.500000 0.441499 0.145847
O O2 0.733796 0.462326 0.091631
O O3 0.694970 0.594742 0.162486
O O4 0.760754 0.398321 0.180630
O O5 0.731612 0.891164 0.918428
O O6 0.785363 0.805740 0.836096
O O7 0.000000 0.890998 0.887723
O O8 0.802314 0.010673 0.844125
O O9 0.270642 0.500000 0.500000
O O10 0.500000 0.487289 0.442050
O O11 0.314516 0.649651 0.437020
O O12 0.266482 0.202180 0.816545
O O13 0.219939 0.158594 0.908023
O O14 0.000000 0.167936 0.846460
O O15 0.250000 0.350106 0.750000
O O16 0.000000 0.296681 0.713359
O O17 0.500000 0.892847 0.970132
O O18 0.731436 0.794019 0.001284
O O19 0.732415 0.000000 0.000000
O O20 0.750000 0.259791 0.250000
O O21 0.500000 0.301285 0.292626
O O22 0.000000 0.796678 0.032751
#
# Coordination Sequence:
#
# PCOD8220671 Si02
#       8
#     8   8   8   8   8   8   8   8
#     4  11  24  42  65  93 125 162 204 252 307 366
#     4  10  23  42  64  90 123 165 211 256 306 369
#     4  10  22  39  60  90 126 164 204 248 303 366
#     4  10  20  38  63  90 120 158 203 249 303 365
#     4  11  24  40  62  91 121 154 195 247 305 365
#     4  11  23  36  56  89 126 163 204 251 301 355
#     4  11  25  45  68  91 120 160 209 263 316 370
#     4  10  20  36  60  85 119 165 205 247 301 365
#
# _framework density 20.086708999999999
#
# number of rings (size 3 to 8) (size 9 to 14) (size 15 to 20)
#    0.000    1.500    2.500    1.875    1.750    6.250 
#    0.000    1.250    0.000    0.000    0.000    0.000 
#    0.000    0.000    0.000    0.000    0.000    0.000 
#
# Total GULP energy -793973.467640 kJ/mol
# GULP energy per Si atom -12405.835432 kJ/mol
# Density = 2.004099 g / cm^3
# Si number density = 20.086709 Si / 1000 Ang^3
#
#
#
# Elastic Constant Matrix: (Units=GPa)
#
#
# Indices 1 2 3 4 5 6 
#
# 1 101.5671 35.3995 66.4076 0.0000 0.0000 0.0000
# 2 35.3995 63.7306 26.4115 0.0000 0.0000 0.0000
# 3 66.4076 26.4115 121.5815 0.0000 0.0000 0.0000
# 4 0.0000 0.0000 0.0000 31.3820 0.0000 0.0000
# 5 0.0000 0.0000 0.0000 0.0000 40.2908 0.0000
# 6 0.0000 0.0000 0.0000 0.0000 0.0000 22.5860
#
#
#
# Elastic Compliance Matrix: (Units=1/GPa)
#
#
# Indices 1 2 3 4 5 6 
#
# 1 0.017328 -0.006267 -0.008103 0.000000 0.000000 0.000000
# 2 -0.006267 0.019510 -0.000815 0.000000 0.000000 0.000000
# 3 -0.008103 -0.000815 0.012828 0.000000 0.000000 0.000000
# 4 0.000000 0.000000 0.000000 0.031865 0.000000 0.000000
# 5 0.000000 0.000000 0.000000 0.000000 0.024820 0.000000
# 6 0.000000 0.000000 0.000000 0.000000 0.000000 0.044275
#
#
# Mechanical properties :
#
#
# Convention : Reuss Voigt Hill
#
# Bulk Modulus (GPa) = 51.82591 60.36847 56.09719
# Shear Modulus (GPa) = 26.67687 29.42911 28.05299
#
# Velocity S-wave (km/s) = 3.64824 3.83182 3.74116
# Velocity P-wave (km/s) = 6.60328 7.04956 6.83007
#
# Compressibility (1/GPa) = 0.01929537
#
# Stress axis : x y z
#
# Youngs Moduli (GPa) = 57.71017 51.25621 77.95463
#
# Poissons Ratio (x) = 0.32121 0.63168
# Poissons Ratio (y) = 0.36166 0.06356
# Poissons Ratio (z) = 0.46763 0.04179
#
# Static dielectric constant tensor:
#      x y z
#    x 3.606350 0.000000 0.000000 
#    y 0.000000 3.670250 0.000000 
#    z 0.000000 0.000000 3.583860 
# 
# 
# High freq. dielectric constant tensor:
#      x y z
#    x 1.782380 0.000000 0.000000 
#    y 0.000000 1.787690 0.000000 
#    z 0.000000 0.000000 1.787780 
# 
# From -- ./inp_files/38106.got.cif
#   From: 2010.03.12/outbox.cif.g09.slc.cpg/sg53_20_cif.got.tgz:38106.got - 2010.04.16 14:36:59.
