data_PCOD8220374
_publ_section_title
;
Structure prediction by ZEFSAII (Michael W. Deem and Ramdas Pophale) SiO2 
 PCOD8220374
Probable space group: P M N A
;
_chemical_formula_sum "Si O2"
_cell_formula_units_Z 64
_cell_length_a 8.741971
_cell_length_b 23.955709
_cell_length_c 14.852834
_cell_angle_alpha 90.000000
_cell_angle_beta 90.000000
_cell_angle_gamma 90.000000
_cell_volume 3110.482180
_symmetry_space_group_name_H-M "P M N A"
_symmetry_group_IT_number 53
_symmetry_cell_setting 'orthorhombic'
loop_
_space_group_symop_operation_xyz
x,y,z
1/2-x,-y,1/2+z
x,-y,-z
1/2-x,y,1/2-z
-x,-y,-z
1/2+x,y,1/2-z
-x,y,z
1/2+x,-y,1/2+z
loop_
_atom_site_type_symbol
_atom_site_label
_atom_site_fract_x
_atom_site_fract_y
_atom_site_fract_z
Si Si1 0.318809 0.957730 0.843289
Si Si2 0.668338 0.602239 0.336690
Si Si3 0.181290 0.354148 0.150428
Si Si4 0.320142 0.563668 0.986310
Si Si5 0.319770 0.916058 0.157314
Si Si6 0.830785 0.268621 0.837690
Si Si7 0.680509 0.865918 0.977338
Si Si8 0.179590 0.741746 0.528682
O O1 0.250000 0.937514 0.750000
O O2 0.500000 0.953556 0.839320
O O3 0.266114 0.020728 0.865911
O O4 0.249072 0.914532 0.915560
O O5 0.750000 0.573506 0.250000
O O6 0.500000 0.574708 0.350939
O O7 0.772173 0.596742 0.424837
O O8 0.646322 0.666706 0.316238
O O9 0.250000 0.350196 0.250000
O O10 0.228960 0.300580 0.091745
O O11 0.000000 0.355680 0.157711
O O12 0.238112 0.410479 0.101254
O O13 0.500000 0.569576 0.971499
O O14 0.268628 0.500000 0.000000
O O15 0.250000 0.894252 0.250000
O O16 0.500000 0.914286 0.167168
O O17 0.257816 0.875137 0.079035
O O18 0.750000 0.240653 0.750000
O O19 0.000000 0.241998 0.852709
O O20 0.725120 0.262100 0.924711
O O21 0.500000 0.873595 0.980609
O O22 0.722113 0.804614 0.939854
O O23 0.000000 0.728783 0.537928
#
# Coordination Sequence:
#
# PCOD8220374 Si02
#       8
#     8   8   8   8   8   8   8   8
#     4   9  17  32  54  78 107 144 190 240 291 349
#     4  10  20  35  59  88 120 156 192 236 285 342
#     4  12  26  46  69  92 121 162 208 250 297 352
#     4  11  24  42  66  96 128 160 196 242 295 351
#     4   9  17  32  54  79 110 149 190 236 290 351
#     4  10  20  35  57  85 114 150 192 235 287 349
#     4   9  19  34  54  81 111 149 194 237 290 352
#     4  11  22  38  60  86 120 158 199 250 301 356
#
# _framework density 20.575588
#
# number of rings (size 3 to 8) (size 9 to 14) (size 15 to 20)
#    0.000    1.875    1.250    3.000    0.000    5.000 
#    0.000    5.625    0.000    3.000    0.000    0.000 
#    0.000    0.000    0.000    0.000    0.000    0.000 
#
# Total GULP energy -793477.123423 kJ/mol
# GULP energy per Si atom -12398.080053 kJ/mol
# Density = 2.052876 g / cm^3
# Si number density = 20.575588 Si / 1000 Ang^3
#
#
#
# Elastic Constant Matrix: (Units=GPa)
#
#
# Indices 1 2 3 4 5 6 
#
# 1 86.6309 32.0885 34.4231 0.0000 0.0000 0.0000
# 2 32.0885 81.2798 35.6719 0.0000 0.0000 0.0000
# 3 34.4231 35.6719 129.8157 0.0000 0.0000 0.0000
# 4 0.0000 0.0000 0.0000 11.7214 0.0000 0.0000
# 5 0.0000 0.0000 0.0000 0.0000 34.1774 0.0000
# 6 0.0000 0.0000 0.0000 0.0000 0.0000 18.0256
#
#
#
# Elastic Compliance Matrix: (Units=1/GPa)
#
#
# Indices 1 2 3 4 5 6 
#
# 1 0.014217 -0.004501 -0.002533 0.000000 0.000000 0.000000
# 2 -0.004501 0.015415 -0.003042 0.000000 0.000000 0.000000
# 3 -0.002533 -0.003042 0.009211 0.000000 0.000000 0.000000
# 4 0.000000 0.000000 0.000000 0.085314 0.000000 0.000000
# 5 0.000000 0.000000 0.000000 0.000000 0.029259 0.000000
# 6 0.000000 0.000000 0.000000 0.000000 0.000000 0.055477
#
#
# Mechanical properties :
#
#
# Convention : Reuss Voigt Hill
#
# Bulk Modulus (GPa) = 53.50387 55.78817 54.64602
# Shear Modulus (GPa) = 21.25163 25.82107 23.53635
#
# Velocity S-wave (km/s) = 3.21730 3.54635 3.38582
# Velocity P-wave (km/s) = 6.31358 6.62883 6.47313
#
# Compressibility (1/GPa) = 0.01869024
#
# Stress axis : x y z
#
# Youngs Moduli (GPa) = 70.33862 64.87012 108.56637
#
# Poissons Ratio (x) = 0.29198 0.27501
# Poissons Ratio (y) = 0.31660 0.33031
# Poissons Ratio (z) = 0.17817 0.19736
#
# Static dielectric constant tensor:
#      x y z
#    x 3.751600 0.000000 0.000000 
#    y 0.000000 3.848090 0.000000 
#    z 0.000000 0.000000 3.793260 
# 
# 
# High freq. dielectric constant tensor:
#      x y z
#    x 1.798020 0.000000 0.000000 
#    y 0.000000 1.798830 0.000000 
#    z 0.000000 0.000000 1.809300 
# 
# From -- ./inp_files/21027.got.cif
#   From: 2010.03.12/outbox.cif.g09.slc.cpg/sg53_11_cif.got.tgz:21027.got - 2010.04.16 14:36:59.
