data_PCOD8220518
_publ_section_title
;
Structure prediction by ZEFSAII (Michael W. Deem and Ramdas Pophale) SiO2 
 PCOD8220518
Probable space group: P M N A
;
_chemical_formula_sum "Si O2"
_cell_formula_units_Z 48
_cell_length_a 9.002513
_cell_length_b 30.279538
_cell_length_c 9.488995
_cell_angle_alpha 90.000000
_cell_angle_beta 90.000000
_cell_angle_gamma 90.000000
_cell_volume 2586.623503
_symmetry_space_group_name_H-M "P M N A"
_symmetry_group_IT_number 53
_symmetry_cell_setting 'orthorhombic'
loop_
_space_group_symop_operation_xyz
x,y,z
1/2-x,-y,1/2+z
x,-y,-z
1/2-x,y,1/2-z
-x,-y,-z
1/2+x,y,1/2-z
-x,y,z
1/2+x,-y,1/2+z
loop_
_atom_site_type_symbol
_atom_site_label
_atom_site_fract_x
_atom_site_fract_y
_atom_site_fract_z
Si Si1 0.174377 0.363957 0.602776
Si Si2 0.325884 0.536615 0.105637
Si Si3 0.174914 0.136631 0.100575
Si Si4 0.326492 0.712366 0.900034
Si Si5 0.176003 0.205464 0.598491
Si Si6 0.327793 0.035739 0.392917
O O1 0.250000 0.351094 0.750000
O O2 0.215911 0.413823 0.556012
O O3 0.230871 0.331932 0.478399
O O4 0.000000 0.357883 0.627044
O O5 0.250000 0.524817 0.250000
O O6 0.500000 0.531759 0.125880
O O7 0.262790 0.500000 0.000000
O O8 0.250000 0.148793 0.250000
O O9 0.204444 0.085812 0.059483
O O10 0.000000 0.147606 0.111052
O O11 0.251602 0.163068 0.974760
O O12 0.250000 0.718102 0.750000
O O13 0.500000 0.709677 0.870429
O O14 0.285893 0.752961 0.000629
O O15 0.250000 0.213105 0.750000
O O16 0.000000 0.198630 0.616580
O O17 0.250000 0.024203 0.250000
O O18 0.500000 0.027806 0.370078
O O19 0.261123 0.000000 0.500000
#
# Coordination Sequence:
#
# PCOD8220518 Si02
#       6
#     8   8   8   8   8   8
#     4   9  18  34  53  74 101 133 170 210 254 302
#     4   9  18  32  50  73 102 134 168 209 254 301
#     4  10  20  36  57  80 108 141 177 217 261 309
#     4  10  22  37  54  77 104 135 170 210 256 306
#     4  11  23  38  56  79 106 137 174 215 261 311
#     4   9  19  35  54  78 107 139 175 214 257 305
#
# _framework density 18.557010999999999
#
# number of rings (size 3 to 8) (size 9 to 14) (size 15 to 20)
#    0.000    2.333    0.000    2.000    0.000    6.000 
#    0.000    1.667    0.000    0.000    0.000    0.000 
#    0.000    0.000    0.000    0.000    0.000    0.000 
#
# Total GULP energy -595196.949745 kJ/mol
# GULP energy per Si atom -12399.936453 kJ/mol
# Density = 1.851477 g / cm^3
# Si number density = 18.557011 Si / 1000 Ang^3
#
#
#
# Elastic Constant Matrix: (Units=GPa)
#
#
# Indices 1 2 3 4 5 6 
#
# 1 61.7078 53.9260 68.6433 0.0000 0.0000 0.0000
# 2 53.9260 133.3133 104.6095 0.0000 0.0000 0.0000
# 3 68.6433 104.6095 161.9803 0.0000 0.0000 0.0000
# 4 0.0000 0.0000 0.0000 40.8742 0.0000 0.0000
# 5 0.0000 0.0000 0.0000 0.0000 37.6891 0.0000
# 6 0.0000 0.0000 0.0000 0.0000 0.0000 23.1666
#
#
#
# Elastic Compliance Matrix: (Units=1/GPa)
#
#
# Indices 1 2 3 4 5 6 
#
# 1 0.032032 -0.004674 -0.010556 0.000000 0.000000 0.000000
# 2 -0.004674 0.015890 -0.008281 0.000000 0.000000 0.000000
# 3 -0.010556 -0.008281 0.015995 0.000000 0.000000 0.000000
# 4 0.000000 0.000000 0.000000 0.024465 0.000000 0.000000
# 5 0.000000 0.000000 0.000000 0.000000 0.026533 0.000000
# 6 0.000000 0.000000 0.000000 0.000000 0.000000 0.043166
#
#
# Mechanical properties :
#
#
# Convention : Reuss Voigt Hill
#
# Bulk Modulus (GPa) = 59.18944 90.15100 74.67022
# Shear Modulus (GPa) = 23.72640 29.00083 26.36362
#
# Velocity S-wave (km/s) = 3.57959 3.95751 3.77328
# Velocity P-wave (km/s) = 7.00356 8.34078 7.70125
#
# Compressibility (1/GPa) = 0.01689491
#
# Stress axis : x y z
#
# Youngs Moduli (GPa) = 31.21834 62.93235 62.51927
#
# Poissons Ratio (x) = 0.29416 0.65995
# Poissons Ratio (y) = 0.14592 0.51774
# Poissons Ratio (z) = 0.32954 0.52116
#
# Static dielectric constant tensor:
#      x y z
#    x 3.402310 0.000000 0.000000 
#    y 0.000000 3.713450 0.000000 
#    z 0.000000 0.000000 3.453130 
# 
# 
# High freq. dielectric constant tensor:
#      x y z
#    x 1.719530 0.000000 0.000000 
#    y 0.000000 1.734560 0.000000 
#    z 0.000000 0.000000 1.719450 
# 
# From -- ./inp_files/6604.got.cif
#   From: 2010.03.12/outbox.cif.g09.slc.cpg/sg53_4_cif.got.tgz:6604.got - 2010.04.16 14:36:59.
