data_PCOD8220088
_publ_section_title
;
Structure prediction by ZEFSAII (Michael W. Deem and Ramdas Pophale) SiO2 
 PCOD8220088
Probable space group: P M N A
;
_chemical_formula_sum "Si O2"
_cell_formula_units_Z 64
_cell_length_a 14.531874
_cell_length_b 9.479008
_cell_length_c 25.227033
_cell_angle_alpha 90.000000
_cell_angle_beta 90.000000
_cell_angle_gamma 90.000000
_cell_volume 3474.967032
_symmetry_space_group_name_H-M "P M N A"
_symmetry_group_IT_number 53
_symmetry_cell_setting 'orthorhombic'
loop_
_space_group_symop_operation_xyz
x,y,z
1/2-x,-y,1/2+z
x,-y,-z
1/2-x,y,1/2-z
-x,-y,-z
1/2+x,y,1/2-z
-x,y,z
1/2+x,-y,1/2+z
loop_
_atom_site_type_symbol
_atom_site_label
_atom_site_fract_x
_atom_site_fract_y
_atom_site_fract_z
Si Si1 0.105906 0.012393 0.837486
Si Si2 0.724803 0.513815 0.860280
Si Si3 0.899954 0.608138 0.546116
Si Si4 0.153228 0.287236 0.273218
Si Si5 0.100548 0.688242 0.839963
Si Si6 0.893226 0.852577 0.472607
Si Si7 0.725267 0.815776 0.132960
Si Si8 0.602955 0.014827 0.786646
O O1 0.127748 0.850121 0.852460
O O2 0.124420 0.034724 0.775252
O O3 0.000000 0.049422 0.851555
O O4 0.173302 0.114044 0.871087
O O5 0.673015 0.544464 0.914182
O O6 0.665575 0.580820 0.812517
O O7 0.825284 0.583581 0.865110
O O8 0.735620 0.347732 0.851727
O O9 0.916679 0.500000 0.500000
O O10 0.860605 0.748557 0.519141
O O11 0.000000 0.635964 0.573751
O O12 0.250000 0.235874 0.250000
O O13 0.091404 0.335088 0.223600
O O14 0.111357 0.150823 0.302925
O O15 0.000000 0.653227 0.864139
O O16 0.828998 0.835661 0.421625
O O17 0.000000 0.825961 0.456083
O O18 0.878478 0.000000 0.500000
O O19 0.672015 0.890647 0.180395
O O20 0.500000 0.064690 0.800305
#
# Coordination Sequence:
#
# PCOD8220088 Si02
#       8
#     8   8   8   8   8   8   8   8
#     4   9  20  38  58  79 108 148 187 225 271 317
#     4  11  23  34  55  85 111 146 182 219 276 330
#     4  10  21  40  58  76 111 147 175 215 272 330
#     4   9  18  34  54  79 110 148 188 220 260 318
#     4   9  19  38  58  79 110 146 188 228 262 317
#     4  10  23  40  58  83 109 139 180 225 272 323
#     4  12  22  35  55  83 116 142 178 228 275 328
#     4  10  20  34  54  80 111 148 186 224 266 318
#
# _framework density 18.417441
#
# number of rings (size 3 to 8) (size 9 to 14) (size 15 to 20)
#    0.000    2.000    1.250    4.125    3.500    5.000 
#    0.000    1.250    0.000    1.500    0.000    0.000 
#    0.000    0.000    0.000    0.000    0.000    0.000 
#
# Total GULP energy -793400.824003 kJ/mol
# GULP energy per Si atom -12396.887875 kJ/mol
# Density = 1.837552 g / cm^3
# Si number density = 18.417441 Si / 1000 Ang^3
#
#
#
# Elastic Constant Matrix: (Units=GPa)
#
#
# Indices 1 2 3 4 5 6 
#
# 1 111.0166 53.7073 41.0127 0.0000 0.0000 0.0000
# 2 53.7073 126.4406 37.9842 0.0000 0.0000 0.0000
# 3 41.0127 37.9842 49.4776 0.0000 0.0000 0.0000
# 4 0.0000 0.0000 0.0000 24.0712 0.0000 0.0000
# 5 0.0000 0.0000 0.0000 0.0000 21.4684 0.0000
# 6 0.0000 0.0000 0.0000 0.0000 0.0000 -7.6895
#
#
#
# Elastic Compliance Matrix: (Units=1/GPa)
#
#
# Indices 1 2 3 4 5 6 
#
# 1 0.013900 -0.003175 -0.009084 0.000000 0.000000 0.000000
# 2 -0.003175 0.011005 -0.005817 0.000000 0.000000 0.000000
# 3 -0.009084 -0.005817 0.032207 0.000000 0.000000 0.000000
# 4 0.000000 0.000000 0.000000 0.041543 0.000000 0.000000
# 5 0.000000 0.000000 0.000000 0.000000 0.046580 0.000000
# 6 0.000000 0.000000 0.000000 0.000000 0.000000 -0.130047
#
#
# Mechanical properties :
#
#
# Convention : Reuss Voigt Hill
#
# Bulk Modulus (GPa) = 47.71110 61.37145 54.54128
# Shear Modulus (GPa) = 85.72610 17.85207 51.78909
#
# Velocity S-wave (km/s) = 6.82988 3.11674 5.30854
# Velocity P-wave (km/s) = 9.38924 6.80786 8.20076
#
# Compressibility (1/GPa) = 0.02095948
#
# Stress axis : x y z
#
# Youngs Moduli (GPa) = 71.94445 90.86874 31.04960
#
# Poissons Ratio (x) = 0.28852 0.28206
# Poissons Ratio (y) = 0.22843 0.18060
# Poissons Ratio (z) = 0.65355 0.52855
#
# Static dielectric constant tensor:
#      x y z
#    x 3.971520 0.000000 0.000000 
#    y 0.000000 3.450660 0.000000 
#    z 0.000000 0.000000 3.070450 
# 
# 
# High freq. dielectric constant tensor:
#      x y z
#    x 1.721610 0.000000 0.000000 
#    y 0.000000 1.718080 0.000000 
#    z 0.000000 0.000000 1.686050 
# 
# From -- ./inp_files/35364.got.cif
#   From: 2010.03.12/outbox.cif.g09.slc.cpg/sg53_18_cif.got.tgz:35364.got - 2010.04.16 14:36:59.
