data_PCOD8220778
_publ_section_title
;
Structure prediction by ZEFSAII (Michael W. Deem and Ramdas Pophale) SiO2 
 PCOD8220778
Probable space group: P M N A
;
_chemical_formula_sum "Si O2"
_cell_formula_units_Z 64
_cell_length_a 8.875317
_cell_length_b 21.251560
_cell_length_c 16.520844
_cell_angle_alpha 90.000000
_cell_angle_beta 90.000000
_cell_angle_gamma 90.000000
_cell_volume 3116.067951
_symmetry_space_group_name_H-M "P M N A"
_symmetry_group_IT_number 53
_symmetry_cell_setting 'orthorhombic'
loop_
_space_group_symop_operation_xyz
x,y,z
1/2-x,-y,1/2+z
x,-y,-z
1/2-x,y,1/2-z
-x,-y,-z
1/2+x,y,1/2-z
-x,y,z
1/2+x,-y,1/2+z
loop_
_atom_site_type_symbol
_atom_site_label
_atom_site_fract_x
_atom_site_fract_y
_atom_site_fract_z
Si Si1 0.677492 0.357712 0.836458
Si Si2 0.825301 0.897861 0.073340
Si Si3 0.672450 0.425755 0.001606
Si Si4 0.329162 0.873044 0.919038
Si Si5 0.172767 0.378838 0.165385
Si Si6 0.322745 0.786924 0.166361
Si Si7 0.673394 0.768770 0.668128
Si Si8 0.170472 0.003152 0.331437
O O1 0.750000 0.380026 0.750000
O O2 0.500000 0.367509 0.825958
O O3 0.721235 0.285226 0.854075
O O4 0.735757 0.396897 0.915960
O O5 0.742104 0.833953 0.100239
O O6 0.757484 0.963112 0.102570
O O7 0.000000 0.893019 0.094532
O O8 0.792700 0.902132 0.979009
O O9 0.500000 0.403903 0.010906
O O10 0.758103 0.405547 0.082908
O O11 0.688822 0.500000 0.000000
O O12 0.500000 0.868394 0.953527
O O13 0.271407 0.803187 0.899653
O O14 0.323636 0.921739 0.844461
O O15 0.250000 0.401753 0.250000
O O16 0.189824 0.304802 0.155772
O O17 0.000000 0.400299 0.171115
O O18 0.250000 0.808316 0.250000
O O19 0.500000 0.794778 0.172475
O O20 0.750000 0.791199 0.750000
O O21 0.500000 0.790561 0.666457
O O22 0.250000 0.984451 0.250000
O O23 0.000000 0.978763 0.329256
#
# Coordination Sequence:
#
# PCOD8220778 Si02
#       8
#     8   8   8   8   8   8   8   8
#     4   9  20  38  61  89 121 163 205 254 310 365
#     4  12  25  39  58  85 117 152 192 242 297 354
#     4  10  22  40  62  92 129 167 210 257 309 370
#     4  11  24  40  60  86 117 153 193 243 298 356
#     4  10  22  40  63  92 126 167 212 260 313 370
#     4  10  20  37  59  85 115 151 196 243 299 359
#     4  10  21  38  60  89 120 155 199 246 299 359
#     4  11  24  42  62  83 111 150 195 241 293 353
#
# _framework density 20.538703000000002
#
# number of rings (size 3 to 8) (size 9 to 14) (size 15 to 20)
#    0.000    1.625    0.000    4.125    1.750    7.750 
#    0.000    1.250    0.000    0.000    0.000    0.000 
#    0.000    0.000    0.000    0.000    0.000    0.000 
#
# Total GULP energy -793309.289259 kJ/mol
# GULP energy per Si atom -12395.457645 kJ/mol
# Density = 2.049196 g / cm^3
# Si number density = 20.538703 Si / 1000 Ang^3
#
#
#
# Elastic Constant Matrix: (Units=GPa)
#
#
# Indices 1 2 3 4 5 6 
#
# 1 123.3684 43.0966 54.4806 0.0000 0.0000 0.0000
# 2 43.0966 65.2214 33.7412 0.0000 0.0000 0.0000
# 3 54.4806 33.7412 126.4488 0.0000 0.0000 0.0000
# 4 0.0000 0.0000 0.0000 37.2503 0.0000 0.0000
# 5 0.0000 0.0000 0.0000 0.0000 41.2475 0.0000
# 6 0.0000 0.0000 0.0000 0.0000 0.0000 28.9041
#
#
#
# Elastic Compliance Matrix: (Units=1/GPa)
#
#
# Indices 1 2 3 4 5 6 
#
# 1 0.011711 -0.005949 -0.003458 0.000000 0.000000 0.000000
# 2 -0.005949 0.020810 -0.002990 0.000000 0.000000 0.000000
# 3 -0.003458 -0.002990 0.010196 0.000000 0.000000 0.000000
# 4 0.000000 0.000000 0.000000 0.026845 0.000000 0.000000
# 5 0.000000 0.000000 0.000000 0.000000 0.024244 0.000000
# 6 0.000000 0.000000 0.000000 0.000000 0.000000 0.034597
#
#
# Mechanical properties :
#
#
# Convention : Reuss Voigt Hill
#
# Bulk Modulus (GPa) = 55.79442 64.18615 59.99029
# Shear Modulus (GPa) = 31.41230 33.72838 32.57034
#
# Velocity S-wave (km/s) = 3.91502 4.05679 3.98653
# Velocity P-wave (km/s) = 6.90370 7.29812 7.10364
#
# Compressibility (1/GPa) = 0.01792294
#
# Stress axis : x y z
#
# Youngs Moduli (GPa) = 85.38704 48.05323 98.07673
#
# Poissons Ratio (x) = 0.28589 0.33918
# Poissons Ratio (y) = 0.50801 0.29321
# Poissons Ratio (z) = 0.29530 0.14366
#
# Static dielectric constant tensor:
#      x y z
#    x 3.777970 0.000000 0.000000 
#    y 0.000000 3.695300 0.000000 
#    z 0.000000 0.000000 3.760630 
# 
# 
# High freq. dielectric constant tensor:
#      x y z
#    x 1.808660 0.000000 0.000000 
#    y 0.000000 1.803770 0.000000 
#    z 0.000000 0.000000 1.809690 
# 
# From -- ./inp_files/20984.got.cif
#   From: 2010.03.12/outbox.cif.g09.slc.cpg/sg53_11_cif.got.tgz:20984.got - 2010.04.16 14:36:59.
