data_PCOD8220918
_publ_section_title
;
Structure prediction by ZEFSAII (Michael W. Deem and Ramdas Pophale) SiO2 
 PCOD8220918
Probable space group: P M N A
;
_chemical_formula_sum "Si O2"
_cell_formula_units_Z 48
_cell_length_a 8.386988
_cell_length_b 14.809447
_cell_length_c 19.211573
_cell_angle_alpha 90.000000
_cell_angle_beta 90.000000
_cell_angle_gamma 90.000000
_cell_volume 2386.205206
_symmetry_space_group_name_H-M "P M N A"
_symmetry_group_IT_number 53
_symmetry_cell_setting 'orthorhombic'
loop_
_space_group_symop_operation_xyz
x,y,z
1/2-x,-y,1/2+z
x,-y,-z
1/2-x,y,1/2-z
-x,-y,-z
1/2+x,y,1/2-z
-x,y,z
1/2+x,-y,1/2+z
loop_
_atom_site_type_symbol
_atom_site_label
_atom_site_fract_x
_atom_site_fract_y
_atom_site_fract_z
Si Si1 0.184619 0.532569 0.576124
Si Si2 0.184923 0.387037 0.826411
Si Si3 0.815550 0.771783 0.416644
Si Si4 0.685792 0.726820 0.564150
Si Si5 0.310816 0.926006 0.324612
Si Si6 0.687863 0.130513 0.323515
O O1 0.237704 0.500000 0.500000
O O2 0.291026 0.479529 0.631551
O O3 0.214680 0.638499 0.583682
O O4 0.000000 0.510615 0.589816
O O5 0.250000 0.403683 0.750000
O O6 0.282096 0.305987 0.860993
O O7 0.000000 0.360785 0.824670
O O8 0.711128 0.756011 0.484969
O O9 0.770025 0.868271 0.385125
O O10 0.000000 0.769698 0.437634
O O11 0.500000 0.707160 0.576230
O O12 0.750079 0.806069 0.614436
O O13 0.250000 0.890228 0.250000
O O14 0.500000 0.915902 0.328738
O O15 0.250784 0.028537 0.336181
O O16 0.750000 0.168458 0.250000
O O17 0.500000 0.130087 0.321327
#
# Coordination Sequence:
#
# PCOD8220918 Si02
#       6
#     8   8   8   8   8   8
#     4  11  23  41  64  90 123 160 201 248 302 362
#     4  12  25  42  65  92 123 160 203 252 303 361
#     4  12  24  39  59  89 124 160 202 250 303 363
#     4  11  23  40  63  91 121 161 205 249 304 362
#     4  10  20  38  61  87 120 160 201 248 302 358
#     4   9  21  40  63  89 120 157 202 251 300 357
#
# _framework density 20.115621999999998
#
# number of rings (size 3 to 8) (size 9 to 14) (size 15 to 20)
#    0.000    1.167    1.667    5.000    0.000    4.000 
#    0.000    5.000    0.000    0.000    0.000    0.000 
#    0.000    0.000    0.000    0.000    0.000    0.000 
#
# Total GULP energy -595543.728482 kJ/mol
# GULP energy per Si atom -12407.161010 kJ/mol
# Density = 2.006984 g / cm^3
# Si number density = 20.115622 Si / 1000 Ang^3
#
#
#
# Elastic Constant Matrix: (Units=GPa)
#
#
# Indices 1 2 3 4 5 6 
#
# 1 58.1867 13.6056 15.5039 0.0000 0.0000 0.0000
# 2 13.6056 114.1692 55.1489 0.0000 0.0000 0.0000
# 3 15.5039 55.1489 116.8103 0.0000 0.0000 0.0000
# 4 0.0000 0.0000 0.0000 33.7487 0.0000 0.0000
# 5 0.0000 0.0000 0.0000 0.0000 30.6415 0.0000
# 6 0.0000 0.0000 0.0000 0.0000 0.0000 28.0786
#
#
#
# Elastic Compliance Matrix: (Units=1/GPa)
#
#
# Indices 1 2 3 4 5 6 
#
# 1 0.017960 -0.001281 -0.001779 0.000000 0.000000 0.000000
# 2 -0.001281 0.011438 -0.005230 0.000000 0.000000 0.000000
# 3 -0.001779 -0.005230 0.011266 0.000000 0.000000 0.000000
# 4 0.000000 0.000000 0.000000 0.029631 0.000000 0.000000
# 5 0.000000 0.000000 0.000000 0.000000 0.032635 0.000000
# 6 0.000000 0.000000 0.000000 0.000000 0.000000 0.035614
#
#
# Mechanical properties :
#
#
# Convention : Reuss Voigt Hill
#
# Bulk Modulus (GPa) = 41.52170 50.85366 46.18768
# Shear Modulus (GPa) = 30.64619 32.15426 31.40023
#
# Velocity S-wave (km/s) = 3.90744 4.00243 3.95522
# Velocity P-wave (km/s) = 6.40654 6.83336 6.62339
#
# Compressibility (1/GPa) = 0.02408379
#
# Stress axis : x y z
#
# Youngs Moduli (GPa) = 55.68055 87.42810 88.76050
#
# Poissons Ratio (x) = 0.11199 0.15790
# Poissons Ratio (y) = 0.07132 0.46423
# Poissons Ratio (z) = 0.09905 0.45726
#
# Static dielectric constant tensor:
#      x y z
#    x 3.775680 0.000000 0.000000 
#    y 0.000000 3.837450 0.000000 
#    z 0.000000 0.000000 3.720690 
# 
# 
# High freq. dielectric constant tensor:
#      x y z
#    x 1.792080 0.000000 0.000000 
#    y 0.000000 1.793360 0.000000 
#    z 0.000000 0.000000 1.788250 
# 
# From -- ./inp_files/26281.got.cif
#   From: 2010.03.12/outbox.cif.g09.slc.cpg/sg53_14_cif.got.tgz:26281.got - 2010.04.16 14:36:59.
