data_PCOD8220787
_publ_section_title
;
Structure prediction by ZEFSAII (Michael W. Deem and Ramdas Pophale) SiO2 
 PCOD8220787
Probable space group: P M N A
;
_chemical_formula_sum "Si O2"
_cell_formula_units_Z 48
_cell_length_a 15.691389
_cell_length_b 16.953220
_cell_length_c 9.512341
_cell_angle_alpha 90.000000
_cell_angle_beta 90.000000
_cell_angle_gamma 90.000000
_cell_volume 2530.468861
_symmetry_space_group_name_H-M "P M N A"
_symmetry_group_IT_number 53
_symmetry_cell_setting 'orthorhombic'
loop_
_space_group_symop_operation_xyz
x,y,z
1/2-x,-y,1/2+z
x,-y,-z
1/2-x,y,1/2-z
-x,-y,-z
1/2+x,y,1/2-z
-x,y,z
1/2+x,-y,1/2+z
loop_
_atom_site_type_symbol
_atom_site_label
_atom_site_fract_x
_atom_site_fract_y
_atom_site_fract_z
Si Si1 0.250000 0.328949 0.750000
Si Si2 0.766284 0.802730 0.469531
Si Si3 0.095021 0.071752 0.593224
Si Si4 0.750000 0.284629 0.250000
Si Si5 0.403303 0.605772 0.648062
Si Si6 0.175438 0.053705 0.863136
Si Si7 0.404455 0.425995 0.677679
O O1 0.249534 0.277507 0.611537
O O2 0.334389 0.381475 0.768947
O O3 0.852936 0.848177 0.430643
O O4 0.769950 0.777966 0.629610
O O5 0.688014 0.859318 0.427419
O O6 0.093079 0.051156 0.761036
O O7 0.000000 0.087304 0.539939
O O8 0.135160 0.000000 0.500000
O O9 0.666574 0.337505 0.281026
O O10 0.500000 0.637152 0.677586
O O11 0.393252 0.518339 0.710547
O O12 0.387544 0.597909 0.482813
O O13 0.250000 0.030700 0.750000
O O14 0.166217 0.000000 0.000000
O O15 0.500000 0.399771 0.721473
#
# Coordination Sequence:
#
# PCOD8220787 Si02
#       7
#     4   8   8   4   8   8   8
#     4  12  19  38  57  90 116 152 200 236 303 350
#     4  11  23  36  56  86 116 152 188 238 296 348
#     4  10  22  41  61  84 118 155 192 242 297 352
#     4  12  23  36  59  90 120 156 198 244 299 358
#     4   9  19  38  58  83 117 156 198 243 293 351
#     4  10  20  37  60  84 111 151 196 237 279 351
#     4   9  19  36  61  84 113 157 200 242 292 354
#
# _framework density 18.968816
#
# number of rings (size 3 to 8) (size 9 to 14) (size 15 to 20)
#    0.000    1.833    4.167    3.500    3.500    1.667 
#    0.000    0.833    0.000    2.000    0.000    0.000 
#    0.000    0.000    0.000    0.000    0.000    0.000 
#
# Total GULP energy -594749.078539 kJ/mol
# GULP energy per Si atom -12390.605803 kJ/mol
# Density = 1.892564 g / cm^3
# Si number density = 18.968816 Si / 1000 Ang^3
#
#
#
# Elastic Constant Matrix: (Units=GPa)
#
#
# Indices 1 2 3 4 5 6 
#
# 1 99.0540 50.7213 27.6815 0.0000 0.0000 0.0000
# 2 50.7213 93.2404 47.9614 0.0000 0.0000 0.0000
# 3 27.6815 47.9614 115.8725 0.0000 0.0000 0.0000
# 4 0.0000 0.0000 0.0000 31.9091 0.0000 0.0000
# 5 0.0000 0.0000 0.0000 0.0000 16.5952 0.0000
# 6 0.0000 0.0000 0.0000 0.0000 0.0000 20.4332
#
#
#
# Elastic Compliance Matrix: (Units=1/GPa)
#
#
# Indices 1 2 3 4 5 6 
#
# 1 0.013999 -0.007489 -0.000244 0.000000 0.000000 0.000000
# 2 -0.007489 0.017633 -0.005509 0.000000 0.000000 0.000000
# 3 -0.000244 -0.005509 0.010969 0.000000 0.000000 0.000000
# 4 0.000000 0.000000 0.000000 0.031339 0.000000 0.000000
# 5 0.000000 0.000000 0.000000 0.000000 0.060258 0.000000
# 6 0.000000 0.000000 0.000000 0.000000 0.000000 0.048940
#
#
# Mechanical properties :
#
#
# Convention : Reuss Voigt Hill
#
# Bulk Modulus (GPa) = 62.05565 62.32172 62.18868
# Shear Modulus (GPa) = 23.25624 25.90767 24.58196
#
# Velocity S-wave (km/s) = 3.50526 3.69969 3.60379
# Velocity P-wave (km/s) = 7.01199 7.15377 7.08324
#
# Compressibility (1/GPa) = 0.01611457
#
# Stress axis : x y z
#
# Youngs Moduli (GPa) = 71.43467 56.71157 91.16647
#
# Poissons Ratio (x) = 0.42474 0.02227
# Poissons Ratio (y) = 0.53501 0.50227
# Poissons Ratio (z) = 0.01745 0.31245
#
# Static dielectric constant tensor:
#      x y z
#    x 3.549040 0.000000 0.000000 
#    y 0.000000 3.446970 0.000000 
#    z 0.000000 0.000000 3.246560 
# 
# 
# High freq. dielectric constant tensor:
#      x y z
#    x 1.732220 0.000000 0.000000 
#    y 0.000000 1.737420 0.000000 
#    z 0.000000 0.000000 1.734030 
# 
# From -- ./inp_files/10049.got.cif
#   From: 2010.03.12/outbox.cif.g09.slc.cpg/sg53_6_cif.got.tgz:10049.got - 2010.04.16 14:36:59.
