data_PCOD8220324
_publ_section_title
;
Structure prediction by ZEFSAII (Michael W. Deem and Ramdas Pophale) SiO2 
 PCOD8220324
Probable space group: P M N A
;
_chemical_formula_sum "Si O2"
_cell_formula_units_Z 40
_cell_length_a 8.431836
_cell_length_b 13.683102
_cell_length_c 18.111288
_cell_angle_alpha 90.000000
_cell_angle_beta 90.000000
_cell_angle_gamma 90.000000
_cell_volume 2089.565802
_symmetry_space_group_name_H-M "P M N A"
_symmetry_group_IT_number 53
_symmetry_cell_setting 'orthorhombic'
loop_
_space_group_symop_operation_xyz
x,y,z
1/2-x,-y,1/2+z
x,-y,-z
1/2-x,y,1/2-z
-x,-y,-z
1/2+x,y,1/2-z
-x,y,z
1/2+x,-y,1/2+z
loop_
_atom_site_type_symbol
_atom_site_label
_atom_site_fract_x
_atom_site_fract_y
_atom_site_fract_z
Si Si1 0.314236 0.384703 0.900358
Si Si2 0.685204 0.803033 0.327116
Si Si3 0.815113 0.711811 0.960354
Si Si4 0.185328 0.101905 0.533896
Si Si5 0.687754 0.411310 0.168045
O O1 0.500000 0.387687 0.917308
O O2 0.276110 0.297582 0.844130
O O3 0.254461 0.484715 0.863697
O O4 0.225102 0.369652 0.977979
O O5 0.750000 0.844963 0.250000
O O6 0.500000 0.781146 0.322869
O O7 0.719738 0.882667 0.390076
O O8 0.720896 0.811447 0.976555
O O9 0.763813 0.674463 0.880386
O O10 0.000000 0.735335 0.962280
O O11 0.000000 0.100142 0.552237
O O12 0.243639 0.000000 0.500000
O O13 0.750000 0.397792 0.250000
O O14 0.500000 0.402573 0.166220
#
# Coordination Sequence:
#
# PCOD8220324 Si02
#       5
#     8   8   8   8   8
#     4  10  20  35  56  81 111 146 184 225 269 319
#     4  11  21  34  55  83 115 145 178 224 274 324
#     4  11  22  36  57  82 110 144 182 224 269 324
#     4  10  21  39  62  84 108 140 180 226 275 327
#     4  11  23  37  54  78 111 149 187 227 269 317
#
# _framework density 19.142731999999999
#
# number of rings (size 3 to 8) (size 9 to 14) (size 15 to 20)
#    0.000    1.400    0.000    9.000    0.000    8.800 
#    0.000    1.000    0.000    4.800    0.000    0.000 
#    0.000    0.000    0.000    0.000    0.000    0.000 
#
# Total GULP energy -496235.387306 kJ/mol
# GULP energy per Si atom -12405.884683 kJ/mol
# Density = 1.909916 g / cm^3
# Si number density = 19.142732 Si / 1000 Ang^3
#
#
#
# Elastic Constant Matrix: (Units=GPa)
#
#
# Indices 1 2 3 4 5 6 
#
# 1 58.2339 6.7099 16.4559 0.0000 0.0000 0.0000
# 2 6.7099 92.1617 64.3142 0.0000 0.0000 0.0000
# 3 16.4559 64.3142 137.0333 0.0000 0.0000 0.0000
# 4 0.0000 0.0000 0.0000 18.1067 0.0000 0.0000
# 5 0.0000 0.0000 0.0000 0.0000 36.5545 0.0000
# 6 0.0000 0.0000 0.0000 0.0000 0.0000 19.6965
#
#
#
# Elastic Compliance Matrix: (Units=1/GPa)
#
#
# Indices 1 2 3 4 5 6 
#
# 1 0.017781 0.000291 -0.002272 0.000000 0.000000 0.000000
# 2 0.000291 0.016140 -0.007610 0.000000 0.000000 0.000000
# 3 -0.002272 -0.007610 0.011142 0.000000 0.000000 0.000000
# 4 0.000000 0.000000 0.000000 0.055228 0.000000 0.000000
# 5 0.000000 0.000000 0.000000 0.000000 0.027356 0.000000
# 6 0.000000 0.000000 0.000000 0.000000 0.000000 0.050770
#
#
# Mechanical properties :
#
#
# Convention : Reuss Voigt Hill
#
# Bulk Modulus (GPa) = 38.63888 51.37653 45.00770
# Shear Modulus (GPa) = 24.24529 28.20147 26.22338
#
# Velocity S-wave (km/s) = 3.56273 3.84242 3.70521
# Velocity P-wave (km/s) = 6.09528 6.82514 6.47051
#
# Compressibility (1/GPa) = 0.02588067
#
# Stress axis : x y z
#
# Youngs Moduli (GPa) = 56.24118 61.95862 89.75176
#
# Poissons Ratio (x) = -0.01801 0.20389
# Poissons Ratio (y) = -0.01635 0.68300
# Poissons Ratio (z) = 0.12776 0.47150
#
# Static dielectric constant tensor:
#      x y z
#    x 3.578410 0.000000 0.000000 
#    y 0.000000 3.447610 0.000000 
#    z 0.000000 0.000000 3.570130 
# 
# 
# High freq. dielectric constant tensor:
#      x y z
#    x 1.760050 0.000000 0.000000 
#    y 0.000000 1.727970 0.000000 
#    z 0.000000 0.000000 1.749370 
# 
# From -- ./inp_files/19881.got.cif
#   From: 2010.03.12/outbox.cif.g09.slc.cpg/sg53_10_cif.got.tgz:19881.got - 2010.04.16 14:36:59.
