data_PCOD8220399
_publ_section_title
;
Structure prediction by ZEFSAII (Michael W. Deem and Ramdas Pophale) SiO2 
 PCOD8220399
Probable space group: P M N A
;
_chemical_formula_sum "Si O2"
_cell_formula_units_Z 64
_cell_length_a 8.937773
_cell_length_b 23.566277
_cell_length_c 15.413972
_cell_angle_alpha 90.000000
_cell_angle_beta 90.000000
_cell_angle_gamma 90.000000
_cell_volume 3246.645451
_symmetry_space_group_name_H-M "P M N A"
_symmetry_group_IT_number 53
_symmetry_cell_setting 'orthorhombic'
loop_
_space_group_symop_operation_xyz
x,y,z
1/2-x,-y,1/2+z
x,-y,-z
1/2-x,y,1/2-z
-x,-y,-z
1/2+x,y,1/2-z
-x,y,z
1/2+x,-y,1/2+z
loop_
_atom_site_type_symbol
_atom_site_label
_atom_site_fract_x
_atom_site_fract_y
_atom_site_fract_z
Si Si1 0.824473 0.614592 0.163591
Si Si2 0.674254 0.000257 0.399937
Si Si3 0.824587 0.304636 0.993797
Si Si4 0.676173 0.110142 0.837143
Si Si5 0.324000 0.375207 0.337802
Si Si6 0.824052 0.874291 0.840063
Si Si7 0.176625 0.814127 0.499614
Si Si8 0.321853 0.504734 0.596897
O O1 0.750000 0.639969 0.250000
O O2 0.777941 0.651778 0.081200
O O3 0.766823 0.550179 0.149928
O O4 0.000000 0.615985 0.176593
O O5 0.500000 0.985297 0.389360
O O6 0.771063 0.954409 0.348943
O O7 0.722106 0.000000 0.500000
O O8 0.715773 0.060701 0.359768
O O9 0.000000 0.289521 0.989744
O O10 0.781319 0.332411 0.085430
O O11 0.725493 0.249421 0.978885
O O12 0.750000 0.135618 0.750000
O O13 0.500000 0.111495 0.825395
O O14 0.728740 0.147198 0.919001
O O15 0.250000 0.352004 0.250000
O O16 0.500000 0.377683 0.324724
O O17 0.259903 0.438052 0.358694
O O18 0.750000 0.855822 0.750000
O O19 0.759234 0.834499 0.914420
O O20 0.000000 0.864087 0.834878
O O21 0.000000 0.817893 0.513913
O O22 0.256482 0.500000 0.500000
O O23 0.500000 0.507105 0.591792
#
# Coordination Sequence:
#
# PCOD8220399 Si02
#       8
#     8   8   8   8   8   8   8   8
#     4  10  20  35  58  86 115 150 190 235 288 347
#     4  10  20  37  63  94 125 158 192 233 292 353
#     4  10  22  40  60  81 110 154 199 237 287 349
#     4  11  24  40  62  90 121 157 197 243 295 351
#     4  10  20  35  58  86 114 148 189 232 284 343
#     4  11  23  40  64  92 124 158 195 239 290 350
#     4  11  25  43  62  86 116 154 201 251 298 343
#     4   9  15  30  57  84 113 149 188 228 277 347
#
# _framework density 19.712654000000001
#
# number of rings (size 3 to 8) (size 9 to 14) (size 15 to 20)
#    0.000    1.750    2.500    1.875    0.000    5.750 
#    0.000    3.750    0.000    0.750    0.000    0.000 
#    0.000    0.000    0.000    0.000    0.000    0.000 
#
# Total GULP energy -793872.063540 kJ/mol
# GULP energy per Si atom -12404.250993 kJ/mol
# Density = 1.966779 g / cm^3
# Si number density = 19.712654 Si / 1000 Ang^3
#
#
#
# Elastic Constant Matrix: (Units=GPa)
#
#
# Indices 1 2 3 4 5 6 
#
# 1 45.4726 27.7180 32.5594 0.0000 0.0000 0.0000
# 2 27.7180 84.1692 21.2038 0.0000 0.0000 0.0000
# 3 32.5594 21.2038 132.1080 0.0000 0.0000 0.0000
# 4 0.0000 0.0000 0.0000 8.7394 0.0000 0.0000
# 5 0.0000 0.0000 0.0000 0.0000 33.3522 0.0000
# 6 0.0000 0.0000 0.0000 0.0000 0.0000 25.3170
#
#
#
# Elastic Compliance Matrix: (Units=1/GPa)
#
#
# Indices 1 2 3 4 5 6 
#
# 1 0.032067 -0.008930 -0.006470 0.000000 0.000000 0.000000
# 2 -0.008930 0.014868 -0.000185 0.000000 0.000000 0.000000
# 3 -0.006470 -0.000185 0.009194 0.000000 0.000000 0.000000
# 4 0.000000 0.000000 0.000000 0.114424 0.000000 0.000000
# 5 0.000000 0.000000 0.000000 0.000000 0.029983 0.000000
# 6 0.000000 0.000000 0.000000 0.000000 0.000000 0.039499
#
#
# Mechanical properties :
#
#
# Convention : Reuss Voigt Hill
#
# Bulk Modulus (GPa) = 40.06692 47.19023 43.62858
# Shear Modulus (GPa) = 17.88739 25.49966 21.69352
#
# Velocity S-wave (km/s) = 3.01559 3.60052 3.32096
# Velocity P-wave (km/s) = 5.70041 6.42464 6.07333
#
# Compressibility (1/GPa) = 0.02495825
#
# Stress axis : x y z
#
# Youngs Moduli (GPa) = 31.18427 67.25673 108.76739
#
# Poissons Ratio (x) = 0.60062 0.70373
# Poissons Ratio (y) = 0.27848 0.02017
# Poissons Ratio (z) = 0.20176 0.01247
#
# Static dielectric constant tensor:
#      x y z
#    x 3.336490 0.000000 0.000000 
#    y 0.000000 3.593800 0.000000 
#    z 0.000000 0.000000 3.758650 
# 
# 
# High freq. dielectric constant tensor:
#      x y z
#    x 1.749990 0.000000 0.000000 
#    y 0.000000 1.767030 0.000000 
#    z 0.000000 0.000000 1.785880 
# 
# From -- ./inp_files/20994.got.cif
#   From: 2010.03.12/outbox.cif.g09.slc.cpg/sg53_11_cif.got.tgz:20994.got - 2010.04.16 14:36:59.
