data_PCOD8220599
_publ_section_title
;
Structure prediction by ZEFSAII (Michael W. Deem and Ramdas Pophale) SiO2 
 PCOD8220599
Probable space group: P M N A
;
_chemical_formula_sum "Si O2"
_cell_formula_units_Z 48
_cell_length_a 8.598985
_cell_length_b 9.907976
_cell_length_c 28.925899
_cell_angle_alpha 90.000000
_cell_angle_beta 90.000000
_cell_angle_gamma 90.000000
_cell_volume 2464.444276
_symmetry_space_group_name_H-M "P M N A"
_symmetry_group_IT_number 53
_symmetry_cell_setting 'orthorhombic'
loop_
_space_group_symop_operation_xyz
x,y,z
1/2-x,-y,1/2+z
x,-y,-z
1/2-x,y,1/2-z
-x,-y,-z
1/2+x,y,1/2-z
-x,y,z
1/2+x,-y,1/2+z
loop_
_atom_site_type_symbol
_atom_site_label
_atom_site_fract_x
_atom_site_fract_y
_atom_site_fract_z
Si Si1 0.684973 0.265488 0.700018
Si Si2 0.817817 0.477436 0.874067
Si Si3 0.179310 0.612890 0.465949
Si Si4 0.319941 0.869698 0.972842
Si Si5 0.315876 0.021090 0.199500
Si Si6 0.816304 0.217056 0.123069
O O1 0.750000 0.299305 0.750000
O O2 0.500000 0.254483 0.700743
O O3 0.745827 0.388601 0.668445
O O4 0.751665 0.122993 0.681870
O O5 0.776086 0.393100 0.919335
O O6 0.748992 0.629508 0.874614
O O7 0.000000 0.490971 0.870294
O O8 0.245871 0.500000 0.500000
O O9 0.207171 0.753961 0.490072
O O10 0.000000 0.584968 0.453996
O O11 0.500000 0.882876 0.958255
O O12 0.221527 0.846616 0.926679
O O13 0.259014 0.000000 0.000000
O O14 0.250000 0.057561 0.250000
O O15 0.500000 0.013110 0.202825
O O16 0.266891 0.135303 0.163536
O O17 0.000000 0.211764 0.131019
#
# Coordination Sequence:
#
# PCOD8220599 Si02
#       6
#     8   8   8   8   8   8
#     4  10  21  40  62  89 119 151 192 239 289 349
#     4  10  23  39  59  87 120 155 195 241 291 348
#     4  10  20  36  58  83 115 154 196 239 288 345
#     4  10  22  39  57  84 119 155 199 246 292 347
#     4  11  23  41  64  89 118 154 194 241 294 349
#     4  11  23  40  60  87 121 158 199 242 292 349
#
# _framework density 19.477008000000001
#
# number of rings (size 3 to 8) (size 9 to 14) (size 15 to 20)
#    0.000    1.667    1.667    3.500    2.333    4.000 
#    0.000    1.667    0.000    0.000    0.000    0.000 
#    0.000    0.000    0.000    0.000    0.000    0.000 
#
# Total GULP energy -595292.506979 kJ/mol
# GULP energy per Si atom -12401.927229 kJ/mol
# Density = 1.943268 g / cm^3
# Si number density = 19.477008 Si / 1000 Ang^3
#
#
#
# Elastic Constant Matrix: (Units=GPa)
#
#
# Indices 1 2 3 4 5 6 
#
# 1 63.2472 34.0985 32.4591 0.0000 0.0000 0.0000
# 2 34.0985 125.3330 72.2293 0.0000 0.0000 0.0000
# 3 32.4591 72.2293 120.1698 0.0000 0.0000 0.0000
# 4 0.0000 0.0000 0.0000 35.9218 0.0000 0.0000
# 5 0.0000 0.0000 0.0000 0.0000 37.2879 0.0000
# 6 0.0000 0.0000 0.0000 0.0000 0.0000 29.5790
#
#
#
# Elastic Compliance Matrix: (Units=1/GPa)
#
#
# Indices 1 2 3 4 5 6 
#
# 1 0.019275 -0.003433 -0.003143 0.000000 0.000000 0.000000
# 2 -0.003433 0.012818 -0.006778 0.000000 0.000000 0.000000
# 3 -0.003143 -0.006778 0.013244 0.000000 0.000000 0.000000
# 4 0.000000 0.000000 0.000000 0.027838 0.000000 0.000000
# 5 0.000000 0.000000 0.000000 0.000000 0.026818 0.000000
# 6 0.000000 0.000000 0.000000 0.000000 0.000000 0.033808
#
#
# Mechanical properties :
#
#
# Convention : Reuss Voigt Hill
#
# Bulk Modulus (GPa) = 53.67390 65.14708 59.41049
# Shear Modulus (GPa) = 29.99068 31.88862 30.93965
#
# Velocity S-wave (km/s) = 3.92828 4.05068 3.98995
# Velocity P-wave (km/s) = 6.94209 7.44299 7.19690
#
# Compressibility (1/GPa) = 0.01863103
#
# Stress axis : x y z
#
# Youngs Moduli (GPa) = 51.88161 78.01232 75.50453
#
# Poissons Ratio (x) = 0.26778 0.23732
# Poissons Ratio (y) = 0.17809 0.51173
# Poissons Ratio (z) = 0.16307 0.52873
#
# Static dielectric constant tensor:
#      x y z
#    x 3.501070 0.000000 0.000000 
#    y 0.000000 3.875940 0.000000 
#    z 0.000000 0.000000 3.579660 
# 
# 
# High freq. dielectric constant tensor:
#      x y z
#    x 1.755600 0.000000 0.000000 
#    y 0.000000 1.771990 0.000000 
#    z 0.000000 0.000000 1.765390 
# 
# From -- ./inp_files/37790.got.cif
#   From: 2010.03.12/outbox.cif.g09.slc.cpg/sg53_19_cif.got.tgz:37790.got - 2010.04.16 14:36:59.
