data_PCOD8220764
_publ_section_title
;
Structure prediction by ZEFSAII (Michael W. Deem and Ramdas Pophale) SiO2 
 PCOD8220764
Probable space group: P M N A
;
_chemical_formula_sum "Si O2"
_cell_formula_units_Z 48
_cell_length_a 8.673756
_cell_length_b 18.849088
_cell_length_c 14.823521
_cell_angle_alpha 90.000000
_cell_angle_beta 90.000000
_cell_angle_gamma 90.000000
_cell_volume 2423.532878
_symmetry_space_group_name_H-M "P M N A"
_symmetry_group_IT_number 53
_symmetry_cell_setting 'orthorhombic'
loop_
_space_group_symop_operation_xyz
x,y,z
1/2-x,-y,1/2+z
x,-y,-z
1/2-x,y,1/2-z
-x,-y,-z
1/2+x,y,1/2-z
-x,y,z
1/2+x,-y,1/2+z
loop_
_atom_site_type_symbol
_atom_site_label
_atom_site_fract_x
_atom_site_fract_y
_atom_site_fract_z
Si Si1 0.815347 0.511217 0.147621
Si Si2 0.181430 0.401204 0.488737
Si Si3 0.680129 0.861995 0.840934
Si Si4 0.820276 0.761968 0.502004
Si Si5 0.175219 0.005317 0.893930
Si Si6 0.681007 0.840530 0.342668
O O1 0.750000 0.516052 0.250000
O O2 0.758325 0.440071 0.097001
O O3 0.000000 0.512493 0.152271
O O4 0.755216 0.576050 0.084983
O O5 0.213615 0.318756 0.472057
O O6 0.000000 0.418728 0.491400
O O7 0.750000 0.830244 0.750000
O O8 0.500000 0.853302 0.836646
O O9 0.722417 0.944397 0.850073
O O10 0.746886 0.813934 0.921261
O O11 0.728560 0.780761 0.412679
O O12 0.000000 0.775589 0.485110
O O13 0.000000 0.995800 0.859819
O O14 0.246793 0.081135 0.865821
O O15 0.184392 0.000000 0.000000
O O16 0.750000 0.813220 0.250000
O O17 0.500000 0.845420 0.337752
#
# Coordination Sequence:
#
# PCOD8220764 Si02
#       6
#     8   8   8   8   8   8
#     4  11  22  39  64  94 123 156 196 236 283 341
#     4  10  21  40  63  90 123 156 193 241 289 342
#     4  11  23  38  58  84 114 152 195 242 294 348
#     4  10  23  41  60  85 119 155 194 237 289 347
#     4  10  20  37  59  84 111 146 194 246 298 349
#     4  11  23  38  59  83 114 152 195 245 296 350
#
# _framework density 19.805797999999999
#
# number of rings (size 3 to 8) (size 9 to 14) (size 15 to 20)
#    0.000    1.500    1.667    4.500    0.000    6.333 
#    0.000    1.667    0.000    0.000    0.000    0.000 
#    0.000    0.000    0.000    0.000    0.000    0.000 
#
# Total GULP energy -595256.018785 kJ/mol
# GULP energy per Si atom -12401.167058 kJ/mol
# Density = 1.976072 g / cm^3
# Si number density = 19.805798 Si / 1000 Ang^3
#
#
#
# Elastic Constant Matrix: (Units=GPa)
#
#
# Indices 1 2 3 4 5 6 
#
# 1 90.8139 28.0284 42.3538 0.0000 0.0000 0.0000
# 2 28.0284 84.4910 22.5815 0.0000 0.0000 0.0000
# 3 42.3538 22.5815 125.2876 0.0000 0.0000 0.0000
# 4 0.0000 0.0000 0.0000 14.1130 0.0000 0.0000
# 5 0.0000 0.0000 0.0000 0.0000 34.9986 0.0000
# 6 0.0000 0.0000 0.0000 0.0000 0.0000 29.6891
#
#
#
# Elastic Compliance Matrix: (Units=1/GPa)
#
#
# Indices 1 2 3 4 5 6 
#
# 1 0.014021 -0.003556 -0.004099 0.000000 0.000000 0.000000
# 2 -0.003556 0.013336 -0.001202 0.000000 0.000000 0.000000
# 3 -0.004099 -0.001202 0.009584 0.000000 0.000000 0.000000
# 4 0.000000 0.000000 0.000000 0.070857 0.000000 0.000000
# 5 0.000000 0.000000 0.000000 0.000000 0.028573 0.000000
# 6 0.000000 0.000000 0.000000 0.000000 0.000000 0.033682
#
#
# Mechanical properties :
#
#
# Convention : Reuss Voigt Hill
#
# Bulk Modulus (GPa) = 52.00647 54.05776 53.03211
# Shear Modulus (GPa) = 25.75012 29.60207 27.67610
#
# Velocity S-wave (km/s) = 3.60964 3.87022 3.74220
# Velocity P-wave (km/s) = 6.60968 6.87929 6.74583
#
# Compressibility (1/GPa) = 0.01922838
#
# Stress axis : x y z
#
# Youngs Moduli (GPa) = 71.32400 74.98352 104.34226
#
# Poissons Ratio (x) = 0.26661 0.42768
# Poissons Ratio (y) = 0.25360 0.12539
# Poissons Ratio (z) = 0.29234 0.09011
#
# Static dielectric constant tensor:
#      x y z
#    x 3.638900 0.000000 0.000000 
#    y 0.000000 3.642350 0.000000 
#    z 0.000000 0.000000 3.830330 
# 
# 
# High freq. dielectric constant tensor:
#      x y z
#    x 1.775800 0.000000 0.000000 
#    y 0.000000 1.770110 0.000000 
#    z 0.000000 0.000000 1.784040 
# 
# From -- ./inp_files/20253.got.cif
#   From: 2010.03.12/outbox.cif.g09.slc.cpg/sg53_11_cif.got.tgz:20253.got - 2010.04.16 14:36:59.
