data_PCOD8220162
_publ_section_title
;
Structure prediction by ZEFSAII (Michael W. Deem and Ramdas Pophale) SiO2 
 PCOD8220162
Probable space group: P M N A
;
_chemical_formula_sum "Si O2"
_cell_formula_units_Z 64
_cell_length_a 9.125566
_cell_length_b 14.898187
_cell_length_c 23.735322
_cell_angle_alpha 90.000000
_cell_angle_beta 90.000000
_cell_angle_gamma 90.000000
_cell_volume 3226.921194
_symmetry_space_group_name_H-M "P M N A"
_symmetry_group_IT_number 53
_symmetry_cell_setting 'orthorhombic'
loop_
_space_group_symop_operation_xyz
x,y,z
1/2-x,-y,1/2+z
x,-y,-z
1/2-x,y,1/2-z
-x,-y,-z
1/2+x,y,1/2-z
-x,y,z
1/2+x,-y,1/2+z
loop_
_atom_site_type_symbol
_atom_site_label
_atom_site_fract_x
_atom_site_fract_y
_atom_site_fract_z
Si Si1 0.669578 0.604876 0.999129
Si Si2 0.672773 0.146747 0.594938
Si Si3 0.830413 0.316821 0.619514
Si Si4 0.665831 0.207961 0.305324
Si Si5 0.668777 0.947053 0.618148
Si Si6 0.827354 0.634203 0.887147
Si Si7 0.672964 0.510826 0.190099
Si Si8 0.336955 0.896119 0.986235
O O1 0.500000 0.625442 0.986385
O O2 0.768370 0.648444 0.950388
O O3 0.700559 0.500000 0.000000
O O4 0.718825 0.643703 0.059292
O O5 0.500000 0.156779 0.589651
O O6 0.737185 0.226996 0.633068
O O7 0.743801 0.156179 0.533077
O O8 0.717682 0.051054 0.622934
O O9 0.798561 0.387936 0.668900
O O10 0.000000 0.290150 0.618469
O O11 0.750000 0.235386 0.250000
O O12 0.500000 0.223352 0.288577
O O13 0.694116 0.103935 0.322735
O O14 0.709773 0.273227 0.355985
O O15 0.500000 0.942604 0.598809
O O16 0.759628 0.888232 0.573743
O O17 0.741518 0.554438 0.856286
O O18 0.000000 0.612405 0.888018
O O19 0.750000 0.496020 0.250000
O O20 0.500000 0.490973 0.195500
O O21 0.500000 0.853826 0.983966
O O22 0.344733 0.000000 0.000000
#
# Coordination Sequence:
#
# PCOD8220162 Si02
#       8
#     8   8   8   8   8   8   8   8
#     4  10  20  39  61  85 120 161 196 236 296 354
#     4  10  20  34  56  82 114 153 191 235 289 343
#     4  10  22  39  59  85 121 158 195 241 292 349
#     4  10  23  41  59  83 115 150 195 243 292 349
#     4   9  19  37  56  78 111 149 189 237 289 340
#     4  11  23  38  60  91 121 153 193 241 292 353
#     4  11  23  42  64  86 115 154 196 242 293 348
#     4   9  17  30  50  78 109 142 184 229 275 336
#
# _framework density 19.833145999999999
#
# number of rings (size 3 to 8) (size 9 to 14) (size 15 to 20)
#    0.000    2.000    1.250    1.875    1.750    6.250 
#    0.000    0.625    0.000    3.000    0.000    0.000 
#    0.000    0.000    0.000    0.000    0.000    0.000 
#
# Total GULP energy -793607.806506 kJ/mol
# GULP energy per Si atom -12400.121977 kJ/mol
# Density = 1.978800 g / cm^3
# Si number density = 19.833146 Si / 1000 Ang^3
#
#
#
# Elastic Constant Matrix: (Units=GPa)
#
#
# Indices 1 2 3 4 5 6 
#
# 1 80.6147 32.7774 29.4152 0.0000 0.0000 0.0000
# 2 32.7774 79.7231 7.6011 0.0000 0.0000 0.0000
# 3 29.4152 7.6011 70.3700 0.0000 0.0000 0.0000
# 4 0.0000 0.0000 0.0000 110.1445 0.0000 0.0000
# 5 0.0000 0.0000 0.0000 0.0000 26.8716 0.0000
# 6 0.0000 0.0000 0.0000 0.0000 0.0000 83.2211
#
#
#
# Elastic Compliance Matrix: (Units=1/GPa)
#
#
# Indices 1 2 3 4 5 6 
#
# 1 0.017478 -0.006557 -0.006598 0.000000 0.000000 0.000000
# 2 -0.006557 0.015134 0.001106 0.000000 0.000000 0.000000
# 3 -0.006598 0.001106 0.016849 0.000000 0.000000 0.000000
# 4 0.000000 0.000000 0.000000 0.009079 0.000000 0.000000
# 5 0.000000 0.000000 0.000000 0.000000 0.037214 0.000000
# 6 0.000000 0.000000 0.000000 0.000000 0.000000 0.012016
#
#
# Mechanical properties :
#
#
# Convention : Reuss Voigt Hill
#
# Bulk Modulus (GPa) = 39.42609 41.14389 40.28499
# Shear Modulus (GPa) = 35.63245 54.77505 45.20375
#
# Velocity S-wave (km/s) = 4.24324 5.26098 4.77928
# Velocity P-wave (km/s) = 6.62789 7.59565 7.12821
#
# Compressibility (1/GPa) = 0.02536391
#
# Stress axis : x y z
#
# Youngs Moduli (GPa) = 57.21452 66.07749 59.35066
#
# Poissons Ratio (x) = 0.43326 0.39158
# Poissons Ratio (y) = 0.37515 -0.06565
# Poissons Ratio (z) = 0.37748 -0.07309
#
# Static dielectric constant tensor:
#      x y z
#    x 3.672880 0.000000 0.000000 
#    y 0.000000 3.722450 0.000000 
#    z 0.000000 0.000000 3.425520 
# 
# 
# High freq. dielectric constant tensor:
#      x y z
#    x 1.775670 0.000000 0.000000 
#    y 0.000000 1.782750 0.000000 
#    z 0.000000 0.000000 1.754940 
# 
# From -- ./inp_files/34346.got.cif
#   From: 2010.03.12/outbox.cif.g09.slc.cpg/sg53_18_cif.got.tgz:34346.got - 2010.04.16 14:36:59.
