data_PCOD8220307
_publ_section_title
;
Structure prediction by ZEFSAII (Michael W. Deem and Ramdas Pophale) SiO2 
 PCOD8220307
Probable space group: P M N A
;
_chemical_formula_sum "Si O2"
_cell_formula_units_Z 48
_cell_length_a 8.702582
_cell_length_b 18.811664
_cell_length_c 15.419090
_cell_angle_alpha 90.000000
_cell_angle_beta 90.000000
_cell_angle_gamma 90.000000
_cell_volume 2524.259972
_symmetry_space_group_name_H-M "P M N A"
_symmetry_group_IT_number 53
_symmetry_cell_setting 'orthorhombic'
loop_
_space_group_symop_operation_xyz
x,y,z
1/2-x,-y,1/2+z
x,-y,-z
1/2-x,y,1/2-z
-x,-y,-z
1/2+x,y,1/2-z
-x,y,z
1/2+x,-y,1/2+z
loop_
_atom_site_type_symbol
_atom_site_label
_atom_site_fract_x
_atom_site_fract_y
_atom_site_fract_z
Si Si1 0.317515 0.829225 0.998522
Si Si2 0.681089 0.427070 0.159165
Si Si3 0.681680 0.420692 0.658345
Si Si4 0.680738 0.332719 0.995164
Si Si5 0.818136 0.920959 0.660145
Si Si6 0.181750 0.917522 0.339801
O O1 0.500000 0.834160 0.997805
O O2 0.262726 0.748087 0.995546
O O3 0.252556 0.867299 0.084510
O O4 0.251332 0.870827 0.915354
O O5 0.750000 0.399117 0.250000
O O6 0.500000 0.436479 0.169670
O O7 0.752263 0.502516 0.132816
O O8 0.724303 0.371508 0.084521
O O9 0.750000 0.394549 0.750000
O O10 0.500000 0.425766 0.666626
O O11 0.727213 0.365491 0.584515
O O12 0.500000 0.338667 0.975772
O O13 0.750000 0.892415 0.750000
O O14 0.000000 0.916426 0.664942
O O15 0.764111 0.001735 0.642024
O O16 0.250000 0.888798 0.250000
O O17 0.000000 0.913150 0.334591
#
# Coordination Sequence:
#
# PCOD8220307 Si02
#       6
#     8   8   8   8   8   8
#     4   9  18  33  52  73 101 138 173 204 247 305
#     4  10  20  35  56  79 104 135 172 214 257 304
#     4  11  22  37  58  80 103 133 171 214 257 305
#     4  10  21  36  53  76 107 140 172 210 258 308
#     4   9  17  31  52  76 100 131 171 212 253 296
#     4   9  17  31  52  75  99 130 171 214 252 296
#
# _framework density 19.015474999999999
#
# number of rings (size 3 to 8) (size 9 to 14) (size 15 to 20)
#    0.000    2.333    0.000    4.000    0.000    6.667 
#    0.000    4.167    0.000    4.000    0.000    0.000 
#    0.000    0.000    0.000    0.000    0.000    0.000 
#
# Total GULP energy -595286.934383 kJ/mol
# GULP energy per Si atom -12401.811133 kJ/mol
# Density = 1.897219 g / cm^3
# Si number density = 19.015475 Si / 1000 Ang^3
#
#
#
# Elastic Constant Matrix: (Units=GPa)
#
#
# Indices 1 2 3 4 5 6 
#
# 1 55.7566 32.8155 42.4452 0.0000 0.0000 0.0000
# 2 32.8155 132.8886 107.3129 0.0000 0.0000 0.0000
# 3 42.4452 107.3129 183.1487 0.0000 0.0000 0.0000
# 4 0.0000 0.0000 0.0000 14.5736 0.0000 0.0000
# 5 0.0000 0.0000 0.0000 0.0000 33.8591 0.0000
# 6 0.0000 0.0000 0.0000 0.0000 0.0000 22.9190
#
#
#
# Elastic Compliance Matrix: (Units=1/GPa)
#
#
# Indices 1 2 3 4 5 6 
#
# 1 0.022213 -0.002521 -0.003671 0.000000 0.000000 0.000000
# 2 -0.002521 0.014570 -0.007953 0.000000 0.000000 0.000000
# 3 -0.003671 -0.007953 0.010970 0.000000 0.000000 0.000000
# 4 0.000000 0.000000 0.000000 0.068617 0.000000 0.000000
# 5 0.000000 0.000000 0.000000 0.000000 0.029534 0.000000
# 6 0.000000 0.000000 0.000000 0.000000 0.000000 0.043632
#
#
# Mechanical properties :
#
#
# Convention : Reuss Voigt Hill
#
# Bulk Modulus (GPa) = 51.37545 81.88233 66.62889
# Shear Modulus (GPa) = 22.29017 26.88501 24.58759
#
# Velocity S-wave (km/s) = 3.42747 3.76420 3.59977
# Velocity P-wave (km/s) = 6.53757 7.87697 7.23831
#
# Compressibility (1/GPa) = 0.01946455
#
# Stress axis : x y z
#
# Youngs Moduli (GPa) = 45.01805 68.63562 91.15371
#
# Poissons Ratio (x) = 0.17303 0.33461
# Poissons Ratio (y) = 0.11349 0.72491
# Poissons Ratio (z) = 0.16526 0.54583
#
# Static dielectric constant tensor:
#      x y z
#    x 3.256600 0.000000 0.000000 
#    y 0.000000 3.550830 0.000000 
#    z 0.000000 0.000000 3.691740 
# 
# 
# High freq. dielectric constant tensor:
#      x y z
#    x 1.719480 0.000000 0.000000 
#    y 0.000000 1.734760 0.000000 
#    z 0.000000 0.000000 1.754990 
# 
# From -- ./inp_files/20168.got.cif
#   From: 2010.03.12/outbox.cif.g09.slc.cpg/sg53_11_cif.got.tgz:20168.got - 2010.04.16 14:36:59.
