data_PCOD8220032
_publ_section_title
;
Structure prediction by ZEFSAII (Michael W. Deem and Ramdas Pophale) SiO2 
 PCOD8220032
Probable space group: P M N A
;
_chemical_formula_sum "Si O2"
_cell_formula_units_Z 64
_cell_length_a 8.913245
_cell_length_b 22.147482
_cell_length_c 17.560921
_cell_angle_alpha 90.000000
_cell_angle_beta 90.000000
_cell_angle_gamma 90.000000
_cell_volume 3466.629998
_symmetry_space_group_name_H-M "P M N A"
_symmetry_group_IT_number 53
_symmetry_cell_setting 'orthorhombic'
loop_
_space_group_symop_operation_xyz
x,y,z
1/2-x,-y,1/2+z
x,-y,-z
1/2-x,y,1/2-z
-x,-y,-z
1/2+x,y,1/2-z
-x,y,z
1/2+x,-y,1/2+z
loop_
_atom_site_type_symbol
_atom_site_label
_atom_site_fract_x
_atom_site_fract_y
_atom_site_fract_z
Si Si1 0.331029 0.543165 0.427885
Si Si2 0.176431 0.797929 0.174891
Si Si3 0.826146 0.916055 0.380750
Si Si4 0.177201 0.448039 0.330440
Si Si5 0.175520 0.634642 0.528447
Si Si6 0.171873 0.752424 0.012313
Si Si7 0.325654 0.112210 0.467636
Si Si8 0.674701 0.050122 0.171983
O O1 0.328846 0.500000 0.500000
O O2 0.500000 0.556266 0.399979
O O3 0.240020 0.512714 0.358658
O O4 0.254497 0.605230 0.454520
O O5 0.250000 0.767891 0.250000
O O6 0.238091 0.865618 0.166351
O O7 0.217353 0.757707 0.101399
O O8 0.000000 0.802894 0.185596
O O9 0.762475 0.921865 0.465694
O O10 0.000000 0.898194 0.384376
O O11 0.799151 0.979368 0.340095
O O12 0.250000 0.430015 0.250000
O O13 0.222563 0.396746 0.391926
O O14 0.000000 0.453239 0.320484
O O15 0.223875 0.704336 0.530699
O O16 0.000000 0.627986 0.516105
O O17 0.000000 0.731617 0.004523
O O18 0.199056 0.816104 0.971905
O O19 0.500000 0.095644 0.475194
O O20 0.259454 0.089989 0.389311
O O21 0.750000 0.069978 0.250000
O O22 0.500000 0.066702 0.171331
#
# Coordination Sequence:
#
# PCOD8220032 Si02
#       8
#     8   8   8   8   8   8   8   8
#     4   9  17  31  53  78 105 138 170 204 251 302
#     4  10  20  34  53  78 106 136 171 215 267 319
#     4  10  20  34  54  79 105 134 170 213 263 323
#     4  10  20  34  53  81 113 141 175 218 262 308
#     4  10  20  34  55  81 107 139 180 222 260 305
#     4   9  20  37  55  76 103 138 180 220 260 312
#     4  10  21  37  56  77 103 137 176 219 266 317
#     4  11  23  36  52  76 105 136 172 216 268 323
#
# _framework density 18.461735000000001
#
# number of rings (size 3 to 8) (size 9 to 14) (size 15 to 20)
#    0.000    2.125    0.000    4.125    0.000   10.500 
#    0.000    1.250    0.000    3.000    0.000    0.000 
#    0.000    0.000    0.000    0.000    0.000    0.000 
#
# Total GULP energy -793761.162134 kJ/mol
# GULP energy per Si atom -12402.518158 kJ/mol
# Density = 1.841972 g / cm^3
# Si number density = 18.461735 Si / 1000 Ang^3
#
#
#
# Elastic Constant Matrix: (Units=GPa)
#
#
# Indices 1 2 3 4 5 6 
#
# 1 95.4070 36.8103 41.8256 0.0000 0.0000 0.0000
# 2 36.8103 39.5267 18.8100 0.0000 0.0000 0.0000
# 3 41.8256 18.8100 95.9477 0.0000 0.0000 0.0000
# 4 0.0000 0.0000 0.0000 19.8704 0.0000 0.0000
# 5 0.0000 0.0000 0.0000 0.0000 34.6563 0.0000
# 6 0.0000 0.0000 0.0000 0.0000 0.0000 31.9120
#
#
#
# Elastic Compliance Matrix: (Units=1/GPa)
#
#
# Indices 1 2 3 4 5 6 
#
# 1 0.018405 -0.014693 -0.005143 0.000000 0.000000 0.000000
# 2 -0.014693 0.039632 -0.001365 0.000000 0.000000 0.000000
# 3 -0.005143 -0.001365 0.012932 0.000000 0.000000 0.000000
# 4 0.000000 0.000000 0.000000 0.050326 0.000000 0.000000
# 5 0.000000 0.000000 0.000000 0.000000 0.028855 0.000000
# 6 0.000000 0.000000 0.000000 0.000000 0.000000 0.031336
#
#
# Mechanical properties :
#
#
# Convention : Reuss Voigt Hill
#
# Bulk Modulus (GPa) = 35.00405 47.30816 41.15610
# Shear Modulus (GPa) = 21.42176 26.18343 23.80260
#
# Velocity S-wave (km/s) = 3.41006 3.77006 3.59457
# Velocity P-wave (km/s) = 5.87420 6.68070 6.29039
#
# Compressibility (1/GPa) = 0.02856812
#
# Stress axis : x y z
#
# Youngs Moduli (GPa) = 54.33417 25.23237 77.32960
#
# Poissons Ratio (x) = 0.37073 0.39767
# Poissons Ratio (y) = 0.79831 0.10554
# Poissons Ratio (z) = 0.27942 0.03444
#
# Static dielectric constant tensor:
#      x y z
#    x 3.538380 0.000000 0.000000 
#    y 0.000000 3.219460 0.000000 
#    z 0.000000 0.000000 3.408630 
# 
# 
# High freq. dielectric constant tensor:
#      x y z
#    x 1.732090 0.000000 0.000000 
#    y 0.000000 1.698860 0.000000 
#    z 0.000000 0.000000 1.713030 
# 
# From -- ./inp_files/26830.got.cif
#   From: 2010.03.12/outbox.cif.g09.slc.cpg/sg53_14_cif.got.tgz:26830.got - 2010.04.16 14:36:59.
