data_PCOD8220714
_publ_section_title
;
Structure prediction by ZEFSAII (Michael W. Deem and Ramdas Pophale) SiO2 
 PCOD8220714
Probable space group: P M N A
;
_chemical_formula_sum "Si O2"
_cell_formula_units_Z 56
_cell_length_a 16.864451
_cell_length_b 17.220435
_cell_length_c 9.889680
_cell_angle_alpha 90.000000
_cell_angle_beta 90.000000
_cell_angle_gamma 90.000000
_cell_volume 2872.093440
_symmetry_space_group_name_H-M "P M N A"
_symmetry_group_IT_number 53
_symmetry_cell_setting 'orthorhombic'
loop_
_space_group_symop_operation_xyz
x,y,z
1/2-x,-y,1/2+z
x,-y,-z
1/2-x,y,1/2-z
-x,-y,-z
1/2+x,y,1/2-z
-x,y,z
1/2+x,-y,1/2+z
loop_
_atom_site_type_symbol
_atom_site_label
_atom_site_fract_x
_atom_site_fract_y
_atom_site_fract_z
Si Si1 0.664066 0.078798 0.715241
Si Si2 0.589598 0.161483 0.947862
Si Si3 0.820613 0.278565 0.410457
Si Si4 0.407187 0.681773 0.634768
Si Si5 0.225833 0.428213 0.098046
Si Si6 0.330974 0.823682 0.553787
Si Si7 0.589911 0.079539 0.223334
O O1 0.750000 0.043908 0.750000
O O2 0.646091 0.147159 0.820676
O O3 0.660978 0.113923 0.565651
O O4 0.600916 0.010627 0.739425
O O5 0.500000 0.156952 0.897503
O O6 0.606135 0.250010 0.997829
O O7 0.605778 0.097647 0.065485
O O8 0.853239 0.288239 0.259408
O O9 0.783578 0.360204 0.457277
O O10 0.757249 0.209186 0.427620
O O11 0.500000 0.667820 0.666121
O O12 0.366055 0.601038 0.589024
O O13 0.393259 0.751830 0.527715
O O14 0.250000 0.452795 0.250000
O O15 0.237394 0.500000 0.000000
O O16 0.351349 0.867899 0.691125
O O17 0.500000 0.102981 0.259793
#
# Coordination Sequence:
#
# PCOD8220714 Si02
#       7
#     8   8   8   8   8   8   8
#     4  12  26  38  55  84 120 161 197 254 309 358
#     4  11  23  41  62  83 116 157 204 251 300 358
#     4  10  20  38  64  89 115 154 208 238 287 353
#     4  10  20  36  64  94 121 158 202 246 293 352
#     4   9  20  39  63  93 123 158 193 241 287 357
#     4  11  22  38  59  86 118 153 205 254 300 352
#     4  11  25  40  59  83 113 157 206 257 308 359
#
# _framework density 19.497973999999999
#
# number of rings (size 3 to 8) (size 9 to 14) (size 15 to 20)
#    0.000    1.429    2.857    3.429    2.000    5.429 
#    5.143    0.000    0.000   10.714    0.000    0.000 
#    0.000    0.000    0.000    0.000    0.000    0.000 
#
# Total GULP energy -694180.504759 kJ/mol
# GULP energy per Si atom -12396.080442 kJ/mol
# Density = 1.945360 g / cm^3
# Si number density = 19.497974 Si / 1000 Ang^3
#
#
#
# Elastic Constant Matrix: (Units=GPa)
#
#
# Indices 1 2 3 4 5 6 
#
# 1 92.1343 33.1867 28.7281 0.0000 0.0000 0.0000
# 2 33.1867 98.0644 22.1066 0.0000 0.0000 0.0000
# 3 28.7281 22.1066 47.2076 0.0000 0.0000 0.0000
# 4 0.0000 0.0000 0.0000 28.4017 0.0000 0.0000
# 5 0.0000 0.0000 0.0000 0.0000 22.4738 0.0000
# 6 0.0000 0.0000 0.0000 0.0000 0.0000 22.5838
#
#
#
# Elastic Compliance Matrix: (Units=1/GPa)
#
#
# Indices 1 2 3 4 5 6 
#
# 1 0.014243 -0.003204 -0.007167 0.000000 0.000000 0.000000
# 2 -0.003204 0.012122 -0.003726 0.000000 0.000000 0.000000
# 3 -0.007167 -0.003726 0.027289 0.000000 0.000000 0.000000
# 4 0.000000 0.000000 0.000000 0.035209 0.000000 0.000000
# 5 0.000000 0.000000 0.000000 0.000000 0.044496 0.000000
# 6 0.000000 0.000000 0.000000 0.000000 0.000000 0.044280
#
#
# Mechanical properties :
#
#
# Convention : Reuss Voigt Hill
#
# Bulk Modulus (GPa) = 39.27936 45.04990 42.16463
# Shear Modulus (GPa) = 23.32959 24.91752 24.12355
#
# Velocity S-wave (km/s) = 3.46282 3.57873 3.52125
# Velocity P-wave (km/s) = 6.01475 6.34283 6.18097
#
# Compressibility (1/GPa) = 0.02545866
#
# Stress axis : x y z
#
# Youngs Moduli (GPa) = 70.21207 82.49568 36.64430
#
# Poissons Ratio (x) = 0.26434 0.26262
# Poissons Ratio (y) = 0.22498 0.13655
# Poissons Ratio (z) = 0.50319 0.30742
#
# Static dielectric constant tensor:
#      x y z
#    x 3.647110 0.000000 0.000000 
#    y 0.000000 3.544130 0.000000 
#    z 0.000000 0.000000 3.400050 
# 
# 
# High freq. dielectric constant tensor:
#      x y z
#    x 1.769610 0.000000 0.000000 
#    y 0.000000 1.747730 0.000000 
#    z 0.000000 0.000000 1.742790 
# 
# From -- ./inp_files/16069.got.cif
#   From: 2010.03.12/outbox.cif.g09.slc.cpg/sg53_9_cif.got.tgz:16069.got - 2010.04.16 14:36:59.
