data_PCOD8220639
_publ_section_title
;
Structure prediction by ZEFSAII (Michael W. Deem and Ramdas Pophale) SiO2 
 PCOD8220639
Probable space group: P M N A
;
_chemical_formula_sum "Si O2"
_cell_formula_units_Z 48
_cell_length_a 8.932289
_cell_length_b 30.130648
_cell_length_c 9.103449
_cell_angle_alpha 90.000000
_cell_angle_beta 90.000000
_cell_angle_gamma 90.000000
_cell_volume 2450.062716
_symmetry_space_group_name_H-M "P M N A"
_symmetry_group_IT_number 53
_symmetry_cell_setting 'orthorhombic'
loop_
_space_group_symop_operation_xyz
x,y,z
1/2-x,-y,1/2+z
x,-y,-z
1/2-x,y,1/2-z
-x,-y,-z
1/2+x,y,1/2-z
-x,y,z
1/2+x,-y,1/2+z
loop_
_atom_site_type_symbol
_atom_site_label
_atom_site_fract_x
_atom_site_fract_y
_atom_site_fract_z
Si Si1 0.825605 0.294882 0.596182
Si Si2 0.676201 0.620031 0.908463
Si Si3 0.172945 0.456146 0.904714
Si Si4 0.172539 0.957104 0.098898
Si Si5 0.175063 0.215572 0.401143
Si Si6 0.323723 0.885662 0.903226
O O1 0.750000 0.305602 0.750000
O O2 0.785572 0.332327 0.477586
O O3 0.768230 0.247772 0.531225
O O4 0.000000 0.293333 0.628190
O O5 0.750000 0.616482 0.750000
O O6 0.500000 0.612128 0.892035
O O7 0.743140 0.583528 0.015550
O O8 0.250000 0.465510 0.750000
O O9 0.000000 0.443167 0.880878
O O10 0.189553 0.500000 0.000000
O O11 0.250000 0.969635 0.250000
O O12 0.000000 0.944566 0.122970
O O13 0.255986 0.914899 0.032034
O O14 0.192009 0.000000 0.000000
O O15 0.250000 0.230370 0.250000
O O16 0.216724 0.165122 0.442272
O O17 0.000000 0.221491 0.376743
O O18 0.250000 0.900040 0.750000
O O19 0.500000 0.893658 0.890722
#
# Coordination Sequence:
#
# PCOD8220639 Si02
#       6
#     8   8   8   8   8   8
#     4  10  22  38  56  82 115 150 189 233 282 335
#     4  11  23  39  61  87 116 151 192 238 287 340
#     4  11  24  41  62  88 119 154 192 236 285 338
#     4  11  24  40  59  83 112 147 186 230 281 335
#     4   9  19  36  57  83 113 147 187 229 276 331
#     4  10  20  36  59  85 115 149 187 232 280 333
#
# _framework density 19.591335999999998
#
# number of rings (size 3 to 8) (size 9 to 14) (size 15 to 20)
#    0.000    1.667    0.000    4.000    0.000   10.000 
#    0.000    1.667    0.000    0.000    0.000    0.000 
#    0.000    0.000    0.000    0.000    0.000    0.000 
#
# Total GULP energy -595432.512048 kJ/mol
# GULP energy per Si atom -12404.844001 kJ/mol
# Density = 1.954675 g / cm^3
# Si number density = 19.591336 Si / 1000 Ang^3
#
#
#
# Elastic Constant Matrix: (Units=GPa)
#
#
# Indices 1 2 3 4 5 6 
#
# 1 103.8233 54.7551 67.1602 0.0000 0.0000 0.0000
# 2 54.7551 91.7727 44.5968 0.0000 0.0000 0.0000
# 3 67.1602 44.5968 132.2057 0.0000 0.0000 0.0000
# 4 0.0000 0.0000 0.0000 41.7883 0.0000 0.0000
# 5 0.0000 0.0000 0.0000 0.0000 40.2345 0.0000
# 6 0.0000 0.0000 0.0000 0.0000 0.0000 30.1592
#
#
#
# Elastic Compliance Matrix: (Units=1/GPa)
#
#
# Indices 1 2 3 4 5 6 
#
# 1 0.017769 -0.007434 -0.006519 0.000000 0.000000 0.000000
# 2 -0.007434 0.016143 -0.001669 0.000000 0.000000 0.000000
# 3 -0.006519 -0.001669 0.011439 0.000000 0.000000 0.000000
# 4 0.000000 0.000000 0.000000 0.023930 0.000000 0.000000
# 5 0.000000 0.000000 0.000000 0.000000 0.024854 0.000000
# 6 0.000000 0.000000 0.000000 0.000000 0.000000 0.033157
#
#
# Mechanical properties :
#
#
# Convention : Reuss Voigt Hill
#
# Bulk Modulus (GPa) = 70.88794 73.42511 72.15653
# Shear Modulus (GPa) = 30.62990 33.18903 31.90947
#
# Velocity S-wave (km/s) = 3.95833 4.12037 4.04016
# Velocity P-wave (km/s) = 7.55996 7.75863 7.65994
#
# Compressibility (1/GPa) = 0.01410677
#
# Stress axis : x y z
#
# Youngs Moduli (GPa) = 56.27684 61.94662 87.42270
#
# Poissons Ratio (x) = 0.46051 0.56992
# Poissons Ratio (y) = 0.41836 0.14591
# Poissons Ratio (z) = 0.36687 0.10339
#
# Static dielectric constant tensor:
#      x y z
#    x 3.715240 0.000000 0.000000 
#    y 0.000000 3.819730 0.000000 
#    z 0.000000 0.000000 3.545320 
# 
# 
# High freq. dielectric constant tensor:
#      x y z
#    x 1.772580 0.000000 0.000000 
#    y 0.000000 1.777840 0.000000 
#    z 0.000000 0.000000 1.770270 
# 
# From -- ./inp_files/6710.got.cif
#   From: 2010.03.12/outbox.cif.g09.slc.cpg/sg53_4_cif.got.tgz:6710.got - 2010.04.16 14:36:59.
