data_PCOD8220327
_publ_section_title
;
Structure prediction by ZEFSAII (Michael W. Deem and Ramdas Pophale) SiO2 
 PCOD8220327
Probable space group: P M N A
;
_chemical_formula_sum "Si O2"
_cell_formula_units_Z 64
_cell_length_a 9.025266
_cell_length_b 20.545993
_cell_length_c 18.324476
_cell_angle_alpha 90.000000
_cell_angle_beta 90.000000
_cell_angle_gamma 90.000000
_cell_volume 3397.963512
_symmetry_space_group_name_H-M "P M N A"
_symmetry_group_IT_number 53
_symmetry_cell_setting 'orthorhombic'
loop_
_space_group_symop_operation_xyz
x,y,z
1/2-x,-y,1/2+z
x,-y,-z
1/2-x,y,1/2-z
-x,-y,-z
1/2+x,y,1/2-z
-x,y,z
1/2+x,-y,1/2+z
loop_
_atom_site_type_symbol
_atom_site_label
_atom_site_fract_x
_atom_site_fract_y
_atom_site_fract_z
Si Si1 0.325336 0.629213 0.410354
Si Si2 0.325972 0.618395 0.576388
Si Si3 0.672201 0.999514 0.676116
Si Si4 0.676501 0.112368 0.090178
Si Si5 0.175491 0.499424 0.827066
Si Si6 0.828188 0.884689 0.063501
Si Si7 0.163610 0.256005 0.412084
Si Si8 0.833726 0.242773 0.584944
O O1 0.500000 0.641379 0.407706
O O2 0.273654 0.612585 0.492659
O O3 0.275208 0.569748 0.359674
O O4 0.244710 0.693880 0.380230
O O5 0.500000 0.620436 0.581423
O O6 0.264664 0.556029 0.619577
O O7 0.268165 0.685126 0.613554
O O8 0.750000 0.023556 0.750000
O O9 0.500000 0.984576 0.690196
O O10 0.693481 0.054704 0.616175
O O11 0.753655 0.934419 0.650027
O O12 0.500000 0.103180 0.084146
O O13 0.716881 0.185675 0.117168
O O14 0.745811 0.097617 0.011265
O O15 0.250000 0.510124 0.750000
O O16 0.000000 0.503006 0.818685
O O17 0.758485 0.821999 0.104037
O O18 0.000000 0.870748 0.046494
O O19 0.163534 0.250738 0.498800
O O20 0.000000 0.272044 0.382753
O O21 0.000000 0.236495 0.616644
#
# Coordination Sequence:
#
# PCOD8220327 Si02
#       8
#     8   8   8   8   8   8   8   8
#     4   9  17  32  54  76 100 131 168 211 255 302
#     4   9  17  31  53  77  99 129 169 211 253 299
#     4  11  24  39  55  77 107 142 180 221 264 313
#     4  10  20  35  57  83 110 140 175 216 262 313
#     4  10  21  35  50  72 102 135 171 209 253 304
#     4  10  20  35  56  82 109 138 175 217 262 313
#     4   8  16  30  49  77 107 131 161 206 256 304
#     4   9  17  30  51  80 108 132 165 211 261 310
#
# _framework density 18.834810000000001
#
# number of rings (size 3 to 8) (size 9 to 14) (size 15 to 20)
#    0.000    2.500    0.000    3.000    0.000    9.500 
#    0.000    1.250    0.000    5.250    0.000    0.000 
#    0.000    0.000    0.000    0.000    0.000    0.000 
#
# Total GULP energy -793559.502553 kJ/mol
# GULP energy per Si atom -12399.367227 kJ/mol
# Density = 1.879194 g / cm^3
# Si number density = 18.834810 Si / 1000 Ang^3
#
#
#
# Elastic Constant Matrix: (Units=GPa)
#
#
# Indices 1 2 3 4 5 6 
#
# 1 75.7638 37.3112 22.0992 0.0000 0.0000 0.0000
# 2 37.3112 97.3304 10.4271 0.0000 0.0000 0.0000
# 3 22.0992 10.4271 41.2464 0.0000 0.0000 0.0000
# 4 0.0000 0.0000 0.0000 7.0873 0.0000 0.0000
# 5 0.0000 0.0000 0.0000 0.0000 26.1710 0.0000
# 6 0.0000 0.0000 0.0000 0.0000 0.0000 30.5414
#
#
#
# Elastic Compliance Matrix: (Units=1/GPa)
#
#
# Indices 1 2 3 4 5 6 
#
# 1 0.018763 -0.006286 -0.008464 0.000000 0.000000 0.000000
# 2 -0.006286 0.012666 0.000166 0.000000 0.000000 0.000000
# 3 -0.008464 0.000166 0.028737 0.000000 0.000000 0.000000
# 4 0.000000 0.000000 0.000000 0.141097 0.000000 0.000000
# 5 0.000000 0.000000 0.000000 0.000000 0.038210 0.000000
# 6 0.000000 0.000000 0.000000 0.000000 0.000000 0.032742
#
#
# Mechanical properties :
#
#
# Convention : Reuss Voigt Hill
#
# Bulk Modulus (GPa) = 32.25930 39.33506 35.79718
# Shear Modulus (GPa) = 16.04012 22.39349 19.21681
#
# Velocity S-wave (km/s) = 2.92142 3.45184 3.19765
# Velocity P-wave (km/s) = 5.34268 6.06766 5.71668
#
# Compressibility (1/GPa) = 0.03099881
#
# Stress axis : x y z
#
# Youngs Moduli (GPa) = 53.29502 78.94983 34.79780
#
# Poissons Ratio (x) = 0.49629 0.29453
# Poissons Ratio (y) = 0.33502 -0.00578
# Poissons Ratio (z) = 0.45109 -0.01310
#
# Static dielectric constant tensor:
#      x y z
#    x 3.546890 0.000000 0.000000 
#    y 0.000000 3.815080 0.000000 
#    z 0.000000 0.000000 3.132500 
# 
# 
# High freq. dielectric constant tensor:
#      x y z
#    x 1.734160 0.000000 0.000000 
#    y 0.000000 1.749340 0.000000 
#    z 0.000000 0.000000 1.694630 
# 
# From -- ./inp_files/26928.got.cif
#   From: 2010.03.12/outbox.cif.g09.slc.cpg/sg53_14_cif.got.tgz:26928.got - 2010.04.16 14:36:59.
