data_PCOD8220163
_publ_section_title
;
Structure prediction by ZEFSAII (Michael W. Deem and Ramdas Pophale) SiO2 
 PCOD8220163
Probable space group: P M N A
;
_chemical_formula_sum "Si O2"
_cell_formula_units_Z 48
_cell_length_a 15.360604
_cell_length_b 18.382816
_cell_length_c 8.600391
_cell_angle_alpha 90.000000
_cell_angle_beta 90.000000
_cell_angle_gamma 90.000000
_cell_volume 2428.502357
_symmetry_space_group_name_H-M "P M N A"
_symmetry_group_IT_number 53
_symmetry_cell_setting 'orthorhombic'
loop_
_space_group_symop_operation_xyz
x,y,z
1/2-x,-y,1/2+z
x,-y,-z
1/2-x,y,1/2-z
-x,-y,-z
1/2+x,y,1/2-z
-x,y,z
1/2+x,-y,1/2+z
loop_
_atom_site_type_symbol
_atom_site_label
_atom_site_fract_x
_atom_site_fract_y
_atom_site_fract_z
Si Si1 0.899771 0.305752 0.396537
Si Si2 0.245748 0.923396 0.934452
Si Si3 0.164907 0.806043 0.146342
Si Si4 0.259169 0.422884 0.069153
Si Si5 0.096146 0.845800 0.452647
Si Si6 0.599477 0.329654 0.462745
O O1 0.836957 0.366734 0.470442
O O2 0.870010 0.229483 0.470357
O O3 0.000000 0.324162 0.439452
O O4 0.886342 0.300477 0.211745
O O5 0.250000 0.921771 0.750000
O O6 0.183799 0.860495 0.003489
O O7 0.343607 0.911923 0.994595
O O8 0.211179 0.000000 0.000000
O O9 0.250000 0.788916 0.250000
O O10 0.095778 0.841082 0.265268
O O11 0.121308 0.733963 0.081404
O O12 0.250000 0.434019 0.250000
O O13 0.285213 0.500000 0.000000
O O14 0.166426 0.395231 0.001460
O O15 0.000000 0.863287 0.513362
O O16 0.500000 0.356480 0.487831
#
# Coordination Sequence:
#
# PCOD8220163 Si02
#       6
#     8   8   8   8   8   8
#     4   9  19  36  57  81 108 143 185 227 274 327
#     4  11  22  38  58  80 110 149 188 225 271 326
#     4  10  20  34  56  83 110 141 181 226 274 327
#     4  10  21  35  52  76 108 144 183 228 276 328
#     4  10  20  35  57  85 114 141 177 227 277 327
#     4  10  20  36  57  79 107 144 185 227 273 329
#
# _framework density 19.765267000000001
#
# number of rings (size 3 to 8) (size 9 to 14) (size 15 to 20)
#    0.000    2.000    0.000    5.000    0.000    4.333 
#    0.000    0.833    0.000    3.500    0.000    0.000 
#    0.000    0.000    0.000    0.000    0.000    0.000 
#
# Total GULP energy -595185.088845 kJ/mol
# GULP energy per Si atom -12399.689351 kJ/mol
# Density = 1.972028 g / cm^3
# Si number density = 19.765267 Si / 1000 Ang^3
#
#
#
# Elastic Constant Matrix: (Units=GPa)
#
#
# Indices 1 2 3 4 5 6 
#
# 1 83.2274 25.9484 10.3111 0.0000 0.0000 0.0000
# 2 25.9484 60.6206 21.1140 0.0000 0.0000 0.0000
# 3 10.3111 21.1140 84.2180 0.0000 0.0000 0.0000
# 4 0.0000 0.0000 0.0000 32.8932 0.0000 0.0000
# 5 0.0000 0.0000 0.0000 0.0000 16.7839 0.0000
# 6 0.0000 0.0000 0.0000 0.0000 0.0000 8.8100
#
#
#
# Elastic Compliance Matrix: (Units=1/GPa)
#
#
# Indices 1 2 3 4 5 6 
#
# 1 0.013870 -0.005857 -0.000230 0.000000 0.000000 0.000000
# 2 -0.005857 0.020548 -0.004434 0.000000 0.000000 0.000000
# 3 -0.000230 -0.004434 0.013014 0.000000 0.000000 0.000000
# 4 0.000000 0.000000 0.000000 0.030401 0.000000 0.000000
# 5 0.000000 0.000000 0.000000 0.000000 0.059581 0.000000
# 6 0.000000 0.000000 0.000000 0.000000 0.000000 0.113507
#
#
# Mechanical properties :
#
#
# Convention : Reuss Voigt Hill
#
# Bulk Modulus (GPa) = 37.89435 38.09034 37.99234
# Shear Modulus (GPa) = 17.80886 23.07692 20.44289
#
# Velocity S-wave (km/s) = 3.00495 3.42065 3.21952
# Velocity P-wave (km/s) = 5.59048 5.90883 5.75186
#
# Compressibility (1/GPa) = 0.02638916
#
# Stress axis : x y z
#
# Youngs Moduli (GPa) = 72.09919 48.66761 76.84152
#
# Poissons Ratio (x) = 0.28504 0.01765
# Poissons Ratio (y) = 0.42228 0.34074
# Poissons Ratio (z) = 0.01657 0.21581
#
# Static dielectric constant tensor:
#      x y z
#    x 3.758640 0.000000 0.000000 
#    y 0.000000 3.496720 0.000000 
#    z 0.000000 0.000000 3.666420 
# 
# 
# High freq. dielectric constant tensor:
#      x y z
#    x 1.774480 0.000000 0.000000 
#    y 0.000000 1.755580 0.000000 
#    z 0.000000 0.000000 1.775260 
# 
# From -- ./inp_files/8617.got.cif
#   From: 2010.03.12/outbox.cif.g09.slc.cpg/sg53_5_cif.got.tgz:8617.got - 2010.04.16 14:36:59.
