data_PCOD8220867
_publ_section_title
;
Structure prediction by ZEFSAII (Michael W. Deem and Ramdas Pophale) SiO2 
 PCOD8220867
Probable space group: P M N A
;
_chemical_formula_sum "Si O2"
_cell_formula_units_Z 32
_cell_length_a 8.795425
_cell_length_b 7.649004
_cell_length_c 23.604046
_cell_angle_alpha 90.000000
_cell_angle_beta 90.000000
_cell_angle_gamma 90.000000
_cell_volume 1587.991487
_symmetry_space_group_name_H-M "P M N A"
_symmetry_group_IT_number 53
_symmetry_cell_setting 'orthorhombic'
loop_
_space_group_symop_operation_xyz
x,y,z
1/2-x,-y,1/2+z
x,-y,-z
1/2-x,y,1/2-z
-x,-y,-z
1/2+x,y,1/2-z
-x,y,z
1/2+x,-y,1/2+z
loop_
_atom_site_type_symbol
_atom_site_label
_atom_site_fract_x
_atom_site_fract_y
_atom_site_fract_z
Si Si1 0.178752 0.501078 0.690173
Si Si2 0.821662 0.813747 0.873520
Si Si3 0.676566 0.794991 0.383663
Si Si4 0.179052 0.693454 0.993839
O O1 0.250000 0.450088 0.750000
O O2 0.236292 0.691034 0.670861
O O3 0.222841 0.352006 0.645620
O O4 0.000000 0.508072 0.696746
O O5 0.755814 0.781622 0.936859
O O6 0.000000 0.771529 0.870251
O O7 0.789661 0.015217 0.856881
O O8 0.500000 0.742675 0.376571
O O9 0.719823 0.804939 0.450330
O O10 0.000000 0.680903 0.986387
O O11 0.249601 0.500000 0.000000
#
# Coordination Sequence:
#
# PCOD8220867 Si02
#       4
#     8   8   8   8
#     4  12  26  43  62  83 115 156 202 250 299 352
#     4  10  20  37  63  93 123 156 196 241 290 346
#     4  10  20  37  63  93 123 156 196 241 290 346
#     4   9  15  29  59  93 125 156 191 234 283 346
#
# _framework density 20.151242
#
# number of rings (size 3 to 8) (size 9 to 14) (size 15 to 20)
#    0.000    1.750    2.500    3.000    0.000    5.000 
#    0.000    2.500    0.000    3.000    0.000    0.000 
#    0.000    0.000    0.000    0.000    0.000    0.000 
#
# Total GULP energy -396806.077289 kJ/mol
# GULP energy per Si atom -12400.189915 kJ/mol
# Density = 2.010538 g / cm^3
# Si number density = 20.151242 Si / 1000 Ang^3
#
#
#
# Elastic Constant Matrix: (Units=GPa)
#
#
# Indices 1 2 3 4 5 6 
#
# 1 82.6442 34.1531 23.4431 0.0000 0.0000 0.0000
# 2 34.1531 98.7968 9.8064 0.0000 0.0000 0.0000
# 3 23.4431 9.8064 63.9244 0.0000 0.0000 0.0000
# 4 0.0000 0.0000 0.0000 16.7577 0.0000 0.0000
# 5 0.0000 0.0000 0.0000 0.0000 22.5747 0.0000
# 6 0.0000 0.0000 0.0000 0.0000 0.0000 125.0007
#
#
#
# Elastic Compliance Matrix: (Units=1/GPa)
#
#
# Indices 1 2 3 4 5 6 
#
# 1 0.015516 -0.004873 -0.004943 0.000000 0.000000 0.000000
# 2 -0.004873 0.011809 -0.000024 0.000000 0.000000 0.000000
# 3 -0.004943 -0.000024 0.017460 0.000000 0.000000 0.000000
# 4 0.000000 0.000000 0.000000 0.059674 0.000000 0.000000
# 5 0.000000 0.000000 0.000000 0.000000 0.044297 0.000000
# 6 0.000000 0.000000 0.000000 0.000000 0.000000 0.008000
#
#
# Mechanical properties :
#
#
# Convention : Reuss Voigt Hill
#
# Bulk Modulus (GPa) = 39.83388 42.24120 41.03754
# Shear Modulus (GPa) = 27.05561 44.73079 35.89320
#
# Velocity S-wave (km/s) = 3.66816 4.71654 4.22499
# Velocity P-wave (km/s) = 6.14418 7.11818 6.64904
#
# Compressibility (1/GPa) = 0.02510426
#
# Stress axis : x y z
#
# Youngs Moduli (GPa) = 64.44982 84.68260 57.27432
#
# Poissons Ratio (x) = 0.41267 0.28309
# Poissons Ratio (y) = 0.31407 0.00140
# Poissons Ratio (z) = 0.31855 0.00207
#
# Static dielectric constant tensor:
#      x y z
#    x 3.259190 0.000000 0.000000 
#    y 0.000000 3.728810 0.000000 
#    z 0.000000 0.000000 3.752460 
# 
# 
# High freq. dielectric constant tensor:
#      x y z
#    x 1.742900 0.000000 0.000000 
#    y 0.000000 1.799350 0.000000 
#    z 0.000000 0.000000 1.789040 
# 
# From -- ./inp_files/30008.got.cif
#   From: 2010.03.12/outbox.cif.g09.slc.cpg/sg53_16_cif.got.tgz:30008.got - 2010.04.16 14:36:59.
