data_PCOD8220675
_publ_section_title
;
Structure prediction by ZEFSAII (Michael W. Deem and Ramdas Pophale) SiO2 
 PCOD8220675
Probable space group: P M N A
;
_chemical_formula_sum "Si O2"
_cell_formula_units_Z 64
_cell_length_a 8.583699
_cell_length_b 18.324000
_cell_length_c 20.489915
_cell_angle_alpha 90.000000
_cell_angle_beta 90.000000
_cell_angle_gamma 90.000000
_cell_volume 3222.811613
_symmetry_space_group_name_H-M "P M N A"
_symmetry_group_IT_number 53
_symmetry_cell_setting 'orthorhombic'
loop_
_space_group_symop_operation_xyz
x,y,z
1/2-x,-y,1/2+z
x,-y,-z
1/2-x,y,1/2-z
-x,-y,-z
1/2+x,y,1/2-z
-x,y,z
1/2+x,-y,1/2+z
loop_
_atom_site_type_symbol
_atom_site_label
_atom_site_fract_x
_atom_site_fract_y
_atom_site_fract_z
Si Si1 0.180028 0.944613 0.558389
Si Si2 0.184643 0.718618 0.680572
Si Si3 0.316871 0.708044 0.066386
Si Si4 0.183498 0.960041 0.318991
Si Si5 0.314561 0.458128 0.937248
Si Si6 0.183156 0.197144 0.819261
Si Si7 0.816468 0.448056 0.318039
Si Si8 0.681216 0.209887 0.445361
O O1 0.288295 0.875574 0.545348
O O2 0.000000 0.919986 0.560765
O O3 0.209979 0.000000 0.500000
O O4 0.230789 0.981777 0.626236
O O5 0.250000 0.745269 0.750000
O O6 0.234994 0.634984 0.667919
O O7 0.264964 0.768152 0.626545
O O8 0.000000 0.729231 0.678218
O O9 0.500000 0.712843 0.079932
O O10 0.256943 0.624972 0.062965
O O11 0.226953 0.745712 0.125315
O O12 0.280233 0.745337 0.997753
O O13 0.250000 0.987823 0.250000
O O14 0.251571 0.881775 0.338877
O O15 0.000000 0.950972 0.313577
O O16 0.500000 0.461265 0.938326
O O17 0.247971 0.499819 0.874008
O O18 0.246327 0.500000 0.000000
O O19 0.250000 0.224067 0.750000
O O20 0.000000 0.191208 0.812853
O O21 0.750000 0.476838 0.250000
O O22 0.000000 0.453353 0.314928
O O23 0.500000 0.226375 0.455781
#
# Coordination Sequence:
#
# PCOD8220675 Si02
#       8
#     8   8   8   8   8   8   8   8
#     4  10  22  40  61  83 110 147 190 234 282 337
#     4  10  20  37  61  86 116 152 190 235 285 339
#     4  11  22  38  60  84 115 152 191 238 289 340
#     4  10  20  36  60  87 115 148 186 229 280 337
#     4   9  18  34  57  83 109 143 188 234 283 339
#     4  11  22  38  60  86 118 153 192 234 280 337
#     4   9  18  34  57  84 112 145 185 229 281 338
#     4  12  25  39  58  85 117 152 193 237 282 338
#
# _framework density 19.858438
#
# number of rings (size 3 to 8) (size 9 to 14) (size 15 to 20)
#    0.000    1.750    0.000    5.625    0.000    5.750 
#    0.000    3.750    0.000    2.625    0.000    0.000 
#    0.000    0.000    0.000    0.000    0.000    0.000 
#
# Total GULP energy -793896.095435 kJ/mol
# GULP energy per Si atom -12404.626491 kJ/mol
# Density = 1.981324 g / cm^3
# Si number density = 19.858438 Si / 1000 Ang^3
#
#
#
# Elastic Constant Matrix: (Units=GPa)
#
#
# Indices 1 2 3 4 5 6 
#
# 1 61.0096 18.4240 17.4146 0.0000 0.0000 0.0000
# 2 18.4240 94.7727 51.2431 0.0000 0.0000 0.0000
# 3 17.4146 51.2431 124.7962 0.0000 0.0000 0.0000
# 4 0.0000 0.0000 0.0000 37.5072 0.0000 0.0000
# 5 0.0000 0.0000 0.0000 0.0000 34.5628 0.0000
# 6 0.0000 0.0000 0.0000 0.0000 0.0000 1.0746
#
#
#
# Elastic Compliance Matrix: (Units=1/GPa)
#
#
# Indices 1 2 3 4 5 6 
#
# 1 0.017588 -0.002689 -0.001350 0.000000 0.000000 0.000000
# 2 -0.002689 0.013974 -0.005363 0.000000 0.000000 0.000000
# 3 -0.001350 -0.005363 0.010403 0.000000 0.000000 0.000000
# 4 0.000000 0.000000 0.000000 0.026662 0.000000 0.000000
# 5 0.000000 0.000000 0.000000 0.000000 0.028933 0.000000
# 6 0.000000 0.000000 0.000000 0.000000 0.000000 0.930618
#
#
# Mechanical properties :
#
#
# Convention : Reuss Voigt Hill
#
# Bulk Modulus (GPa) = 43.17459 50.52688 46.85073
# Shear Modulus (GPa) = 4.74067 27.52871 16.13469
#
# Velocity S-wave (km/s) = 1.54674 3.72727 2.85351
# Velocity P-wave (km/s) = 4.99783 6.63492 5.87369
#
# Compressibility (1/GPa) = 0.02316177
#
# Stress axis : x y z
#
# Youngs Moduli (GPa) = 56.85582 71.56202 96.12210
#
# Poissons Ratio (x) = 0.19245 0.12978
# Poissons Ratio (y) = 0.15290 0.51547
# Poissons Ratio (z) = 0.07676 0.38376
#
# Static dielectric constant tensor:
#      x y z
#    x 3.504260 0.000000 0.000000 
#    y 0.000000 3.675910 0.000000 
#    z 0.000000 0.000000 3.841710 
# 
# 
# High freq. dielectric constant tensor:
#      x y z
#    x 1.766600 0.000000 0.000000 
#    y 0.000000 1.774950 0.000000 
#    z 0.000000 0.000000 1.791780 
# 
# From -- ./inp_files/31245.got.cif
#   From: 2010.03.12/outbox.cif.g09.slc.cpg/sg53_16_cif.got.tgz:31245.got - 2010.04.16 14:36:59.
