data_PCOD8220534
_publ_section_title
;
Structure prediction by ZEFSAII (Michael W. Deem and Ramdas Pophale) SiO2 
 PCOD8220534
Probable space group: P M N A
;
_chemical_formula_sum "Si O2"
_cell_formula_units_Z 48
_cell_length_a 8.695992
_cell_length_b 16.923540
_cell_length_c 16.031041
_cell_angle_alpha 90.000000
_cell_angle_beta 90.000000
_cell_angle_gamma 90.000000
_cell_volume 2359.239705
_symmetry_space_group_name_H-M "P M N A"
_symmetry_group_IT_number 53
_symmetry_cell_setting 'orthorhombic'
loop_
_space_group_symop_operation_xyz
x,y,z
1/2-x,-y,1/2+z
x,-y,-z
1/2-x,y,1/2-z
-x,-y,-z
1/2+x,y,1/2-z
-x,y,z
1/2+x,-y,1/2+z
loop_
_atom_site_type_symbol
_atom_site_label
_atom_site_fract_x
_atom_site_fract_y
_atom_site_fract_z
Si Si1 0.818149 0.323672 0.337966
Si Si2 0.680993 0.855139 0.835551
Si Si3 0.164678 0.001147 0.092905
Si Si4 0.318651 0.148841 0.839226
Si Si5 0.178717 0.592486 0.493657
Si Si6 0.317514 0.686094 0.342077
O O1 0.750000 0.356251 0.250000
O O2 0.761862 0.233864 0.353066
O O3 0.758287 0.371374 0.418936
O O4 0.000000 0.330763 0.330090
O O5 0.750000 0.887298 0.750000
O O6 0.500000 0.857996 0.834025
O O7 0.745657 0.916186 0.901607
O O8 0.277639 0.927849 0.107961
O O9 0.000000 0.997338 0.144086
O O10 0.110994 0.000000 0.000000
O O11 0.250000 0.130719 0.750000
O O12 0.500000 0.162044 0.836611
O O13 0.242030 0.228857 0.874635
O O14 0.207103 0.500000 0.500000
O O15 0.268236 0.623099 0.412120
O O16 0.000000 0.614051 0.482085
O O17 0.250000 0.665554 0.250000
O O18 0.500000 0.686931 0.333769
#
# Coordination Sequence:
#
# PCOD8220534 Si02
#       6
#     8   8   8   8   8   8
#     4   9  20  38  61  89 120 159 202 249 302 360
#     4  10  20  36  57  81 110 150 197 242 295 349
#     4  11  24  38  53  81 118 154 196 242 293 346
#     4  11  22  39  62  85 115 154 199 246 299 355
#     4  10  22  41  64  93 128 164 202 251 310 370
#     4  11  23  41  65  93 125 163 208 255 310 368
#
# _framework density 20.345538000000001
#
# number of rings (size 3 to 8) (size 9 to 14) (size 15 to 20)
#    0.000    1.667    0.000    5.500    2.333    3.667 
#    0.000    1.667    0.000    0.000    0.000    0.000 
#    0.000    0.000    0.000    0.000    0.000    0.000 
#
# Total GULP energy -594933.292670 kJ/mol
# GULP energy per Si atom -12394.443597 kJ/mol
# Density = 2.029923 g / cm^3
# Si number density = 20.345538 Si / 1000 Ang^3
#
#
#
# Elastic Constant Matrix: (Units=GPa)
#
#
# Indices 1 2 3 4 5 6 
#
# 1 125.9428 47.5890 47.0117 0.0000 0.0000 0.0000
# 2 47.5890 109.5733 62.5859 0.0000 0.0000 0.0000
# 3 47.0117 62.5859 112.7523 0.0000 0.0000 0.0000
# 4 0.0000 0.0000 0.0000 35.3983 0.0000 0.0000
# 5 0.0000 0.0000 0.0000 0.0000 25.6610 0.0000
# 6 0.0000 0.0000 0.0000 0.0000 0.0000 27.0850
#
#
#
# Elastic Compliance Matrix: (Units=1/GPa)
#
#
# Indices 1 2 3 4 5 6 
#
# 1 0.009983 -0.002867 -0.002571 0.000000 0.000000 0.000000
# 2 -0.002867 0.014187 -0.006679 0.000000 0.000000 0.000000
# 3 -0.002571 -0.006679 0.013648 0.000000 0.000000 0.000000
# 4 0.000000 0.000000 0.000000 0.028250 0.000000 0.000000
# 5 0.000000 0.000000 0.000000 0.000000 0.038970 0.000000
# 6 0.000000 0.000000 0.000000 0.000000 0.000000 0.036921
#
#
# Mechanical properties :
#
#
# Convention : Reuss Voigt Hill
#
# Bulk Modulus (GPa) = 73.61894 73.62687 73.62290
# Shear Modulus (GPa) = 29.28754 30.36764 29.82759
#
# Velocity S-wave (km/s) = 3.79820 3.86760 3.83306
# Velocity P-wave (km/s) = 7.44970 7.49742 7.47359
#
# Compressibility (1/GPa) = 0.01358346
#
# Stress axis : x y z
#
# Youngs Moduli (GPa) = 100.16775 70.48902 73.26934
#
# Poissons Ratio (x) = 0.20212 0.18836
# Poissons Ratio (y) = 0.28722 0.48937
# Poissons Ratio (z) = 0.25752 0.47080
#
# Static dielectric constant tensor:
#      x y z
#    x 3.705490 0.000000 0.000000 
#    y 0.000000 3.833360 0.000000 
#    z 0.000000 0.000000 3.700100 
# 
# 
# High freq. dielectric constant tensor:
#      x y z
#    x 1.803810 0.000000 0.000000 
#    y 0.000000 1.795150 0.000000 
#    z 0.000000 0.000000 1.793500 
# 
# From -- ./inp_files/20255.got.cif
#   From: 2010.03.12/outbox.cif.g09.slc.cpg/sg53_11_cif.got.tgz:20255.got - 2010.04.16 14:36:59.
