data_PCOD8220515
_publ_section_title
;
Structure prediction by ZEFSAII (Michael W. Deem and Ramdas Pophale) SiO2 
 PCOD8220515
Probable space group: P M N A
;
_chemical_formula_sum "Si O2"
_cell_formula_units_Z 48
_cell_length_a 8.855744
_cell_length_b 29.882119
_cell_length_c 9.539335
_cell_angle_alpha 90.000000
_cell_angle_beta 90.000000
_cell_angle_gamma 90.000000
_cell_volume 2524.378920
_symmetry_space_group_name_H-M "P M N A"
_symmetry_group_IT_number 53
_symmetry_cell_setting 'orthorhombic'
loop_
_space_group_symop_operation_xyz
x,y,z
1/2-x,-y,1/2+z
x,-y,-z
1/2-x,y,1/2-z
-x,-y,-z
1/2+x,y,1/2-z
-x,y,z
1/2+x,-y,1/2+z
loop_
_atom_site_type_symbol
_atom_site_label
_atom_site_fract_x
_atom_site_fract_y
_atom_site_fract_z
Si Si1 0.175814 0.713327 0.108375
Si Si2 0.678735 0.790303 0.598561
Si Si3 0.322733 0.458068 0.098840
Si Si4 0.677910 0.861758 0.100776
Si Si5 0.323594 0.036601 0.894731
Si Si6 0.821083 0.388819 0.896624
O O1 0.250000 0.731821 0.250000
O O2 0.226040 0.662579 0.076787
O O3 0.000000 0.715879 0.134845
O O4 0.225473 0.744648 0.980324
O O5 0.750000 0.787203 0.750000
O O6 0.500000 0.796090 0.609305
O O7 0.747182 0.832554 0.519446
O O8 0.250000 0.466886 0.250000
O O9 0.500000 0.449703 0.117299
O O10 0.287845 0.500000 0.000000
O O11 0.247380 0.415029 0.027768
O O12 0.750000 0.849248 0.250000
O O13 0.500000 0.852609 0.109225
O O14 0.715442 0.912876 0.058702
O O15 0.250000 0.024361 0.750000
O O16 0.500000 0.030321 0.877682
O O17 0.255495 0.000000 0.000000
O O18 0.750000 0.405974 0.750000
O O19 0.000000 0.396043 0.889780
#
# Coordination Sequence:
#
# PCOD8220515 Si02
#       6
#     8   8   8   8   8   8
#     4   9  20  37  58  83 110 144 183 223 269 324
#     4  11  23  38  55  79 111 145 182 225 275 324
#     4  11  24  40  59  84 114 149 187 228 276 327
#     4  10  20  36  57  80 107 141 182 224 268 322
#     4   9  19  35  54  78 107 139 176 218 265 318
#     4  10  20  37  60  86 115 146 184 227 272 323
#
# _framework density 19.014578
#
# number of rings (size 3 to 8) (size 9 to 14) (size 15 to 20)
#    0.000    2.000    0.000    3.000    0.000    8.333 
#    0.000    3.333    0.000    0.000    0.000    0.000 
#    0.000    0.000    0.000    0.000    0.000    0.000 
#
# Total GULP energy -595340.074568 kJ/mol
# GULP energy per Si atom -12402.918220 kJ/mol
# Density = 1.897130 g / cm^3
# Si number density = 19.014578 Si / 1000 Ang^3
#
#
#
# Elastic Constant Matrix: (Units=GPa)
#
#
# Indices 1 2 3 4 5 6 
#
# 1 82.3197 56.0250 75.6458 0.0000 0.0000 0.0000
# 2 56.0250 113.5497 92.7867 0.0000 0.0000 0.0000
# 3 75.6458 92.7867 172.9699 0.0000 0.0000 0.0000
# 4 0.0000 0.0000 0.0000 36.3248 0.0000 0.0000
# 5 0.0000 0.0000 0.0000 0.0000 39.9644 0.0000
# 6 0.0000 0.0000 0.0000 0.0000 0.0000 26.2984
#
#
#
# Elastic Compliance Matrix: (Units=1/GPa)
#
#
# Indices 1 2 3 4 5 6 
#
# 1 0.021980 -0.005323 -0.006757 0.000000 0.000000 0.000000
# 2 -0.005323 0.016969 -0.006775 0.000000 0.000000 0.000000
# 3 -0.006757 -0.006775 0.012371 0.000000 0.000000 0.000000
# 4 0.000000 0.000000 0.000000 0.027529 0.000000 0.000000
# 5 0.000000 0.000000 0.000000 0.000000 0.025022 0.000000
# 6 0.000000 0.000000 0.000000 0.000000 0.000000 0.038025
#
#
# Mechanical properties :
#
#
# Convention : Reuss Voigt Hill
#
# Bulk Modulus (GPa) = 73.47775 90.86158 82.16966
# Shear Modulus (GPa) = 27.15282 30.14299 28.64791
#
# Velocity S-wave (km/s) = 3.78299 3.98585 3.88574
# Velocity P-wave (km/s) = 7.60316 8.31093 7.96491
#
# Compressibility (1/GPa) = 0.01360956
#
# Stress axis : x y z
#
# Youngs Moduli (GPa) = 45.49626 58.93025 80.83696
#
# Poissons Ratio (x) = 0.31371 0.54621
# Poissons Ratio (y) = 0.24219 0.54765
# Poissons Ratio (z) = 0.30741 0.39924
#
# Static dielectric constant tensor:
#      x y z
#    x 3.553140 0.000000 0.000000 
#    y 0.000000 3.776970 0.000000 
#    z 0.000000 0.000000 3.471300 
# 
# 
# High freq. dielectric constant tensor:
#      x y z
#    x 1.748320 0.000000 0.000000 
#    y 0.000000 1.750690 0.000000 
#    z 0.000000 0.000000 1.740050 
# 
# From -- ./inp_files/6595.got.cif
#   From: 2010.03.12/outbox.cif.g09.slc.cpg/sg53_4_cif.got.tgz:6595.got - 2010.04.16 14:36:59.
