data_PCOD8220896
_publ_section_title
;
Structure prediction by ZEFSAII (Michael W. Deem and Ramdas Pophale) SiO2 
 PCOD8220896
Probable space group: P M N A
;
_chemical_formula_sum "Si O2"
_cell_formula_units_Z 64
_cell_length_a 9.026458
_cell_length_b 23.766056
_cell_length_c 14.906093
_cell_angle_alpha 90.000000
_cell_angle_beta 90.000000
_cell_angle_gamma 90.000000
_cell_volume 3197.704355
_symmetry_space_group_name_H-M "P M N A"
_symmetry_group_IT_number 53
_symmetry_cell_setting 'orthorhombic'
loop_
_space_group_symop_operation_xyz
x,y,z
1/2-x,-y,1/2+z
x,-y,-z
1/2-x,y,1/2-z
-x,-y,-z
1/2+x,y,1/2-z
-x,y,z
1/2+x,-y,1/2+z
loop_
_atom_site_type_symbol
_atom_site_label
_atom_site_fract_x
_atom_site_fract_y
_atom_site_fract_z
Si Si1 0.339779 0.103450 0.330824
Si Si2 0.673952 0.064664 0.518595
Si Si3 0.674563 0.457804 0.658797
Si Si4 0.824687 0.758697 0.032943
Si Si5 0.838893 0.767017 0.832338
Si Si6 0.177903 0.145751 0.651881
Si Si7 0.673303 0.414141 0.340545
Si Si8 0.826470 0.366955 0.977372
O O1 0.250000 0.073644 0.250000
O O2 0.500000 0.072984 0.333548
O O3 0.268578 0.096916 0.429299
O O4 0.359272 0.168189 0.306772
O O5 0.500000 0.075369 0.537569
O O6 0.767596 0.088926 0.601897
O O7 0.710358 0.000000 0.500000
O O8 0.750000 0.438936 0.750000
O O9 0.500000 0.450101 0.669087
O O10 0.716465 0.521737 0.633822
O O11 0.742546 0.415594 0.584603
O O12 0.733141 0.799902 0.096659
O O13 0.000000 0.774262 0.037117
O O14 0.764501 0.762731 0.930448
O O15 0.792602 0.694644 0.063448
O O16 0.750000 0.737943 0.750000
O O17 0.000000 0.737097 0.836767
O O18 0.250000 0.147580 0.750000
O O19 0.000000 0.146297 0.659147
O O20 0.750000 0.393698 0.250000
O O21 0.500000 0.408981 0.324552
O O22 0.732609 0.373947 0.420598
O O23 0.000000 0.377856 0.982458
#
# Coordination Sequence:
#
# PCOD8220896 Si02
#       8
#     8   8   8   8   8   8   8   8
#     4   9  17  31  52  80 111 143 176 215 266 321
#     4  10  21  40  65  92 123 155 189 235 287 335
#     4   9  17  31  51  75 104 140 184 232 283 341
#     4  10  20  38  59  81 112 148 194 243 292 344
#     4   9  17  30  51  76 105 139 175 220 271 330
#     4  12  26  44  66  88 117 157 200 242 288 342
#     4   9  17  31  51  77 109 145 185 227 280 343
#     4   9  18  32  54  79 105 144 187 233 284 341
#
# _framework density 20.014358999999999
#
# number of rings (size 3 to 8) (size 9 to 14) (size 15 to 20)
#    0.000    2.375    1.250    1.500    0.000    4.250 
#    0.000    4.375    0.000    3.000    0.000    0.000 
#    0.000    0.000    0.000    0.000    0.000    0.000 
#
# Total GULP energy -793193.655512 kJ/mol
# GULP energy per Si atom -12393.650867 kJ/mol
# Density = 1.996881 g / cm^3
# Si number density = 20.014359 Si / 1000 Ang^3
#
#
#
# Elastic Constant Matrix: (Units=GPa)
#
#
# Indices 1 2 3 4 5 6 
#
# 1 69.5827 29.6140 54.1530 0.0000 0.0000 0.0000
# 2 29.6140 88.4765 41.6200 0.0000 0.0000 0.0000
# 3 54.1530 41.6200 146.9845 0.0000 0.0000 0.0000
# 4 0.0000 0.0000 0.0000 14.2566 0.0000 0.0000
# 5 0.0000 0.0000 0.0000 0.0000 35.0495 0.0000
# 6 0.0000 0.0000 0.0000 0.0000 0.0000 17.2032
#
#
#
# Elastic Compliance Matrix: (Units=1/GPa)
#
#
# Indices 1 2 3 4 5 6 
#
# 1 0.021289 -0.003964 -0.006721 0.000000 0.000000 0.000000
# 2 -0.003964 0.013777 -0.002441 0.000000 0.000000 0.000000
# 3 -0.006721 -0.002441 0.009971 0.000000 0.000000 0.000000
# 4 0.000000 0.000000 0.000000 0.070143 0.000000 0.000000
# 5 0.000000 0.000000 0.000000 0.000000 0.028531 0.000000
# 6 0.000000 0.000000 0.000000 0.000000 0.000000 0.058129
#
#
# Mechanical properties :
#
#
# Convention : Reuss Voigt Hill
#
# Bulk Modulus (GPa) = 53.23215 61.75752 57.49483
# Shear Modulus (GPa) = 21.33529 25.27898 23.30713
#
# Velocity S-wave (km/s) = 3.26851 3.55779 3.41621
# Velocity P-wave (km/s) = 6.39522 6.91381 6.65956
#
# Compressibility (1/GPa) = 0.01878564
#
# Stress axis : x y z
#
# Youngs Moduli (GPa) = 46.97235 72.58270 100.29332
#
# Poissons Ratio (x) = 0.28772 0.67407
# Poissons Ratio (y) = 0.18620 0.24479
# Poissons Ratio (z) = 0.31570 0.17715
#
# Static dielectric constant tensor:
#      x y z
#    x 3.591450 0.000000 0.000000 
#    y 0.000000 3.606080 0.000000 
#    z 0.000000 0.000000 3.819380 
# 
# 
# High freq. dielectric constant tensor:
#      x y z
#    x 1.747680 0.000000 0.000000 
#    y 0.000000 1.778580 0.000000 
#    z 0.000000 0.000000 1.789870 
# 
# From -- ./inp_files/20938.got.cif
#   From: 2010.03.12/outbox.cif.g09.slc.cpg/sg53_11_cif.got.tgz:20938.got - 2010.04.16 14:36:59.
