data_PCOD8220133
_publ_section_title
;
Structure prediction by ZEFSAII (Michael W. Deem and Ramdas Pophale) SiO2 
 PCOD8220133
Probable space group: P M N A
;
_chemical_formula_sum "Si O2"
_cell_formula_units_Z 64
_cell_length_a 8.696136
_cell_length_b 10.961574
_cell_length_c 33.768207
_cell_angle_alpha 90.000000
_cell_angle_beta 90.000000
_cell_angle_gamma 90.000000
_cell_volume 3218.898219
_symmetry_space_group_name_H-M "P M N A"
_symmetry_group_IT_number 53
_symmetry_cell_setting 'orthorhombic'
loop_
_space_group_symop_operation_xyz
x,y,z
1/2-x,-y,1/2+z
x,-y,-z
1/2-x,y,1/2-z
-x,-y,-z
1/2+x,y,1/2-z
-x,y,z
1/2+x,-y,1/2+z
loop_
_atom_site_type_symbol
_atom_site_label
_atom_site_fract_x
_atom_site_fract_y
_atom_site_fract_z
Si Si1 0.324906 0.527296 0.059721
Si Si2 0.679156 0.486168 0.709965
Si Si3 0.676368 0.645394 0.368170
Si Si4 0.176681 0.901606 0.096164
Si Si5 0.817433 0.762393 0.791868
Si Si6 0.679660 0.723792 0.557086
Si Si7 0.678018 0.782082 0.021250
Si Si8 0.180848 0.142032 0.370936
O O1 0.500000 0.480344 0.057151
O O2 0.290704 0.572284 0.103786
O O3 0.212197 0.417854 0.048291
O O4 0.296950 0.638663 0.029751
O O5 0.750000 0.433192 0.750000
O O6 0.500000 0.492529 0.716278
O O7 0.725684 0.391680 0.675856
O O8 0.738513 0.623066 0.700709
O O9 0.500000 0.606803 0.377366
O O10 0.697617 0.789569 0.373553
O O11 0.228699 0.863904 0.052208
O O12 0.000000 0.944832 0.094108
O O13 0.282027 0.008653 0.112487
O O14 0.750000 0.809633 0.750000
O O15 0.751590 0.844399 0.827282
O O16 0.000000 0.775463 0.791207
O O17 0.500000 0.749831 0.557000
O O18 0.757132 0.806743 0.522767
O O19 0.748364 0.757110 0.599767
O O20 0.500000 0.819183 0.023601
O O21 0.000000 0.161291 0.368734
#
# Coordination Sequence:
#
# PCOD8220133 Si02
#       8
#     8   8   8   8   8   8   8   8
#     4  10  20  34  55  83 114 146 182 228 282 338
#     4   9  18  32  53  83 115 144 174 215 269 328
#     4   9  18  34  56  80 109 146 185 226 275 332
#     4  10  21  39  60  81 109 148 193 237 282 334
#     4  10  20  37  61  89 120 151 184 225 276 335
#     4  12  24  37  56  83 114 149 190 234 283 340
#     4  10  21  38  58  83 115 149 187 232 283 337
#     4  12  25  41  60  83 112 148 193 241 288 336
#
# _framework density 19.882579
#
# number of rings (size 3 to 8) (size 9 to 14) (size 15 to 20)
#    0.000    1.750    0.000    4.875    0.000    6.000 
#    0.000    3.125    0.000    1.500    0.000    0.000 
#    0.000    0.000    0.000    0.000    0.000    0.000 
#
# Total GULP energy -793837.285837 kJ/mol
# GULP energy per Si atom -12403.707591 kJ/mol
# Density = 1.983733 g / cm^3
# Si number density = 19.882579 Si / 1000 Ang^3
#
#
#
# Elastic Constant Matrix: (Units=GPa)
#
#
# Indices 1 2 3 4 5 6 
#
# 1 91.6151 23.4609 42.7000 0.0000 0.0000 0.0000
# 2 23.4609 51.4048 29.1433 0.0000 0.0000 0.0000
# 3 42.7000 29.1433 125.1882 0.0000 0.0000 0.0000
# 4 0.0000 0.0000 0.0000 10.2923 0.0000 0.0000
# 5 0.0000 0.0000 0.0000 0.0000 35.4232 0.0000
# 6 0.0000 0.0000 0.0000 0.0000 0.0000 27.0572
#
#
#
# Elastic Compliance Matrix: (Units=1/GPa)
#
#
# Indices 1 2 3 4 5 6 
#
# 1 0.013707 -0.004153 -0.003708 0.000000 0.000000 0.000000
# 2 -0.004153 0.023670 -0.004094 0.000000 0.000000 0.000000
# 3 -0.003708 -0.004094 0.010206 0.000000 0.000000 0.000000
# 4 0.000000 0.000000 0.000000 0.097160 0.000000 0.000000
# 5 0.000000 0.000000 0.000000 0.000000 0.028230 0.000000
# 6 0.000000 0.000000 0.000000 0.000000 0.000000 0.036959
#
#
# Mechanical properties :
#
#
# Convention : Reuss Voigt Hill
#
# Bulk Modulus (GPa) = 42.24397 50.97962 46.61180
# Shear Modulus (GPa) = 20.68395 26.08148 23.38271
#
# Velocity S-wave (km/s) = 3.22888 3.62577 3.43306
# Velocity P-wave (km/s) = 5.93243 6.57452 6.26171
#
# Compressibility (1/GPa) = 0.02367202
#
# Stress axis : x y z
#
# Youngs Moduli (GPa) = 72.95385 42.24779 97.98307
#
# Poissons Ratio (x) = 0.17548 0.36337
# Poissons Ratio (y) = 0.30301 0.40110
# Poissons Ratio (z) = 0.27055 0.17294
#
# Static dielectric constant tensor:
#      x y z
#    x 3.623270 0.000000 0.000000 
#    y 0.000000 3.488630 0.000000 
#    z 0.000000 0.000000 3.727820 
# 
# 
# High freq. dielectric constant tensor:
#      x y z
#    x 1.782910 0.000000 0.000000 
#    y 0.000000 1.760900 0.000000 
#    z 0.000000 0.000000 1.782350 
# 
# From -- ./inp_files/38304.got.cif
#   From: 2010.03.12/outbox.cif.g09.slc.cpg/sg53_20_cif.got.tgz:38304.got - 2010.04.16 14:36:59.
