data_PCOD8220040
_publ_section_title
;
Structure prediction by ZEFSAII (Michael W. Deem and Ramdas Pophale) SiO2 
 PCOD8220040
Probable space group: P M N A
;
_chemical_formula_sum "Si O2"
_cell_formula_units_Z 48
_cell_length_a 9.082656
_cell_length_b 11.524873
_cell_length_c 25.446763
_cell_angle_alpha 90.000000
_cell_angle_beta 90.000000
_cell_angle_gamma 90.000000
_cell_volume 2663.676990
_symmetry_space_group_name_H-M "P M N A"
_symmetry_group_IT_number 53
_symmetry_cell_setting 'orthorhombic'
loop_
_space_group_symop_operation_xyz
x,y,z
1/2-x,-y,1/2+z
x,-y,-z
1/2-x,y,1/2-z
-x,-y,-z
1/2+x,y,1/2-z
-x,y,z
1/2+x,-y,1/2+z
loop_
_atom_site_type_symbol
_atom_site_label
_atom_site_fract_x
_atom_site_fract_y
_atom_site_fract_z
Si Si1 0.672596 0.128722 0.303314
Si Si2 0.173454 0.272889 0.097013
Si Si3 0.170512 0.505585 0.559445
Si Si4 0.332164 0.136041 0.506468
Si Si5 0.173186 0.862121 0.196358
Si Si6 0.329366 0.749140 0.100487
O O1 0.750000 0.170274 0.250000
O O2 0.500000 0.143649 0.295099
O O3 0.731499 0.207925 0.350884
O O4 0.712021 0.995599 0.316777
O O5 0.246207 0.398561 0.093546
O O6 0.000000 0.288934 0.099865
O O7 0.219596 0.196243 0.047133
O O8 0.234208 0.500000 0.500000
O O9 0.198406 0.385031 0.588341
O O10 0.000000 0.539868 0.557133
O O11 0.500000 0.170737 0.520956
O O12 0.222607 0.174367 0.551772
O O13 0.318050 0.000000 0.500000
O O14 0.250000 0.823086 0.250000
O O15 0.234861 0.780263 0.151140
O O16 0.000000 0.842684 0.201636
O O17 0.500000 0.775770 0.111006
#
# Coordination Sequence:
#
# PCOD8220040 Si02
#       6
#     8   8   8   8   8   8
#     4   9  19  36  57  83 112 143 178 222 272 326
#     4  10  20  34  55  81 108 141 185 225 268 327
#     4  10  21  38  55  75 109 148 184 228 276 320
#     4  10  20  34  53  79 111 143 176 223 280 333
#     4  10  20  37  60  84 114 146 181 225 275 327
#     4  11  22  36  55  80 110 145 187 227 273 328
#
# _framework density 18.020204
#
# number of rings (size 3 to 8) (size 9 to 14) (size 15 to 20)
#    0.000    2.000    1.667    2.000    0.000    6.000 
#    0.000    2.500    0.000    2.000    0.000    0.000 
#    0.000    0.000    0.000    0.000    0.000    0.000 
#
# Total GULP energy -595409.257148 kJ/mol
# GULP energy per Si atom -12404.359524 kJ/mol
# Density = 1.797919 g / cm^3
# Si number density = 18.020204 Si / 1000 Ang^3
#
#
#
# Elastic Constant Matrix: (Units=GPa)
#
#
# Indices 1 2 3 4 5 6 
#
# 1 63.8694 40.4287 58.0393 0.0000 0.0000 0.0000
# 2 40.4287 84.2299 62.1951 0.0000 0.0000 0.0000
# 3 58.0393 62.1951 150.6511 0.0000 0.0000 0.0000
# 4 0.0000 0.0000 0.0000 0.2677 0.0000 0.0000
# 5 0.0000 0.0000 0.0000 0.0000 36.3815 0.0000
# 6 0.0000 0.0000 0.0000 0.0000 0.0000 20.7795
#
#
#
# Elastic Compliance Matrix: (Units=1/GPa)
#
#
# Indices 1 2 3 4 5 6 
#
# 1 0.027116 -0.007626 -0.007298 0.000000 0.000000 0.000000
# 2 -0.007626 0.019223 -0.004998 0.000000 0.000000 0.000000
# 3 -0.007298 -0.004998 0.011513 0.000000 0.000000 0.000000
# 4 0.000000 0.000000 0.000000 3.735972 0.000000 0.000000
# 5 0.000000 0.000000 0.000000 0.000000 0.027486 0.000000
# 6 0.000000 0.000000 0.000000 0.000000 0.000000 0.048124
#
#
# Mechanical properties :
#
#
# Convention : Reuss Voigt Hill
#
# Bulk Modulus (GPa) = 55.53299 68.89738 62.21518
# Shear Modulus (GPa) = 1.27705 20.69156 10.98430
#
# Velocity S-wave (km/s) = 0.84274 3.39225 2.47159
# Velocity P-wave (km/s) = 5.64189 7.32527 6.53798
#
# Compressibility (1/GPa) = 0.01800731
#
# Stress axis : x y z
#
# Youngs Moduli (GPa) = 36.87798 52.02006 86.85826
#
# Poissons Ratio (x) = 0.39672 0.63392
# Poissons Ratio (y) = 0.28124 0.43413
# Poissons Ratio (z) = 0.26915 0.26000
#
# Static dielectric constant tensor:
#      x y z
#    x 3.337820 0.000000 0.000000 
#    y 0.000000 3.301110 0.000000 
#    z 0.000000 0.000000 3.156630 
# 
# 
# High freq. dielectric constant tensor:
#      x y z
#    x 1.697860 0.000000 0.000000 
#    y 0.000000 1.695790 0.000000 
#    z 0.000000 0.000000 1.702770 
# 
# From -- ./inp_files/33852.got.cif
#   From: 2010.03.12/outbox.cif.g09.slc.cpg/sg53_17_cif.got.tgz:33852.got - 2010.04.16 14:36:59.
