data_PCOD8220050
_publ_section_title
;
Structure prediction by ZEFSAII (Michael W. Deem and Ramdas Pophale) SiO2 
 PCOD8220050
Probable space group: P M N A
;
_chemical_formula_sum "Si O2"
_cell_formula_units_Z 64
_cell_length_a 20.683723
_cell_length_b 8.649911
_cell_length_c 17.051215
_cell_angle_alpha 90.000000
_cell_angle_beta 90.000000
_cell_angle_gamma 90.000000
_cell_volume 3050.673169
_symmetry_space_group_name_H-M "P M N A"
_symmetry_group_IT_number 53
_symmetry_cell_setting 'orthorhombic'
loop_
_space_group_symop_operation_xyz
x,y,z
1/2-x,-y,1/2+z
x,-y,-z
1/2-x,y,1/2-z
-x,-y,-z
1/2+x,y,1/2-z
-x,y,z
1/2+x,-y,1/2+z
loop_
_atom_site_type_symbol
_atom_site_label
_atom_site_fract_x
_atom_site_fract_y
_atom_site_fract_z
Si Si1 0.924284 0.306417 0.679814
Si Si2 0.882901 0.334197 0.984334
Si Si3 0.425829 0.339718 0.206504
Si Si4 0.206303 0.822458 0.670055
Si Si5 0.924810 0.848043 0.166377
Si Si6 0.073206 0.815774 0.864721
Si Si7 0.760032 0.336790 0.483734
Si Si8 0.842351 0.095622 0.571728
O O1 0.908758 0.488373 0.677963
O O2 0.893408 0.241043 0.760305
O O3 0.894538 0.211241 0.608336
O O4 0.000000 0.279366 0.675154
O O5 0.886517 0.227375 0.059995
O O6 0.807664 0.361598 0.971867
O O7 0.917957 0.500000 0.000000
O O8 0.914539 0.248882 0.911698
O O9 0.500000 0.293332 0.179209
O O10 0.369041 0.230489 0.175145
O O11 0.423223 0.321016 0.300699
O O12 0.250000 0.821588 0.750000
O O13 0.242372 0.707399 0.608935
O O14 0.196994 0.994508 0.635863
O O15 0.000000 0.863004 0.182880
O O16 0.895715 0.021904 0.164848
O O17 0.000000 0.844553 0.891930
O O18 0.797446 0.500000 0.500000
O O19 0.789006 0.196181 0.530035
O O20 0.875985 0.000000 0.500000
#
# Coordination Sequence:
#
# PCOD8220050 Si02
#       8
#     8   8   8   8   8   8   8   8
#     4  10  21  39  62  88 118 153 198 249 302 361
#     4  11  22  35  54  80 113 155 196 239 295 353
#     4  10  21  38  62  90 120 156 198 248 302 357
#     4  11  23  40  64  92 123 160 203 250 303 361
#     4  10  21  35  54  82 115 152 194 242 291 347
#     4  10  20  34  53  80 115 153 194 239 290 351
#     4  10  23  42  59  82 118 156 198 247 297 356
#     4  10  23  41  62  88 118 153 194 246 304 363
#
# _framework density 20.978977
#
# number of rings (size 3 to 8) (size 9 to 14) (size 15 to 20)
#    0.000    1.750    0.000    3.750    0.000   10.750 
#    0.000    3.125    0.000    6.750    0.000    0.000 
#    0.000    0.000    0.000    0.000    0.000    0.000 
#
# Total GULP energy -793074.084033 kJ/mol
# GULP energy per Si atom -12391.782563 kJ/mol
# Density = 2.093123 g / cm^3
# Si number density = 20.978977 Si / 1000 Ang^3
#
#
#
# Elastic Constant Matrix: (Units=GPa)
#
#
# Indices 1 2 3 4 5 6 
#
# 1 46.4818 36.0030 20.9199 0.0000 0.0000 0.0000
# 2 36.0030 134.4458 64.5245 0.0000 0.0000 0.0000
# 3 20.9199 64.5245 109.8292 0.0000 0.0000 0.0000
# 4 0.0000 0.0000 0.0000 40.1012 0.0000 0.0000
# 5 0.0000 0.0000 0.0000 0.0000 27.1448 0.0000
# 6 0.0000 0.0000 0.0000 0.0000 0.0000 17.4352
#
#
#
# Elastic Compliance Matrix: (Units=1/GPa)
#
#
# Indices 1 2 3 4 5 6 
#
# 1 0.027268 -0.006698 -0.001259 0.000000 0.000000 0.000000
# 2 -0.006698 0.012004 -0.005776 0.000000 0.000000 0.000000
# 3 -0.001259 -0.005776 0.012739 0.000000 0.000000 0.000000
# 4 0.000000 0.000000 0.000000 0.024937 0.000000 0.000000
# 5 0.000000 0.000000 0.000000 0.000000 0.036840 0.000000
# 6 0.000000 0.000000 0.000000 0.000000 0.000000 0.057355
#
#
# Mechanical properties :
#
#
# Convention : Reuss Voigt Hill
#
# Bulk Modulus (GPa) = 40.74309 59.29461 50.01885
# Shear Modulus (GPa) = 24.17909 28.22355 26.20132
#
# Velocity S-wave (km/s) = 3.39859 3.67185 3.53786
# Velocity P-wave (km/s) = 5.90454 6.80454 6.37046
#
# Compressibility (1/GPa) = 0.02454404
#
# Stress axis : x y z
#
# Youngs Moduli (GPa) = 36.67254 83.30667 78.50217
#
# Poissons Ratio (x) = 0.55798 0.09883
# Poissons Ratio (y) = 0.24563 0.45346
# Poissons Ratio (z) = 0.04617 0.48122
#
# Static dielectric constant tensor:
#      x y z
#    x 3.617600 0.000000 0.000000 
#    y 0.000000 4.275030 0.000000 
#    z 0.000000 0.000000 4.064960 
# 
# 
# High freq. dielectric constant tensor:
#      x y z
#    x 1.805400 0.000000 0.000000 
#    y 0.000000 1.839730 0.000000 
#    z 0.000000 0.000000 1.820780 
# 
# From -- ./inp_files/24726.got.cif
#   From: 2010.03.12/outbox.cif.g09.slc.cpg/sg53_13_cif.got.tgz:24726.got - 2010.04.16 14:36:59.
