data_PCOD8220373
_publ_section_title
;
Structure prediction by ZEFSAII (Michael W. Deem and Ramdas Pophale) SiO2 
 PCOD8220373
Probable space group: P M N A
;
_chemical_formula_sum "Si O2"
_cell_formula_units_Z 48
_cell_length_a 8.656444
_cell_length_b 11.644514
_cell_length_c 25.157880
_cell_angle_alpha 90.000000
_cell_angle_beta 90.000000
_cell_angle_gamma 90.000000
_cell_volume 2535.916401
_symmetry_space_group_name_H-M "P M N A"
_symmetry_group_IT_number 53
_symmetry_cell_setting 'orthorhombic'
loop_
_space_group_symop_operation_xyz
x,y,z
1/2-x,-y,1/2+z
x,-y,-z
1/2-x,y,1/2-z
-x,-y,-z
1/2+x,y,1/2-z
-x,y,z
1/2+x,-y,1/2+z
loop_
_atom_site_type_symbol
_atom_site_label
_atom_site_fract_x
_atom_site_fract_y
_atom_site_fract_z
Si Si1 0.178003 0.365549 0.004176
Si Si2 0.178852 0.012746 0.060657
Si Si3 0.678304 0.761916 0.398133
Si Si4 0.681328 0.376698 0.806680
Si Si5 0.318107 0.380803 0.306874
Si Si6 0.179183 0.239936 0.398781
O O1 0.233494 0.307409 0.949827
O O2 0.000000 0.333413 0.016208
O O3 0.203170 0.500000 0.000000
O O4 0.283687 0.318688 0.050890
O O5 0.278670 0.108535 0.089917
O O6 0.000000 0.050033 0.060716
O O7 0.206445 0.896115 0.092735
O O8 0.236124 0.000000 0.000000
O O9 0.500000 0.734757 0.386004
O O10 0.780009 0.723018 0.348370
O O11 0.750000 0.340530 0.750000
O O12 0.500000 0.391389 0.800769
O O13 0.751458 0.497274 0.826734
O O14 0.250000 0.346131 0.250000
O O15 0.500000 0.392723 0.302044
O O16 0.275875 0.281933 0.348249
O O17 0.000000 0.249983 0.385077
#
# Coordination Sequence:
#
# PCOD8220373 Si02
#       6
#     8   8   8   8   8   8
#     4  10  20  35  57  84 115 153 193 238 292 352
#     4  10  20  39  62  83 113 159 205 242 290 350
#     4  10  20  36  59  86 117 154 199 243 289 346
#     4  11  22  38  61  89 122 155 194 239 293 350
#     4  11  22  40  64  88 118 154 196 240 293 351
#     4  12  24  37  57  87 121 153 194 243 295 350
#
# _framework density 18.928069000000001
#
# number of rings (size 3 to 8) (size 9 to 14) (size 15 to 20)
#    0.000    1.333    1.667    6.500    0.000    3.333 
#    0.000    0.833    0.000    4.000    0.000    0.000 
#    0.000    0.000    0.000    0.000    0.000    0.000 
#
# Total GULP energy -595516.866749 kJ/mol
# GULP energy per Si atom -12406.601391 kJ/mol
# Density = 1.888499 g / cm^3
# Si number density = 18.928069 Si / 1000 Ang^3
#
#
#
# Elastic Constant Matrix: (Units=GPa)
#
#
# Indices 1 2 3 4 5 6 
#
# 1 123.7040 36.7665 49.9940 0.0000 0.0000 0.0000
# 2 36.7665 98.2043 57.8739 0.0000 0.0000 0.0000
# 3 49.9940 57.8739 114.8932 0.0000 0.0000 0.0000
# 4 0.0000 0.0000 0.0000 19.4728 0.0000 0.0000
# 5 0.0000 0.0000 0.0000 0.0000 33.4614 0.0000
# 6 0.0000 0.0000 0.0000 0.0000 0.0000 29.6494
#
#
#
# Elastic Compliance Matrix: (Units=1/GPa)
#
#
# Indices 1 2 3 4 5 6 
#
# 1 0.009999 -0.001677 -0.003506 0.000000 0.000000 0.000000
# 2 -0.001677 0.014763 -0.006707 0.000000 0.000000 0.000000
# 3 -0.003506 -0.006707 0.013608 0.000000 0.000000 0.000000
# 4 0.000000 0.000000 0.000000 0.051354 0.000000 0.000000
# 5 0.000000 0.000000 0.000000 0.000000 0.029885 0.000000
# 6 0.000000 0.000000 0.000000 0.000000 0.000000 0.033728
#
#
# Mechanical properties :
#
#
# Convention : Reuss Voigt Hill
#
# Bulk Modulus (GPa) = 68.54059 69.56335 69.05197
# Shear Modulus (GPa) = 27.47554 29.32785 28.40169
#
# Velocity S-wave (km/s) = 3.81409 3.94056 3.87784
# Velocity P-wave (km/s) = 7.46231 7.58520 7.52400
#
# Compressibility (1/GPa) = 0.01458990
#
# Stress axis : x y z
#
# Youngs Moduli (GPa) = 100.00669 67.73602 73.48830
#
# Poissons Ratio (x) = 0.11362 0.25766
# Poissons Ratio (y) = 0.16775 0.49286
# Poissons Ratio (z) = 0.35063 0.45428
#
# Static dielectric constant tensor:
#      x y z
#    x 3.435990 0.000000 0.000000 
#    y 0.000000 3.444310 0.000000 
#    z 0.000000 0.000000 3.514670 
# 
# 
# High freq. dielectric constant tensor:
#      x y z
#    x 1.736280 0.000000 0.000000 
#    y 0.000000 1.737580 0.000000 
#    z 0.000000 0.000000 1.738060 
# 
# From -- ./inp_files/33855.got.cif
#   From: 2010.03.12/outbox.cif.g09.slc.cpg/sg53_17_cif.got.tgz:33855.got - 2010.04.16 14:36:59.
