data_PCOD8220370
_publ_section_title
;
Structure prediction by ZEFSAII (Michael W. Deem and Ramdas Pophale) SiO2 
 PCOD8220370
Probable space group: P M N A
;
_chemical_formula_sum "Si O2"
_cell_formula_units_Z 48
_cell_length_a 14.750121
_cell_length_b 5.189936
_cell_length_c 27.380339
_cell_angle_alpha 90.000000
_cell_angle_beta 90.000000
_cell_angle_gamma 90.000000
_cell_volume 2096.024749
_symmetry_space_group_name_H-M "P M N A"
_symmetry_group_IT_number 53
_symmetry_cell_setting 'orthorhombic'
loop_
_space_group_symop_operation_xyz
x,y,z
1/2-x,-y,1/2+z
x,-y,-z
1/2-x,y,1/2-z
-x,-y,-z
1/2+x,y,1/2-z
-x,y,z
1/2+x,-y,1/2+z
loop_
_atom_site_type_symbol
_atom_site_label
_atom_site_fract_x
_atom_site_fract_y
_atom_site_fract_z
Si Si1 0.894743 0.179697 0.628283
Si Si2 0.709302 0.263418 0.970543
Si Si3 0.395036 0.691075 0.812819
Si Si4 0.901977 0.189133 0.954495
Si Si5 0.891306 0.554451 0.793420
Si Si6 0.103892 0.951033 0.154399
O O1 0.844131 0.186805 0.577336
O O2 0.878527 0.456396 0.651207
O O3 0.000000 0.123261 0.617975
O O4 0.853955 0.952729 0.663054
O O5 0.812556 0.365472 0.959652
O O6 0.661770 0.500000 0.000000
O O7 0.713311 0.000000 0.000000
O O8 0.500000 0.747566 0.803304
O O9 0.352089 0.607858 0.760900
O O10 0.886482 0.039100 0.903838
O O11 0.000000 0.341472 0.951427
O O12 0.908476 0.000000 0.000000
O O13 0.850553 0.295609 0.818436
O O14 0.000000 0.539299 0.793595
O O15 0.851613 0.786484 0.826124
O O16 0.000000 0.950051 0.170762
#
# Coordination Sequence:
#
# PCOD8220370 Si02
#       6
#     8   8   8   8   8   8
#     4  10  20  35  57  84 113 148 187 225 270 326
#     4  11  24  40  59  83 112 147 184 229 283 331
#     4   9  17  31  54  82 112 148 187 226 270 325
#     4   9  20  39  61  84 111 146 190 236 283 337
#     4   9  16  28  49  79 110 141 181 223 270 328
#     4   9  17  29  49  77 107 140 179 227 278 325
#
# _framework density 22.900494999999999
#
# number of rings (size 3 to 8) (size 9 to 14) (size 15 to 20)
#    0.000    2.500    0.000    2.000    0.000    7.667 
#    0.000    5.000    0.000    6.000    0.000    0.000 
#    0.000    0.000    0.000    0.000    0.000    0.000 
#
# Total GULP energy -594684.818988 kJ/mol
# GULP energy per Si atom -12389.267062 kJ/mol
# Density = 2.284837 g / cm^3
# Si number density = 22.900495 Si / 1000 Ang^3
#
#
#
# Elastic Constant Matrix: (Units=GPa)
#
#
# Indices 1 2 3 4 5 6 
#
# 1 38.9929 10.9833 21.4210 0.0000 0.0000 0.0000
# 2 10.9833 118.6822 41.4073 0.0000 0.0000 0.0000
# 3 21.4210 41.4073 155.8952 0.0000 0.0000 0.0000
# 4 0.0000 0.0000 0.0000 37.5871 0.0000 0.0000
# 5 0.0000 0.0000 0.0000 0.0000 -9.1238 0.0000
# 6 0.0000 0.0000 0.0000 0.0000 0.0000 10.1979
#
#
#
# Elastic Compliance Matrix: (Units=1/GPa)
#
#
# Indices 1 2 3 4 5 6 
#
# 1 0.027941 -0.001374 -0.003474 0.000000 0.000000 0.000000
# 2 -0.001374 0.009354 -0.002296 0.000000 0.000000 0.000000
# 3 -0.003474 -0.002296 0.007502 0.000000 0.000000 0.000000
# 4 0.000000 0.000000 0.000000 0.026605 0.000000 0.000000
# 5 0.000000 0.000000 0.000000 0.000000 -0.109603 0.000000
# 6 0.000000 0.000000 0.000000 0.000000 0.000000 0.098060
#
#
# Mechanical properties :
#
#
# Convention : Reuss Voigt Hill
#
# Bulk Modulus (GPa) = 32.77677 51.24371 42.01024
# Shear Modulus (GPa) = 59.30085 23.71615 41.50850
#
# Velocity S-wave (km/s) = 5.09423 3.22159 4.26203
# Velocity P-wave (km/s) = 6.99610 6.02192 6.52721
#
# Compressibility (1/GPa) = 0.03050941
#
# Stress axis : x y z
#
# Youngs Moduli (GPa) = 35.78928 106.90671 133.30208
#
# Poissons Ratio (x) = 0.14684 0.46316
# Poissons Ratio (y) = 0.04916 0.30603
# Poissons Ratio (z) = 0.12435 0.24543
#
# Static dielectric constant tensor:
#      x y z
#    x 4.031020 0.000000 0.000000 
#    y 0.000000 4.219950 0.000000 
#    z 0.000000 0.000000 4.310390 
# 
# 
# High freq. dielectric constant tensor:
#      x y z
#    x 1.876470 0.000000 0.000000 
#    y 0.000000 1.898560 0.000000 
#    z 0.000000 0.000000 1.921290 
# 
# From -- ./inp_files/35495.got.cif
#   From: 2010.03.12/outbox.cif.g09.slc.cpg/sg53_18_cif.got.tgz:35495.got - 2010.04.16 14:36:59.
