data_PCOD8220604
_publ_section_title
;
Structure prediction by ZEFSAII (Michael W. Deem and Ramdas Pophale) SiO2 
 PCOD8220604
Probable space group: P M N A
;
_chemical_formula_sum "Si O2"
_cell_formula_units_Z 48
_cell_length_a 8.730055
_cell_length_b 9.089894
_cell_length_c 30.566524
_cell_angle_alpha 90.000000
_cell_angle_beta 90.000000
_cell_angle_gamma 90.000000
_cell_volume 2425.614904
_symmetry_space_group_name_H-M "P M N A"
_symmetry_group_IT_number 53
_symmetry_cell_setting 'orthorhombic'
loop_
_space_group_symop_operation_xyz
x,y,z
1/2-x,-y,1/2+z
x,-y,-z
1/2-x,y,1/2-z
-x,-y,-z
1/2+x,y,1/2-z
-x,y,z
1/2+x,-y,1/2+z
loop_
_atom_site_type_symbol
_atom_site_label
_atom_site_fract_x
_atom_site_fract_y
_atom_site_fract_z
Si Si1 0.823698 0.425202 0.619422
Si Si2 0.180630 0.914713 0.796282
Si Si3 0.321027 0.395491 0.204356
Si Si4 0.318745 0.913288 0.958366
Si Si5 0.178664 0.405288 0.041500
Si Si6 0.679053 0.915324 0.126666
O O1 0.787189 0.481533 0.668162
O O2 0.715251 0.507451 0.585555
O O3 0.785976 0.253903 0.616951
O O4 0.000000 0.457405 0.607085
O O5 0.250000 0.963080 0.750000
O O6 0.246322 0.757217 0.811258
O O7 0.000000 0.903228 0.792013
O O8 0.225737 0.037786 0.831122
O O9 0.250000 0.451032 0.250000
O O10 0.500000 0.367935 0.211220
O O11 0.500000 0.920901 0.959779
O O12 0.269106 0.745842 0.959385
O O13 0.259232 0.991099 0.914358
O O14 0.249432 0.000000 0.000000
O O15 0.000000 0.370413 0.039454
O O16 0.233092 0.500000 0.000000
O O17 0.500000 0.942683 0.135538
#
# Coordination Sequence:
#
# PCOD8220604 Si02
#       6
#     8   8   8   8   8   8
#     4  10  22  39  60  84 113 150 189 230 276 333
#     4  11  22  37  58  83 112 149 190 232 281 334
#     4  10  20  36  58  84 112 145 186 230 278 330
#     4  10  21  38  62  87 112 148 191 232 277 334
#     4  11  24  39  57  84 117 150 186 232 283 333
#     4  10  21  38  58  84 116 147 186 234 281 331
#
# _framework density 19.788798
#
# number of rings (size 3 to 8) (size 9 to 14) (size 15 to 20)
#    0.000    1.667    0.000    5.500    0.000   10.333 
#    0.000    1.667    0.000    0.000    0.000    0.000 
#    0.000    0.000    0.000    0.000    0.000    0.000 
#
# Total GULP energy -595469.356619 kJ/mol
# GULP energy per Si atom -12405.611596 kJ/mol
# Density = 1.974376 g / cm^3
# Si number density = 19.788798 Si / 1000 Ang^3
#
#
#
# Elastic Constant Matrix: (Units=GPa)
#
#
# Indices 1 2 3 4 5 6 
#
# 1 58.9913 10.4580 33.5011 0.0000 0.0000 0.0000
# 2 10.4580 94.4748 56.5864 0.0000 0.0000 0.0000
# 3 33.5011 56.5864 123.2722 0.0000 0.0000 0.0000
# 4 0.0000 0.0000 0.0000 39.9336 0.0000 0.0000
# 5 0.0000 0.0000 0.0000 0.0000 31.4947 0.0000
# 6 0.0000 0.0000 0.0000 0.0000 0.0000 19.9883
#
#
#
# Elastic Compliance Matrix: (Units=1/GPa)
#
#
# Indices 1 2 3 4 5 6 
#
# 1 0.020188 0.001450 -0.006152 0.000000 0.000000 0.000000
# 2 0.001450 0.014703 -0.007143 0.000000 0.000000 0.000000
# 3 -0.006152 -0.007143 0.013063 0.000000 0.000000 0.000000
# 4 0.000000 0.000000 0.000000 0.025042 0.000000 0.000000
# 5 0.000000 0.000000 0.000000 0.000000 0.031751 0.000000
# 6 0.000000 0.000000 0.000000 0.000000 0.000000 0.050029
#
#
# Mechanical properties :
#
#
# Convention : Reuss Voigt Hill
#
# Bulk Modulus (GPa) = 41.21378 53.09213 47.15295
# Shear Modulus (GPa) = 26.80177 30.02950 28.41563
#
# Velocity S-wave (km/s) = 3.68420 3.89974 3.79350
# Velocity P-wave (km/s) = 6.24258 6.86767 6.56257
#
# Compressibility (1/GPa) = 0.02426373
#
# Stress axis : x y z
#
# Youngs Moduli (GPa) = 49.53344 68.01430 76.55178
#
# Poissons Ratio (x) = -0.09863 0.47096
# Poissons Ratio (y) = -0.07183 0.54682
# Poissons Ratio (z) = 0.30474 0.48584
#
# Static dielectric constant tensor:
#      x y z
#    x 3.535920 0.000000 0.000000 
#    y 0.000000 3.576390 0.000000 
#    z 0.000000 0.000000 3.800120 
# 
# 
# High freq. dielectric constant tensor:
#      x y z
#    x 1.767610 0.000000 0.000000 
#    y 0.000000 1.776350 0.000000 
#    z 0.000000 0.000000 1.787240 
# 
# From -- ./inp_files/37792.got.cif
#   From: 2010.03.12/outbox.cif.g09.slc.cpg/sg53_19_cif.got.tgz:37792.got - 2010.04.16 14:36:59.
