data_PCOD8220676
_publ_section_title
;
Structure prediction by ZEFSAII (Michael W. Deem and Ramdas Pophale) SiO2 
 PCOD8220676
Probable space group: P M N A
;
_chemical_formula_sum "Si O2"
_cell_formula_units_Z 48
_cell_length_a 8.680767
_cell_length_b 10.157009
_cell_length_c 27.949611
_cell_angle_alpha 90.000000
_cell_angle_beta 90.000000
_cell_angle_gamma 90.000000
_cell_volume 2464.334769
_symmetry_space_group_name_H-M "P M N A"
_symmetry_group_IT_number 53
_symmetry_cell_setting 'orthorhombic'
loop_
_space_group_symop_operation_xyz
x,y,z
1/2-x,-y,1/2+z
x,-y,-z
1/2-x,y,1/2-z
-x,-y,-z
1/2+x,y,1/2-z
-x,y,z
1/2+x,-y,1/2+z
loop_
_atom_site_type_symbol
_atom_site_label
_atom_site_fract_x
_atom_site_fract_y
_atom_site_fract_z
Si Si1 0.677062 0.495967 0.555274
Si Si2 0.681238 0.642911 0.200188
Si Si3 0.318829 0.975645 0.554244
Si Si4 0.678933 0.266700 0.107796
Si Si5 0.318270 0.358505 0.300100
Si Si6 0.822180 0.765889 0.111405
O O1 0.720788 0.500000 0.500000
O O2 0.500000 0.539015 0.563831
O O3 0.787704 0.594232 0.583122
O O4 0.708155 0.349111 0.573380
O O5 0.750000 0.696298 0.250000
O O6 0.500000 0.624275 0.205511
O O7 0.756148 0.503167 0.186695
O O8 0.720304 0.747184 0.158854
O O9 0.500000 0.948416 0.556363
O O10 0.231300 0.848732 0.573083
O O11 0.265447 0.000000 0.500000
O O12 0.270496 0.099396 0.586510
O O13 0.500000 0.254648 0.118791
O O14 0.768555 0.257701 0.158358
O O15 0.250000 0.307840 0.250000
O O16 0.500000 0.365160 0.295967
O O17 0.000000 0.769958 0.126879
#
# Coordination Sequence:
#
# PCOD8220676 Si02
#       6
#     8   8   8   8   8   8
#     4  10  20  36  60  87 115 152 199 251 299 353
#     4  11  21  35  58  88 122 156 194 242 300 358
#     4  10  22  42  65  87 116 162 209 249 299 361
#     4  12  24  38  58  89 124 160 199 246 303 360
#     4  11  21  37  61  89 121 156 198 247 300 358
#     4  10  20  36  60  88 118 154 200 248 296 353
#
# _framework density 19.477875000000001
#
# number of rings (size 3 to 8) (size 9 to 14) (size 15 to 20)
#    0.000    1.333    1.667    6.500    0.000    4.000 
#    0.000    2.500    0.000    4.000    0.000    0.000 
#    0.000    0.000    0.000    0.000    0.000    0.000 
#
# Total GULP energy -595482.770955 kJ/mol
# GULP energy per Si atom -12405.891062 kJ/mol
# Density = 1.943354 g / cm^3
# Si number density = 19.477875 Si / 1000 Ang^3
#
#
#
# Elastic Constant Matrix: (Units=GPa)
#
#
# Indices 1 2 3 4 5 6 
#
# 1 121.7135 23.0868 49.0876 0.0000 0.0000 0.0000
# 2 23.0868 47.7356 20.1876 0.0000 0.0000 0.0000
# 3 49.0876 20.1876 131.9701 0.0000 0.0000 0.0000
# 4 0.0000 0.0000 0.0000 32.8454 0.0000 0.0000
# 5 0.0000 0.0000 0.0000 0.0000 30.8580 0.0000
# 6 0.0000 0.0000 0.0000 0.0000 0.0000 13.1266
#
#
#
# Elastic Compliance Matrix: (Units=1/GPa)
#
#
# Indices 1 2 3 4 5 6 
#
# 1 0.010202 -0.003560 -0.003250 0.000000 0.000000 0.000000
# 2 -0.003560 0.023640 -0.002292 0.000000 0.000000 0.000000
# 3 -0.003250 -0.002292 0.009137 0.000000 0.000000 0.000000
# 4 0.000000 0.000000 0.000000 0.030446 0.000000 0.000000
# 5 0.000000 0.000000 0.000000 0.000000 0.032407 0.000000
# 6 0.000000 0.000000 0.000000 0.000000 0.000000 0.076181
#
#
# Mechanical properties :
#
#
# Convention : Reuss Voigt Hill
#
# Bulk Modulus (GPa) = 40.36358 54.01591 47.18974
# Shear Modulus (GPa) = 23.98378 29.30315 26.64347
#
# Velocity S-wave (km/s) = 3.51284 3.88291 3.70250
# Velocity P-wave (km/s) = 6.10092 6.92061 6.52365
#
# Compressibility (1/GPa) = 0.02477481
#
# Stress axis : x y z
#
# Youngs Moduli (GPa) = 98.01963 42.30183 109.44430
#
# Poissons Ratio (x) = 0.15058 0.35572
# Poissons Ratio (y) = 0.34891 0.25086
# Poissons Ratio (z) = 0.31859 0.09696
#
# Static dielectric constant tensor:
#      x y z
#    x 3.505250 0.000000 0.000000 
#    y 0.000000 3.371450 0.000000 
#    z 0.000000 0.000000 3.830960 
# 
# 
# High freq. dielectric constant tensor:
#      x y z
#    x 1.757510 0.000000 0.000000 
#    y 0.000000 1.737980 0.000000 
#    z 0.000000 0.000000 1.778730 
# 
# From -- ./inp_files/37666.got.cif
#   From: 2010.03.12/outbox.cif.g09.slc.cpg/sg53_19_cif.got.tgz:37666.got - 2010.04.16 14:36:59.
