data_PCOD8220223
_publ_section_title
;
Structure prediction by ZEFSAII (Michael W. Deem and Ramdas Pophale) SiO2 
 PCOD8220223
Probable space group: P M N A
;
_chemical_formula_sum "Si O2"
_cell_formula_units_Z 64
_cell_length_a 9.146523
_cell_length_b 16.846653
_cell_length_c 23.788203
_cell_angle_alpha 90.000000
_cell_angle_beta 90.000000
_cell_angle_gamma 90.000000
_cell_volume 3665.483740
_symmetry_space_group_name_H-M "P M N A"
_symmetry_group_IT_number 53
_symmetry_cell_setting 'orthorhombic'
loop_
_space_group_symop_operation_xyz
x,y,z
1/2-x,-y,1/2+z
x,-y,-z
1/2-x,y,1/2-z
-x,-y,-z
1/2+x,y,1/2-z
-x,y,z
1/2+x,-y,1/2+z
loop_
_atom_site_type_symbol
_atom_site_label
_atom_site_fract_x
_atom_site_fract_y
_atom_site_fract_z
Si Si1 0.174082 0.318789 0.972664
Si Si2 0.166623 0.538886 0.415748
Si Si3 0.671104 0.266055 0.190729
Si Si4 0.328274 0.356101 0.081366
Si Si5 0.167684 0.906909 0.692917
Si Si6 0.173167 0.228368 0.621723
Si Si7 0.664546 0.625311 0.195121
Si Si8 0.829256 0.078154 0.690465
O O1 0.225806 0.404508 0.950132
O O2 0.240021 0.247147 0.935478
O O3 0.000000 0.314337 0.972239
O O4 0.235542 0.307334 0.035598
O O5 0.209274 0.448446 0.426803
O O6 0.181188 0.554232 0.349353
O O7 0.000000 0.556898 0.435460
O O8 0.750000 0.282457 0.250000
O O9 0.500000 0.274942 0.202832
O O10 0.722468 0.328332 0.143461
O O11 0.709168 0.177681 0.164678
O O12 0.500000 0.338847 0.073104
O O13 0.250000 0.913546 0.750000
O O14 0.000000 0.904688 0.709076
O O15 0.202276 0.990927 0.661618
O O16 0.222319 0.292887 0.668087
O O17 0.222794 0.142674 0.644725
O O18 0.000000 0.234629 0.609440
O O19 0.750000 0.599967 0.250000
O O20 0.500000 0.637582 0.214664
O O21 0.750000 0.090303 0.750000
O O22 0.000000 0.090575 0.702775
#
# Coordination Sequence:
#
# PCOD8220223 Si02
#       8
#     8   8   8   8   8   8   8   8
#     4  11  22  34  50  72  94 117 153 202 246 279
#     4   9  19  35  51  67  91 125 161 194 233 283
#     4   9  18  32  51  75 102 129 156 189 232 280
#     4  10  20  35  54  71  91 125 161 191 231 284
#     4   8  14  26  44  69  99 127 156 190 228 271
#     4   9  18  32  47  65  93 129 163 192 228 278
#     4   9  17  28  42  62  90 122 153 185 224 271
#     4   9  16  26  45  72 100 129 160 194 231 274
#
# _framework density 17.460177999999999
#
# number of rings (size 3 to 8) (size 9 to 14) (size 15 to 20)
#    0.000    2.750    0.000    2.625    0.000    5.500 
#    0.000    0.000    0.000    0.750    0.000    5.250 
#    0.000    0.000    0.000    0.000    0.000    0.000 
#
# Total GULP energy -793027.164720 kJ/mol
# GULP energy per Si atom -12391.049449 kJ/mol
# Density = 1.742044 g / cm^3
# Si number density = 17.460178 Si / 1000 Ang^3
#
#
#
# Elastic Constant Matrix: (Units=GPa)
#
#
# Indices 1 2 3 4 5 6 
#
# 1 56.1523 26.5288 40.1288 0.0000 0.0000 0.0000
# 2 26.5288 68.2902 29.9066 0.0000 0.0000 0.0000
# 3 40.1288 29.9066 95.0736 0.0000 0.0000 0.0000
# 4 0.0000 0.0000 0.0000 18.3074 0.0000 0.0000
# 5 0.0000 0.0000 0.0000 0.0000 27.5250 0.0000
# 6 0.0000 0.0000 0.0000 0.0000 0.0000 16.4295
#
#
#
# Elastic Compliance Matrix: (Units=1/GPa)
#
#
# Indices 1 2 3 4 5 6 
#
# 1 0.027831 -0.006573 -0.009680 0.000000 0.000000 0.000000
# 2 -0.006573 0.018535 -0.003056 0.000000 0.000000 0.000000
# 3 -0.009680 -0.003056 0.015565 0.000000 0.000000 0.000000
# 4 0.000000 0.000000 0.000000 0.054623 0.000000 0.000000
# 5 0.000000 0.000000 0.000000 0.000000 0.036331 0.000000
# 6 0.000000 0.000000 0.000000 0.000000 0.000000 0.060866
#
#
# Mechanical properties :
#
#
# Convention : Reuss Voigt Hill
#
# Bulk Modulus (GPa) = 42.89158 45.84937 44.37048
# Shear Modulus (GPa) = 19.22043 20.64916 19.93480
#
# Velocity S-wave (km/s) = 3.32145 3.44269 3.38261
# Velocity P-wave (km/s) = 6.27121 6.48993 6.38151
#
# Compressibility (1/GPa) = 0.02331460
#
# Stress axis : x y z
#
# Youngs Moduli (GPa) = 35.93068 53.95164 64.24617
#
# Poissons Ratio (x) = 0.35461 0.62188
# Poissons Ratio (y) = 0.23616 0.19635
# Poissons Ratio (z) = 0.34779 0.16489
#
# Static dielectric constant tensor:
#      x y z
#    x 3.129040 0.000000 0.000000 
#    y 0.000000 3.774140 0.000000 
#    z 0.000000 0.000000 3.085870 
# 
# 
# High freq. dielectric constant tensor:
#      x y z
#    x 1.665030 0.000000 0.000000 
#    y 0.000000 1.676450 0.000000 
#    z 0.000000 0.000000 1.653020 
# 
# From -- ./inp_files/34457.got.cif
#   From: 2010.03.12/outbox.cif.g09.slc.cpg/sg53_18_cif.got.tgz:34457.got - 2010.04.16 14:36:59.
