data_PCOD8220258
_publ_section_title
;
Structure prediction by ZEFSAII (Michael W. Deem and Ramdas Pophale) SiO2 
 PCOD8220258
Probable space group: P M N A
;
_chemical_formula_sum "Si O2"
_cell_formula_units_Z 48
_cell_length_a 9.078998
_cell_length_b 20.968588
_cell_length_c 13.967443
_cell_angle_alpha 90.000000
_cell_angle_beta 90.000000
_cell_angle_gamma 90.000000
_cell_volume 2659.034760
_symmetry_space_group_name_H-M "P M N A"
_symmetry_group_IT_number 53
_symmetry_cell_setting 'orthorhombic'
loop_
_space_group_symop_operation_xyz
x,y,z
1/2-x,-y,1/2+z
x,-y,-z
1/2-x,y,1/2-z
-x,-y,-z
1/2+x,y,1/2-z
-x,y,z
1/2+x,-y,1/2+z
loop_
_atom_site_type_symbol
_atom_site_label
_atom_site_fract_x
_atom_site_fract_y
_atom_site_fract_z
Si Si1 0.670042 0.501047 0.849276
Si Si2 0.328584 0.836130 0.349230
Si Si3 0.171500 0.395318 0.502498
Si Si4 0.829126 0.072247 0.515276
Si Si5 0.671471 0.736722 0.514164
Si Si6 0.327723 0.829458 0.849710
O O1 0.750000 0.503131 0.750000
O O2 0.500000 0.492720 0.828343
O O3 0.700096 0.567034 0.904157
O O4 0.723464 0.440515 0.910769
O O5 0.250000 0.820622 0.250000
O O6 0.500000 0.847009 0.330425
O O7 0.263542 0.900022 0.396486
O O8 0.297428 0.776684 0.418458
O O9 0.273565 0.334003 0.505234
O O10 0.000000 0.376301 0.512119
O O11 0.796390 0.110412 0.417955
O O12 0.000000 0.076539 0.543549
O O13 0.777636 0.000000 0.500000
O O14 0.500000 0.736451 0.540797
O O15 0.759776 0.765919 0.603599
O O16 0.250000 0.844711 0.750000
O O17 0.500000 0.818030 0.832960
#
# Coordination Sequence:
#
# PCOD8220258 Si02
#       6
#     8   8   8   8   8   8
#     4   9  19  35  54  76 103 135 171 210 254 306
#     4  10  21  36  54  77 106 139 176 217 260 309
#     4   9  19  36  54  74 104 139 170 206 258 312
#     4   9  19  36  56  79 107 138 173 214 261 310
#     4  10  21  36  54  78 105 135 175 218 259 307
#     4  10  20  35  55  77 105 139 173 213 259 308
#
# _framework density 18.051663000000001
#
# number of rings (size 3 to 8) (size 9 to 14) (size 15 to 20)
#    0.000    2.500    0.000    2.500    0.000    6.333 
#    0.000    8.333    0.000    0.000    0.000    0.000 
#    0.000    0.000    0.000    0.000    0.000    0.000 
#
# Total GULP energy -595335.310573 kJ/mol
# GULP energy per Si atom -12402.818970 kJ/mol
# Density = 1.801058 g / cm^3
# Si number density = 18.051663 Si / 1000 Ang^3
#
#
#
# Elastic Constant Matrix: (Units=GPa)
#
#
# Indices 1 2 3 4 5 6 
#
# 1 92.9144 51.5260 59.0689 0.0000 0.0000 0.0000
# 2 51.5260 114.9885 34.4641 0.0000 0.0000 0.0000
# 3 59.0689 34.4641 116.1089 0.0000 0.0000 0.0000
# 4 0.0000 0.0000 0.0000 13.0594 0.0000 0.0000
# 5 0.0000 0.0000 0.0000 0.0000 39.9540 0.0000
# 6 0.0000 0.0000 0.0000 0.0000 0.0000 31.0531
#
#
#
# Elastic Compliance Matrix: (Units=1/GPa)
#
#
# Indices 1 2 3 4 5 6 
#
# 1 0.019292 -0.006260 -0.007957 0.000000 0.000000 0.000000
# 2 -0.006260 0.011577 -0.000252 0.000000 0.000000 0.000000
# 3 -0.007957 -0.000252 0.012735 0.000000 0.000000 0.000000
# 4 0.000000 0.000000 0.000000 0.076573 0.000000 0.000000
# 5 0.000000 0.000000 0.000000 0.000000 0.025029 0.000000
# 6 0.000000 0.000000 0.000000 0.000000 0.000000 0.032203
#
#
# Mechanical properties :
#
#
# Convention : Reuss Voigt Hill
#
# Bulk Modulus (GPa) = 68.17603 68.23666 68.20634
# Shear Modulus (GPa) = 23.67022 28.74349 26.20685
#
# Velocity S-wave (km/s) = 3.62505 3.99468 3.81434
# Velocity P-wave (km/s) = 7.44113 7.69152 7.56736
#
# Compressibility (1/GPa) = 0.01466791
#
# Stress axis : x y z
#
# Youngs Moduli (GPa) = 51.83364 86.37739 78.52311
#
# Poissons Ratio (x) = 0.54074 0.62478
# Poissons Ratio (y) = 0.32449 0.01976
# Poissons Ratio (z) = 0.41242 0.02173
#
# Static dielectric constant tensor:
#      x y z
#    x 3.350360 0.000000 0.000000 
#    y 0.000000 3.318370 0.000000 
#    z 0.000000 0.000000 3.274820 
# 
# 
# High freq. dielectric constant tensor:
#      x y z
#    x 1.704680 0.000000 0.000000 
#    y 0.000000 1.700280 0.000000 
#    z 0.000000 0.000000 1.701920 
# 
# From -- ./inp_files/20329.got.cif
#   From: 2010.03.12/outbox.cif.g09.slc.cpg/sg53_11_cif.got.tgz:20329.got - 2010.04.16 14:36:59.
