data_PCOD8220029
_publ_section_title
;
Structure prediction by ZEFSAII (Michael W. Deem and Ramdas Pophale) SiO2 
 PCOD8220029
Probable space group: P M N A
;
_chemical_formula_sum "Si O2"
_cell_formula_units_Z 64
_cell_length_a 9.019431
_cell_length_b 22.993284
_cell_length_c 15.478123
_cell_angle_alpha 90.000000
_cell_angle_beta 90.000000
_cell_angle_gamma 90.000000
_cell_volume 3209.951256
_symmetry_space_group_name_H-M "P M N A"
_symmetry_group_IT_number 53
_symmetry_cell_setting 'orthorhombic'
loop_
_space_group_symop_operation_xyz
x,y,z
1/2-x,-y,1/2+z
x,-y,-z
1/2-x,y,1/2-z
-x,-y,-z
1/2+x,y,1/2-z
-x,y,z
1/2+x,-y,1/2+z
loop_
_atom_site_type_symbol
_atom_site_label
_atom_site_fract_x
_atom_site_fract_y
_atom_site_fract_z
Si Si1 0.337256 0.124292 0.569103
Si Si2 0.335306 0.093542 0.370324
Si Si3 0.165354 0.984112 0.399373
Si Si4 0.675871 0.791855 0.834050
Si Si5 0.825693 0.416059 0.336966
Si Si6 0.675935 0.246055 0.506849
Si Si7 0.326382 0.548641 0.163838
Si Si8 0.825223 0.362060 0.517365
O O1 0.500000 0.120349 0.612590
O O2 0.349685 0.102444 0.471756
O O3 0.225242 0.081330 0.618593
O O4 0.281179 0.191456 0.568830
O O5 0.500000 0.099916 0.328831
O O6 0.221531 0.140397 0.332427
O O7 0.269549 0.029897 0.349182
O O8 0.000000 0.987268 0.361426
O O9 0.164043 0.000000 0.500000
O O10 0.750000 0.761984 0.750000
O O11 0.500000 0.784976 0.832298
O O12 0.740322 0.759006 0.916214
O O13 0.750000 0.391198 0.250000
O O14 0.775355 0.482508 0.353426
O O15 0.776242 0.378854 0.420141
O O16 0.000000 0.411840 0.323675
O O17 0.500000 0.246658 0.491068
O O18 0.734613 0.305430 0.549254
O O19 0.250000 0.573672 0.250000
O O20 0.500000 0.552388 0.178957
O O21 0.278257 0.586109 0.081125
O O22 0.000000 0.349562 0.522417
#
# Coordination Sequence:
#
# PCOD8220029 Si02
#       8
#     8   8   8   8   8   8   8   8
#     4   8  15  27  41  58  85 119 151 191 244 295
#     4   9  16  27  42  62  88 117 152 195 245 298
#     4   9  15  22  37  62  87 112 145 187 236 291
#     4  11  21  34  50  67  92 129 173 217 262 312
#     4   9  18  33  53  78 109 144 180 219 265 320
#     4  10  21  35  49  69  98 132 173 217 260 309
#     4   9  18  34  56  81 108 138 175 220 272 327
#     4  10  20  34  53  77 107 144 182 222 270 323
#
# _framework density 19.937998
#
# number of rings (size 3 to 8) (size 9 to 14) (size 15 to 20)
#    0.000    2.625    0.000    3.375    0.000    8.000 
#    0.000    1.250    0.000    3.750    0.000    0.875 
#    0.000    4.000    0.000    0.000    0.000    0.000 
#
# Total GULP energy -793397.648447 kJ/mol
# GULP energy per Si atom -12396.838257 kJ/mol
# Density = 1.989262 g / cm^3
# Si number density = 19.937998 Si / 1000 Ang^3
#
#
#
# Elastic Constant Matrix: (Units=GPa)
#
#
# Indices 1 2 3 4 5 6 
#
# 1 90.1623 35.1046 13.0940 0.0000 0.0000 0.0000
# 2 35.1046 108.2968 15.2320 0.0000 0.0000 0.0000
# 3 13.0940 15.2320 39.1125 0.0000 0.0000 0.0000
# 4 0.0000 0.0000 0.0000 3.4030 0.0000 0.0000
# 5 0.0000 0.0000 0.0000 0.0000 23.8073 0.0000
# 6 0.0000 0.0000 0.0000 0.0000 0.0000 30.0914
#
#
#
# Elastic Compliance Matrix: (Units=1/GPa)
#
#
# Indices 1 2 3 4 5 6 
#
# 1 0.012990 -0.003808 -0.002866 0.000000 0.000000 0.000000
# 2 -0.003808 0.010885 -0.002964 0.000000 0.000000 0.000000
# 3 -0.002866 -0.002964 0.027681 0.000000 0.000000 0.000000
# 4 0.000000 0.000000 0.000000 0.293856 0.000000 0.000000
# 5 0.000000 0.000000 0.000000 0.000000 0.042004 0.000000
# 6 0.000000 0.000000 0.000000 0.000000 0.000000 0.033232
#
#
# Mechanical properties :
#
#
# Convention : Reuss Voigt Hill
#
# Bulk Modulus (GPa) = 30.97860 40.49250 35.73555
# Shear Modulus (GPa) = 11.09425 23.06975 17.08200
#
# Velocity S-wave (km/s) = 2.36145 3.40527 2.93022
# Velocity P-wave (km/s) = 4.79651 5.98452 5.42314
#
# Compressibility (1/GPa) = 0.03228035
#
# Stress axis : x y z
#
# Youngs Moduli (GPa) = 76.98356 91.86907 36.12567
#
# Poissons Ratio (x) = 0.34980 0.10353
# Poissons Ratio (y) = 0.29312 0.10709
# Poissons Ratio (z) = 0.22062 0.27234
#
# Static dielectric constant tensor:
#      x y z
#    x 3.671920 0.000000 0.000000 
#    y 0.000000 3.757570 0.000000 
#    z 0.000000 0.000000 3.364370 
# 
# 
# High freq. dielectric constant tensor:
#      x y z
#    x 1.777790 0.000000 0.000000 
#    y 0.000000 1.777790 0.000000 
#    z 0.000000 0.000000 1.739810 
# 
# From -- ./inp_files/20825.got.cif
#   From: 2010.03.12/outbox.cif.g09.slc.cpg/sg53_11_cif.got.tgz:20825.got - 2010.04.16 14:36:59.
