data_PCOD8220693
_publ_section_title
;
Structure prediction by ZEFSAII (Michael W. Deem and Ramdas Pophale) SiO2 
 PCOD8220693
Probable space group: P M N A
;
_chemical_formula_sum "Si O2"
_cell_formula_units_Z 56
_cell_length_a 16.511597
_cell_length_b 14.301363
_cell_length_c 10.494913
_cell_angle_alpha 90.000000
_cell_angle_beta 90.000000
_cell_angle_gamma 90.000000
_cell_volume 2478.251360
_symmetry_space_group_name_H-M "P M N A"
_symmetry_group_IT_number 53
_symmetry_cell_setting 'orthorhombic'
loop_
_space_group_symop_operation_xyz
x,y,z
1/2-x,-y,1/2+z
x,-y,-z
1/2-x,y,1/2-z
-x,-y,-z
1/2+x,y,1/2-z
-x,y,z
1/2+x,-y,1/2+z
loop_
_atom_site_type_symbol
_atom_site_label
_atom_site_fract_x
_atom_site_fract_y
_atom_site_fract_z
Si Si1 0.592731 0.389984 0.716216
Si Si2 0.657089 0.576200 0.766520
Si Si3 0.095496 0.221239 0.208071
Si Si4 0.908949 0.851899 0.526058
Si Si5 0.155142 0.658962 0.479277
Si Si6 0.742912 0.066548 0.890866
Si Si7 0.821848 0.753213 0.036136
O O1 0.500000 0.368709 0.749384
O O2 0.604703 0.500163 0.685249
O O3 0.652195 0.380306 0.837300
O O4 0.618800 0.319286 0.605748
O O5 0.750000 0.549508 0.750000
O O6 0.637327 0.677960 0.714535
O O7 0.633723 0.578742 0.917611
O O8 0.119063 0.150472 0.323866
O O9 0.000000 0.232868 0.204247
O O10 0.131225 0.187589 0.073491
O O11 0.909060 0.743700 0.484206
O O12 0.849531 0.913941 0.438851
O O13 0.000000 0.891684 0.509880
O O14 0.244556 0.696473 0.515379
O O15 0.750000 0.019382 0.750000
O O16 0.791149 0.163845 0.872373
O O17 0.781857 0.000000 0.000000
#
# Coordination Sequence:
#
# PCOD8220693 Si02
#       7
#     8   8   8   8   8   8   8
#     4  12  25  37  56  85 128 177 222 279 337 393
#     4  11  21  37  58  90 126 169 225 283 324 383
#     4  10  21  38  65  98 131 177 225 271 326 391
#     4   9  20  39  68  98 133 173 217 266 330 402
#     4  10  20  36  61  86 118 172 223 268 325 398
#     4  11  26  44  73 106 134 170 221 277 338 415
#     4  11  22  42  65  89 131 172 222 273 343 405
#
# _framework density 22.596578999999998
#
# number of rings (size 3 to 8) (size 9 to 14) (size 15 to 20)
#    0.000    1.429    1.429    4.714    2.000    3.143 
#    0.000    2.143    0.000    2.143    0.000    0.000 
#    0.000    0.000    0.000    0.000    0.000    0.000 
#
# Total GULP energy -694034.751059 kJ/mol
# GULP energy per Si atom -12393.477697 kJ/mol
# Density = 2.254515 g / cm^3
# Si number density = 22.596579 Si / 1000 Ang^3
#
#
#
# Elastic Constant Matrix: (Units=GPa)
#
#
# Indices 1 2 3 4 5 6 
#
# 1 106.3724 19.5193 38.0544 0.0000 0.0000 0.0000
# 2 19.5193 65.5104 25.1551 0.0000 0.0000 0.0000
# 3 38.0544 25.1551 130.3589 0.0000 0.0000 0.0000
# 4 0.0000 0.0000 0.0000 30.9367 0.0000 0.0000
# 5 0.0000 0.0000 0.0000 0.0000 31.9135 0.0000
# 6 0.0000 0.0000 0.0000 0.0000 0.0000 14.5449
#
#
#
# Elastic Compliance Matrix: (Units=1/GPa)
#
#
# Indices 1 2 3 4 5 6 
#
# 1 0.010774 -0.002163 -0.002728 0.000000 0.000000 0.000000
# 2 -0.002163 0.016920 -0.002634 0.000000 0.000000 0.000000
# 3 -0.002728 -0.002634 0.008976 0.000000 0.000000 0.000000
# 4 0.000000 0.000000 0.000000 0.032324 0.000000 0.000000
# 5 0.000000 0.000000 0.000000 0.000000 0.031335 0.000000
# 6 0.000000 0.000000 0.000000 0.000000 0.000000 0.068753
#
#
# Mechanical properties :
#
#
# Convention : Reuss Voigt Hill
#
# Bulk Modulus (GPa) = 46.25050 51.96659 49.10854
# Shear Modulus (GPa) = 26.13194 30.11320 28.12257
#
# Velocity S-wave (km/s) = 3.40436 3.65450 3.53165
# Velocity P-wave (km/s) = 5.99710 6.39176 6.19758
#
# Compressibility (1/GPa) = 0.02162139
#
# Stress axis : x y z
#
# Youngs Moduli (GPa) = 92.81934 59.10005 111.41267
#
# Poissons Ratio (x) = 0.12781 0.30390
# Poissons Ratio (y) = 0.20074 0.29344
# Poissons Ratio (z) = 0.25318 0.15566
#
# Static dielectric constant tensor:
#      x y z
#    x 3.852040 0.000000 0.000000 
#    y 0.000000 3.897220 0.000000 
#    z 0.000000 0.000000 4.142000 
# 
# 
# High freq. dielectric constant tensor:
#      x y z
#    x 1.882370 0.000000 0.000000 
#    y 0.000000 1.880530 0.000000 
#    z 0.000000 0.000000 1.891990 
# 
# From -- ./inp_files/16015.got.cif
#   From: 2010.03.12/outbox.cif.g09.slc.cpg/sg53_9_cif.got.tgz:16015.got - 2010.04.16 14:36:59.
