data_PCOD8220843
_publ_section_title
;
Structure prediction by ZEFSAII (Michael W. Deem and Ramdas Pophale) SiO2 
 PCOD8220843
Probable space group: P M N A
;
_chemical_formula_sum "Si O2"
_cell_formula_units_Z 64
_cell_length_a 8.819797
_cell_length_b 23.416820
_cell_length_c 15.404375
_cell_angle_alpha 90.000000
_cell_angle_beta 90.000000
_cell_angle_gamma 90.000000
_cell_volume 3181.490197
_symmetry_space_group_name_H-M "P M N A"
_symmetry_group_IT_number 53
_symmetry_cell_setting 'orthorhombic'
loop_
_space_group_symop_operation_xyz
x,y,z
1/2-x,-y,1/2+z
x,-y,-z
1/2-x,y,1/2-z
-x,-y,-z
1/2+x,y,1/2-z
-x,y,z
1/2+x,-y,1/2+z
loop_
_atom_site_type_symbol
_atom_site_label
_atom_site_fract_x
_atom_site_fract_y
_atom_site_fract_z
Si Si1 0.821337 0.889661 0.338049
Si Si2 0.324505 0.683484 0.003752
Si Si3 0.819538 0.627769 0.840430
Si Si4 0.321720 0.127374 0.340289
Si Si5 0.679065 0.615481 0.339087
Si Si6 0.174503 0.815689 0.499646
Si Si7 0.322602 0.002418 0.399400
Si Si8 0.178763 0.493767 0.096127
O O1 0.750000 0.864279 0.250000
O O2 0.761354 0.852504 0.419092
O O3 0.000000 0.885583 0.330100
O O4 0.771577 0.955119 0.348326
O O5 0.500000 0.666103 0.996119
O O6 0.247875 0.649217 0.081046
O O7 0.304603 0.749901 0.024540
O O8 0.239818 0.669820 0.914461
O O9 0.750000 0.649003 0.750000
O O10 0.758443 0.563516 0.858939
O O11 0.000000 0.630936 0.836546
O O12 0.250000 0.147357 0.250000
O O13 0.500000 0.131569 0.332340
O O14 0.269015 0.170317 0.414809
O O15 0.269527 0.063218 0.362585
O O16 0.750000 0.639024 0.250000
O O17 0.500000 0.624814 0.338610
O O18 0.723649 0.548808 0.347504
O O19 0.000000 0.831156 0.517769
O O20 0.500000 0.991029 0.384762
O O21 0.279336 0.000000 0.500000
O O22 0.000000 0.487949 0.086645
O O23 0.250477 0.500000 0.000000
#
# Coordination Sequence:
#
# PCOD8220843 Si02
#       8
#     8   8   8   8   8   8   8   8
#     4  11  23  39  62  90 120 157 197 242 296 353
#     4  11  24  43  63  87 119 157 205 255 301 354
#     4  11  22  39  63  91 123 159 199 244 300 359
#     4  11  23  39  63  91 123 158 196 242 295 355
#     4  11  22  39  63  91 124 160 198 245 299 358
#     4  10  24  44  63  85 117 156 203 253 298 348
#     4  10  20  37  61  92 125 156 192 238 294 355
#     4   9  17  34  60  89 122 157 194 241 297 358
#
# _framework density 20.116358999999999
#
# number of rings (size 3 to 8) (size 9 to 14) (size 15 to 20)
#    0.000    1.500    2.500    2.625    0.000    4.750 
#    0.000    3.750    0.000    0.000    0.000    0.000 
#    0.000    0.000    0.000    0.000    0.000    0.000 
#
# Total GULP energy -793936.567422 kJ/mol
# GULP energy per Si atom -12405.258866 kJ/mol
# Density = 2.007057 g / cm^3
# Si number density = 20.116359 Si / 1000 Ang^3
#
#
#
# Elastic Constant Matrix: (Units=GPa)
#
#
# Indices 1 2 3 4 5 6 
#
# 1 80.1773 29.5703 42.3054 0.0000 0.0000 0.0000
# 2 29.5703 65.6047 16.4129 0.0000 0.0000 0.0000
# 3 42.3054 16.4129 138.5641 0.0000 0.0000 0.0000
# 4 0.0000 0.0000 0.0000 6.5892 0.0000 0.0000
# 5 0.0000 0.0000 0.0000 0.0000 36.0296 0.0000
# 6 0.0000 0.0000 0.0000 0.0000 0.0000 25.0763
#
#
#
# Elastic Compliance Matrix: (Units=1/GPa)
#
#
# Indices 1 2 3 4 5 6 
#
# 1 0.017305 -0.006676 -0.004493 0.000000 0.000000 0.000000
# 2 -0.006676 0.018284 -0.000127 0.000000 0.000000 0.000000
# 3 -0.004493 -0.000127 0.008604 0.000000 0.000000 0.000000
# 4 0.000000 0.000000 0.000000 0.151763 0.000000 0.000000
# 5 0.000000 0.000000 0.000000 0.000000 0.027755 0.000000
# 6 0.000000 0.000000 0.000000 0.000000 0.000000 0.039878
#
#
# Mechanical properties :
#
#
# Convention : Reuss Voigt Hill
#
# Bulk Modulus (GPa) = 46.29578 51.21369 48.75474
# Shear Modulus (GPa) = 17.04269 26.60954 21.82611
#
# Velocity S-wave (km/s) = 2.91384 3.64095 3.29750
# Velocity P-wave (km/s) = 5.86383 6.57186 6.22792
#
# Compressibility (1/GPa) = 0.02160024
#
# Stress axis : x y z
#
# Youngs Moduli (GPa) = 57.78637 54.69313 116.22979
#
# Poissons Ratio (x) = 0.36513 0.52218
# Poissons Ratio (y) = 0.38579 0.01481
# Poissons Ratio (z) = 0.25962 0.00697
#
# Static dielectric constant tensor:
#      x y z
#    x 3.538640 0.000000 0.000000 
#    y 0.000000 3.666780 0.000000 
#    z 0.000000 0.000000 3.800240 
# 
# 
# High freq. dielectric constant tensor:
#      x y z
#    x 1.778780 0.000000 0.000000 
#    y 0.000000 1.781170 0.000000 
#    z 0.000000 0.000000 1.801630 
# 
# From -- ./inp_files/20877.got.cif
#   From: 2010.03.12/outbox.cif.g09.slc.cpg/sg53_11_cif.got.tgz:20877.got - 2010.04.16 14:36:59.
