data_PCOD8220537
_publ_section_title
;
Structure prediction by ZEFSAII (Michael W. Deem and Ramdas Pophale) SiO2 
 PCOD8220537
Probable space group: P M N A
;
_chemical_formula_sum "Si O2"
_cell_formula_units_Z 64
_cell_length_a 9.258887
_cell_length_b 11.800799
_cell_length_c 30.967997
_cell_angle_alpha 90.000000
_cell_angle_beta 90.000000
_cell_angle_gamma 90.000000
_cell_volume 3383.633478
_symmetry_space_group_name_H-M "P M N A"
_symmetry_group_IT_number 53
_symmetry_cell_setting 'orthorhombic'
loop_
_space_group_symop_operation_xyz
x,y,z
1/2-x,-y,1/2+z
x,-y,-z
1/2-x,y,1/2-z
-x,-y,-z
1/2+x,y,1/2-z
-x,y,z
1/2+x,-y,1/2+z
loop_
_atom_site_type_symbol
_atom_site_label
_atom_site_fract_x
_atom_site_fract_y
_atom_site_fract_z
Si Si1 0.334852 0.102913 0.138133
Si Si2 0.839544 0.188130 0.000242
Si Si3 0.329224 0.599733 0.969161
Si Si4 0.167015 0.635568 0.627107
Si Si5 0.663174 0.265310 0.707113
Si Si6 0.671252 0.513005 0.703486
Si Si7 0.161463 0.011856 0.931774
Si Si8 0.832814 0.978311 0.205587
O O1 0.500000 0.078068 0.149684
O O2 0.311616 0.230068 0.121799
O O3 0.284094 0.011640 0.103037
O O4 0.236847 0.081738 0.179792
O O5 0.000000 0.241949 0.000631
O O6 0.805908 0.133748 0.953354
O O7 0.724868 0.283304 0.011103
O O8 0.830715 0.087186 0.033745
O O9 0.500000 0.605356 0.970587
O O10 0.280964 0.582576 0.918943
O O11 0.269221 0.500000 0.000000
O O12 0.263733 0.594761 0.667052
O O13 0.000000 0.605282 0.636676
O O14 0.750000 0.257054 0.750000
O O15 0.500000 0.272288 0.722779
O O16 0.700786 0.385414 0.684276
O O17 0.686807 0.146013 0.681274
O O18 0.750000 0.531370 0.750000
O O19 0.500000 0.537808 0.709036
O O20 0.000000 0.013081 0.910844
O O21 0.750000 0.971763 0.250000
O O22 0.000000 0.006419 0.213437
#
# Coordination Sequence:
#
# PCOD8220537 Si02
#       8
#     8   8   8   8   8   8   8   8
#     4  11  22  36  55  80 110 147 189 231 278 333
#     4   9  18  34  58  84 109 139 180 224 275 333
#     4  10  21  39  60  81 113 153 192 236 288 336
#     4  10  22  39  56  79 113 151 190 236 282 333
#     4   8  16  32  54  78 104 136 174 219 271 324
#     4  10  20  36  60  87 113 147 189 233 280 334
#     4   9  18  34  56  82 110 140 175 224 278 330
#     4  10  20  36  57  81 113 148 183 227 277 332
#
# _framework density 18.914577999999999
#
# number of rings (size 3 to 8) (size 9 to 14) (size 15 to 20)
#    0.000    2.375    1.250    1.875    0.000    3.750 
#    2.250    1.250    0.000    0.000    0.000    0.000 
#    0.000    0.000    0.000    0.000    0.000    0.000 
#
# Total GULP energy -792902.645295 kJ/mol
# GULP energy per Si atom -12389.103833 kJ/mol
# Density = 1.887153 g / cm^3
# Si number density = 18.914578 Si / 1000 Ang^3
#
#
#
# Elastic Constant Matrix: (Units=GPa)
#
#
# Indices 1 2 3 4 5 6 
#
# 1 86.2991 36.4776 48.8202 0.0000 0.0000 0.0000
# 2 36.4776 64.4279 42.6284 0.0000 0.0000 0.0000
# 3 48.8202 42.6284 95.0930 0.0000 0.0000 0.0000
# 4 0.0000 0.0000 0.0000 29.2902 0.0000 0.0000
# 5 0.0000 0.0000 0.0000 0.0000 30.4048 0.0000
# 6 0.0000 0.0000 0.0000 0.0000 0.0000 26.2157
#
#
#
# Elastic Compliance Matrix: (Units=1/GPa)
#
#
# Indices 1 2 3 4 5 6 
#
# 1 0.017688 -0.005695 -0.006528 0.000000 0.000000 0.000000
# 2 -0.005695 0.023900 -0.007790 0.000000 0.000000 0.000000
# 3 -0.006528 -0.007790 0.017359 0.000000 0.000000 0.000000
# 4 0.000000 0.000000 0.000000 0.034141 0.000000 0.000000
# 5 0.000000 0.000000 0.000000 0.000000 0.032890 0.000000
# 6 0.000000 0.000000 0.000000 0.000000 0.000000 0.038145
#
#
# Mechanical properties :
#
#
# Convention : Reuss Voigt Hill
#
# Bulk Modulus (GPa) = 52.85095 55.74137 54.29616
# Shear Modulus (GPa) = 23.75795 25.04172 24.39983
#
# Velocity S-wave (km/s) = 3.54795 3.64254 3.59556
# Velocity P-wave (km/s) = 6.69227 6.87203 6.78275
#
# Compressibility (1/GPa) = 0.01892114
#
# Stress axis : x y z
#
# Youngs Moduli (GPa) = 56.53641 41.84096 57.60588
#
# Poissons Ratio (x) = 0.23830 0.37603
# Poissons Ratio (y) = 0.32200 0.44875
# Poissons Ratio (z) = 0.36905 0.32594
#
# Static dielectric constant tensor:
#      x y z
#    x 3.515650 0.000000 0.000000 
#    y 0.000000 3.903290 0.000000 
#    z 0.000000 0.000000 4.069680 
# 
# 
# High freq. dielectric constant tensor:
#      x y z
#    x 1.738710 0.000000 0.000000 
#    y 0.000000 1.735600 0.000000 
#    z 0.000000 0.000000 1.718840 
# 
# From -- ./inp_files/38223.got.cif
#   From: 2010.03.12/outbox.cif.g09.slc.cpg/sg53_20_cif.got.tgz:38223.got - 2010.04.16 14:36:59.
