data_PCOD8220941
_publ_section_title
;
Structure prediction by ZEFSAII (Michael W. Deem and Ramdas Pophale) SiO2 
 PCOD8220941
Probable space group: P M N A
;
_chemical_formula_sum "Si O2"
_cell_formula_units_Z 40
_cell_length_a 18.659352
_cell_length_b 11.271761
_cell_length_c 9.625385
_cell_angle_alpha 90.000000
_cell_angle_beta 90.000000
_cell_angle_gamma 90.000000
_cell_volume 2024.447128
_symmetry_space_group_name_H-M "P M N A"
_symmetry_group_IT_number 53
_symmetry_cell_setting 'orthorhombic'
loop_
_space_group_symop_operation_xyz
x,y,z
1/2-x,-y,1/2+z
x,-y,-z
1/2-x,y,1/2-z
-x,-y,-z
1/2+x,y,1/2-z
-x,y,z
1/2+x,-y,1/2+z
loop_
_atom_site_type_symbol
_atom_site_label
_atom_site_fract_x
_atom_site_fract_y
_atom_site_fract_z
Si Si1 0.419819 0.634940 0.997650
Si Si2 0.832173 0.748346 0.273981
Si Si3 0.914590 0.365239 0.975238
Si Si4 0.818747 0.013698 0.334018
Si Si5 0.419866 0.782130 0.733089
O O1 0.500000 0.651175 0.062651
O O2 0.359337 0.710811 0.074695
O O3 0.395344 0.500000 0.000000
O O4 0.420624 0.673246 0.838714
O O5 0.750000 0.710766 0.250000
O O6 0.882655 0.680932 0.167363
O O7 0.841408 0.889565 0.264496
O O8 0.000000 0.362159 0.968699
O O9 0.887970 0.500000 0.000000
O O10 0.885727 0.274431 0.093713
O O11 0.750000 0.061119 0.250000
O O12 0.804812 0.000000 0.500000
O O13 0.880205 0.106926 0.300812
O O14 0.500000 0.827613 0.702352
#
# Coordination Sequence:
#
# PCOD8220941 Si02
#       5
#     8   8   8   8   8
#     4  10  20  38  63  89 120 159 202 250 308 363
#     4  11  24  39  60  91 123 161 207 250 304 362
#     4  10  22  42  65  91 126 164 202 251 308 367
#     4  11  25  43  64  88 125 167 205 253 310 368
#     4  10  22  38  63  93 120 158 206 257 305 355
#
# _framework density 19.758481
#
# number of rings (size 3 to 8) (size 9 to 14) (size 15 to 20)
#    0.000    1.600    2.000    1.800    5.600    6.000 
#    0.000    4.000    0.000    0.000    0.000    0.000 
#    0.000    0.000    0.000    0.000    0.000    0.000 
#
# Total GULP energy -495974.420857 kJ/mol
# GULP energy per Si atom -12399.360521 kJ/mol
# Density = 1.971351 g / cm^3
# Si number density = 19.758481 Si / 1000 Ang^3
#
#
#
# Elastic Constant Matrix: (Units=GPa)
#
#
# Indices 1 2 3 4 5 6 
#
# 1 54.1938 28.7843 16.1010 0.0000 0.0000 0.0000
# 2 28.7843 82.9124 11.9370 0.0000 0.0000 0.0000
# 3 16.1010 11.9370 81.0803 0.0000 0.0000 0.0000
# 4 0.0000 0.0000 0.0000 35.6797 0.0000 0.0000
# 5 0.0000 0.0000 0.0000 0.0000 33.1996 0.0000
# 6 0.0000 0.0000 0.0000 0.0000 0.0000 21.5080
#
#
#
# Elastic Compliance Matrix: (Units=1/GPa)
#
#
# Indices 1 2 3 4 5 6 
#
# 1 0.023585 -0.007676 -0.003553 0.000000 0.000000 0.000000
# 2 -0.007676 0.014821 -0.000658 0.000000 0.000000 0.000000
# 3 -0.003553 -0.000658 0.013136 0.000000 0.000000 0.000000
# 4 0.000000 0.000000 0.000000 0.028027 0.000000 0.000000
# 5 0.000000 0.000000 0.000000 0.000000 0.030121 0.000000
# 6 0.000000 0.000000 0.000000 0.000000 0.000000 0.046494
#
#
# Mechanical properties :
#
#
# Convention : Reuss Voigt Hill
#
# Bulk Modulus (GPa) = 36.01404 36.87012 36.44208
# Shear Modulus (GPa) = 26.42504 28.83507 27.63006
#
# Velocity S-wave (km/s) = 3.66102 3.82432 3.74356
# Velocity P-wave (km/s) = 6.01144 6.18074 6.09668
#
# Compressibility (1/GPa) = 0.02776695
#
# Stress axis : x y z
#
# Youngs Moduli (GPa) = 42.39936 67.47376 76.12719
#
# Poissons Ratio (x) = 0.51796 0.27051
# Poissons Ratio (y) = 0.32547 0.05006
# Poissons Ratio (z) = 0.15066 0.04437
#
# Static dielectric constant tensor:
#      x y z
#    x 3.532450 0.000000 0.000000 
#    y 0.000000 3.612840 0.000000 
#    z 0.000000 0.000000 3.670440 
# 
# 
# High freq. dielectric constant tensor:
#      x y z
#    x 1.760570 0.000000 0.000000 
#    y 0.000000 1.779520 0.000000 
#    z 0.000000 0.000000 1.780690 
# 
# From -- ./inp_files/9632.got.cif
#   From: 2010.03.12/outbox.cif.g09.slc.cpg/sg53_5_cif.got.tgz:9632.got - 2010.04.16 14:36:59.
