data_PCOD8220622
_publ_section_title
;
Structure prediction by ZEFSAII (Michael W. Deem and Ramdas Pophale) SiO2 
 PCOD8220622
Probable space group: P M N A
;
_chemical_formula_sum "Si O2"
_cell_formula_units_Z 40
_cell_length_a 13.565373
_cell_length_b 7.729573
_cell_length_c 18.413969
_cell_angle_alpha 90.000000
_cell_angle_beta 90.000000
_cell_angle_gamma 90.000000
_cell_volume 1930.788265
_symmetry_space_group_name_H-M "P M N A"
_symmetry_group_IT_number 53
_symmetry_cell_setting 'orthorhombic'
loop_
_space_group_symop_operation_xyz
x,y,z
1/2-x,-y,1/2+z
x,-y,-z
1/2-x,y,1/2-z
-x,-y,-z
1/2+x,y,1/2-z
-x,y,z
1/2+x,-y,1/2+z
loop_
_atom_site_type_symbol
_atom_site_label
_atom_site_fract_x
_atom_site_fract_y
_atom_site_fract_z
Si Si1 0.884809 0.294725 0.813034
Si Si2 0.114760 0.977774 0.721325
Si Si3 0.732004 0.567229 0.077783
Si Si4 0.616366 0.099524 0.931469
Si Si5 0.886023 0.403512 0.301553
O O1 0.826184 0.341570 0.885554
O O2 0.863402 0.438384 0.751772
O O3 0.000000 0.288947 0.833249
O O4 0.843986 0.109833 0.782513
O O5 0.137650 0.777342 0.740328
O O6 0.000000 0.018722 0.717663
O O7 0.160156 0.017721 0.642297
O O8 0.643908 0.700607 0.064465
O O9 0.685006 0.417460 0.128437
O O10 0.768905 0.500000 0.000000
O O11 0.500000 0.082105 0.933540
O O12 0.663753 0.000000 0.000000
O O13 0.000000 0.402822 0.327111
#
# Coordination Sequence:
#
# PCOD8220622 Si02
#       5
#     8   8   8   8   8
#     4  10  22  43  63  84 120 165 216 261 299 359
#     4   9  18  36  62  87 115 157 199 245 305 362
#     4  12  24  38  57  92 129 164 205 254 317 372
#     4  10  20  36  58  89 127 159 190 241 313 381
#     4  10  20  38  65  95 121 153 202 254 311 374
#
# _framework density 20.716927999999999
#
# number of rings (size 3 to 8) (size 9 to 14) (size 15 to 20)
#    0.000    1.800    2.000    2.400    0.000    3.600 
#   10.800    0.000    0.000    0.600    0.000    0.000 
#    0.000    0.000    0.000    0.000    0.000    0.000 
#
# Total GULP energy -495933.548216 kJ/mol
# GULP energy per Si atom -12398.338705 kJ/mol
# Density = 2.066978 g / cm^3
# Si number density = 20.716928 Si / 1000 Ang^3
#
#
#
# Elastic Constant Matrix: (Units=GPa)
#
#
# Indices 1 2 3 4 5 6 
#
# 1 59.0790 21.3091 47.8867 0.0000 0.0000 0.0000
# 2 21.3091 147.5244 46.3327 0.0000 0.0000 0.0000
# 3 47.8867 46.3327 110.3581 0.0000 0.0000 0.0000
# 4 0.0000 0.0000 0.0000 34.6261 0.0000 0.0000
# 5 0.0000 0.0000 0.0000 0.0000 27.1718 0.0000
# 6 0.0000 0.0000 0.0000 0.0000 0.0000 -2.7649
#
#
#
# Elastic Compliance Matrix: (Units=1/GPa)
#
#
# Indices 1 2 3 4 5 6 
#
# 1 0.026117 -0.000246 -0.011230 0.000000 0.000000 0.000000
# 2 -0.000246 0.007810 -0.003173 0.000000 0.000000 0.000000
# 3 -0.011230 -0.003173 0.015266 0.000000 0.000000 0.000000
# 4 0.000000 0.000000 0.000000 0.028880 0.000000 0.000000
# 5 0.000000 0.000000 0.000000 0.000000 0.036803 0.000000
# 6 0.000000 0.000000 0.000000 0.000000 0.000000 -0.361678
#
#
# Mechanical properties :
#
#
# Convention : Reuss Voigt Hill
#
# Bulk Modulus (GPa) = 50.25585 60.89092 55.57338
# Shear Modulus (GPa) = -23.71099 25.23546 0.76223
#
# Velocity S-wave (km/s) = -3.38675 3.49393 0.60723
# Velocity P-wave (km/s) = 3.00293 6.76257 5.23211
#
# Compressibility (1/GPa) = 0.01989818
#
# Stress axis : x y z
#
# Youngs Moduli (GPa) = 38.28859 128.03422 65.50415
#
# Poissons Ratio (x) = 0.03145 0.73560
# Poissons Ratio (y) = 0.00940 0.20781
# Poissons Ratio (z) = 0.42997 0.40619
#
# Static dielectric constant tensor:
#      x y z
#    x 3.625220 0.000000 0.000000 
#    y 0.000000 3.876280 0.000000 
#    z 0.000000 0.000000 3.786620 
# 
# 
# High freq. dielectric constant tensor:
#      x y z
#    x 1.801160 0.000000 0.000000 
#    y 0.000000 1.820550 0.000000 
#    z 0.000000 0.000000 1.793480 
# 
# From -- ./inp_files/22381.got.cif
#   From: 2010.03.12/outbox.cif.g09.slc.cpg/sg53_12_cif.got.tgz:22381.got - 2010.04.16 14:36:59.
