data_PCOD8220244
_publ_section_title
;
Structure prediction by ZEFSAII (Michael W. Deem and Ramdas Pophale) SiO2 
 PCOD8220244
Probable space group: P M N A
;
_chemical_formula_sum "Si O2"
_cell_formula_units_Z 48
_cell_length_a 8.774294
_cell_length_b 30.471587
_cell_length_c 9.433790
_cell_angle_alpha 90.000000
_cell_angle_beta 90.000000
_cell_angle_gamma 90.000000
_cell_volume 2522.280952
_symmetry_space_group_name_H-M "P M N A"
_symmetry_group_IT_number 53
_symmetry_cell_setting 'orthorhombic'
loop_
_space_group_symop_operation_xyz
x,y,z
1/2-x,-y,1/2+z
x,-y,-z
1/2-x,y,1/2-z
-x,-y,-z
1/2+x,y,1/2-z
-x,y,z
1/2+x,-y,1/2+z
loop_
_atom_site_type_symbol
_atom_site_label
_atom_site_fract_x
_atom_site_fract_y
_atom_site_fract_z
Si Si1 0.178934 0.958616 0.597141
Si Si2 0.319436 0.378119 0.096240
Si Si3 0.318991 0.288185 0.402157
Si Si4 0.319630 0.887821 0.399939
Si Si5 0.320432 0.540243 0.094810
Si Si6 0.821349 0.788379 0.104690
O O1 0.250000 0.967286 0.750000
O O2 0.252875 0.915757 0.528229
O O3 0.000000 0.951105 0.612744
O O4 0.218652 0.000000 0.500000
O O5 0.250000 0.389171 0.250000
O O6 0.500000 0.374083 0.113428
O O7 0.250914 0.332900 0.033639
O O8 0.271979 0.415344 0.984916
O O9 0.250000 0.280306 0.250000
O O10 0.500000 0.292578 0.396162
O O11 0.263575 0.245861 0.488554
O O12 0.250000 0.903417 0.250000
O O13 0.500000 0.893920 0.391906
O O14 0.269964 0.837814 0.433446
O O15 0.250000 0.538775 0.250000
O O16 0.500000 0.536752 0.112821
O O17 0.258456 0.500000 0.000000
O O18 0.750000 0.772336 0.250000
O O19 0.000000 0.786521 0.122224
#
# Coordination Sequence:
#
# PCOD8220244 Si02
#       6
#     8   8   8   8   8   8
#     4  11  24  40  59  84 113 146 183 224 272 324
#     4  10  20  35  55  79 106 138 178 220 265 316
#     4  10  20  35  54  78 108 142 180 220 267 318
#     4  10  20  37  59  83 112 145 184 227 273 324
#     4  10  22  38  56  80 108 139 176 217 263 316
#     4   9  20  36  55  80 109 143 181 222 268 319
#
# _framework density 19.030394000000001
#
# number of rings (size 3 to 8) (size 9 to 14) (size 15 to 20)
#    0.000    2.000    0.000    4.000    0.000    7.667 
#    0.000    5.000    0.000    0.000    0.000    0.000 
#    0.000    0.000    0.000    0.000    0.000    0.000 
#
# Total GULP energy -595289.716769 kJ/mol
# GULP energy per Si atom -12401.869099 kJ/mol
# Density = 1.898708 g / cm^3
# Si number density = 19.030394 Si / 1000 Ang^3
#
#
#
# Elastic Constant Matrix: (Units=GPa)
#
#
# Indices 1 2 3 4 5 6 
#
# 1 72.2569 54.2111 53.9423 0.0000 0.0000 0.0000
# 2 54.2111 141.5090 91.7931 0.0000 0.0000 0.0000
# 3 53.9423 91.7931 137.6215 0.0000 0.0000 0.0000
# 4 0.0000 0.0000 0.0000 44.8077 0.0000 0.0000
# 5 0.0000 0.0000 0.0000 0.0000 34.8297 0.0000
# 6 0.0000 0.0000 0.0000 0.0000 0.0000 31.4620
#
#
#
# Elastic Compliance Matrix: (Units=1/GPa)
#
#
# Indices 1 2 3 4 5 6 
#
# 1 0.021289 -0.004834 -0.005120 0.000000 0.000000 0.000000
# 2 -0.004834 0.013554 -0.007145 0.000000 0.000000 0.000000
# 3 -0.005120 -0.007145 0.014039 0.000000 0.000000 0.000000
# 4 0.000000 0.000000 0.000000 0.022318 0.000000 0.000000
# 5 0.000000 0.000000 0.000000 0.000000 0.028711 0.000000
# 6 0.000000 0.000000 0.000000 0.000000 0.000000 0.031784
#
#
# Mechanical properties :
#
#
# Convention : Reuss Voigt Hill
#
# Bulk Modulus (GPa) = 68.10973 83.47561 75.79267
# Shear Modulus (GPa) = 29.27609 32.31595 30.79602
#
# Velocity S-wave (km/s) = 3.92648 4.12530 4.02712
# Velocity P-wave (km/s) = 7.51159 8.16397 7.84456
#
# Compressibility (1/GPa) = 0.01468219
#
# Stress axis : x y z
#
# Youngs Moduli (GPa) = 46.97332 73.78026 71.23017
#
# Poissons Ratio (x) = 0.35669 0.36468
# Poissons Ratio (y) = 0.22709 0.50897
# Poissons Ratio (z) = 0.24049 0.52719
#
# Static dielectric constant tensor:
#      x y z
#    x 3.528290 0.000000 0.000000 
#    y 0.000000 3.868580 0.000000 
#    z 0.000000 0.000000 3.445040 
# 
# 
# High freq. dielectric constant tensor:
#      x y z
#    x 1.747090 0.000000 0.000000 
#    y 0.000000 1.755250 0.000000 
#    z 0.000000 0.000000 1.738900 
# 
# From -- ./inp_files/6735.got.cif
#   From: 2010.03.12/outbox.cif.g09.slc.cpg/sg53_4_cif.got.tgz:6735.got - 2010.04.16 14:36:59.
