data_PCOD8220603
_publ_section_title
;
Structure prediction by ZEFSAII (Michael W. Deem and Ramdas Pophale) SiO2 
 PCOD8220603
Probable space group: P M N A
;
_chemical_formula_sum "Si O2"
_cell_formula_units_Z 56
_cell_length_a 9.008089
_cell_length_b 22.651278
_cell_length_c 14.060216
_cell_angle_alpha 90.000000
_cell_angle_beta 90.000000
_cell_angle_gamma 90.000000
_cell_volume 2868.912952
_symmetry_space_group_name_H-M "P M N A"
_symmetry_group_IT_number 53
_symmetry_cell_setting 'orthorhombic'
loop_
_space_group_symop_operation_xyz
x,y,z
1/2-x,-y,1/2+z
x,-y,-z
1/2-x,y,1/2-z
-x,-y,-z
1/2+x,y,1/2-z
-x,y,z
1/2+x,-y,1/2+z
loop_
_atom_site_type_symbol
_atom_site_label
_atom_site_fract_x
_atom_site_fract_y
_atom_site_fract_z
Si Si1 0.172678 0.196262 0.525700
Si Si2 0.667552 0.905717 0.163591
Si Si3 0.323570 0.150118 0.348727
Si Si4 0.324051 0.530079 0.649786
Si Si5 0.822355 0.703473 0.147176
Si Si6 0.324899 0.414632 0.543421
Si Si7 0.164897 0.982682 0.891264
O O1 0.189999 0.130067 0.566684
O O2 0.254457 0.195746 0.424573
O O3 0.256793 0.239336 0.596863
O O4 0.000000 0.214209 0.515524
O O5 0.750000 0.872181 0.250000
O O6 0.500000 0.908650 0.195008
O O7 0.724539 0.972624 0.159191
O O8 0.250000 0.168343 0.250000
O O9 0.500000 0.158269 0.345978
O O10 0.276109 0.083473 0.375038
O O11 0.250000 0.547343 0.750000
O O12 0.500000 0.531538 0.664755
O O13 0.266556 0.465837 0.614453
O O14 0.273065 0.575931 0.566351
O O15 0.750000 0.696074 0.250000
O O16 0.771266 0.648209 0.082552
O O17 0.000000 0.708380 0.156568
O O18 0.500000 0.419654 0.544187
O O19 0.000000 0.988908 0.847621
O O20 0.161208 0.000000 0.000000
#
# Coordination Sequence:
#
# PCOD8220603 Si02
#       7
#     8   8   8   8   8   8   8
#     4  11  24  41  59  82 110 145 189 235 280 331
#     4  11  23  36  55  80 109 142 178 222 274 332
#     4  11  23  40  62  85 112 146 184 230 282 340
#     4   9  16  31  54  82 116 153 191 232 279 333
#     4  11  22  38  60  85 113 149 190 234 285 338
#     4   8  17  33  54  80 115 156 192 228 280 341
#     4  10  20  36  58  84 112 142 176 219 275 336
#
# _framework density 19.519587000000001
#
# number of rings (size 3 to 8) (size 9 to 14) (size 15 to 20)
#    0.000    1.857    1.429    3.857    0.000    5.429 
#    0.000    4.286    0.000    1.714    0.000    0.000 
#    0.000    0.000    0.000    0.000    0.000    0.000 
#
# Total GULP energy -694257.698041 kJ/mol
# GULP energy per Si atom -12397.458894 kJ/mol
# Density = 1.947516 g / cm^3
# Si number density = 19.519587 Si / 1000 Ang^3
#
#
#
# Elastic Constant Matrix: (Units=GPa)
#
#
# Indices 1 2 3 4 5 6 
#
# 1 103.8053 40.1890 60.6673 0.0000 0.0000 0.0000
# 2 40.1890 75.4076 41.6618 0.0000 0.0000 0.0000
# 3 60.6673 41.6618 151.5241 0.0000 0.0000 0.0000
# 4 0.0000 0.0000 0.0000 31.3127 0.0000 0.0000
# 5 0.0000 0.0000 0.0000 0.0000 38.2574 0.0000
# 6 0.0000 0.0000 0.0000 0.0000 0.0000 17.6042
#
#
#
# Elastic Compliance Matrix: (Units=1/GPa)
#
#
# Indices 1 2 3 4 5 6 
#
# 1 0.014110 -0.005187 -0.004223 0.000000 0.000000 0.000000
# 2 -0.005187 0.017543 -0.002747 0.000000 0.000000 0.000000
# 3 -0.004223 -0.002747 0.009046 0.000000 0.000000 0.000000
# 4 0.000000 0.000000 0.000000 0.031936 0.000000 0.000000
# 5 0.000000 0.000000 0.000000 0.000000 0.026139 0.000000
# 6 0.000000 0.000000 0.000000 0.000000 0.000000 0.056805
#
#
# Mechanical properties :
#
#
# Convention : Reuss Voigt Hill
#
# Bulk Modulus (GPa) = 61.03068 68.41923 64.72495
# Shear Modulus (GPa) = 26.97559 29.98277 28.47918
#
# Velocity S-wave (km/s) = 3.72153 3.92348 3.82384
# Velocity P-wave (km/s) = 7.05695 7.46007 7.26131
#
# Compressibility (1/GPa) = 0.01638520
#
# Stress axis : x y z
#
# Youngs Moduli (GPa) = 70.87377 57.00249 110.54916
#
# Poissons Ratio (x) = 0.29565 0.46687
# Poissons Ratio (y) = 0.36759 0.30367
# Poissons Ratio (z) = 0.29931 0.15658
#
# Static dielectric constant tensor:
#      x y z
#    x 3.479780 0.000000 0.000000 
#    y 0.000000 3.591250 0.000000 
#    z 0.000000 0.000000 3.966130 
# 
# 
# High freq. dielectric constant tensor:
#      x y z
#    x 1.753190 0.000000 0.000000 
#    y 0.000000 1.740450 0.000000 
#    z 0.000000 0.000000 1.775580 
# 
# From -- ./inp_files/20511.got.cif
#   From: 2010.03.12/outbox.cif.g09.slc.cpg/sg53_11_cif.got.tgz:20511.got - 2010.04.16 14:36:59.
