data_PCOD8220665
_publ_section_title
;
Structure prediction by ZEFSAII (Michael W. Deem and Ramdas Pophale) SiO2 
 PCOD8220665
Probable space group: P M N A
;
_chemical_formula_sum "Si O2"
_cell_formula_units_Z 64
_cell_length_a 8.937807
_cell_length_b 12.810372
_cell_length_c 28.030148
_cell_angle_alpha 90.000000
_cell_angle_beta 90.000000
_cell_angle_gamma 90.000000
_cell_volume 3209.357555
_symmetry_space_group_name_H-M "P M N A"
_symmetry_group_IT_number 53
_symmetry_cell_setting 'orthorhombic'
loop_
_space_group_symop_operation_xyz
x,y,z
1/2-x,-y,1/2+z
x,-y,-z
1/2-x,y,1/2-z
-x,-y,-z
1/2+x,y,1/2-z
-x,y,z
1/2+x,-y,1/2+z
loop_
_atom_site_type_symbol
_atom_site_label
_atom_site_fract_x
_atom_site_fract_y
_atom_site_fract_z
Si Si1 0.677354 0.225424 0.801042
Si Si2 0.326115 0.367352 0.356859
Si Si3 0.675398 0.420813 0.865371
Si Si4 0.676145 0.963344 0.947336
Si Si5 0.174268 0.745183 0.953027
Si Si6 0.325341 0.393194 0.973032
Si Si7 0.324723 0.038698 0.642875
Si Si8 0.174479 0.831218 0.799908
O O1 0.750000 0.243383 0.750000
O O2 0.500000 0.214015 0.795913
O O3 0.723552 0.323629 0.833284
O O4 0.742151 0.121819 0.824351
O O5 0.500000 0.382162 0.347161
O O6 0.246208 0.474907 0.343376
O O7 0.295296 0.339877 0.412012
O O8 0.262110 0.275263 0.323182
O O9 0.500000 0.438337 0.865928
O O10 0.733134 0.401035 0.919016
O O11 0.500000 0.967821 0.938392
O O12 0.734650 0.847297 0.939036
O O13 0.756261 0.041702 0.910274
O O14 0.720173 0.000000 0.000000
O O15 0.000000 0.774265 0.956572
O O16 0.232488 0.699780 0.002899
O O17 0.500000 0.364178 0.975573
O O18 0.290297 0.500000 0.000000
O O19 0.500000 0.064385 0.640993
O O20 0.291102 0.925092 0.664213
O O21 0.250000 0.855206 0.750000
O O22 0.000000 0.820794 0.790745
#
# Coordination Sequence:
#
# PCOD8220665 Si02
#       8
#     8   8   8   8   8   8   8   8
#     4  11  25  45  66  91 125 166 217 270 322 376
#     4  10  21  39  60  87 126 161 199 252 309 369
#     4  10  23  41  62  89 124 164 211 264 313 370
#     4  11  25  42  62  91 128 168 207 250 305 371
#     4  11  22  38  60  88 124 163 203 253 309 368
#     4  10  20  36  59  88 121 159 204 251 302 368
#     4  11  23  43  68  94 127 162 206 259 316 378
#     4  10  22  40  61  90 122 153 194 251 308 367
#
# _framework density 19.941686000000001
#
# number of rings (size 3 to 8) (size 9 to 14) (size 15 to 20)
#    0.000    1.500    2.500    1.875    1.750    6.250 
#    0.000    2.500    0.000    0.000    0.000    0.000 
#    0.000    0.000    0.000    0.000    0.000    0.000 
#
# Total GULP energy -793943.664862 kJ/mol
# GULP energy per Si atom -12405.369763 kJ/mol
# Density = 1.989630 g / cm^3
# Si number density = 19.941686 Si / 1000 Ang^3
#
#
#
# Elastic Constant Matrix: (Units=GPa)
#
#
# Indices 1 2 3 4 5 6 
#
# 1 62.4115 40.8447 52.0326 0.0000 0.0000 0.0000
# 2 40.8447 79.7595 36.7126 0.0000 0.0000 0.0000
# 3 52.0326 36.7126 133.7112 0.0000 0.0000 0.0000
# 4 0.0000 0.0000 0.0000 20.9087 0.0000 0.0000
# 5 0.0000 0.0000 0.0000 0.0000 35.2490 0.0000
# 6 0.0000 0.0000 0.0000 0.0000 0.0000 29.5833
#
#
#
# Elastic Compliance Matrix: (Units=1/GPa)
#
#
# Indices 1 2 3 4 5 6 
#
# 1 0.031210 -0.011896 -0.008879 0.000000 0.000000 0.000000
# 2 -0.011896 0.018886 -0.000556 0.000000 0.000000 0.000000
# 3 -0.008879 -0.000556 0.011087 0.000000 0.000000 0.000000
# 4 0.000000 0.000000 0.000000 0.047827 0.000000 0.000000
# 5 0.000000 0.000000 0.000000 0.000000 0.028370 0.000000
# 6 0.000000 0.000000 0.000000 0.000000 0.000000 0.033803
#
#
# Mechanical properties :
#
#
# Convention : Reuss Voigt Hill
#
# Bulk Modulus (GPa) = 53.99423 59.45131 56.72277
# Shear Modulus (GPa) = 22.72548 26.90103 24.81325
#
# Velocity S-wave (km/s) = 3.37945 3.67684 3.53128
# Velocity P-wave (km/s) = 6.50864 6.92119 6.71808
#
# Compressibility (1/GPa) = 0.01852050
#
# Stress axis : x y z
#
# Youngs Moduli (GPa) = 32.04078 52.95067 90.19808
#
# Poissons Ratio (x) = 0.62989 0.80087
# Poissons Ratio (y) = 0.38115 0.05017
# Poissons Ratio (z) = 0.28449 0.02945
#
# Static dielectric constant tensor:
#      x y z
#    x 3.567510 0.000000 0.000000 
#    y 0.000000 3.659160 0.000000 
#    z 0.000000 0.000000 3.820880 
# 
# 
# High freq. dielectric constant tensor:
#      x y z
#    x 1.776590 0.000000 0.000000 
#    y 0.000000 1.784730 0.000000 
#    z 0.000000 0.000000 1.786410 
# 
# From -- ./inp_files/38167.got.cif
#   From: 2010.03.12/outbox.cif.g09.slc.cpg/sg53_20_cif.got.tgz:38167.got - 2010.04.16 14:36:59.
