data_PCOD8220493
_publ_section_title
;
Structure prediction by ZEFSAII (Michael W. Deem and Ramdas Pophale) SiO2 
 PCOD8220493
Probable space group: P M N A
;
_chemical_formula_sum "Si O2"
_cell_formula_units_Z 56
_cell_length_a 8.982907
_cell_length_b 14.478270
_cell_length_c 20.930455
_cell_angle_alpha 90.000000
_cell_angle_beta 90.000000
_cell_angle_gamma 90.000000
_cell_volume 2722.151201
_symmetry_space_group_name_H-M "P M N A"
_symmetry_group_IT_number 53
_symmetry_cell_setting 'orthorhombic'
loop_
_space_group_symop_operation_xyz
x,y,z
1/2-x,-y,1/2+z
x,-y,-z
1/2-x,y,1/2-z
-x,-y,-z
1/2+x,y,1/2-z
-x,y,z
1/2+x,-y,1/2+z
loop_
_atom_site_type_symbol
_atom_site_label
_atom_site_fract_x
_atom_site_fract_y
_atom_site_fract_z
Si Si1 0.169931 0.213458 0.814334
Si Si2 0.825055 0.605672 0.869579
Si Si3 0.675981 0.106057 0.927357
Si Si4 0.322868 0.227155 0.186314
Si Si5 0.824427 0.102911 0.429965
Si Si6 0.165129 0.390909 0.497127
Si Si7 0.669112 0.603021 0.378714
O O1 0.250000 0.180561 0.750000
O O2 0.240933 0.167925 0.876241
O O3 0.183216 0.324866 0.820607
O O4 0.000000 0.181748 0.809518
O O5 0.735963 0.667753 0.819047
O O6 0.779722 0.498935 0.856231
O O7 0.000000 0.622572 0.862133
O O8 0.772777 0.638349 0.939773
O O9 0.500000 0.113967 0.916134
O O10 0.733688 0.001059 0.919106
O O11 0.719856 0.139862 0.999248
O O12 0.250000 0.183349 0.250000
O O13 0.500000 0.225837 0.191805
O O14 0.261810 0.169247 0.125533
O O15 0.000000 0.099496 0.425476
O O16 0.153749 0.500000 0.500000
O O17 0.231119 0.356086 0.564006
O O18 0.000000 0.347304 0.486961
O O19 0.500000 0.595711 0.404146
#
# Coordination Sequence:
#
# PCOD8220493 Si02
#       7
#     8   8   8   8   8   8   8
#     4  11  24  40  57  85 119 156 198 243 291 347
#     4  10  20  36  56  80 114 157 196 242 293 341
#     4   9  18  39  67  92 116 150 189 236 292 351
#     4  11  23  39  57  85 119 156 198 242 290 350
#     4   8  18  38  65  91 118 150 190 234 291 353
#     4   9  17  30  51  80 109 142 189 239 286 339
#     4   9  20  37  55  78 114 155 198 242 291 342
#
# _framework density 20.571964999999999
#
# number of rings (size 3 to 8) (size 9 to 14) (size 15 to 20)
#    0.000    2.429    0.000    2.571    2.000    4.571 
#    0.000    6.429    0.000    0.000    0.000    0.000 
#    0.000    0.000    0.000    0.000    0.000    0.000 
#
# Total GULP energy -694301.001590 kJ/mol
# GULP energy per Si atom -12398.232171 kJ/mol
# Density = 2.052514 g / cm^3
# Si number density = 20.571965 Si / 1000 Ang^3
#
#
#
# Elastic Constant Matrix: (Units=GPa)
#
#
# Indices 1 2 3 4 5 6 
#
# 1 91.9270 35.0569 53.3149 0.0000 0.0000 0.0000
# 2 35.0569 77.6016 61.3554 0.0000 0.0000 0.0000
# 3 53.3149 61.3554 144.7624 0.0000 0.0000 0.0000
# 4 0.0000 0.0000 0.0000 24.8093 0.0000 0.0000
# 5 0.0000 0.0000 0.0000 0.0000 33.6241 0.0000
# 6 0.0000 0.0000 0.0000 0.0000 0.0000 20.5670
#
#
#
# Elastic Compliance Matrix: (Units=1/GPa)
#
#
# Indices 1 2 3 4 5 6 
#
# 1 0.014434 -0.003486 -0.003838 0.000000 0.000000 0.000000
# 2 -0.003486 0.020223 -0.007287 0.000000 0.000000 0.000000
# 3 -0.003838 -0.007287 0.011410 0.000000 0.000000 0.000000
# 4 0.000000 0.000000 0.000000 0.040308 0.000000 0.000000
# 5 0.000000 0.000000 0.000000 0.000000 0.029741 0.000000
# 6 0.000000 0.000000 0.000000 0.000000 0.000000 0.048622
#
#
# Mechanical properties :
#
#
# Convention : Reuss Voigt Hill
#
# Bulk Modulus (GPa) = 59.36958 68.19395 63.78176
# Shear Modulus (GPa) = 25.05340 26.77098 25.91219
#
# Velocity S-wave (km/s) = 3.49354 3.61131 3.55292
# Velocity P-wave (km/s) = 6.72274 7.11405 6.92116
#
# Compressibility (1/GPa) = 0.01684364
#
# Stress axis : x y z
#
# Youngs Moduli (GPa) = 69.28251 49.44943 87.64092
#
# Poissons Ratio (x) = 0.17236 0.33641
# Poissons Ratio (y) = 0.24149 0.63867
# Poissons Ratio (z) = 0.26594 0.36036
#
# Static dielectric constant tensor:
#      x y z
#    x 3.606480 0.000000 0.000000 
#    y 0.000000 3.846050 0.000000 
#    z 0.000000 0.000000 3.796500 
# 
# 
# High freq. dielectric constant tensor:
#      x y z
#    x 1.790120 0.000000 0.000000 
#    y 0.000000 1.801490 0.000000 
#    z 0.000000 0.000000 1.801240 
# 
# From -- ./inp_files/30830.got.cif
#   From: 2010.03.12/outbox.cif.g09.slc.cpg/sg53_16_cif.got.tgz:30830.got - 2010.04.16 14:36:59.
