data_PCOD8220295
_publ_section_title
;
Structure prediction by ZEFSAII (Michael W. Deem and Ramdas Pophale) SiO2 
 PCOD8220295
Probable space group: P M N A
;
_chemical_formula_sum "Si O2"
_cell_formula_units_Z 64
_cell_length_a 8.810522
_cell_length_b 21.612887
_cell_length_c 17.884598
_cell_angle_alpha 90.000000
_cell_angle_beta 90.000000
_cell_angle_gamma 90.000000
_cell_volume 3405.599752
_symmetry_space_group_name_H-M "P M N A"
_symmetry_group_IT_number 53
_symmetry_cell_setting 'orthorhombic'
loop_
_space_group_symop_operation_xyz
x,y,z
1/2-x,-y,1/2+z
x,-y,-z
1/2-x,y,1/2-z
-x,-y,-z
1/2+x,y,1/2-z
-x,y,z
1/2+x,-y,1/2+z
loop_
_atom_site_type_symbol
_atom_site_label
_atom_site_fract_x
_atom_site_fract_y
_atom_site_fract_z
Si Si1 0.176674 0.126711 0.088747
Si Si2 0.179749 0.315474 0.948515
Si Si3 0.324955 0.373388 0.172873
Si Si4 0.824118 0.118877 0.914556
Si Si5 0.179437 0.569127 0.520092
Si Si6 0.321615 0.995662 0.670169
Si Si7 0.679374 0.768541 0.168730
Si Si8 0.676943 0.252301 0.088323
O O1 0.239793 0.067560 0.133459
O O2 0.270068 0.185876 0.118300
O O3 0.000000 0.138139 0.104655
O O4 0.208381 0.115526 0.002041
O O5 0.251746 0.292026 0.871157
O O6 0.000000 0.314737 0.941800
O O7 0.237720 0.384887 0.962964
O O8 0.228976 0.269010 0.014334
O O9 0.250000 0.393705 0.250000
O O10 0.500000 0.385043 0.184795
O O11 0.266235 0.416277 0.104652
O O12 0.288976 0.301962 0.153369
O O13 0.718925 0.170578 0.878256
O O14 0.000000 0.134541 0.897558
O O15 0.775955 0.052621 0.882322
O O16 0.228648 0.500000 0.500000
O O17 0.000000 0.580047 0.512240
O O18 0.250000 0.006811 0.750000
O O19 0.500000 0.991448 0.679316
O O20 0.750000 0.774944 0.250000
O O21 0.500000 0.761503 0.174927
O O22 0.500000 0.252693 0.066918
#
# Coordination Sequence:
#
# PCOD8220295 Si02
#       8
#     8   8   8   8   8   8   8   8
#     4  10  20  35  57  81 107 143 187 233 285 342
#     4  11  21  36  58  85 116 148 186 231 279 335
#     4   9  19  34  54  82 114 149 188 230 278 330
#     4  10  20  37  59  81 107 142 189 237 287 344
#     4   9  19  38  62  86 116 157 198 236 282 333
#     4  10  22  38  54  76 108 147 187 234 288 345
#     4  12  24  38  58  85 116 148 187 235 289 342
#     4  10  20  35  55  81 111 145 185 230 281 338
#
# _framework density 18.792579
#
# number of rings (size 3 to 8) (size 9 to 14) (size 15 to 20)
#    0.000    1.875    1.250    4.125    0.000    6.750 
#    0.000    3.125    0.000    3.750    0.000    0.000 
#    0.000    0.000    0.000    0.000    0.000    0.000 
#
# Total GULP energy -793797.641515 kJ/mol
# GULP energy per Si atom -12403.088149 kJ/mol
# Density = 1.874981 g / cm^3
# Si number density = 18.792579 Si / 1000 Ang^3
#
#
#
# Elastic Constant Matrix: (Units=GPa)
#
#
# Indices 1 2 3 4 5 6 
#
# 1 79.1623 40.3169 24.7668 0.0000 0.0000 0.0000
# 2 40.3169 135.5999 33.6013 0.0000 0.0000 0.0000
# 3 24.7668 33.6013 64.6420 0.0000 0.0000 0.0000
# 4 0.0000 0.0000 0.0000 22.2482 0.0000 0.0000
# 5 0.0000 0.0000 0.0000 0.0000 26.1806 0.0000
# 6 0.0000 0.0000 0.0000 0.0000 0.0000 23.4265
#
#
#
# Elastic Compliance Matrix: (Units=1/GPa)
#
#
# Indices 1 2 3 4 5 6 
#
# 1 0.015798 -0.003670 -0.004145 0.000000 0.000000 0.000000
# 2 -0.003670 0.009318 -0.003437 0.000000 0.000000 0.000000
# 3 -0.004145 -0.003437 0.018845 0.000000 0.000000 0.000000
# 4 0.000000 0.000000 0.000000 0.044948 0.000000 0.000000
# 5 0.000000 0.000000 0.000000 0.000000 0.038196 0.000000
# 6 0.000000 0.000000 0.000000 0.000000 0.000000 0.042687
#
#
# Mechanical properties :
#
#
# Convention : Reuss Voigt Hill
#
# Bulk Modulus (GPa) = 46.60779 52.97491 49.79135
# Shear Modulus (GPa) = 25.06924 26.41901 25.74412
#
# Velocity S-wave (km/s) = 3.65635 3.75350 3.70524
# Velocity P-wave (km/s) = 6.53301 6.85824 6.69760
#
# Compressibility (1/GPa) = 0.02145564
#
# Stress axis : x y z
#
# Youngs Moduli (GPa) = 63.29808 107.32444 53.06534
#
# Poissons Ratio (x) = 0.39388 0.21997
# Poissons Ratio (y) = 0.23230 0.18240
# Poissons Ratio (z) = 0.26238 0.36890
#
# Static dielectric constant tensor:
#      x y z
#    x 3.379670 0.000000 0.000000 
#    y 0.000000 3.579670 0.000000 
#    z 0.000000 0.000000 3.459570 
# 
# 
# High freq. dielectric constant tensor:
#      x y z
#    x 1.726480 0.000000 0.000000 
#    y 0.000000 1.732560 0.000000 
#    z 0.000000 0.000000 1.727540 
# 
# From -- ./inp_files/26979.got.cif
#   From: 2010.03.12/outbox.cif.g09.slc.cpg/sg53_14_cif.got.tgz:26979.got - 2010.04.16 14:36:59.
