data_PCOD8220936
_publ_section_title
;
Structure prediction by ZEFSAII (Michael W. Deem and Ramdas Pophale) SiO2 
 PCOD8220936
Probable space group: P M N A
;
_chemical_formula_sum "Si O2"
_cell_formula_units_Z 40
_cell_length_a 15.169788
_cell_length_b 8.843074
_cell_length_c 14.556676
_cell_angle_alpha 90.000000
_cell_angle_beta 90.000000
_cell_angle_gamma 90.000000
_cell_volume 1952.742536
_symmetry_space_group_name_H-M "P M N A"
_symmetry_group_IT_number 53
_symmetry_cell_setting 'orthorhombic'
loop_
_space_group_symop_operation_xyz
x,y,z
1/2-x,-y,1/2+z
x,-y,-z
1/2-x,y,1/2-z
-x,-y,-z
1/2+x,y,1/2-z
-x,y,z
1/2+x,-y,1/2+z
loop_
_atom_site_type_symbol
_atom_site_label
_atom_site_fract_x
_atom_site_fract_y
_atom_site_fract_z
Si Si1 0.159060 0.238112 0.713858
Si Si2 0.328223 0.353430 0.439618
Si Si3 0.750000 0.528474 0.750000
Si Si4 0.500000 0.122306 0.079659
Si Si5 0.500000 0.144601 0.433469
Si Si6 0.000000 0.059949 0.764919
Si Si7 0.668231 0.828008 0.009314
O O1 0.250000 0.161891 0.750000
O O2 0.168056 0.420781 0.719140
O O3 0.083104 0.171157 0.778824
O O4 0.131989 0.193462 0.611614
O O5 0.352654 0.500000 0.500000
O O6 0.290033 0.376595 0.335652
O O7 0.413598 0.247907 0.442194
O O8 0.251429 0.277113 0.497339
O O9 0.590483 0.217248 0.063668
O O10 0.500000 0.035212 0.173119
O O11 0.500000 0.000000 0.000000
O O12 0.500000 0.000000 0.500000
O O13 0.500000 0.076953 0.333640
O O14 0.699637 0.000000 0.000000
#
# Coordination Sequence:
#
# PCOD8220936 Si02
#       7
#     8   8   4   4   4   4   8
#     4  10  22  41  66 101 135 179 231 276 353 413
#     4  12  26  49  70  97 144 183 234 288 345 427
#     4  10  26  42  68 100 132 190 220 278 354 398
#     4  10  20  38  63 104 132 167 211 288 352 396
#     4  12  33  46  70 105 136 193 241 283 349 408
#     4  12  24  42  68 101 139 174 226 295 344 408
#     4  11  21  41  71  98 138 178 228 288 347 410
#
# _framework density 20.484010999999999
#
# number of rings (size 3 to 8) (size 9 to 14) (size 15 to 20)
#    0.600    0.400    6.000    0.900   11.200    0.800 
#    0.000    1.500    0.000    0.000    0.000    0.000 
#    0.000    0.000    0.000    0.000    0.000    0.000 
#
# Total GULP energy -495600.733822 kJ/mol
# GULP energy per Si atom -12390.018346 kJ/mol
# Density = 2.043739 g / cm^3
# Si number density = 20.484011 Si / 1000 Ang^3
#
#
#
# Elastic Constant Matrix: (Units=GPa)
#
#
# Indices 1 2 3 4 5 6 
#
# 1 164.8748 61.2165 26.1499 0.0000 0.0000 0.0000
# 2 61.2165 108.3961 37.7525 0.0000 0.0000 0.0000
# 3 26.1499 37.7525 97.8371 0.0000 0.0000 0.0000
# 4 0.0000 0.0000 0.0000 39.5624 0.0000 0.0000
# 5 0.0000 0.0000 0.0000 0.0000 43.4845 0.0000
# 6 0.0000 0.0000 0.0000 0.0000 0.0000 43.6308
#
#
#
# Elastic Compliance Matrix: (Units=1/GPa)
#
#
# Indices 1 2 3 4 5 6 
#
# 1 0.007691 -0.004191 -0.000439 0.000000 0.000000 0.000000
# 2 -0.004191 0.012941 -0.003874 0.000000 0.000000 0.000000
# 3 -0.000439 -0.003874 0.011833 0.000000 0.000000 0.000000
# 4 0.000000 0.000000 0.000000 0.025277 0.000000 0.000000
# 5 0.000000 0.000000 0.000000 0.000000 0.022997 0.000000
# 6 0.000000 0.000000 0.000000 0.000000 0.000000 0.022920
#
#
# Mechanical properties :
#
#
# Convention : Reuss Voigt Hill
#
# Bulk Modulus (GPa) = 64.68532 69.03843 66.86188
# Shear Modulus (GPa) = 39.74057 41.73483 40.73770
#
# Velocity S-wave (km/s) = 4.40941 4.51869 4.46439
# Velocity P-wave (km/s) = 7.58755 7.81035 7.69975
#
# Compressibility (1/GPa) = 0.01545946
#
# Stress axis : x y z
#
# Youngs Moduli (GPa) = 130.02759 77.27308 84.50955
#
# Poissons Ratio (x) = 0.32382 0.03706
# Poissons Ratio (y) = 0.54489 0.32735
# Poissons Ratio (z) = 0.05702 0.29932
#
# Static dielectric constant tensor:
#      x y z
#    x 7.309110 0.000000 0.000000 
#    y 0.000000 3.633150 0.000000 
#    z 0.000000 0.000000 3.653050 
# 
# 
# High freq. dielectric constant tensor:
#      x y z
#    x 1.811720 0.000000 0.000000 
#    y 0.000000 1.789630 0.000000 
#    z 0.000000 0.000000 1.809870 
# 
# From -- ./inp_files/22514.got.cif
#   From: 2010.03.12/outbox.cif.g09.slc.cpg/sg53_12_cif.got.tgz:22514.got - 2010.04.16 14:36:59.
