data_PCOD8220123
_publ_section_title
;
Structure prediction by ZEFSAII (Michael W. Deem and Ramdas Pophale) SiO2 
 PCOD8220123
Probable space group: P M N A
;
_chemical_formula_sum "Si O2"
_cell_formula_units_Z 48
_cell_length_a 15.124106
_cell_length_b 9.016775
_cell_length_c 18.485268
_cell_angle_alpha 90.000000
_cell_angle_beta 90.000000
_cell_angle_gamma 90.000000
_cell_volume 2520.848214
_symmetry_space_group_name_H-M "P M N A"
_symmetry_group_IT_number 53
_symmetry_cell_setting 'orthorhombic'
loop_
_space_group_symop_operation_xyz
x,y,z
1/2-x,-y,1/2+z
x,-y,-z
1/2-x,y,1/2-z
-x,-y,-z
1/2+x,y,1/2-z
-x,y,z
1/2+x,-y,1/2+z
loop_
_atom_site_type_symbol
_atom_site_label
_atom_site_fract_x
_atom_site_fract_y
_atom_site_fract_z
Si Si1 0.098703 0.424857 0.309565
Si Si2 0.156938 0.892688 0.716124
Si Si3 0.247152 0.074619 0.426409
Si Si4 0.602894 0.576897 0.339023
Si Si5 0.251491 0.577560 0.925736
Si Si6 0.100649 0.081451 0.845755
O O1 0.096407 0.252307 0.286826
O O2 0.126274 0.523398 0.241270
O O3 0.168555 0.458889 0.371825
O O4 0.000000 0.467056 0.336232
O O5 0.250000 0.840833 0.750000
O O6 0.174142 0.957830 0.635696
O O7 0.111441 0.018124 0.764549
O O8 0.260151 0.248498 0.438255
O O9 0.212687 0.000000 0.500000
O O10 0.341151 0.005962 0.403876
O O11 0.500000 0.550300 0.356864
O O12 0.658911 0.484558 0.396695
O O13 0.629917 0.748213 0.344648
O O14 0.277102 0.500000 0.000000
O O15 0.000000 0.063794 0.870815
#
# Coordination Sequence:
#
# PCOD8220123 Si02
#       6
#     8   8   8   8   8   8
#     4  10  20  36  58  81 108 141 181 225 267 318
#     4   9  18  33  55  80 105 140 180 218 266 319
#     4  10  21  36  53  77 106 141 181 217 265 318
#     4  10  21  36  56  84 112 141 179 222 269 320
#     4  11  23  37  56  79 109 148 182 220 270 321
#     4  10  20  34  55  82 109 137 173 219 268 318
#
# _framework density 19.041208999999998
#
# number of rings (size 3 to 8) (size 9 to 14) (size 15 to 20)
#    0.000    2.000    0.000    5.000    0.000    8.333 
#    0.000    0.000    0.000   12.500    0.000    0.000 
#    0.000    0.000    0.000    0.000    0.000    0.000 
#
# Total GULP energy -595358.763524 kJ/mol
# GULP energy per Si atom -12403.307573 kJ/mol
# Density = 1.899787 g / cm^3
# Si number density = 19.041209 Si / 1000 Ang^3
#
#
#
# Elastic Constant Matrix: (Units=GPa)
#
#
# Indices 1 2 3 4 5 6 
#
# 1 53.9864 16.0180 17.7471 0.0000 0.0000 0.0000
# 2 16.0180 81.9487 30.1869 0.0000 0.0000 0.0000
# 3 17.7471 30.1869 97.9739 0.0000 0.0000 0.0000
# 4 0.0000 0.0000 0.0000 38.5283 0.0000 0.0000
# 5 0.0000 0.0000 0.0000 0.0000 18.0938 0.0000
# 6 0.0000 0.0000 0.0000 0.0000 0.0000 27.9274
#
#
#
# Elastic Compliance Matrix: (Units=1/GPa)
#
#
# Indices 1 2 3 4 5 6 
#
# 1 0.020309 -0.002949 -0.002770 0.000000 0.000000 0.000000
# 2 -0.002949 0.014193 -0.003839 0.000000 0.000000 0.000000
# 3 -0.002770 -0.003839 0.011891 0.000000 0.000000 0.000000
# 4 0.000000 0.000000 0.000000 0.025955 0.000000 0.000000
# 5 0.000000 0.000000 0.000000 0.000000 0.055268 0.000000
# 6 0.000000 0.000000 0.000000 0.000000 0.000000 0.035807
#
#
# Mechanical properties :
#
#
# Convention : Reuss Voigt Hill
#
# Bulk Modulus (GPa) = 36.66075 40.20144 38.43110
# Shear Modulus (GPa) = 26.09168 28.24037 27.16602
#
# Velocity S-wave (km/s) = 3.70574 3.85531 3.78126
# Velocity P-wave (km/s) = 6.13230 6.40129 6.26824
#
# Compressibility (1/GPa) = 0.02727713
#
# Stress axis : x y z
#
# Youngs Moduli (GPa) = 49.23963 70.45554 84.09451
#
# Poissons Ratio (x) = 0.20779 0.23295
# Poissons Ratio (y) = 0.14522 0.32283
# Poissons Ratio (z) = 0.13640 0.27047
#
# Static dielectric constant tensor:
#      x y z
#    x 3.408120 0.000000 0.000000 
#    y 0.000000 3.540890 0.000000 
#    z 0.000000 0.000000 3.537060 
# 
# 
# High freq. dielectric constant tensor:
#      x y z
#    x 1.736440 0.000000 0.000000 
#    y 0.000000 1.747600 0.000000 
#    z 0.000000 0.000000 1.738050 
# 
# From -- ./inp_files/28236.got.cif
#   From: 2010.03.12/outbox.cif.g09.slc.cpg/sg53_15_cif.got.tgz:28236.got - 2010.04.16 14:36:59.
