data_PCOD8220028
_publ_section_title
;
Structure prediction by ZEFSAII (Michael W. Deem and Ramdas Pophale) SiO2 
 PCOD8220028
Probable space group: P M N A
;
_chemical_formula_sum "Si O2"
_cell_formula_units_Z 48
_cell_length_a 8.938379
_cell_length_b 18.342590
_cell_length_c 15.483846
_cell_angle_alpha 90.000000
_cell_angle_beta 90.000000
_cell_angle_gamma 90.000000
_cell_volume 2538.623332
_symmetry_space_group_name_H-M "P M N A"
_symmetry_group_IT_number 53
_symmetry_cell_setting 'orthorhombic'
loop_
_space_group_symop_operation_xyz
x,y,z
1/2-x,-y,1/2+z
x,-y,-z
1/2-x,y,1/2-z
-x,-y,-z
1/2+x,y,1/2-z
-x,y,z
1/2+x,-y,1/2+z
loop_
_atom_site_type_symbol
_atom_site_label
_atom_site_fract_x
_atom_site_fract_y
_atom_site_fract_z
Si Si1 0.676417 0.901692 0.662102
Si Si2 0.676064 0.595989 0.662763
Si Si3 0.824156 0.430285 0.837134
Si Si4 0.323320 0.827401 0.000534
Si Si5 0.176866 0.324302 0.989924
Si Si6 0.164159 0.966373 0.405813
O O1 0.750000 0.872550 0.750000
O O2 0.500000 0.892892 0.666690
O O3 0.738595 0.851726 0.585790
O O4 0.717762 0.987391 0.649810
O O5 0.750000 0.627146 0.750000
O O6 0.500000 0.599526 0.674444
O O7 0.729000 0.513098 0.645382
O O8 0.728041 0.645295 0.582793
O O9 0.750000 0.399343 0.750000
O O10 0.000000 0.426477 0.824753
O O11 0.772583 0.382183 0.917991
O O12 0.500000 0.826972 0.981803
O O13 0.265314 0.749247 0.030112
O O14 0.285588 0.882381 0.080308
O O15 0.000000 0.309958 0.987115
O O16 0.000000 0.970996 0.360922
O O17 0.151297 0.000000 0.500000
#
# Coordination Sequence:
#
# PCOD8220028 Si02
#       6
#     8   8   8   8   8   8
#     4  11  21  34  55  80 105 134 171 213 257 308
#     4   9  18  33  53  77 105 138 177 222 269 319
#     4   9  18  34  55  77 102 135 178 226 273 321
#     4  10  21  36  53  75 106 139 171 211 259 311
#     4  10  20  34  53  77 107 144 181 217 266 327
#     4   8  16  33  53  72  97 129 164 203 247 295
#
# _framework density 18.907886000000001
#
# number of rings (size 3 to 8) (size 9 to 14) (size 15 to 20)
#    0.000    2.500    0.000    3.500    0.000    7.667 
#    0.000    2.500    0.000    7.000    0.000    0.000 
#    0.000    0.000    0.000    0.000    0.000    0.000 
#
# Total GULP energy -595145.787178 kJ/mol
# GULP energy per Si atom -12398.870566 kJ/mol
# Density = 1.886485 g / cm^3
# Si number density = 18.907886 Si / 1000 Ang^3
#
#
#
# Elastic Constant Matrix: (Units=GPa)
#
#
# Indices 1 2 3 4 5 6 
#
# 1 65.8165 18.9193 15.3445 0.0000 0.0000 0.0000
# 2 18.9193 84.5748 13.8103 0.0000 0.0000 0.0000
# 3 15.3445 13.8103 55.0726 0.0000 0.0000 0.0000
# 4 0.0000 0.0000 0.0000 16.4725 0.0000 0.0000
# 5 0.0000 0.0000 0.0000 0.0000 30.8443 0.0000
# 6 0.0000 0.0000 0.0000 0.0000 0.0000 27.5092
#
#
#
# Elastic Compliance Matrix: (Units=1/GPa)
#
#
# Indices 1 2 3 4 5 6 
#
# 1 0.017024 -0.003163 -0.003950 0.000000 0.000000 0.000000
# 2 -0.003163 0.012916 -0.002358 0.000000 0.000000 0.000000
# 3 -0.003950 -0.002358 0.019850 0.000000 0.000000 0.000000
# 4 0.000000 0.000000 0.000000 0.060707 0.000000 0.000000
# 5 0.000000 0.000000 0.000000 0.000000 0.032421 0.000000
# 6 0.000000 0.000000 0.000000 0.000000 0.000000 0.036352
#
#
# Mechanical properties :
#
#
# Convention : Reuss Voigt Hill
#
# Bulk Modulus (GPa) = 32.41681 33.51246 32.96463
# Shear Modulus (GPa) = 23.98145 25.45783 24.71964
#
# Velocity S-wave (km/s) = 3.56523 3.67333 3.61968
# Velocity P-wave (km/s) = 5.84205 5.97944 5.91115
#
# Compressibility (1/GPa) = 0.03084820
#
# Stress axis : x y z
#
# Youngs Moduli (GPa) = 58.74073 77.42070 50.37873
#
# Poissons Ratio (x) = 0.24490 0.19900
# Poissons Ratio (y) = 0.18581 0.11878
# Poissons Ratio (z) = 0.23203 0.18253
#
# Static dielectric constant tensor:
#      x y z
#    x 3.382260 0.000000 0.000000 
#    y 0.000000 3.667710 0.000000 
#    z 0.000000 0.000000 3.460210 
# 
# 
# High freq. dielectric constant tensor:
#      x y z
#    x 1.729530 0.000000 0.000000 
#    y 0.000000 1.731470 0.000000 
#    z 0.000000 0.000000 1.725170 
# 
# From -- ./inp_files/20147.got.cif
#   From: 2010.03.12/outbox.cif.g09.slc.cpg/sg53_11_cif.got.tgz:20147.got - 2010.04.16 14:36:59.
