data_PCOD8220738
_publ_section_title
;
Structure prediction by ZEFSAII (Michael W. Deem and Ramdas Pophale) SiO2 
 PCOD8220738
Probable space group: P M N A
;
_chemical_formula_sum "Si O2"
_cell_formula_units_Z 48
_cell_length_a 8.755700
_cell_length_b 9.850134
_cell_length_c 29.164637
_cell_angle_alpha 90.000000
_cell_angle_beta 90.000000
_cell_angle_gamma 90.000000
_cell_volume 2515.298818
_symmetry_space_group_name_H-M "P M N A"
_symmetry_group_IT_number 53
_symmetry_cell_setting 'orthorhombic'
loop_
_space_group_symop_operation_xyz
x,y,z
1/2-x,-y,1/2+z
x,-y,-z
1/2-x,y,1/2-z
-x,-y,-z
1/2+x,y,1/2-z
-x,y,z
1/2+x,-y,1/2+z
loop_
_atom_site_type_symbol
_atom_site_label
_atom_site_fract_x
_atom_site_fract_y
_atom_site_fract_z
Si Si1 0.179471 0.274704 0.297942
Si Si2 0.319139 0.784459 0.377962
Si Si3 0.318418 0.010426 0.700706
Si Si4 0.820144 0.136593 0.977799
Si Si5 0.671725 0.371078 0.032032
Si Si6 0.321474 0.493459 0.126148
O O1 0.250000 0.320544 0.250000
O O2 0.217721 0.396685 0.331772
O O3 0.000000 0.248013 0.293079
O O4 0.257902 0.136331 0.315227
O O5 0.500000 0.783279 0.380250
O O6 0.261710 0.882853 0.337432
O O7 0.251484 0.836009 0.426902
O O8 0.263906 0.634167 0.366472
O O9 0.250000 0.052201 0.750000
O O10 0.500000 0.006539 0.704671
O O11 0.000000 0.122207 0.973570
O O12 0.782293 0.258453 0.011804
O O13 0.749643 0.000000 0.000000
O O14 0.500000 0.312064 0.036564
O O15 0.738155 0.416356 0.081004
O O16 0.672522 0.500000 0.000000
O O17 0.500000 0.524911 0.121318
#
# Coordination Sequence:
#
# PCOD8220738 Si02
#       6
#     8   8   8   8   8   8
#     4  10  21  38  59  84 112 143 183 227 276 331
#     4  10  22  38  56  82 113 146 186 228 274 329
#     4  10  21  38  59  83 112 145 184 228 277 330
#     4  10  22  38  56  82 114 147 186 229 274 326
#     4  10  20  37  58  81 112 147 185 226 272 324
#     4  10  22  38  57  83 113 146 184 229 276 328
#
# _framework density 19.083220000000001
#
# number of rings (size 3 to 8) (size 9 to 14) (size 15 to 20)
#    0.000    2.000    1.667    2.000    2.333    4.667 
#    0.000    3.333    0.000    0.000    0.000    0.000 
#    0.000    0.000    0.000    0.000    0.000    0.000 
#
# Total GULP energy -595277.903517 kJ/mol
# GULP energy per Si atom -12401.622990 kJ/mol
# Density = 1.903979 g / cm^3
# Si number density = 19.083220 Si / 1000 Ang^3
#
#
#
# Elastic Constant Matrix: (Units=GPa)
#
#
# Indices 1 2 3 4 5 6 
#
# 1 40.8321 30.5922 34.5001 0.0000 0.0000 0.0000
# 2 30.5922 136.7546 92.2016 0.0000 0.0000 0.0000
# 3 34.5001 92.2016 142.9117 0.0000 0.0000 0.0000
# 4 0.0000 0.0000 0.0000 42.0766 0.0000 0.0000
# 5 0.0000 0.0000 0.0000 0.0000 18.0783 0.0000
# 6 0.0000 0.0000 0.0000 0.0000 0.0000 34.8437
#
#
#
# Elastic Compliance Matrix: (Units=1/GPa)
#
#
# Indices 1 2 3 4 5 6 
#
# 1 0.031641 -0.003413 -0.005437 0.000000 0.000000 0.000000
# 2 -0.003413 0.013310 -0.007763 0.000000 0.000000 0.000000
# 3 -0.005437 -0.007763 0.013318 0.000000 0.000000 0.000000
# 4 0.000000 0.000000 0.000000 0.023766 0.000000 0.000000
# 5 0.000000 0.000000 0.000000 0.000000 0.055315 0.000000
# 6 0.000000 0.000000 0.000000 0.000000 0.000000 0.028700
#
#
# Mechanical properties :
#
#
# Convention : Reuss Voigt Hill
#
# Bulk Modulus (GPa) = 39.92963 70.56516 55.24740
# Shear Modulus (GPa) = 24.08212 29.88002 26.98107
#
# Velocity S-wave (km/s) = 3.55625 3.96128 3.76422
# Velocity P-wave (km/s) = 6.15077 7.61447 6.92142
#
# Compressibility (1/GPa) = 0.02504406
#
# Stress axis : x y z
#
# Youngs Moduli (GPa) = 31.60463 75.13255 75.08456
#
# Poissons Ratio (x) = 0.25640 0.40821
# Poissons Ratio (y) = 0.10786 0.58289
# Poissons Ratio (z) = 0.17182 0.58327
#
# Static dielectric constant tensor:
#      x y z
#    x 3.402020 0.000000 0.000000 
#    y 0.000000 3.435430 0.000000 
#    z 0.000000 0.000000 3.766330 
# 
# 
# High freq. dielectric constant tensor:
#      x y z
#    x 1.733420 0.000000 0.000000 
#    y 0.000000 1.747010 0.000000 
#    z 0.000000 0.000000 1.755910 
# 
# From -- ./inp_files/37741.got.cif
#   From: 2010.03.12/outbox.cif.g09.slc.cpg/sg53_19_cif.got.tgz:37741.got - 2010.04.16 14:36:59.
