data_PCOD8220747
_publ_section_title
;
Structure prediction by ZEFSAII (Michael W. Deem and Ramdas Pophale) SiO2 
 PCOD8220747
Probable space group: P M N A
;
_chemical_formula_sum "Si O2"
_cell_formula_units_Z 64
_cell_length_a 9.157957
_cell_length_b 25.272663
_cell_length_c 14.101543
_cell_angle_alpha 90.000000
_cell_angle_beta 90.000000
_cell_angle_gamma 90.000000
_cell_volume 3263.745172
_symmetry_space_group_name_H-M "P M N A"
_symmetry_group_IT_number 53
_symmetry_cell_setting 'orthorhombic'
loop_
_space_group_symop_operation_xyz
x,y,z
1/2-x,-y,1/2+z
x,-y,-z
1/2-x,y,1/2-z
-x,-y,-z
1/2+x,y,1/2-z
-x,y,z
1/2+x,-y,1/2+z
loop_
_atom_site_type_symbol
_atom_site_label
_atom_site_fract_x
_atom_site_fract_y
_atom_site_fract_z
Si Si1 0.170882 0.646137 0.336451
Si Si2 0.669605 0.028549 0.150863
Si Si3 0.828724 0.546673 0.119875
Si Si4 0.173008 0.825994 0.148075
Si Si5 0.670013 0.568151 0.593179
Si Si6 0.832563 0.679434 0.839486
Si Si7 0.166392 0.279596 0.961971
Si Si8 0.670929 0.920504 0.045614
O O1 0.250000 0.677760 0.250000
O O2 0.221326 0.585317 0.323579
O O3 0.229798 0.672089 0.432152
O O4 0.000000 0.652033 0.328188
O O5 0.750000 0.041491 0.250000
O O6 0.500000 0.034417 0.173062
O O7 0.705913 0.970007 0.113590
O O8 0.713461 0.068153 0.064538
O O9 0.796696 0.485904 0.151908
O O10 0.000000 0.560776 0.135210
O O11 0.777635 0.556423 0.012455
O O12 0.250000 0.824546 0.250000
O O13 0.215890 0.774375 0.087483
O O14 0.229216 0.873884 0.084317
O O15 0.000000 0.831226 0.163416
O O16 0.500000 0.579519 0.588818
O O17 0.740520 0.621575 0.636579
O O18 0.750000 0.704214 0.750000
O O19 0.000000 0.672246 0.811384
O O20 0.815412 0.721934 0.924462
O O21 0.000000 0.293698 0.934677
O O22 0.500000 0.905938 0.052554
#
# Coordination Sequence:
#
# PCOD8220747 Si02
#       8
#     8   8   8   8   8   8   8   8
#     4  12  24  36  54  80 108 140 177 219 270 330
#     4   9  18  33  55  84 120 163 205 242 287 334
#     4   9  16  32  55  78 105 139 175 211 265 329
#     4  11  23  38  60  88 114 147 188 234 286 340
#     4   8  15  30  56  79 102 139 174 210 265 326
#     4  10  20  37  59  82 106 137 178 225 273 327
#     4  10  22  42  62  79 107 143 183 231 278 329
#     4   9  19  36  56  83 121 160 198 243 287 336
#
# _framework density 19.609373999999999
#
# number of rings (size 3 to 8) (size 9 to 14) (size 15 to 20)
#    0.000    2.250    1.250    3.750    0.000    5.000 
#    0.000    5.000    0.000    3.000    0.000    0.000 
#    0.000    0.000    0.000    0.000    0.000    0.000 
#
# Total GULP energy -793068.621734 kJ/mol
# GULP energy per Si atom -12391.697215 kJ/mol
# Density = 1.956474 g / cm^3
# Si number density = 19.609374 Si / 1000 Ang^3
#
#
#
# Elastic Constant Matrix: (Units=GPa)
#
#
# Indices 1 2 3 4 5 6 
#
# 1 89.4094 44.0675 57.3467 0.0000 0.0000 0.0000
# 2 44.0675 101.6080 51.0982 0.0000 0.0000 0.0000
# 3 57.3467 51.0982 136.5336 0.0000 0.0000 0.0000
# 4 0.0000 0.0000 0.0000 22.7228 0.0000 0.0000
# 5 0.0000 0.0000 0.0000 0.0000 34.6929 0.0000
# 6 0.0000 0.0000 0.0000 0.0000 0.0000 5.6856
#
#
#
# Elastic Compliance Matrix: (Units=1/GPa)
#
#
# Indices 1 2 3 4 5 6 
#
# 1 0.016913 -0.004635 -0.005369 0.000000 0.000000 0.000000
# 2 -0.004635 0.013394 -0.003066 0.000000 0.000000 0.000000
# 3 -0.005369 -0.003066 0.010727 0.000000 0.000000 0.000000
# 4 0.000000 0.000000 0.000000 0.044009 0.000000 0.000000
# 5 0.000000 0.000000 0.000000 0.000000 0.028824 0.000000
# 6 0.000000 0.000000 0.000000 0.000000 0.000000 0.175882
#
#
# Mechanical properties :
#
#
# Convention : Reuss Voigt Hill
#
# Bulk Modulus (GPa) = 67.14385 70.28620 68.71502
# Shear Modulus (GPa) = 15.58353 24.28952 19.93652
#
# Velocity S-wave (km/s) = 2.82210 3.52329 3.19201
# Velocity P-wave (km/s) = 6.70328 7.24378 6.97877
#
# Compressibility (1/GPa) = 0.01489340
#
# Stress axis : x y z
#
# Youngs Moduli (GPa) = 59.12763 74.66158 93.22556
#
# Poissons Ratio (x) = 0.34606 0.50052
# Poissons Ratio (y) = 0.27406 0.28582
# Poissons Ratio (z) = 0.31745 0.22890
#
# Static dielectric constant tensor:
#      x y z
#    x 3.284650 0.000000 0.000000 
#    y 0.000000 3.533190 0.000000 
#    z 0.000000 0.000000 3.866660 
# 
# 
# High freq. dielectric constant tensor:
#      x y z
#    x 1.742840 0.000000 0.000000 
#    y 0.000000 1.748380 0.000000 
#    z 0.000000 0.000000 1.774880 
# 
# From -- ./inp_files/20943.got.cif
#   From: 2010.03.12/outbox.cif.g09.slc.cpg/sg53_11_cif.got.tgz:20943.got - 2010.04.16 14:36:59.
