data_PCOD8220438
_publ_section_title
;
Structure prediction by ZEFSAII (Michael W. Deem and Ramdas Pophale) SiO2 
 PCOD8220438
Probable space group: P M N A
;
_chemical_formula_sum "Si O2"
_cell_formula_units_Z 60
_cell_length_a 22.186222
_cell_length_b 9.213198
_cell_length_c 14.145861
_cell_angle_alpha 90.000000
_cell_angle_beta 90.000000
_cell_angle_gamma 90.000000
_cell_volume 2891.499658
_symmetry_space_group_name_H-M "P M N A"
_symmetry_group_IT_number 53
_symmetry_cell_setting 'orthorhombic'
loop_
_space_group_symop_operation_xyz
x,y,z
1/2-x,-y,1/2+z
x,-y,-z
1/2-x,y,1/2-z
-x,-y,-z
1/2+x,y,1/2-z
-x,y,z
1/2+x,-y,1/2+z
loop_
_atom_site_type_symbol
_atom_site_label
_atom_site_fract_x
_atom_site_fract_y
_atom_site_fract_z
Si Si1 0.365412 0.738154 0.832157
Si Si2 0.569312 0.250585 0.647709
Si Si3 0.571474 0.964572 0.187256
Si Si4 0.569396 0.572663 0.694935
Si Si5 0.750000 0.421517 0.250000
Si Si6 0.242607 0.611185 0.431205
Si Si7 0.654120 0.154453 0.965992
Si Si8 0.867608 0.340799 0.021435
O O1 0.416998 0.622693 0.802309
O O2 0.303647 0.684983 0.782149
O O3 0.387739 0.894841 0.796545
O O4 0.361450 0.743971 0.944994
O O5 0.500000 0.247586 0.623720
O O6 0.587089 0.128538 0.721294
O O7 0.589097 0.405447 0.690404
O O8 0.602934 0.222138 0.548395
O O9 0.500000 0.996756 0.176276
O O10 0.593880 0.877220 0.094346
O O11 0.500000 0.596530 0.667956
O O12 0.611712 0.680392 0.630156
O O13 0.766973 0.530458 0.163130
O O14 0.205752 0.500000 0.500000
O O15 0.202650 0.752616 0.404968
O O16 0.296587 0.662094 0.501352
O O17 0.682455 0.000000 0.000000
O O18 0.896069 0.500000 0.000000
#
# Coordination Sequence:
#
# PCOD8220438 Si02
#       8
#     8   8   8   8   4   8   8   8
#     4  11  23  41  63  88 127 166 217 270 328 390
#     4   9  18  35  58  89 124 159 210 265 315 384
#     4  10  23  43  65  90 127 173 221 276 335 390
#     4  10  20  35  62  94 124 161 212 265 324 390
#     4  12  24  40  68  96 128 174 216 276 326 392
#     4  11  22  40  65  92 131 170 214 264 329 384
#     4  10  24  43  63  92 124 170 215 269 320 397
#     4   9  18  34  57  87 123 167 204 253 316 378
#
# _framework density 20.750478999999999
#
# number of rings (size 3 to 8) (size 9 to 14) (size 15 to 20)
#    0.000    1.867    1.333    3.200    3.733    4.533 
#    4.800    0.667    0.000    5.200    0.000    0.000 
#    0.000    0.000    0.000    0.000    0.000    0.000 
#
# Total GULP energy -743367.405331 kJ/mol
# GULP energy per Si atom -12389.456756 kJ/mol
# Density = 2.070325 g / cm^3
# Si number density = 20.750479 Si / 1000 Ang^3
#
#
#
# Elastic Constant Matrix: (Units=GPa)
#
#
# Indices 1 2 3 4 5 6 
#
# 1 95.9099 49.6912 31.7603 0.0000 0.0000 0.0000
# 2 49.6912 73.5478 25.4922 0.0000 0.0000 0.0000
# 3 31.7603 25.4922 52.3557 0.0000 0.0000 0.0000
# 4 0.0000 0.0000 0.0000 33.9046 0.0000 0.0000
# 5 0.0000 0.0000 0.0000 0.0000 32.6262 0.0000
# 6 0.0000 0.0000 0.0000 0.0000 0.0000 37.5484
#
#
#
# Elastic Compliance Matrix: (Units=1/GPa)
#
#
# Indices 1 2 3 4 5 6 
#
# 1 0.017397 -0.009740 -0.005811 0.000000 0.000000 0.000000
# 2 -0.009740 0.021810 -0.004711 0.000000 0.000000 0.000000
# 3 -0.005811 -0.004711 0.024919 0.000000 0.000000 0.000000
# 4 0.000000 0.000000 0.000000 0.029495 0.000000 0.000000
# 5 0.000000 0.000000 0.000000 0.000000 0.030650 0.000000
# 6 0.000000 0.000000 0.000000 0.000000 0.000000 0.026632
#
#
# Mechanical properties :
#
#
# Convention : Reuss Voigt Hill
#
# Bulk Modulus (GPa) = 42.36875 48.41119 45.38997
# Shear Modulus (GPa) = 25.08852 28.47381 26.78117
#
# Velocity S-wave (km/s) = 3.48092 3.70834 3.59643
# Velocity P-wave (km/s) = 6.05131 6.45883 6.25839
#
# Compressibility (1/GPa) = 0.02360230
#
# Stress axis : x y z
#
# Youngs Moduli (GPa) = 57.48117 45.85056 40.12992
#
# Poissons Ratio (x) = 0.44657 0.23320
# Poissons Ratio (y) = 0.55985 0.18905
# Poissons Ratio (z) = 0.33403 0.21600
#
# Static dielectric constant tensor:
#      x y z
#    x 3.644130 0.000000 0.000000 
#    y 0.000000 3.837160 0.000000 
#    z 0.000000 0.000000 3.977630 
# 
# 
# High freq. dielectric constant tensor:
#      x y z
#    x 1.805150 0.000000 0.000000 
#    y 0.000000 1.794800 0.000000 
#    z 0.000000 0.000000 1.819220 
# 
# From -- ./inp_files/24699.got.cif
#   From: 2010.03.12/outbox.cif.g09.slc.cpg/sg53_13_cif.got.tgz:24699.got - 2010.04.16 14:36:59.
