data_PCOD8220333
_publ_section_title
;
Structure prediction by ZEFSAII (Michael W. Deem and Ramdas Pophale) SiO2 
 PCOD8220333
Probable space group: P M N A
;
_chemical_formula_sum "Si O2"
_cell_formula_units_Z 40
_cell_length_a 8.496278
_cell_length_b 12.723038
_cell_length_c 19.564961
_cell_angle_alpha 90.000000
_cell_angle_beta 90.000000
_cell_angle_gamma 90.000000
_cell_volume 2114.942308
_symmetry_space_group_name_H-M "P M N A"
_symmetry_group_IT_number 53
_symmetry_cell_setting 'orthorhombic'
loop_
_space_group_symop_operation_xyz
x,y,z
1/2-x,-y,1/2+z
x,-y,-z
1/2-x,y,1/2-z
-x,-y,-z
1/2+x,y,1/2-z
-x,y,z
1/2+x,-y,1/2+z
loop_
_atom_site_type_symbol
_atom_site_label
_atom_site_fract_x
_atom_site_fract_y
_atom_site_fract_z
Si Si1 0.317115 0.614454 0.070790
Si Si2 0.318146 0.990623 0.175537
Si Si3 0.684408 0.219883 0.673393
Si Si4 0.817013 0.222608 0.326004
Si Si5 0.317627 0.391203 0.426553
O O1 0.500000 0.626441 0.054655
O O2 0.269744 0.688803 0.132587
O O3 0.280997 0.494899 0.092282
O O4 0.222261 0.647327 0.002972
O O5 0.250000 0.005481 0.250000
O O6 0.500000 0.958154 0.179153
O O7 0.225266 0.894263 0.139209
O O8 0.295369 0.105300 0.141183
O O9 0.750000 0.221034 0.750000
O O10 0.500000 0.240259 0.672520
O O11 0.750000 0.231251 0.250000
O O12 0.721197 0.300236 0.373719
O O13 0.000000 0.253464 0.324561
O O14 0.500000 0.420021 0.421978
#
# Coordination Sequence:
#
# PCOD8220333 Si02
#       5
#     8   8   8   8   8
#     4  11  22  39  59  79 107 143 181 221 270 323
#     4   9  17  31  52  78 109 143 178 217 265 318
#     4  11  21  35  56  83 112 142 180 223 268 318
#     4  10  20  35  56  83 112 144 182 223 267 316
#     4  11  22  38  58  81 109 142 180 221 270 324
#
# _framework density 18.913045
#
# number of rings (size 3 to 8) (size 9 to 14) (size 15 to 20)
#    0.000    1.600    0.000    9.000    0.000    3.200 
#    0.000    5.000    0.000    6.000    0.000    0.000 
#    0.000    0.000    0.000    0.000    0.000    0.000 
#
# Total GULP energy -495922.323651 kJ/mol
# GULP energy per Si atom -12398.058091 kJ/mol
# Density = 1.887000 g / cm^3
# Si number density = 18.913045 Si / 1000 Ang^3
#
#
#
# Elastic Constant Matrix: (Units=GPa)
#
#
# Indices 1 2 3 4 5 6 
#
# 1 102.4203 24.9850 14.7691 0.0000 0.0000 0.0000
# 2 24.9850 105.4018 53.5269 0.0000 0.0000 0.0000
# 3 14.7691 53.5269 62.1988 0.0000 0.0000 0.0000
# 4 0.0000 0.0000 0.0000 -1.4106 0.0000 0.0000
# 5 0.0000 0.0000 0.0000 0.0000 28.9887 0.0000
# 6 0.0000 0.0000 0.0000 0.0000 0.0000 38.0355
#
#
#
# Elastic Compliance Matrix: (Units=1/GPa)
#
#
# Indices 1 2 3 4 5 6 
#
# 1 0.010376 -0.002147 -0.000617 0.000000 0.000000 0.000000
# 2 -0.002147 0.017297 -0.014376 0.000000 0.000000 0.000000
# 3 -0.000617 -0.014376 0.028595 0.000000 0.000000 0.000000
# 4 0.000000 0.000000 0.000000 -0.708942 0.000000 0.000000
# 5 0.000000 0.000000 0.000000 0.000000 0.034496 0.000000
# 6 0.000000 0.000000 0.000000 0.000000 0.000000 0.026291
#
#
# Mechanical properties :
#
#
# Convention : Reuss Voigt Hill
#
# Bulk Modulus (GPa) = 45.47337 50.73143 48.10240
# Shear Modulus (GPa) = -9.08629 24.90539 7.90955
#
# Velocity S-wave (km/s) = -2.19424 3.63276 2.04723
# Velocity P-wave (km/s) = 4.20429 6.66916 5.57466
#
# Compressibility (1/GPa) = 0.02199089
#
# Stress axis : x y z
#
# Youngs Moduli (GPa) = 96.37407 57.81436 34.97095
#
# Poissons Ratio (x) = 0.12410 0.02156
# Poissons Ratio (y) = 0.20687 0.50273
# Poissons Ratio (z) = 0.05942 0.83111
#
# Static dielectric constant tensor:
#      x y z
#    x 3.736510 0.000000 0.000000 
#    y 0.000000 3.950870 0.000000 
#    z 0.000000 0.000000 3.107320 
# 
# 
# High freq. dielectric constant tensor:
#      x y z
#    x 1.757680 0.000000 0.000000 
#    y 0.000000 1.751560 0.000000 
#    z 0.000000 0.000000 1.701570 
# 
# From -- ./inp_files/30340.got.cif
#   From: 2010.03.12/outbox.cif.g09.slc.cpg/sg53_16_cif.got.tgz:30340.got - 2010.04.16 14:36:59.
