data_PCOD8220907
_publ_section_title
;
Structure prediction by ZEFSAII (Michael W. Deem and Ramdas Pophale) SiO2 
 PCOD8220907
Probable space group: P M N A
;
_chemical_formula_sum "Si O2"
_cell_formula_units_Z 48
_cell_length_a 18.585083
_cell_length_b 15.196086
_cell_length_c 8.545189
_cell_angle_alpha 90.000000
_cell_angle_beta 90.000000
_cell_angle_gamma 90.000000
_cell_volume 2413.336717
_symmetry_space_group_name_H-M "P M N A"
_symmetry_group_IT_number 53
_symmetry_cell_setting 'orthorhombic'
loop_
_space_group_symop_operation_xyz
x,y,z
1/2-x,-y,1/2+z
x,-y,-z
1/2-x,y,1/2-z
-x,-y,-z
1/2+x,y,1/2-z
-x,y,z
1/2+x,-y,1/2+z
loop_
_atom_site_type_symbol
_atom_site_label
_atom_site_fract_x
_atom_site_fract_y
_atom_site_fract_z
Si Si1 0.817336 0.072785 0.632325
Si Si2 0.659128 0.238649 0.420537
Si Si3 0.419550 0.914199 0.398312
Si Si4 0.581277 0.588894 0.568492
Si Si5 0.581791 0.592668 0.937742
Si Si6 0.826878 0.242868 0.434104
O O1 0.750000 0.080168 0.750000
O O2 0.888023 0.051899 0.733397
O O3 0.839236 0.163071 0.550349
O O4 0.800952 0.000000 0.500000
O O5 0.634857 0.155464 0.522700
O O6 0.620800 0.324160 0.492559
O O7 0.742589 0.260573 0.431447
O O8 0.641009 0.219997 0.238012
O O9 0.500000 0.873928 0.377805
O O10 0.424659 0.000000 0.500000
O O11 0.617586 0.500000 0.500000
O O12 0.500000 0.594522 0.506120
O O13 0.585966 0.587006 0.753134
O O14 0.500000 0.609052 0.995786
O O15 0.631977 0.671439 0.001258
O O16 0.611709 0.500000 0.000000
#
# Coordination Sequence:
#
# PCOD8220907 Si02
#       6
#     8   8   8   8   8   8
#     4  12  25  41  65  91 123 165 207 260 315 382
#     4  10  20  38  60  87 121 160 200 255 310 366
#     4  11  24  42  63  90 123 160 204 256 312 373
#     4   9  18  33  54  81 113 157 204 244 296 362
#     4   9  19  37  58  84 122 165 205 252 310 365
#     4  10  22  37  62  90 121 159 210 253 308 375
#
# _framework density 19.889474
#
# number of rings (size 3 to 8) (size 9 to 14) (size 15 to 20)
#    0.000    1.833    1.667    2.000    2.333    3.667 
#    0.000    1.667    0.000    0.000    0.000    0.000 
#    0.000    0.000    0.000    0.000    0.000    0.000 
#
# Total GULP energy -595089.466237 kJ/mol
# GULP energy per Si atom -12397.697213 kJ/mol
# Density = 1.984421 g / cm^3
# Si number density = 19.889474 Si / 1000 Ang^3
#
#
#
# Elastic Constant Matrix: (Units=GPa)
#
#
# Indices 1 2 3 4 5 6 
#
# 1 91.8744 53.1922 36.1573 0.0000 0.0000 0.0000
# 2 53.1922 136.4114 44.7351 0.0000 0.0000 0.0000
# 3 36.1573 44.7351 70.3172 0.0000 0.0000 0.0000
# 4 0.0000 0.0000 0.0000 38.6579 0.0000 0.0000
# 5 0.0000 0.0000 0.0000 0.0000 44.9755 0.0000
# 6 0.0000 0.0000 0.0000 0.0000 0.0000 35.8224
#
#
#
# Elastic Compliance Matrix: (Units=1/GPa)
#
#
# Indices 1 2 3 4 5 6 
#
# 1 0.015423 -0.004313 -0.005186 0.000000 0.000000 0.000000
# 2 -0.004313 0.010470 -0.004443 0.000000 0.000000 0.000000
# 3 -0.005186 -0.004443 0.019715 0.000000 0.000000 0.000000
# 4 0.000000 0.000000 0.000000 0.025868 0.000000 0.000000
# 5 0.000000 0.000000 0.000000 0.000000 0.022234 0.000000
# 6 0.000000 0.000000 0.000000 0.000000 0.000000 0.027915
#
#
# Mechanical properties :
#
#
# Convention : Reuss Voigt Hill
#
# Bulk Modulus (GPa) = 56.42646 62.97469 59.70057
# Shear Modulus (GPa) = 32.17154 34.85906 33.51530
#
# Velocity S-wave (km/s) = 4.02620 4.19099 4.10942
# Velocity P-wave (km/s) = 7.07427 7.42632 7.25243
#
# Compressibility (1/GPa) = 0.01772218
#
# Stress axis : x y z
#
# Youngs Moduli (GPa) = 64.83959 95.51468 50.72361
#
# Poissons Ratio (x) = 0.41196 0.26308
# Poissons Ratio (y) = 0.27966 0.22536
# Poissons Ratio (z) = 0.33629 0.42436
#
# Static dielectric constant tensor:
#      x y z
#    x 3.810050 0.000000 0.000000 
#    y 0.000000 3.808920 0.000000 
#    z 0.000000 0.000000 3.680080 
# 
# 
# High freq. dielectric constant tensor:
#      x y z
#    x 1.773450 0.000000 0.000000 
#    y 0.000000 1.784190 0.000000 
#    z 0.000000 0.000000 1.771970 
# 
# From -- ./inp_files/10007.got.cif
#   From: 2010.03.12/outbox.cif.g09.slc.cpg/sg53_6_cif.got.tgz:10007.got - 2010.04.16 14:36:59.
