data_PCOD8220225
_publ_section_title
;
Structure prediction by ZEFSAII (Michael W. Deem and Ramdas Pophale) SiO2 
 PCOD8220225
Probable space group: P M N A
;
_chemical_formula_sum "Si O2"
_cell_formula_units_Z 56
_cell_length_a 9.230498
_cell_length_b 22.029564
_cell_length_c 14.509797
_cell_angle_alpha 90.000000
_cell_angle_beta 90.000000
_cell_angle_gamma 90.000000
_cell_volume 2950.477933
_symmetry_space_group_name_H-M "P M N A"
_symmetry_group_IT_number 53
_symmetry_cell_setting 'orthorhombic'
loop_
_space_group_symop_operation_xyz
x,y,z
1/2-x,-y,1/2+z
x,-y,-z
1/2-x,y,1/2-z
-x,-y,-z
1/2+x,y,1/2-z
-x,y,z
1/2+x,-y,1/2+z
loop_
_atom_site_type_symbol
_atom_site_label
_atom_site_fract_x
_atom_site_fract_y
_atom_site_fract_z
Si Si1 0.173346 0.755884 0.151482
Si Si2 0.165976 0.033380 0.662816
Si Si3 0.171336 0.640850 0.036009
Si Si4 0.167162 0.856073 0.462146
Si Si5 0.830205 0.606310 0.840886
Si Si6 0.169373 0.532892 0.159840
Si Si7 0.169325 0.103812 0.339780
O O1 0.250000 0.757312 0.250000
O O2 0.229757 0.696382 0.097009
O O3 0.223288 0.812799 0.091278
O O4 0.000000 0.757353 0.164143
O O5 0.250000 0.061484 0.750000
O O6 0.190222 0.075419 0.574027
O O7 0.000000 0.031979 0.692250
O O8 0.221023 0.965329 0.641022
O O9 0.222372 0.576281 0.077247
O O10 0.000000 0.643100 0.035060
O O11 0.224817 0.644618 0.929639
O O12 0.207544 0.856024 0.570469
O O13 0.000000 0.835772 0.446636
O O14 0.750000 0.630729 0.750000
O O15 0.789619 0.536405 0.862145
O O16 0.000000 0.613926 0.823685
O O17 0.250000 0.556512 0.250000
O O18 0.000000 0.540243 0.177720
O O19 0.250000 0.130803 0.250000
O O20 0.000000 0.106378 0.319586
#
# Coordination Sequence:
#
# PCOD8220225 Si02
#       7
#     8   8   8   8   8   8   8
#     4  11  23  38  55  75 101 132 168 208 248 294
#     4   9  17  30  50  76 104 133 164 202 251 302
#     4   9  18  33  52  72  97 133 170 202 242 294
#     4  10  20  35  54  75 102 136 172 208 249 297
#     4   9  17  31  51  75 101 128 162 203 247 295
#     4   9  16  28  49  75 101 129 161 200 247 297
#     4   9  18  33  53  77 104 133 166 207 253 300
#
# _framework density 18.979976000000001
#
# number of rings (size 3 to 8) (size 9 to 14) (size 15 to 20)
#    0.000    2.571    0.000    2.143    0.000    5.714 
#    0.000    3.571    0.000   11.143    0.000    0.000 
#    0.000    0.000    0.000    0.000    0.000    0.000 
#
# Total GULP energy -694240.497367 kJ/mol
# GULP energy per Si atom -12397.151739 kJ/mol
# Density = 1.893678 g / cm^3
# Si number density = 18.979976 Si / 1000 Ang^3
#
#
#
# Elastic Constant Matrix: (Units=GPa)
#
#
# Indices 1 2 3 4 5 6 
#
# 1 47.9524 27.2370 51.5579 0.0000 0.0000 0.0000
# 2 27.2370 59.4111 52.0113 0.0000 0.0000 0.0000
# 3 51.5579 52.0113 170.8278 0.0000 0.0000 0.0000
# 4 0.0000 0.0000 0.0000 29.0600 0.0000 0.0000
# 5 0.0000 0.0000 0.0000 0.0000 32.2573 0.0000
# 6 0.0000 0.0000 0.0000 0.0000 0.0000 -14.2206
#
#
#
# Elastic Compliance Matrix: (Units=1/GPa)
#
#
# Indices 1 2 3 4 5 6 
#
# 1 0.034088 -0.009027 -0.007540 0.000000 0.000000 0.000000
# 2 -0.009027 0.025339 -0.004990 0.000000 0.000000 0.000000
# 3 -0.007540 -0.004990 0.009649 0.000000 0.000000 0.000000
# 4 0.000000 0.000000 0.000000 0.034412 0.000000 0.000000
# 5 0.000000 0.000000 0.000000 0.000000 0.031001 0.000000
# 6 0.000000 0.000000 0.000000 0.000000 0.000000 -0.070321
#
#
# Mechanical properties :
#
#
# Convention : Reuss Voigt Hill
#
# Bulk Modulus (GPa) = 38.51838 59.97820 49.24829
# Shear Modulus (GPa) = 43.12716 19.24502 31.18609
#
# Velocity S-wave (km/s) = 4.77198 3.18773 4.05792
# Velocity P-wave (km/s) = 7.12044 6.72445 6.92528
#
# Compressibility (1/GPa) = 0.02596163
#
# Stress axis : x y z
#
# Youngs Moduli (GPa) = 29.33579 39.46451 103.63910
#
# Poissons Ratio (x) = 0.35625 0.78141
# Poissons Ratio (y) = 0.26481 0.51721
# Poissons Ratio (z) = 0.22118 0.19695
#
# Static dielectric constant tensor:
#      x y z
#    x 3.315390 0.000000 0.000000 
#    y 0.000000 3.431930 0.000000 
#    z 0.000000 0.000000 3.841790 
# 
# 
# High freq. dielectric constant tensor:
#      x y z
#    x 1.715450 0.000000 0.000000 
#    y 0.000000 1.718960 0.000000 
#    z 0.000000 0.000000 1.750750 
# 
# From -- ./inp_files/14983.got.cif
#   From: 2010.03.12/outbox.cif.g09.slc.cpg/sg53_8_cif.got.tgz:14983.got - 2010.04.16 14:36:59.
