data_PCOD8220774
_publ_section_title
;
Structure prediction by ZEFSAII (Michael W. Deem and Ramdas Pophale) SiO2 
 PCOD8220774
Probable space group: P M N A
;
_chemical_formula_sum "Si O2"
_cell_formula_units_Z 40
_cell_length_a 14.468467
_cell_length_b 5.227527
_cell_length_c 26.916565
_cell_angle_alpha 90.000000
_cell_angle_beta 90.000000
_cell_angle_gamma 90.000000
_cell_volume 2035.815603
_symmetry_space_group_name_H-M "P M N A"
_symmetry_group_IT_number 53
_symmetry_cell_setting 'orthorhombic'
loop_
_space_group_symop_operation_xyz
x,y,z
1/2-x,-y,1/2+z
x,-y,-z
1/2-x,y,1/2-z
-x,-y,-z
1/2+x,y,1/2-z
-x,y,z
1/2+x,-y,1/2+z
loop_
_atom_site_type_symbol
_atom_site_label
_atom_site_fract_x
_atom_site_fract_y
_atom_site_fract_z
Si Si1 0.893757 0.810399 0.362629
Si Si2 0.391622 0.991039 0.244399
Si Si3 0.271673 0.475738 0.605901
Si Si4 0.889641 0.508942 0.799378
Si Si5 0.722163 0.984115 0.942586
O O1 0.867054 0.972128 0.313689
O O2 0.827571 0.559539 0.365751
O O3 0.872796 0.990156 0.410462
O O4 0.000000 0.718780 0.361659
O O5 0.500000 0.991771 0.252156
O O6 0.350349 0.746671 0.273410
O O7 0.350257 0.249901 0.267978
O O8 0.353579 0.521360 0.644567
O O9 0.290517 0.217816 0.573450
O O10 0.270495 0.715290 0.568798
O O11 0.000000 0.512529 0.800783
O O12 0.695819 0.000000 0.000000
#
# Coordination Sequence:
#
# PCOD8220774 Si02
#       5
#     8   8   8   8   8
#     4   9  22  38  57  86 118 150 190 232 281 336
#     4   9  19  34  55  83 119 151 180 228 277 330
#     4  10  22  38  58  87 108 155 189 236 283 339
#     4  10  20  37  59  84 117 152 185 226 281 341
#     4  10  22  40  58  81 113 151 191 246 292 326
#
# _framework density 19.648143999999998
#
# number of rings (size 3 to 8) (size 9 to 14) (size 15 to 20)
#    1.200    1.200    0.000    1.800    2.800    2.000 
#    0.000    1.000    0.000    3.600    0.000    0.000 
#    0.000    0.000    0.000    0.000    0.000    0.000 
#
# Total GULP energy -495711.697128 kJ/mol
# GULP energy per Si atom -12392.792428 kJ/mol
# Density = 1.960342 g / cm^3
# Si number density = 19.648144 Si / 1000 Ang^3
#
#
#
# Elastic Constant Matrix: (Units=GPa)
#
#
# Indices 1 2 3 4 5 6 
#
# 1 35.5340 23.9462 37.7739 0.0000 0.0000 0.0000
# 2 23.9462 155.5290 52.7895 0.0000 0.0000 0.0000
# 3 37.7739 52.7895 128.9387 0.0000 0.0000 0.0000
# 4 0.0000 0.0000 0.0000 27.8604 0.0000 0.0000
# 5 0.0000 0.0000 0.0000 0.0000 24.0277 0.0000
# 6 0.0000 0.0000 0.0000 0.0000 0.0000 8.6862
#
#
#
# Elastic Compliance Matrix: (Units=1/GPa)
#
#
# Indices 1 2 3 4 5 6 
#
# 1 0.041787 -0.002646 -0.011159 0.000000 0.000000 0.000000
# 2 -0.002646 0.007635 -0.002351 0.000000 0.000000 0.000000
# 3 -0.011159 -0.002351 0.011987 0.000000 0.000000 0.000000
# 4 0.000000 0.000000 0.000000 0.035893 0.000000 0.000000
# 5 0.000000 0.000000 0.000000 0.000000 0.041619 0.000000
# 6 0.000000 0.000000 0.000000 0.000000 0.000000 0.115125
#
#
# Mechanical properties :
#
#
# Convention : Reuss Voigt Hill
#
# Bulk Modulus (GPa) = 34.36632 61.00233 47.68433
# Shear Modulus (GPa) = 16.88864 25.81433 21.35149
#
# Velocity S-wave (km/s) = 2.93500 3.62861 3.30008
# Velocity P-wave (km/s) = 5.38651 6.97643 6.23237
#
# Compressibility (1/GPa) = 0.02909825
#
# Stress axis : x y z
#
# Youngs Moduli (GPa) = 23.93065 130.97652 83.42371
#
# Poissons Ratio (x) = 0.34662 0.93089
# Poissons Ratio (y) = 0.06333 0.19609
# Poissons Ratio (z) = 0.26703 0.30787
#
# Static dielectric constant tensor:
#      x y z
#    x 3.157720 0.000000 0.000000 
#    y 0.000000 3.805770 0.000000 
#    z 0.000000 0.000000 3.416090 
# 
# 
# High freq. dielectric constant tensor:
#      x y z
#    x 1.732740 0.000000 0.000000 
#    y 0.000000 1.775930 0.000000 
#    z 0.000000 0.000000 1.761170 
# 
# From -- ./inp_files/32678.got.cif
#   From: 2010.03.12/outbox.cif.g09.slc.cpg/sg53_17_cif.got.tgz:32678.got - 2010.04.16 14:36:59.
