data_PCOD8220080
_publ_section_title
;
Structure prediction by ZEFSAII (Michael W. Deem and Ramdas Pophale) SiO2 
 PCOD8220080
Probable space group: P M N A
;
_chemical_formula_sum "Si O2"
_cell_formula_units_Z 64
_cell_length_a 9.089054
_cell_length_b 22.974041
_cell_length_c 15.911330
_cell_angle_alpha 90.000000
_cell_angle_beta 90.000000
_cell_angle_gamma 90.000000
_cell_volume 3322.481401
_symmetry_space_group_name_H-M "P M N A"
_symmetry_group_IT_number 53
_symmetry_cell_setting 'orthorhombic'
loop_
_space_group_symop_operation_xyz
x,y,z
1/2-x,-y,1/2+z
x,-y,-z
1/2-x,y,1/2-z
-x,-y,-z
1/2+x,y,1/2-z
-x,y,z
1/2+x,-y,1/2+z
loop_
_atom_site_type_symbol
_atom_site_label
_atom_site_fract_x
_atom_site_fract_y
_atom_site_fract_z
Si Si1 0.326033 0.135636 0.506144
Si Si2 0.827406 0.074118 0.165862
Si Si3 0.672077 0.940396 0.333811
Si Si4 0.325293 0.257687 0.995247
Si Si5 0.831790 0.638063 0.065784
Si Si6 0.668931 0.529319 0.334668
Si Si7 0.830058 0.430751 0.422564
Si Si8 0.833492 0.683987 0.667440
O O1 0.500000 0.147016 0.506641
O O2 0.275360 0.108590 0.417088
O O3 0.278899 0.093607 0.582500
O O4 0.238777 0.194599 0.521166
O O5 0.750000 0.099292 0.250000
O O6 0.000000 0.080828 0.179172
O O7 0.781541 0.007212 0.152032
O O8 0.750000 0.915161 0.250000
O O9 0.500000 0.933908 0.318760
O O10 0.500000 0.257577 0.985880
O O11 0.257767 0.301567 0.925126
O O12 0.272638 0.281352 0.086162
O O13 0.822919 0.598879 0.149857
O O14 0.000000 0.652338 0.041955
O O15 0.758939 0.597577 0.997052
O O16 0.750000 0.513677 0.250000
O O17 0.500000 0.508284 0.330733
O O18 0.754960 0.492609 0.405138
O O19 0.818718 0.385658 0.344439
O O20 0.000000 0.440153 0.448178
O O21 0.750000 0.705070 0.750000
O O22 0.000000 0.702862 0.681287
#
# Coordination Sequence:
#
# PCOD8220080 Si02
#       8
#     8   8   8   8   8   8   8   8
#     4  10  20  35  56  80 108 145 185 224 269 320
#     4   9  18  33  54  82 116 150 181 217 263 317
#     4   9  18  34  56  82 111 143 182 225 270 321
#     4  10  22  38  54  75 103 136 179 225 266 313
#     4  10  21  38  57  76 101 135 175 216 261 314
#     4  11  23  36  53  79 107 134 168 213 263 316
#     4  10  20  34  54  80 108 137 170 210 259 316
#     4   9  19  33  49  72 101 134 170 209 255 307
#
# _framework density 19.262712000000001
#
# number of rings (size 3 to 8) (size 9 to 14) (size 15 to 20)
#    0.000    2.250    0.000    3.375    0.000   10.500 
#    0.000    3.125    0.000    3.750    0.000    0.000 
#    0.000    0.000    0.000    0.000    0.000    0.000 
#
# Total GULP energy -793490.107868 kJ/mol
# GULP energy per Si atom -12398.282935 kJ/mol
# Density = 1.921887 g / cm^3
# Si number density = 19.262712 Si / 1000 Ang^3
#
#
#
# Elastic Constant Matrix: (Units=GPa)
#
#
# Indices 1 2 3 4 5 6 
#
# 1 48.3779 35.0333 18.0504 0.0000 0.0000 0.0000
# 2 35.0333 103.7251 31.4788 0.0000 0.0000 0.0000
# 3 18.0504 31.4788 67.7391 0.0000 0.0000 0.0000
# 4 0.0000 0.0000 0.0000 18.8366 0.0000 0.0000
# 5 0.0000 0.0000 0.0000 0.0000 30.6006 0.0000
# 6 0.0000 0.0000 0.0000 0.0000 0.0000 30.7937
#
#
#
# Elastic Compliance Matrix: (Units=1/GPa)
#
#
# Indices 1 2 3 4 5 6 
#
# 1 0.028090 -0.008401 -0.003581 0.000000 0.000000 0.000000
# 2 -0.008401 0.013736 -0.004145 0.000000 0.000000 0.000000
# 3 -0.003581 -0.004145 0.017643 0.000000 0.000000 0.000000
# 4 0.000000 0.000000 0.000000 0.053088 0.000000 0.000000
# 5 0.000000 0.000000 0.000000 0.000000 0.032679 0.000000
# 6 0.000000 0.000000 0.000000 0.000000 0.000000 0.032474
#
#
# Mechanical properties :
#
#
# Convention : Reuss Voigt Hill
#
# Bulk Modulus (GPa) = 36.74339 43.21857 39.98098
# Shear Modulus (GPa) = 22.82729 25.06482 23.94605
#
# Velocity S-wave (km/s) = 3.44619 3.61114 3.52963
# Velocity P-wave (km/s) = 5.91196 6.31444 6.11651
#
# Compressibility (1/GPa) = 0.02721578
#
# Stress axis : x y z
#
# Youngs Moduli (GPa) = 35.59949 72.80107 56.67994
#
# Poissons Ratio (x) = 0.61158 0.20299
# Poissons Ratio (y) = 0.29906 0.23492
# Poissons Ratio (z) = 0.12749 0.30174
#
# Static dielectric constant tensor:
#      x y z
#    x 3.540900 0.000000 0.000000 
#    y 0.000000 3.605370 0.000000 
#    z 0.000000 0.000000 3.491950 
# 
# 
# High freq. dielectric constant tensor:
#      x y z
#    x 1.752350 0.000000 0.000000 
#    y 0.000000 1.744220 0.000000 
#    z 0.000000 0.000000 1.739270 
# 
# From -- ./inp_files/20967.got.cif
#   From: 2010.03.12/outbox.cif.g09.slc.cpg/sg53_11_cif.got.tgz:20967.got - 2010.04.16 14:36:59.
