data_PCOD8220702
_publ_section_title
;
Structure prediction by ZEFSAII (Michael W. Deem and Ramdas Pophale) SiO2 
 PCOD8220702
Probable space group: P M N A
;
_chemical_formula_sum "Si O2"
_cell_formula_units_Z 40
_cell_length_a 13.028573
_cell_length_b 9.504868
_cell_length_c 15.319638
_cell_angle_alpha 90.000000
_cell_angle_beta 90.000000
_cell_angle_gamma 90.000000
_cell_volume 1897.105328
_symmetry_space_group_name_H-M "P M N A"
_symmetry_group_IT_number 53
_symmetry_cell_setting 'orthorhombic'
loop_
_space_group_symop_operation_xyz
x,y,z
1/2-x,-y,1/2+z
x,-y,-z
1/2-x,y,1/2-z
-x,-y,-z
1/2+x,y,1/2-z
-x,y,z
1/2+x,-y,1/2+z
loop_
_atom_site_type_symbol
_atom_site_label
_atom_site_fract_x
_atom_site_fract_y
_atom_site_fract_z
Si Si1 0.878730 0.201652 0.809947
Si Si2 0.250000 0.666086 0.750000
Si Si3 0.378706 0.574973 0.167883
Si Si4 0.616959 0.893576 0.656383
Si Si5 0.774178 0.500000 0.500000
Si Si6 0.883671 0.717467 0.998204
O O1 0.838349 0.291273 0.726093
O O2 0.000000 0.188418 0.806173
O O3 0.834223 0.042464 0.813184
O O4 0.848041 0.275583 0.900621
O O5 0.169510 0.570453 0.698735
O O6 0.181986 0.764926 0.809491
O O7 0.500000 0.565592 0.176832
O O8 0.345689 0.587972 0.066979
O O9 0.500000 0.882619 0.690262
O O10 0.620724 0.869241 0.550752
O O11 0.696723 0.389885 0.452456
O O12 0.000000 0.658096 0.991425
#
# Coordination Sequence:
#
# PCOD8220702 Si02
#       6
#     8   4   8   8   4   8
#     4   9  20  39  63  88 120 159 201 255 314 374
#     4  12  22  38  60  88 120 160 198 256 310 374
#     4  11  24  41  60  88 124 165 210 253 301 367
#     4  10  21  38  61  91 123 156 200 256 316 373
#     4  12  22  38  60  88 126 170 210 250 306 368
#     4  10  20  36  61  93 127 155 198 260 321 374
#
# _framework density 21.084755999999999
#
# number of rings (size 3 to 8) (size 9 to 14) (size 15 to 20)
#    0.000    1.600    2.000    3.000    0.000    4.800 
#    0.000    0.000    0.000    0.000    0.000    7.000 
#    0.000    0.000    0.000    0.000    0.000    0.000 
#
# Total GULP energy -495596.915983 kJ/mol
# GULP energy per Si atom -12389.922900 kJ/mol
# Density = 2.103677 g / cm^3
# Si number density = 21.084756 Si / 1000 Ang^3
#
#
#
# Elastic Constant Matrix: (Units=GPa)
#
#
# Indices 1 2 3 4 5 6 
#
# 1 86.7823 43.9702 33.1419 0.0000 0.0000 0.0000
# 2 43.9702 151.5684 54.3523 0.0000 0.0000 0.0000
# 3 33.1419 54.3523 109.3744 0.0000 0.0000 0.0000
# 4 0.0000 0.0000 0.0000 33.0073 0.0000 0.0000
# 5 0.0000 0.0000 0.0000 0.0000 25.9851 0.0000
# 6 0.0000 0.0000 0.0000 0.0000 0.0000 8.4550
#
#
#
# Elastic Compliance Matrix: (Units=1/GPa)
#
#
# Indices 1 2 3 4 5 6 
#
# 1 0.014151 -0.003124 -0.002735 0.000000 0.000000 0.000000
# 2 -0.003124 0.008718 -0.003386 0.000000 0.000000 0.000000
# 3 -0.002735 -0.003386 0.011654 0.000000 0.000000 0.000000
# 4 0.000000 0.000000 0.000000 0.030296 0.000000 0.000000
# 5 0.000000 0.000000 0.000000 0.000000 0.038484 0.000000
# 6 0.000000 0.000000 0.000000 0.000000 0.000000 0.118273
#
#
# Mechanical properties :
#
#
# Convention : Reuss Voigt Hill
#
# Bulk Modulus (GPa) = 62.37304 67.85044 65.11174
# Shear Modulus (GPa) = 20.37399 27.90686 24.14043
#
# Velocity S-wave (km/s) = 3.11189 3.64202 3.38734
# Velocity P-wave (km/s) = 6.52366 7.06650 6.80050
#
# Compressibility (1/GPa) = 0.01603257
#
# Stress axis : x y z
#
# Youngs Moduli (GPa) = 70.66810 114.70335 85.80591
#
# Poissons Ratio (x) = 0.35836 0.23470
# Poissons Ratio (y) = 0.22079 0.29051
# Poissons Ratio (z) = 0.19330 0.38835
#
# Static dielectric constant tensor:
#      x y z
#    x 3.769100 0.000000 0.000000 
#    y 0.000000 3.894750 0.000000 
#    z 0.000000 0.000000 3.865740 
# 
# 
# High freq. dielectric constant tensor:
#      x y z
#    x 1.831290 0.000000 0.000000 
#    y 0.000000 1.826140 0.000000 
#    z 0.000000 0.000000 1.818920 
# 
# From -- ./inp_files/22469.got.cif
#   From: 2010.03.12/outbox.cif.g09.slc.cpg/sg53_12_cif.got.tgz:22469.got - 2010.04.16 14:36:59.
