data_PCOD8220098
_publ_section_title
;
Structure prediction by ZEFSAII (Michael W. Deem and Ramdas Pophale) SiO2 
 PCOD8220098
Probable space group: P M N A
;
_chemical_formula_sum "Si O2"
_cell_formula_units_Z 48
_cell_length_a 9.069096
_cell_length_b 11.010525
_cell_length_c 23.607899
_cell_angle_alpha 90.000000
_cell_angle_beta 90.000000
_cell_angle_gamma 90.000000
_cell_volume 2357.378753
_symmetry_space_group_name_H-M "P M N A"
_symmetry_group_IT_number 53
_symmetry_cell_setting 'orthorhombic'
loop_
_space_group_symop_operation_xyz
x,y,z
1/2-x,-y,1/2+z
x,-y,-z
1/2-x,y,1/2-z
-x,-y,-z
1/2+x,y,1/2-z
-x,y,z
1/2+x,-y,1/2+z
loop_
_atom_site_type_symbol
_atom_site_label
_atom_site_fract_x
_atom_site_fract_y
_atom_site_fract_z
Si Si1 0.833510 0.597247 0.862818
Si Si2 0.172755 0.373832 0.690282
Si Si3 0.167759 0.231892 0.581015
Si Si4 0.168100 0.854759 0.807410
Si Si5 0.673551 0.261025 0.472775
Si Si6 0.829811 0.049304 0.411731
O O1 0.722020 0.500338 0.837376
O O2 0.821621 0.714154 0.823215
O O3 0.787900 0.634405 0.926953
O O4 0.000000 0.545182 0.861866
O O5 0.250000 0.345887 0.750000
O O6 0.213771 0.268586 0.645011
O O7 0.000000 0.381120 0.702504
O O8 0.270264 0.301698 0.535005
O O9 0.000000 0.273330 0.570554
O O10 0.186754 0.089560 0.570157
O O11 0.250000 0.880578 0.750000
O O12 0.248572 0.938506 0.852468
O O13 0.000000 0.897630 0.802645
O O14 0.500000 0.236395 0.472802
O O15 0.754256 0.135112 0.458023
O O16 0.000000 0.087540 0.405970
#
# Coordination Sequence:
#
# PCOD8220098 Si02
#       6
#     8   8   8   8   8   8
#     4   9  20  38  58  83 113 144 182 229 281 333
#     4  11  24  41  60  82 111 149 191 231 275 329
#     4  10  23  40  57  82 115 151 188 227 276 332
#     4  10  20  34  54  82 113 145 187 237 286 337
#     4  10  21  37  60  89 116 144 183 231 281 333
#     4  10  20  36  57  81 114 152 188 230 280 334
#
# _framework density 20.361599999999999
#
# number of rings (size 3 to 8) (size 9 to 14) (size 15 to 20)
#    0.000    2.000    0.000    4.000    0.000   11.333 
#    0.000    5.000    0.000    0.000    0.000    0.000 
#    0.000    0.000    0.000    0.000    0.000    0.000 
#
# Total GULP energy -595238.395671 kJ/mol
# GULP energy per Si atom -12400.799910 kJ/mol
# Density = 2.031526 g / cm^3
# Si number density = 20.361600 Si / 1000 Ang^3
#
#
#
# Elastic Constant Matrix: (Units=GPa)
#
#
# Indices 1 2 3 4 5 6 
#
# 1 120.9078 21.8484 77.1989 0.0000 0.0000 0.0000
# 2 21.8484 23.6810 24.6044 0.0000 0.0000 0.0000
# 3 77.1989 24.6044 165.5287 0.0000 0.0000 0.0000
# 4 0.0000 0.0000 0.0000 17.4055 0.0000 0.0000
# 5 0.0000 0.0000 0.0000 0.0000 43.8433 0.0000
# 6 0.0000 0.0000 0.0000 0.0000 0.0000 18.4034
#
#
#
# Elastic Compliance Matrix: (Units=1/GPa)
#
#
# Indices 1 2 3 4 5 6 
#
# 1 0.012574 -0.006514 -0.004896 0.000000 0.000000 0.000000
# 2 -0.006514 0.053315 -0.004887 0.000000 0.000000 0.000000
# 3 -0.004896 -0.004887 0.009051 0.000000 0.000000 0.000000
# 4 0.000000 0.000000 0.000000 0.057453 0.000000 0.000000
# 5 0.000000 0.000000 0.000000 0.000000 0.022809 0.000000
# 6 0.000000 0.000000 0.000000 0.000000 0.000000 0.054338
#
#
# Mechanical properties :
#
#
# Convention : Reuss Voigt Hill
#
# Bulk Modulus (GPa) = 23.61468 61.93564 42.77516
# Shear Modulus (GPa) = 19.51229 28.36148 23.93688
#
# Velocity S-wave (km/s) = 3.09898 3.73619 3.43241
# Velocity P-wave (km/s) = 4.94244 7.00686 6.06316
#
# Compressibility (1/GPa) = 0.04234654
#
# Stress axis : x y z
#
# Youngs Moduli (GPa) = 79.52991 18.75637 110.48520
#
# Poissons Ratio (x) = 0.12218 0.54093
# Poissons Ratio (y) = 0.51806 0.53993
# Poissons Ratio (z) = 0.38937 0.09166
#
# Static dielectric constant tensor:
#      x y z
#    x 3.811120 0.000000 0.000000 
#    y 0.000000 3.442850 0.000000 
#    z 0.000000 0.000000 3.852460 
# 
# 
# High freq. dielectric constant tensor:
#      x y z
#    x 1.803890 0.000000 0.000000 
#    y 0.000000 1.775820 0.000000 
#    z 0.000000 0.000000 1.812910 
# 
# From -- ./inp_files/33892.got.cif
#   From: 2010.03.12/outbox.cif.g09.slc.cpg/sg53_17_cif.got.tgz:33892.got - 2010.04.16 14:36:59.
