data_PCOD8220191
_publ_section_title
;
Structure prediction by ZEFSAII (Michael W. Deem and Ramdas Pophale) SiO2 
 PCOD8220191
Probable space group: P M N A
;
_chemical_formula_sum "Si O2"
_cell_formula_units_Z 44
_cell_length_a 7.732620
_cell_length_b 15.232432
_cell_length_c 19.355981
_cell_angle_alpha 90.000000
_cell_angle_beta 90.000000
_cell_angle_gamma 90.000000
_cell_volume 2279.875353
_symmetry_space_group_name_H-M "P M N A"
_symmetry_group_IT_number 53
_symmetry_cell_setting 'orthorhombic'
loop_
_space_group_symop_operation_xyz
x,y,z
1/2-x,-y,1/2+z
x,-y,-z
1/2-x,y,1/2-z
-x,-y,-z
1/2+x,y,1/2-z
-x,y,z
1/2+x,-y,1/2+z
loop_
_atom_site_type_symbol
_atom_site_label
_atom_site_fract_x
_atom_site_fract_y
_atom_site_fract_z
Si Si1 0.698656 0.190288 0.119488
Si Si2 0.500000 0.400610 0.534768
Si Si3 0.701449 0.627609 0.825620
Si Si4 0.000000 0.054821 0.928051
Si Si5 0.197980 0.997310 0.673109
Si Si6 0.186753 0.475264 0.578755
Si Si7 0.000000 0.209941 0.018286
O O1 0.500000 0.203004 0.093551
O O2 0.774130 0.275179 0.160045
O O3 0.712137 0.108163 0.170664
O O4 0.825562 0.176257 0.055181
O O5 0.500000 0.500000 0.500000
O O6 0.326320 0.396033 0.581899
O O7 0.500000 0.315901 0.485897
O O8 0.750000 0.594490 0.750000
O O9 0.500000 0.632175 0.835263
O O10 0.771938 0.557627 0.880958
O O11 0.827407 0.036951 0.883645
O O12 0.000000 0.159096 0.945160
O O13 0.000000 0.000000 0.000000
O O14 0.250000 0.028205 0.750000
O O15 0.000000 0.026956 0.656937
O O16 0.154830 0.500000 0.500000
O O17 0.000000 0.446621 0.610725
#
# Coordination Sequence:
#
# PCOD8220191 Si02
#       7
#     8   4   8   4   8   8   4
#     4  10  21  35  55  89 130 164 202 239 315 386
#     4  10  20  34  58  86 110 156 199 238 307 367
#     4  10  21  33  52  86 121 159 195 245 306 381
#     4  12  24  44  62  98 133 166 218 265 311 377
#     4  11  22  39  66  93 128 176 214 261 324 385
#     4   9  18  34  53  75 110 150 196 241 285 348
#     4  12  24  38  64  92 128 166 198 273 311 365
#
# _framework density 19.299299999999999
#
# number of rings (size 3 to 8) (size 9 to 14) (size 15 to 20)
#    0.000    1.636    2.727    2.727    2.545    3.273 
#    0.000    0.000    0.000    1.091    0.000    0.000 
#    0.000    0.000    0.000    0.000    0.000    0.000 
#
# Total GULP energy -545156.911461 kJ/mol
# GULP energy per Si atom -12389.929806 kJ/mol
# Density = 1.925537 g / cm^3
# Si number density = 19.299300 Si / 1000 Ang^3
#
#
#
# Elastic Constant Matrix: (Units=GPa)
#
#
# Indices 1 2 3 4 5 6 
#
# 1 135.4034 25.9057 40.0629 0.0000 0.0000 0.0000
# 2 25.9057 54.3542 37.8210 0.0000 0.0000 0.0000
# 3 40.0629 37.8210 114.7016 0.0000 0.0000 0.0000
# 4 0.0000 0.0000 0.0000 34.3487 0.0000 0.0000
# 5 0.0000 0.0000 0.0000 0.0000 26.8407 0.0000
# 6 0.0000 0.0000 0.0000 0.0000 0.0000 23.1313
#
#
#
# Elastic Compliance Matrix: (Units=1/GPa)
#
#
# Indices 1 2 3 4 5 6 
#
# 1 0.008506 -0.002578 -0.002121 0.000000 0.000000 0.000000
# 2 -0.002578 0.024657 -0.007230 0.000000 0.000000 0.000000
# 3 -0.002121 -0.007230 0.011843 0.000000 0.000000 0.000000
# 4 0.000000 0.000000 0.000000 0.029113 0.000000 0.000000
# 5 0.000000 0.000000 0.000000 0.000000 0.037257 0.000000
# 6 0.000000 0.000000 0.000000 0.000000 0.000000 0.043231
#
#
# Mechanical properties :
#
#
# Convention : Reuss Voigt Hill
#
# Bulk Modulus (GPa) = 47.28476 56.89314 52.08895
# Shear Modulus (GPa) = 26.95193 30.24212 28.59702
#
# Velocity S-wave (km/s) = 3.74106 3.96284 3.85355
# Velocity P-wave (km/s) = 6.57379 7.10508 6.84459
#
# Compressibility (1/GPa) = 0.02114846
#
# Stress axis : x y z
#
# Youngs Moduli (GPa) = 117.56204 40.55578 84.43836
#
# Poissons Ratio (x) = 0.10457 0.17908
# Poissons Ratio (y) = 0.30312 0.61047
# Poissons Ratio (z) = 0.24933 0.29321
#
# Static dielectric constant tensor:
#      x y z
#    x 4.634900 0.000000 0.000000 
#    y 0.000000 3.585010 0.000000 
#    z 0.000000 0.000000 3.453130 
# 
# 
# High freq. dielectric constant tensor:
#      x y z
#    x 1.779650 0.000000 0.000000 
#    y 0.000000 1.718720 0.000000 
#    z 0.000000 0.000000 1.726340 
# 
# From -- ./inp_files/26120.got.cif
#   From: 2010.03.12/outbox.cif.g09.slc.cpg/sg53_14_cif.got.tgz:26120.got - 2010.04.16 14:36:59.
