data_PCOD8220156
_publ_section_title
;
Structure prediction by ZEFSAII (Michael W. Deem and Ramdas Pophale) SiO2 
 PCOD8220156
Probable space group: P M N A
;
_chemical_formula_sum "Si O2"
_cell_formula_units_Z 64
_cell_length_a 8.798656
_cell_length_b 24.797637
_cell_length_c 14.241208
_cell_angle_alpha 90.000000
_cell_angle_beta 90.000000
_cell_angle_gamma 90.000000
_cell_volume 3107.230465
_symmetry_space_group_name_H-M "P M N A"
_symmetry_group_IT_number 53
_symmetry_cell_setting 'orthorhombic'
loop_
_space_group_symop_operation_xyz
x,y,z
1/2-x,-y,1/2+z
x,-y,-z
1/2-x,y,1/2-z
-x,-y,-z
1/2+x,y,1/2-z
-x,y,z
1/2+x,-y,1/2+z
loop_
_atom_site_type_symbol
_atom_site_label
_atom_site_fract_x
_atom_site_fract_y
_atom_site_fract_z
Si Si1 0.323946 0.386451 0.533280
Si Si2 0.819953 0.980081 0.648119
Si Si3 0.677396 0.599343 0.846170
Si Si4 0.177656 0.719522 0.148041
Si Si5 0.677898 0.816164 0.041618
Si Si6 0.177576 0.473920 0.654065
Si Si7 0.175050 0.138841 0.347182
Si Si8 0.179881 0.914773 0.147265
O O1 0.500000 0.397392 0.516863
O O2 0.250130 0.369156 0.434017
O O3 0.294812 0.340384 0.609901
O O4 0.246458 0.441559 0.567198
O O5 0.750000 0.988106 0.750000
O O6 0.769429 0.920263 0.614948
O O7 0.000000 0.987495 0.646219
O O8 0.746426 0.031395 0.593410
O O9 0.750000 0.621419 0.750000
O O10 0.500000 0.610902 0.842835
O O11 0.716485 0.536439 0.859240
O O12 0.250000 0.725054 0.250000
O O13 0.262598 0.759092 0.076950
O O14 0.000000 0.734066 0.153137
O O15 0.500000 0.823624 0.065222
O O16 0.775214 0.863009 0.087810
O O17 0.706089 0.817986 0.929036
O O18 0.250000 0.451790 0.750000
O O19 0.000000 0.462882 0.657894
O O20 0.250000 0.157718 0.250000
O O21 0.000000 0.133363 0.322089
O O22 0.250000 0.906543 0.250000
O O23 0.000000 0.919237 0.154954
#
# Coordination Sequence:
#
# PCOD8220156 Si02
#       8
#     8   8   8   8   8   8   8   8
#     4  11  23  38  59  86 117 154 197 241 289 345
#     4   9  16  30  51  78 111 145 180 221 270 328
#     4  10  21  37  58  86 122 160 198 240 286 337
#     4  11  25  44  64  88 115 146 185 234 286 336
#     4  11  23  40  60  83 110 146 188 231 283 338
#     4  10  20  34  55  86 122 159 198 240 288 342
#     4   9  20  37  59  84 112 145 182 226 276 329
#     4  11  21  34  53  80 113 149 186 228 277 333
#
# _framework density 20.597118999999999
#
# number of rings (size 3 to 8) (size 9 to 14) (size 15 to 20)
#    0.000    1.750    0.000    5.250    0.000    8.000 
#    0.000    3.125    0.000    1.500    0.000    0.000 
#    0.000    0.000    0.000    0.000    0.000    0.000 
#
# Total GULP energy -793557.592651 kJ/mol
# GULP energy per Si atom -12399.337385 kJ/mol
# Density = 2.055024 g / cm^3
# Si number density = 20.597119 Si / 1000 Ang^3
#
#
#
# Elastic Constant Matrix: (Units=GPa)
#
#
# Indices 1 2 3 4 5 6 
#
# 1 113.0362 32.2337 43.8351 0.0000 0.0000 0.0000
# 2 32.2337 44.7852 22.2511 0.0000 0.0000 0.0000
# 3 43.8351 22.2511 102.9422 0.0000 0.0000 0.0000
# 4 0.0000 0.0000 0.0000 30.3846 0.0000 0.0000
# 5 0.0000 0.0000 0.0000 0.0000 34.0796 0.0000
# 6 0.0000 0.0000 0.0000 0.0000 0.0000 109.2040
#
#
#
# Elastic Compliance Matrix: (Units=1/GPa)
#
#
# Indices 1 2 3 4 5 6 
#
# 1 0.012283 -0.006993 -0.003719 0.000000 0.000000 0.000000
# 2 -0.006993 0.028996 -0.003290 0.000000 0.000000 0.000000
# 3 -0.003719 -0.003290 0.012009 0.000000 0.000000 0.000000
# 4 0.000000 0.000000 0.000000 0.032911 0.000000 0.000000
# 5 0.000000 0.000000 0.000000 0.000000 0.029343 0.000000
# 6 0.000000 0.000000 0.000000 0.000000 0.000000 0.009157
#
#
# Mechanical properties :
#
#
# Convention : Reuss Voigt Hill
#
# Bulk Modulus (GPa) = 39.54911 50.82258 45.18585
# Shear Modulus (GPa) = 31.03058 45.56323 38.29690
#
# Velocity S-wave (km/s) = 3.88564 4.70842 4.31668
# Velocity P-wave (km/s) = 6.27486 7.36798 6.84328
#
# Compressibility (1/GPa) = 0.02528502
#
# Stress axis : x y z
#
# Youngs Moduli (GPa) = 81.41344 34.48708 83.27177
#
# Poissons Ratio (x) = 0.24116 0.30968
# Poissons Ratio (y) = 0.56931 0.27396
# Poissons Ratio (z) = 0.30276 0.11346
#
# Static dielectric constant tensor:
#      x y z
#    x 3.820480 0.000000 0.000000 
#    y 0.000000 3.761690 0.000000 
#    z 0.000000 0.000000 3.790540 
# 
# 
# High freq. dielectric constant tensor:
#      x y z
#    x 1.816160 0.000000 0.000000 
#    y 0.000000 1.790860 0.000000 
#    z 0.000000 0.000000 1.808640 
# 
# From -- ./inp_files/21014.got.cif
#   From: 2010.03.12/outbox.cif.g09.slc.cpg/sg53_11_cif.got.tgz:21014.got - 2010.04.16 14:36:59.
