data_PCOD8220583
_publ_section_title
;
Structure prediction by ZEFSAII (Michael W. Deem and Ramdas Pophale) SiO2 
 PCOD8220583
Probable space group: P M N A
;
_chemical_formula_sum "Si O2"
_cell_formula_units_Z 48
_cell_length_a 8.753319
_cell_length_b 30.411627
_cell_length_c 9.032994
_cell_angle_alpha 90.000000
_cell_angle_beta 90.000000
_cell_angle_gamma 90.000000
_cell_volume 2404.607143
_symmetry_space_group_name_H-M "P M N A"
_symmetry_group_IT_number 53
_symmetry_cell_setting 'orthorhombic'
loop_
_space_group_symop_operation_xyz
x,y,z
1/2-x,-y,1/2+z
x,-y,-z
1/2-x,y,1/2-z
-x,-y,-z
1/2+x,y,1/2-z
-x,y,z
1/2+x,-y,1/2+z
loop_
_atom_site_type_symbol
_atom_site_label
_atom_site_fract_x
_atom_site_fract_y
_atom_site_fract_z
Si Si1 0.181033 0.121625 0.089342
Si Si2 0.822290 0.713757 0.593678
Si Si3 0.822067 0.460309 0.906602
Si Si4 0.175967 0.043948 0.593173
Si Si5 0.321299 0.362113 0.589166
Si Si6 0.178603 0.799943 0.411580
O O1 0.250000 0.112967 0.250000
O O2 0.000000 0.123433 0.102352
O O3 0.229564 0.082563 0.982096
O O4 0.241454 0.167214 0.024949
O O5 0.750000 0.727451 0.750000
O O6 0.749194 0.669103 0.534375
O O7 0.790806 0.751329 0.472819
O O8 0.000000 0.706041 0.619219
O O9 0.750000 0.464710 0.750000
O O10 0.787237 0.411563 0.969736
O O11 0.000000 0.468011 0.890308
O O12 0.747963 0.500000 0.000000
O O13 0.250000 0.033779 0.750000
O O14 0.000000 0.058542 0.610324
O O15 0.191110 0.000000 0.500000
O O16 0.250000 0.353370 0.750000
O O17 0.500000 0.352786 0.604133
O O18 0.250000 0.804655 0.250000
O O19 0.000000 0.811067 0.402466
#
# Coordination Sequence:
#
# PCOD8220583 Si02
#       6
#     8   8   8   8   8   8
#     4  12  25  42  65  92 125 161 200 248 299 352
#     4  11  24  40  60  86 117 152 191 238 290 345
#     4   9  19  35  54  79 110 145 186 231 281 337
#     4  11  24  42  65  93 126 164 206 251 300 354
#     4  10  20  36  58  82 112 149 190 236 285 342
#     4  11  24  42  64  90 120 156 197 240 290 347
#
# _framework density 19.961682
#
# number of rings (size 3 to 8) (size 9 to 14) (size 15 to 20)
#    0.000    1.333    0.000    5.500    0.000    9.667 
#    0.000    1.667    0.000    0.000    0.000    0.000 
#    0.000    0.000    0.000    0.000    0.000    0.000 
#
# Total GULP energy -595370.931945 kJ/mol
# GULP energy per Si atom -12403.561082 kJ/mol
# Density = 1.991625 g / cm^3
# Si number density = 19.961682 Si / 1000 Ang^3
#
#
#
# Elastic Constant Matrix: (Units=GPa)
#
#
# Indices 1 2 3 4 5 6 
#
# 1 123.9275 57.2463 57.3258 0.0000 0.0000 0.0000
# 2 57.2463 103.0024 30.4763 0.0000 0.0000 0.0000
# 3 57.3258 30.4763 92.8575 0.0000 0.0000 0.0000
# 4 0.0000 0.0000 0.0000 105.0003 0.0000 0.0000
# 5 0.0000 0.0000 0.0000 0.0000 35.0662 0.0000
# 6 0.0000 0.0000 0.0000 0.0000 0.0000 32.5286
#
#
#
# Elastic Compliance Matrix: (Units=1/GPa)
#
#
# Indices 1 2 3 4 5 6 
#
# 1 0.013764 -0.005688 -0.006630 0.000000 0.000000 0.000000
# 2 -0.005688 0.013103 -0.000789 0.000000 0.000000 0.000000
# 3 -0.006630 -0.000789 0.015121 0.000000 0.000000 0.000000
# 4 0.000000 0.000000 0.000000 0.009524 0.000000 0.000000
# 5 0.000000 0.000000 0.000000 0.000000 0.028518 0.000000
# 6 0.000000 0.000000 0.000000 0.000000 0.000000 0.030742
#
#
# Mechanical properties :
#
#
# Convention : Reuss Voigt Hill
#
# Bulk Modulus (GPa) = 63.39626 67.76493 65.58059
# Shear Modulus (GPa) = 35.15095 46.16829 40.65962
#
# Velocity S-wave (km/s) = 4.20089 4.81442 4.51808
# Velocity P-wave (km/s) = 7.44029 8.05767 7.75513
#
# Compressibility (1/GPa) = 0.01577380
#
# Stress axis : x y z
#
# Youngs Moduli (GPa) = 72.65566 76.31783 66.13149
#
# Poissons Ratio (x) = 0.43407 0.43847
# Poissons Ratio (y) = 0.41324 0.05219
# Poissons Ratio (z) = 0.48172 0.06023
#
# Static dielectric constant tensor:
#      x y z
#    x 3.826590 0.000000 0.000000 
#    y 0.000000 4.501720 0.000000 
#    z 0.000000 0.000000 3.491720 
# 
# 
# High freq. dielectric constant tensor:
#      x y z
#    x 1.793490 0.000000 0.000000 
#    y 0.000000 1.796400 0.000000 
#    z 0.000000 0.000000 1.785240 
# 
# From -- ./inp_files/6566.got.cif
#   From: 2010.03.12/outbox.cif.g09.slc.cpg/sg53_4_cif.got.tgz:6566.got - 2010.04.16 14:36:59.
