data_PCOD8220986
_publ_section_title
;
Structure prediction by ZEFSAII (Michael W. Deem and Ramdas Pophale) SiO2 
 PCOD8220986
Probable space group: P M N A
;
_chemical_formula_sum "Si O2"
_cell_formula_units_Z 48
_cell_length_a 14.004381
_cell_length_b 11.071585
_cell_length_c 15.912341
_cell_angle_alpha 90.000000
_cell_angle_beta 90.000000
_cell_angle_gamma 90.000000
_cell_volume 2467.219525
_symmetry_space_group_name_H-M "P M N A"
_symmetry_group_IT_number 53
_symmetry_cell_setting 'orthorhombic'
loop_
_space_group_symop_operation_xyz
x,y,z
1/2-x,-y,1/2+z
x,-y,-z
1/2-x,y,1/2-z
-x,-y,-z
1/2+x,y,1/2-z
-x,y,z
1/2+x,-y,1/2+z
loop_
_atom_site_type_symbol
_atom_site_label
_atom_site_fract_x
_atom_site_fract_y
_atom_site_fract_z
Si Si1 0.610790 0.845956 0.223168
Si Si2 0.111708 0.750204 0.825535
Si Si3 0.716898 0.741755 0.369412
Si Si4 0.609664 0.883760 0.837919
Si Si5 0.111287 0.494347 0.900685
Si Si6 0.271337 0.871148 0.538202
O O1 0.500000 0.810427 0.212396
O O2 0.644858 0.830781 0.319430
O O3 0.675314 0.756148 0.166043
O O4 0.630619 0.983334 0.197673
O O5 0.143280 0.783102 0.730287
O O6 0.142930 0.616639 0.853397
O O7 0.155547 0.849586 0.886833
O O8 0.000000 0.767641 0.834375
O O9 0.678555 0.606037 0.358530
O O10 0.715422 0.770327 0.467637
O O11 0.500000 0.866772 0.861013
O O12 0.664543 0.863973 0.924938
O O13 0.000000 0.464685 0.883505
O O14 0.130261 0.500000 0.000000
O O15 0.293967 0.000000 0.500000
#
# Coordination Sequence:
#
# PCOD8220986 Si02
#       6
#     8   8   8   8   8   8
#     4  10  22  41  62  86 124 159 197 249 307 369
#     4  10  22  39  62  90 122 159 199 251 307 359
#     4  11  22  37  61  90 116 158 205 248 300 354
#     4  10  22  40  60  87 124 162 198 246 307 368
#     4  10  20  39  62  87 122 159 201 252 305 359
#     4  12  22  35  61  89 125 156 199 251 300 366
#
# _framework density 19.455099000000001
#
# number of rings (size 3 to 8) (size 9 to 14) (size 15 to 20)
#    0.000    1.500    3.333    2.000    2.333    2.000 
#    6.000    0.000    0.000    0.500    0.000    0.000 
#    0.000    0.000    0.000    0.000    0.000    0.000 
#
# Total GULP energy -595252.072060 kJ/mol
# GULP energy per Si atom -12401.084835 kJ/mol
# Density = 1.941082 g / cm^3
# Si number density = 19.455099 Si / 1000 Ang^3
#
#
#
# Elastic Constant Matrix: (Units=GPa)
#
#
# Indices 1 2 3 4 5 6 
#
# 1 71.5300 37.3411 8.0217 0.0000 0.0000 0.0000
# 2 37.3411 100.2318 23.3480 0.0000 0.0000 0.0000
# 3 8.0217 23.3480 45.5224 0.0000 0.0000 0.0000
# 4 0.0000 0.0000 0.0000 31.6143 0.0000 0.0000
# 5 0.0000 0.0000 0.0000 0.0000 33.1289 0.0000
# 6 0.0000 0.0000 0.0000 0.0000 0.0000 33.1356
#
#
#
# Elastic Compliance Matrix: (Units=1/GPa)
#
#
# Indices 1 2 3 4 5 6 
#
# 1 0.017359 -0.006535 0.000293 0.000000 0.000000 0.000000
# 2 -0.006535 0.013791 -0.005922 0.000000 0.000000 0.000000
# 3 0.000293 -0.005922 0.024953 0.000000 0.000000 0.000000
# 4 0.000000 0.000000 0.000000 0.031631 0.000000 0.000000
# 5 0.000000 0.000000 0.000000 0.000000 0.030185 0.000000
# 6 0.000000 0.000000 0.000000 0.000000 0.000000 0.030179
#
#
# Mechanical properties :
#
#
# Convention : Reuss Voigt Hill
#
# Bulk Modulus (GPa) = 31.47154 39.41176 35.44165
# Shear Modulus (GPa) = 27.31981 29.48067 28.40024
#
# Velocity S-wave (km/s) = 3.75140 3.89693 3.82486
# Velocity P-wave (km/s) = 5.91402 6.36788 6.14514
#
# Compressibility (1/GPa) = 0.03177474
#
# Stress axis : x y z
#
# Youngs Moduli (GPa) = 57.60731 72.51131 40.07575
#
# Poissons Ratio (x) = 0.47388 -0.01174
# Poissons Ratio (y) = 0.37648 0.23731
# Poissons Ratio (z) = -0.01688 0.42939
#
# Static dielectric constant tensor:
#      x y z
#    x 3.590040 0.000000 0.000000 
#    y 0.000000 3.563670 0.000000 
#    z 0.000000 0.000000 3.669340 
# 
# 
# High freq. dielectric constant tensor:
#      x y z
#    x 1.760720 0.000000 0.000000 
#    y 0.000000 1.750720 0.000000 
#    z 0.000000 0.000000 1.761710 
# 
# From -- ./inp_files/22671.got.cif
#   From: 2010.03.12/outbox.cif.g09.slc.cpg/sg53_12_cif.got.tgz:22671.got - 2010.04.16 14:36:59.
