data_PCOD8220194
_publ_section_title
;
Structure prediction by ZEFSAII (Michael W. Deem and Ramdas Pophale) SiO2 
 PCOD8220194
Probable space group: P M N A
;
_chemical_formula_sum "Si O2"
_cell_formula_units_Z 56
_cell_length_a 13.857210
_cell_length_b 10.122287
_cell_length_c 20.524524
_cell_angle_alpha 90.000000
_cell_angle_beta 90.000000
_cell_angle_gamma 90.000000
_cell_volume 2878.906361
_symmetry_space_group_name_H-M "P M N A"
_symmetry_group_IT_number 53
_symmetry_cell_setting 'orthorhombic'
loop_
_space_group_symop_operation_xyz
x,y,z
1/2-x,-y,1/2+z
x,-y,-z
1/2-x,y,1/2-z
-x,-y,-z
1/2+x,y,1/2-z
-x,y,z
1/2+x,-y,1/2+z
loop_
_atom_site_type_symbol
_atom_site_label
_atom_site_fract_x
_atom_site_fract_y
_atom_site_fract_z
Si Si1 0.887235 0.240890 0.527303
Si Si2 0.610286 0.800632 0.877775
Si Si3 0.221508 0.427689 0.934830
Si Si4 0.390439 0.206269 0.630291
Si Si5 0.797132 0.931582 0.369322
Si Si6 0.304448 0.447448 0.185000
Si Si7 0.891490 0.275799 0.721711
O O1 0.860474 0.227901 0.451965
O O2 0.827758 0.363486 0.556566
O O3 0.855606 0.107767 0.565119
O O4 0.000000 0.269771 0.538056
O O5 0.500000 0.846598 0.872650
O O6 0.624659 0.671424 0.834142
O O7 0.677081 0.918892 0.850615
O O8 0.140602 0.317672 0.921313
O O9 0.229169 0.528845 0.874273
O O10 0.187312 0.500000 0.000000
O O11 0.500000 0.159730 0.616795
O O12 0.318870 0.080931 0.621368
O O13 0.379027 0.270901 0.701128
O O14 0.823190 0.832412 0.310893
O O15 0.250000 0.402881 0.250000
O O16 0.365058 0.578892 0.198020
O O17 0.000000 0.243589 0.699850
#
# Coordination Sequence:
#
# PCOD8220194 Si02
#       7
#     8   8   8   8   8   8   8
#     4  10  20  34  58  90 122 157 198 240 295 371
#     4  11  24  38  57  91 131 164 190 236 307 377
#     4  11  21  37  61  88 121 158 204 247 305 354
#     4  10  22  39  63  87 111 153 215 264 296 341
#     4  11  21  37  60  87 122 160 200 248 303 357
#     4  12  22  38  58  90 126 163 195 243 298 357
#     4  11  20  35  62  90 116 152 200 249 300 361
#
# _framework density 19.451830999999999
#
# number of rings (size 3 to 8) (size 9 to 14) (size 15 to 20)
#    0.000    1.143    5.714    2.571    0.000    3.429 
#    0.000    0.000    0.000    8.571    0.000    0.000 
#    0.000    0.000    0.000    0.000    0.000    0.000 
#
# Total GULP energy -694544.566511 kJ/mol
# GULP energy per Si atom -12402.581545 kJ/mol
# Density = 1.940756 g / cm^3
# Si number density = 19.451831 Si / 1000 Ang^3
#
#
#
# Elastic Constant Matrix: (Units=GPa)
#
#
# Indices 1 2 3 4 5 6 
#
# 1 121.8943 37.3911 40.3680 0.0000 0.0000 0.0000
# 2 37.3911 98.4950 31.8905 0.0000 0.0000 0.0000
# 3 40.3680 31.8905 91.7035 0.0000 0.0000 0.0000
# 4 0.0000 0.0000 0.0000 12.0552 0.0000 0.0000
# 5 0.0000 0.0000 0.0000 0.0000 24.0853 0.0000
# 6 0.0000 0.0000 0.0000 0.0000 0.0000 23.9020
#
#
#
# Elastic Compliance Matrix: (Units=1/GPa)
#
#
# Indices 1 2 3 4 5 6 
#
# 1 0.010216 -0.002730 -0.003548 0.000000 0.000000 0.000000
# 2 -0.002730 0.012170 -0.003031 0.000000 0.000000 0.000000
# 3 -0.003548 -0.003031 0.013520 0.000000 0.000000 0.000000
# 4 0.000000 0.000000 0.000000 0.082952 0.000000 0.000000
# 5 0.000000 0.000000 0.000000 0.000000 0.041519 0.000000
# 6 0.000000 0.000000 0.000000 0.000000 0.000000 0.041837
#
#
# Mechanical properties :
#
#
# Convention : Reuss Voigt Hill
#
# Bulk Modulus (GPa) = 57.83547 59.04356 58.43951
# Shear Modulus (GPa) = 22.06576 25.50470 23.78523
#
# Velocity S-wave (km/s) = 3.37171 3.62494 3.50061
# Velocity P-wave (km/s) = 6.70486 6.92386 6.81524
#
# Compressibility (1/GPa) = 0.01729043
#
# Stress axis : x y z
#
# Youngs Moduli (GPa) = 97.88481 82.16726 73.96193
#
# Poissons Ratio (x) = 0.22428 0.26241
# Poissons Ratio (y) = 0.26718 0.22416
# Poissons Ratio (z) = 0.34729 0.24903
#
# Static dielectric constant tensor:
#      x y z
#    x 3.567250 0.000000 0.000000 
#    y 0.000000 3.375400 0.000000 
#    z 0.000000 0.000000 3.765000 
# 
# 
# High freq. dielectric constant tensor:
#      x y z
#    x 1.749050 0.000000 0.000000 
#    y 0.000000 1.741000 0.000000 
#    z 0.000000 0.000000 1.767480 
# 
# From -- ./inp_files/32477.got.cif
#   From: 2010.03.12/outbox.cif.g09.slc.cpg/sg53_17_cif.got.tgz:32477.got - 2010.04.16 14:36:59.
