data_PCOD8220192
_publ_section_title
;
Structure prediction by ZEFSAII (Michael W. Deem and Ramdas Pophale) SiO2 
 PCOD8220192
Probable space group: P M N A
;
_chemical_formula_sum "Si O2"
_cell_formula_units_Z 32
_cell_length_a 20.306897
_cell_length_b 15.584723
_cell_length_c 5.176668
_cell_angle_alpha 90.000000
_cell_angle_beta 90.000000
_cell_angle_gamma 90.000000
_cell_volume 1638.298247
_symmetry_space_group_name_H-M "P M N A"
_symmetry_group_IT_number 53
_symmetry_cell_setting 'orthorhombic'
loop_
_space_group_symop_operation_xyz
x,y,z
1/2-x,-y,1/2+z
x,-y,-z
1/2-x,y,1/2-z
-x,-y,-z
1/2+x,y,1/2-z
-x,y,z
1/2+x,-y,1/2+z
loop_
_atom_site_type_symbol
_atom_site_label
_atom_site_fract_x
_atom_site_fract_y
_atom_site_fract_z
Si Si1 0.293907 0.595761 0.001637
Si Si2 0.640486 0.234219 0.913680
Si Si3 0.353208 0.000000 0.500000
Si Si4 0.750000 0.876233 0.250000
Si Si5 0.923984 0.836496 0.898698
O O1 0.250000 0.607455 0.250000
O O2 0.352085 0.664547 0.032954
O O3 0.324952 0.500000 0.000000
O O4 0.250000 0.613478 0.750000
O O5 0.712016 0.186170 0.954775
O O6 0.615950 0.213474 0.623366
O O7 0.586887 0.206578 0.122394
O O8 0.307430 0.939462 0.332823
O O9 0.400731 0.934601 0.650824
O O10 0.000000 0.834065 0.974654
#
# Coordination Sequence:
#
# PCOD8220192 Si02
#       5
#     8   8   4   4   8
#     4  10  20  35  59  92 123 146 177 227 295 362
#     4  11  22  37  62  85 119 151 184 246 287 351
#     4  10  21  36  56  84 115 152 190 254 282 344
#     4  10  20  34  58  88 118 142 192 230 318 342
#     4  11  24  40  58  80 113 162 206 236 276 330
#
# _framework density 19.532464999999998
#
# number of rings (size 3 to 8) (size 9 to 14) (size 15 to 20)
#    0.000    1.500    1.250    4.125    3.500    3.000 
#    0.000    6.250    0.000    4.500    0.000    0.000 
#    0.000    0.000    0.000    0.000    0.000    0.000 
#
# Total GULP energy -396458.156447 kJ/mol
# GULP energy per Si atom -12389.317389 kJ/mol
# Density = 1.948801 g / cm^3
# Si number density = 19.532465 Si / 1000 Ang^3
#
#
#
# Elastic Constant Matrix: (Units=GPa)
#
#
# Indices 1 2 3 4 5 6 
#
# 1 93.6811 54.4755 18.0935 0.0000 0.0000 0.0000
# 2 54.4755 141.7303 23.9424 0.0000 0.0000 0.0000
# 3 18.0935 23.9424 96.1496 0.0000 0.0000 0.0000
# 4 0.0000 0.0000 0.0000 22.8339 0.0000 0.0000
# 5 0.0000 0.0000 0.0000 0.0000 21.6134 0.0000
# 6 0.0000 0.0000 0.0000 0.0000 0.0000 -6.6232
#
#
#
# Elastic Compliance Matrix: (Units=1/GPa)
#
#
# Indices 1 2 3 4 5 6 
#
# 1 0.013911 -0.005120 -0.001343 0.000000 0.000000 0.000000
# 2 -0.005120 0.009250 -0.001340 0.000000 0.000000 0.000000
# 3 -0.001343 -0.001340 0.010987 0.000000 0.000000 0.000000
# 4 0.000000 0.000000 0.000000 0.043795 0.000000 0.000000
# 5 0.000000 0.000000 0.000000 0.000000 0.046268 0.000000
# 6 0.000000 0.000000 0.000000 0.000000 0.000000 -0.150984
#
#
# Mechanical properties :
#
#
# Convention : Reuss Voigt Hill
#
# Bulk Modulus (GPa) = 53.93050 58.28710 56.10880
# Shear Modulus (GPa) = -1002.45404 23.23479 -489.60962
#
# Velocity S-wave (km/s) = -22.67904 3.45272 -15.84956
# Velocity P-wave (km/s) = 25.65374 6.76764 17.49733
#
# Compressibility (1/GPa) = 0.01854238
#
# Stress axis : x y z
#
# Youngs Moduli (GPa) = 71.88458 108.10879 91.01836
#
# Poissons Ratio (x) = 0.55352 0.12222
# Poissons Ratio (y) = 0.36805 0.12195
# Poissons Ratio (z) = 0.09653 0.14485
#
# Static dielectric constant tensor:
#      x y z
#    x 3.571470 0.000000 0.000000 
#    y 0.000000 4.695060 0.000000 
#    z 0.000000 0.000000 2.906640 
# 
# 
# High freq. dielectric constant tensor:
#      x y z
#    x 1.739930 0.000000 0.000000 
#    y 0.000000 1.776000 0.000000 
#    z 0.000000 0.000000 1.757670 
# 
# From -- ./inp_files/1988.got.cif
#   From: 2010.03.12/outbox.cif.g09.slc.cpg/sg53_1_cif.got.tgz:1988.got - 2010.04.16 14:36:59.
