data_PCOD8220287
_publ_section_title
;
Structure prediction by ZEFSAII (Michael W. Deem and Ramdas Pophale) SiO2 
 PCOD8220287
Probable space group: P M N A
;
_chemical_formula_sum "Si O2"
_cell_formula_units_Z 56
_cell_length_a 8.519074
_cell_length_b 19.805147
_cell_length_c 16.074343
_cell_angle_alpha 90.000000
_cell_angle_beta 90.000000
_cell_angle_gamma 90.000000
_cell_volume 2712.087469
_symmetry_space_group_name_H-M "P M N A"
_symmetry_group_IT_number 53
_symmetry_cell_setting 'orthorhombic'
loop_
_space_group_symop_operation_xyz
x,y,z
1/2-x,-y,1/2+z
x,-y,-z
1/2-x,y,1/2-z
-x,-y,-z
1/2+x,y,1/2-z
-x,y,z
1/2+x,-y,1/2+z
loop_
_atom_site_type_symbol
_atom_site_label
_atom_site_fract_x
_atom_site_fract_y
_atom_site_fract_z
Si Si1 0.313745 0.832288 0.843231
Si Si2 0.818398 0.574202 0.070934
Si Si3 0.815243 0.305309 0.662818
Si Si4 0.684403 0.849591 0.161328
Si Si5 0.319656 0.555819 0.896288
Si Si6 0.313565 0.923724 0.997163
Si Si7 0.685035 0.303768 0.338296
O O1 0.250000 0.850015 0.750000
O O2 0.500000 0.827097 0.836905
O O3 0.247958 0.762548 0.886920
O O4 0.259797 0.889209 0.910262
O O5 0.781111 0.649322 0.099130
O O6 0.773158 0.512403 0.134299
O O7 0.000000 0.569520 0.045097
O O8 0.704052 0.562968 0.993927
O O9 0.750000 0.330538 0.750000
O O10 0.768778 0.228242 0.647410
O O11 0.000000 0.318659 0.655352
O O12 0.750000 0.876418 0.250000
O O13 0.500000 0.858706 0.166692
O O14 0.754436 0.888328 0.081108
O O15 0.500000 0.547928 0.871509
O O16 0.255498 0.623710 0.856487
O O17 0.500000 0.921050 0.001884
O O18 0.249845 0.000000 0.000000
O O19 0.750000 0.281669 0.250000
O O20 0.500000 0.309124 0.344893
#
# Coordination Sequence:
#
# PCOD8220287 Si02
#       7
#     8   8   8   8   8   8   8
#     4  10  20  36  59  86 119 158 198 246 297 353
#     4  11  22  37  55  81 113 148 190 238 289 342
#     4  10  20  35  55  80 109 145 191 240 291 347
#     4   9  19  36  58  85 116 153 195 243 293 349
#     4  11  22  38  57  80 111 150 191 235 288 345
#     4   9  19  36  59  88 119 156 199 237 287 358
#     4  11  22  38  58  84 113 147 190 240 291 348
#
# _framework density 20.648302000000001
#
# number of rings (size 3 to 8) (size 9 to 14) (size 15 to 20)
#    0.000    1.857    0.000    6.429    2.000    1.714 
#    0.000    4.286    0.000    3.000    0.000    0.000 
#    0.000    0.000    0.000    0.000    0.000    0.000 
#
# Total GULP energy -693818.347780 kJ/mol
# GULP energy per Si atom -12389.613353 kJ/mol
# Density = 2.060131 g / cm^3
# Si number density = 20.648302 Si / 1000 Ang^3
#
#
#
# Elastic Constant Matrix: (Units=GPa)
#
#
# Indices 1 2 3 4 5 6 
#
# 1 88.8174 28.4052 19.1128 0.0000 0.0000 0.0000
# 2 28.4052 125.8925 53.4988 0.0000 0.0000 0.0000
# 3 19.1128 53.4988 98.5255 0.0000 0.0000 0.0000
# 4 0.0000 0.0000 0.0000 32.6606 0.0000 0.0000
# 5 0.0000 0.0000 0.0000 0.0000 16.3504 0.0000
# 6 0.0000 0.0000 0.0000 0.0000 0.0000 16.3971
#
#
#
# Elastic Compliance Matrix: (Units=1/GPa)
#
#
# Indices 1 2 3 4 5 6 
#
# 1 0.012232 -0.002277 -0.001136 0.000000 0.000000 0.000000
# 2 -0.002277 0.010750 -0.005395 0.000000 0.000000 0.000000
# 3 -0.001136 -0.005395 0.013300 0.000000 0.000000 0.000000
# 4 0.000000 0.000000 0.000000 0.030618 0.000000 0.000000
# 5 0.000000 0.000000 0.000000 0.000000 0.061161 0.000000
# 6 0.000000 0.000000 0.000000 0.000000 0.000000 0.060986
#
#
# Mechanical properties :
#
#
# Convention : Reuss Voigt Hill
#
# Bulk Modulus (GPa) = 53.57953 57.25211 55.41582
# Shear Modulus (GPa) = 23.48682 27.22952 25.35817
#
# Velocity S-wave (km/s) = 3.37630 3.63537 3.50823
# Velocity P-wave (km/s) = 6.41905 6.73860 6.58076
#
# Compressibility (1/GPa) = 0.01866384
#
# Stress axis : x y z
#
# Youngs Moduli (GPa) = 81.75408 93.02470 75.18912
#
# Poissons Ratio (x) = 0.21181 0.08545
# Poissons Ratio (y) = 0.18615 0.40568
# Poissons Ratio (z) = 0.09291 0.50191
#
# Static dielectric constant tensor:
#      x y z
#    x 3.582150 0.000000 0.000000 
#    y 0.000000 4.847840 0.000000 
#    z 0.000000 0.000000 3.844200 
# 
# 
# High freq. dielectric constant tensor:
#      x y z
#    x 1.798540 0.000000 0.000000 
#    y 0.000000 1.823590 0.000000 
#    z 0.000000 0.000000 1.796070 
# 
# From -- ./inp_files/20591.got.cif
#   From: 2010.03.12/outbox.cif.g09.slc.cpg/sg53_11_cif.got.tgz:20591.got - 2010.04.16 14:36:59.
