data_PCOD8220268
_publ_section_title
;
Structure prediction by ZEFSAII (Michael W. Deem and Ramdas Pophale) SiO2 
 PCOD8220268
Probable space group: P M N A
;
_chemical_formula_sum "Si O2"
_cell_formula_units_Z 40
_cell_length_a 8.825421
_cell_length_b 25.888768
_cell_length_c 9.118649
_cell_angle_alpha 90.000000
_cell_angle_beta 90.000000
_cell_angle_gamma 90.000000
_cell_volume 2083.422329
_symmetry_space_group_name_H-M "P M N A"
_symmetry_group_IT_number 53
_symmetry_cell_setting 'orthorhombic'
loop_
_space_group_symop_operation_xyz
x,y,z
1/2-x,-y,1/2+z
x,-y,-z
1/2-x,y,1/2-z
-x,-y,-z
1/2+x,y,1/2-z
-x,y,z
1/2+x,-y,1/2+z
loop_
_atom_site_type_symbol
_atom_site_label
_atom_site_fract_x
_atom_site_fract_y
_atom_site_fract_z
Si Si1 0.178705 0.950382 0.593381
Si Si2 0.178510 0.253152 0.908385
Si Si3 0.320227 0.845818 0.591106
Si Si4 0.320842 0.351343 0.409188
Si Si5 0.679058 0.450491 0.590590
O O1 0.250000 0.960435 0.750000
O O2 0.253329 0.898932 0.523721
O O3 0.000000 0.942118 0.605816
O O4 0.222772 0.000000 0.500000
O O5 0.250000 0.258318 0.750000
O O6 0.000000 0.256098 0.889828
O O7 0.229609 0.199643 0.982344
O O8 0.237202 0.299674 0.010437
O O9 0.250000 0.834792 0.750000
O O10 0.500000 0.849938 0.606978
O O11 0.250000 0.354768 0.250000
O O12 0.500000 0.351320 0.391111
O O13 0.264899 0.399808 0.504782
O O14 0.736318 0.500000 0.500000
O O15 0.750000 0.451350 0.750000
O O16 0.500000 0.450950 0.608741
#
# Coordination Sequence:
#
# PCOD8220268 Si02
#       5
#     8   8   8   8   8
#     4  10  21  36  55  79 106 138 175 214 260 312
#     4  10  22  37  54  79 108 139 176 218 264 315
#     4  10  20  35  55  78 104 136 175 216 260 312
#     4  10  21  37  56  80 109 141 180 222 266 318
#     4  10  21  36  55  81 111 143 182 225 268 318
#
# _framework density 19.199179999999998
#
# number of rings (size 3 to 8) (size 9 to 14) (size 15 to 20)
#    0.000    2.000    0.000    4.200    0.000    6.000 
#    0.000    4.000    0.000    0.000    0.000    0.000 
#    0.000    0.000    0.000    0.000    0.000    0.000 
#
# Total GULP energy -496098.938439 kJ/mol
# GULP energy per Si atom -12402.473461 kJ/mol
# Density = 1.915548 g / cm^3
# Si number density = 19.199180 Si / 1000 Ang^3
#
#
#
# Elastic Constant Matrix: (Units=GPa)
#
#
# Indices 1 2 3 4 5 6 
#
# 1 52.5344 53.4045 44.1386 0.0000 0.0000 0.0000
# 2 53.4045 198.8587 106.6698 0.0000 0.0000 0.0000
# 3 44.1386 106.6698 159.8936 0.0000 0.0000 0.0000
# 4 0.0000 0.0000 0.0000 42.4571 0.0000 0.0000
# 5 0.0000 0.0000 0.0000 0.0000 36.9290 0.0000
# 6 0.0000 0.0000 0.0000 0.0000 0.0000 9.2305
#
#
#
# Elastic Compliance Matrix: (Units=1/GPa)
#
#
# Indices 1 2 3 4 5 6 
#
# 1 0.027890 -0.005233 -0.004208 0.000000 0.000000 0.000000
# 2 -0.005233 0.008813 -0.004435 0.000000 0.000000 0.000000
# 3 -0.004208 -0.004435 0.010374 0.000000 0.000000 0.000000
# 4 0.000000 0.000000 0.000000 0.023553 0.000000 0.000000
# 5 0.000000 0.000000 0.000000 0.000000 0.027079 0.000000
# 6 0.000000 0.000000 0.000000 0.000000 0.000000 0.108336
#
#
# Mechanical properties :
#
#
# Convention : Reuss Voigt Hill
#
# Bulk Modulus (GPa) = 51.74370 91.07916 71.41143
# Shear Modulus (GPa) = 20.81256 31.52824 26.17040
#
# Velocity S-wave (km/s) = 3.29604 4.05676 3.69602
# Velocity P-wave (km/s) = 6.44164 8.33578 7.44915
#
# Compressibility (1/GPa) = 0.01932602
#
# Stress axis : x y z
#
# Youngs Moduli (GPa) = 35.85486 113.47056 96.39093
#
# Poissons Ratio (x) = 0.59376 0.40563
# Poissons Ratio (y) = 0.18762 0.42748
# Poissons Ratio (z) = 0.15088 0.50322
#
# Static dielectric constant tensor:
#      x y z
#    x 3.441460 0.000000 0.000000 
#    y 0.000000 4.076850 0.000000 
#    z 0.000000 0.000000 3.430060 
# 
# 
# High freq. dielectric constant tensor:
#      x y z
#    x 1.743940 0.000000 0.000000 
#    y 0.000000 1.770110 0.000000 
#    z 0.000000 0.000000 1.749280 
# 
# From -- ./inp_files/6260.got.cif
#   From: 2010.03.12/outbox.cif.g09.slc.cpg/sg53_4_cif.got.tgz:6260.got - 2010.04.16 14:36:59.
