data_PCOD8220254
_publ_section_title
;
Structure prediction by ZEFSAII (Michael W. Deem and Ramdas Pophale) SiO2 
 PCOD8220254
Probable space group: P M N A
;
_chemical_formula_sum "Si O2"
_cell_formula_units_Z 52
_cell_length_a 26.398232
_cell_length_b 10.784252
_cell_length_c 9.094970
_cell_angle_alpha 90.000000
_cell_angle_beta 90.000000
_cell_angle_gamma 90.000000
_cell_volume 2589.203228
_symmetry_space_group_name_H-M "P M N A"
_symmetry_group_IT_number 53
_symmetry_cell_setting 'orthorhombic'
loop_
_space_group_symop_operation_xyz
x,y,z
1/2-x,-y,1/2+z
x,-y,-z
1/2-x,y,1/2-z
-x,-y,-z
1/2+x,y,1/2-z
-x,y,z
1/2+x,-y,1/2+z
loop_
_atom_site_type_symbol
_atom_site_label
_atom_site_fract_x
_atom_site_fract_y
_atom_site_fract_z
Si Si1 0.105946 0.500000 0.000000
Si Si2 0.354056 0.861479 0.493023
Si Si3 0.669548 0.362618 0.025565
Si Si4 0.000000 0.387786 0.699955
Si Si5 0.741338 0.874183 0.924390
Si Si6 0.500000 0.676555 0.879815
Si Si7 0.595941 0.692549 0.722217
Si Si8 0.888460 0.678959 0.228685
O O1 0.073866 0.593768 0.896804
O O2 0.139427 0.416194 0.887123
O O3 0.293627 0.848855 0.492138
O O4 0.375306 0.801727 0.641314
O O5 0.376370 0.812967 0.338509
O O6 0.373030 0.000000 0.500000
O O7 0.708557 0.249614 0.045179
O O8 0.635070 0.376672 0.169596
O O9 0.694967 0.500000 0.000000
O O10 0.632006 0.331575 0.891896
O O11 0.000000 0.304799 0.553163
O O12 0.000000 0.531872 0.660871
O O13 0.948684 0.350754 0.785922
O O14 0.750000 0.895279 0.750000
O O15 0.717580 0.000000 0.000000
O O16 0.548973 0.745606 0.813960
#
# Coordination Sequence:
#
# PCOD8220254 Si02
#       8
#     4   8   8   4   8   4   8   8
#     4  10  20  35  54  92 132 164 200 250 316 373
#     4  10  25  47  66  89 126 169 223 272 322 387
#     4  12  23  42  65 101 137 170 211 271 335 385
#     4  11  20  36  60  97 131 171 214 251 317 398
#     4  11  26  48  72  96 127 173 229 271 324 398
#     4  11  20  34  62  95 131 171 212 259 309 398
#     4  11  21  39  64  93 130 171 210 264 319 382
#     4  11  23  38  67  93 131 172 212 262 319 385
#
# _framework density 20.083397999999999
#
# number of rings (size 3 to 8) (size 9 to 14) (size 15 to 20)
#    0.000    1.077    6.154    0.000    4.308    3.077 
#    8.308    1.538    0.000    0.923    0.000    0.000 
#    0.000    0.000    0.000    0.000    0.000    0.000 
#
# Total GULP energy -644242.222533 kJ/mol
# GULP energy per Si atom -12389.273510 kJ/mol
# Density = 2.003769 g / cm^3
# Si number density = 20.083398 Si / 1000 Ang^3
#
#
#
# Elastic Constant Matrix: (Units=GPa)
#
#
# Indices 1 2 3 4 5 6 
#
# 1 71.9358 45.6662 26.6534 0.0000 0.0000 0.0000
# 2 45.6662 129.9140 56.8861 0.0000 0.0000 0.0000
# 3 26.6534 56.8861 122.5188 0.0000 0.0000 0.0000
# 4 0.0000 0.0000 0.0000 31.8776 0.0000 0.0000
# 5 0.0000 0.0000 0.0000 0.0000 25.2088 0.0000
# 6 0.0000 0.0000 0.0000 0.0000 0.0000 16.0774
#
#
#
# Elastic Compliance Matrix: (Units=1/GPa)
#
#
# Indices 1 2 3 4 5 6 
#
# 1 0.018041 -0.005803 -0.001230 0.000000 0.000000 0.000000
# 2 -0.005803 0.011528 -0.004090 0.000000 0.000000 0.000000
# 3 -0.001230 -0.004090 0.010329 0.000000 0.000000 0.000000
# 4 0.000000 0.000000 0.000000 0.031370 0.000000 0.000000
# 5 0.000000 0.000000 0.000000 0.000000 0.039669 0.000000
# 6 0.000000 0.000000 0.000000 0.000000 0.000000 0.062199
#
#
# Mechanical properties :
#
#
# Convention : Reuss Voigt Hill
#
# Bulk Modulus (GPa) = 56.65420 64.75335 60.70378
# Shear Modulus (GPa) = 24.84271 27.64361 26.24316
#
# Velocity S-wave (km/s) = 3.52088 3.71407 3.61876
# Velocity P-wave (km/s) = 6.69325 7.12072 6.91029
#
# Compressibility (1/GPa) = 0.01765094
#
# Stress axis : x y z
#
# Youngs Moduli (GPa) = 55.42961 86.74425 96.81664
#
# Poissons Ratio (x) = 0.50336 0.11913
# Poissons Ratio (y) = 0.32165 0.39600
# Poissons Ratio (z) = 0.06820 0.35480
#
# Static dielectric constant tensor:
#      x y z
#    x 3.458150 0.000000 0.000000 
#    y 0.000000 3.730450 0.000000 
#    z 0.000000 0.000000 4.046450 
# 
# 
# High freq. dielectric constant tensor:
#      x y z
#    x 1.756500 0.000000 0.000000 
#    y 0.000000 1.774530 0.000000 
#    z 0.000000 0.000000 1.811640 
# 
# From -- ./inp_files/12527.got.cif
#   From: 2010.03.12/outbox.cif.g09.slc.cpg/sg53_7_cif.got.tgz:12527.got - 2010.04.16 14:36:59.
