data_PCOD8220351
_publ_section_title
;
Structure prediction by ZEFSAII (Michael W. Deem and Ramdas Pophale) SiO2 
 PCOD8220351
Probable space group: P M N A
;
_chemical_formula_sum "Si O2"
_cell_formula_units_Z 48
_cell_length_a 9.263504
_cell_length_b 9.719102
_cell_length_c 29.305463
_cell_angle_alpha 90.000000
_cell_angle_beta 90.000000
_cell_angle_gamma 90.000000
_cell_volume 2638.456999
_symmetry_space_group_name_H-M "P M N A"
_symmetry_group_IT_number 53
_symmetry_cell_setting 'orthorhombic'
loop_
_space_group_symop_operation_xyz
x,y,z
1/2-x,-y,1/2+z
x,-y,-z
1/2-x,y,1/2-z
-x,-y,-z
1/2+x,y,1/2-z
-x,y,z
1/2+x,-y,1/2+z
loop_
_atom_site_type_symbol
_atom_site_label
_atom_site_fract_x
_atom_site_fract_y
_atom_site_fract_z
Si Si1 0.170035 0.028894 0.296133
Si Si2 0.829513 0.526942 0.378958
Si Si3 0.829637 0.785885 0.621319
Si Si4 0.832529 0.286063 0.705165
Si Si5 0.336057 0.849288 0.979820
Si Si6 0.667246 0.374199 0.533416
O O1 0.250000 0.075004 0.250000
O O2 0.233032 0.120772 0.337674
O O3 0.000000 0.051190 0.288894
O O4 0.206181 0.870657 0.308259
O O5 0.773896 0.370518 0.373520
O O6 0.783743 0.611924 0.334613
O O7 0.751468 0.600070 0.420390
O O8 0.000000 0.532508 0.387963
O O9 0.780536 0.847392 0.572548
O O10 0.000000 0.790629 0.625248
O O11 0.750000 0.334313 0.750000
O O12 0.000000 0.301110 0.715775
O O13 0.500000 0.790551 0.982145
O O14 0.229367 0.760941 0.010183
O O15 0.330435 0.000000 0.000000
O O16 0.694263 0.500000 0.500000
O O17 0.500000 0.351344 0.544401
#
# Coordination Sequence:
#
# PCOD8220351 Si02
#       6
#     8   8   8   8   8   8
#     4   9  18  34  53  75 105 137 173 217 268 321
#     4  10  20  35  57  81 105 142 186 226 269 319
#     4   9  18  33  53  79 107 135 175 226 267 311
#     4   9  19  34  55  79 106 138 176 222 270 324
#     4  10  21  36  59  85 108 142 187 230 273 325
#     4  11  23  38  55  79 115 151 181 222 277 329
#
# _framework density 18.192451999999999
#
# number of rings (size 3 to 8) (size 9 to 14) (size 15 to 20)
#    0.000    2.333    1.667    0.500    2.333    2.333 
#    0.000    1.667    0.000    0.000    0.000    0.000 
#    0.000    0.000    0.000    0.000    0.000    0.000 
#
# Total GULP energy -595265.975016 kJ/mol
# GULP energy per Si atom -12401.374480 kJ/mol
# Density = 1.815104 g / cm^3
# Si number density = 18.192452 Si / 1000 Ang^3
#
#
#
# Elastic Constant Matrix: (Units=GPa)
#
#
# Indices 1 2 3 4 5 6 
#
# 1 39.9396 27.1968 47.6962 0.0000 0.0000 0.0000
# 2 27.1968 97.1429 83.5195 0.0000 0.0000 0.0000
# 3 47.6962 83.5195 178.7819 0.0000 0.0000 0.0000
# 4 0.0000 0.0000 0.0000 38.0259 0.0000 0.0000
# 5 0.0000 0.0000 0.0000 0.0000 31.3470 0.0000
# 6 0.0000 0.0000 0.0000 0.0000 0.0000 12.4809
#
#
#
# Elastic Compliance Matrix: (Units=1/GPa)
#
#
# Indices 1 2 3 4 5 6 
#
# 1 0.037314 -0.003155 -0.008481 0.000000 0.000000 0.000000
# 2 -0.003155 0.017471 -0.007320 0.000000 0.000000 0.000000
# 3 -0.008481 -0.007320 0.011276 0.000000 0.000000 0.000000
# 4 0.000000 0.000000 0.000000 0.026298 0.000000 0.000000
# 5 0.000000 0.000000 0.000000 0.000000 0.031901 0.000000
# 6 0.000000 0.000000 0.000000 0.000000 0.000000 0.080122
#
#
# Mechanical properties :
#
#
# Convention : Reuss Voigt Hill
#
# Bulk Modulus (GPa) = 35.52574 70.29884 52.91229
# Shear Modulus (GPa) = 19.86678 26.86757 23.36718
#
# Velocity S-wave (km/s) = 3.30818 3.84715 3.58780
# Velocity P-wave (km/s) = 5.84484 7.64590 6.80522
#
# Compressibility (1/GPa) = 0.02814860
#
# Stress axis : x y z
#
# Youngs Moduli (GPa) = 26.79943 57.23836 88.68783
#
# Poissons Ratio (x) = 0.18060 0.75215
# Poissons Ratio (y) = 0.08456 0.64918
# Poissons Ratio (z) = 0.22728 0.41898
#
# Static dielectric constant tensor:
#      x y z
#    x 3.185740 0.000000 0.000000 
#    y 0.000000 3.479900 0.000000 
#    z 0.000000 0.000000 3.711570 
# 
# 
# High freq. dielectric constant tensor:
#      x y z
#    x 1.681790 0.000000 0.000000 
#    y 0.000000 1.710570 0.000000 
#    z 0.000000 0.000000 1.716340 
# 
# From -- ./inp_files/37728.got.cif
#   From: 2010.03.12/outbox.cif.g09.slc.cpg/sg53_19_cif.got.tgz:37728.got - 2010.04.16 14:36:59.
