data_PCOD8220848
_publ_section_title
;
Structure prediction by ZEFSAII (Michael W. Deem and Ramdas Pophale) SiO2 
 PCOD8220848
Probable space group: P M N A
;
_chemical_formula_sum "Si O2"
_cell_formula_units_Z 40
_cell_length_a 16.006374
_cell_length_b 12.823593
_cell_length_c 9.088986
_cell_angle_alpha 90.000000
_cell_angle_beta 90.000000
_cell_angle_gamma 90.000000
_cell_volume 1865.598228
_symmetry_space_group_name_H-M "P M N A"
_symmetry_group_IT_number 53
_symmetry_cell_setting 'orthorhombic'
loop_
_space_group_symop_operation_xyz
x,y,z
1/2-x,-y,1/2+z
x,-y,-z
1/2-x,y,1/2-z
-x,-y,-z
1/2+x,y,1/2-z
-x,y,z
1/2+x,-y,1/2+z
loop_
_atom_site_type_symbol
_atom_site_label
_atom_site_fract_x
_atom_site_fract_y
_atom_site_fract_z
Si Si1 0.160624 0.313038 0.814235
Si Si2 0.901032 0.114994 0.663580
Si Si3 0.405235 0.504646 0.839755
Si Si4 0.399643 0.690478 0.638017
Si Si5 0.901229 0.117561 0.333673
O O1 0.250000 0.346743 0.750000
O O2 0.141451 0.194046 0.775024
O O3 0.096161 0.392936 0.739765
O O4 0.152472 0.321504 0.988972
O O5 0.869231 0.142103 0.498784
O O6 0.000000 0.125481 0.675460
O O7 0.872020 0.998754 0.711578
O O8 0.500000 0.539129 0.866527
O O9 0.366627 0.595012 0.737835
O O10 0.360163 0.500000 0.000000
O O11 0.500000 0.688461 0.608894
O O12 0.369597 0.797286 0.716968
O O13 0.000000 0.120423 0.339917
#
# Coordination Sequence:
#
# PCOD8220848 Si02
#       5
#     8   8   8   8   8
#     4  12  25  37  51  79 119 157 190 226 277 336
#     4   9  17  35  60  83 111 146 188 235 283 335
#     4  10  21  39  64  87 107 140 188 239 289 340
#     4  10  20  37  62  89 114 143 187 240 289 337
#     4   8  16  33  61  89 108 138 187 241 289 331
#
# _framework density 21.440843999999998
#
# number of rings (size 3 to 8) (size 9 to 14) (size 15 to 20)
#    0.000    2.200    0.000    4.800    0.000    7.200 
#    0.000   10.000    0.000    0.000    0.000    0.000 
#    0.000    0.000    0.000    0.000    0.000    0.000 
#
# Total GULP energy -495898.157946 kJ/mol
# GULP energy per Si atom -12397.453949 kJ/mol
# Density = 2.139204 g / cm^3
# Si number density = 21.440844 Si / 1000 Ang^3
#
#
#
# Elastic Constant Matrix: (Units=GPa)
#
#
# Indices 1 2 3 4 5 6 
#
# 1 34.7910 12.5898 31.0001 0.0000 0.0000 0.0000
# 2 12.5898 152.4493 91.8031 0.0000 0.0000 0.0000
# 3 31.0001 91.8031 192.0936 0.0000 0.0000 0.0000
# 4 0.0000 0.0000 0.0000 43.5498 0.0000 0.0000
# 5 0.0000 0.0000 0.0000 0.0000 18.0363 0.0000
# 6 0.0000 0.0000 0.0000 0.0000 0.0000 1.4945
#
#
#
# Elastic Compliance Matrix: (Units=1/GPa)
#
#
# Indices 1 2 3 4 5 6 
#
# 1 0.033622 0.000689 -0.005755 0.000000 0.000000 0.000000
# 2 0.000689 0.009224 -0.004520 0.000000 0.000000 0.000000
# 3 -0.005755 -0.004520 0.008295 0.000000 0.000000 0.000000
# 4 0.000000 0.000000 0.000000 0.022962 0.000000 0.000000
# 5 0.000000 0.000000 0.000000 0.000000 0.055444 0.000000
# 6 0.000000 0.000000 0.000000 0.000000 0.000000 0.669142
#
#
# Mechanical properties :
#
#
# Convention : Reuss Voigt Hill
#
# Bulk Modulus (GPa) = 31.28003 72.23554 51.75779
# Shear Modulus (GPa) = 6.03488 28.87883 17.45686
#
# Velocity S-wave (km/s) = 1.67952 3.67401 2.85649
# Velocity P-wave (km/s) = 4.28739 7.19455 5.92213
#
# Compressibility (1/GPa) = 0.03196927
#
# Stress axis : x y z
#
# Youngs Moduli (GPa) = 29.74256 108.40966 120.56172
#
# Poissons Ratio (x) = -0.07471 0.69386
# Poissons Ratio (y) = -0.02050 0.54489
# Poissons Ratio (z) = 0.17118 0.48996
#
# Static dielectric constant tensor:
#      x y z
#    x 3.353160 0.000000 0.000000 
#    y 0.000000 4.170320 0.000000 
#    z 0.000000 0.000000 3.997390 
# 
# 
# High freq. dielectric constant tensor:
#      x y z
#    x 1.795720 0.000000 0.000000 
#    y 0.000000 1.857380 0.000000 
#    z 0.000000 0.000000 1.846340 
# 
# From -- ./inp_files/8373.got.cif
#   From: 2010.03.12/outbox.cif.g09.slc.cpg/sg53_5_cif.got.tgz:8373.got - 2010.04.16 14:36:59.
