data_PCOD8220014
_publ_section_title
;
Structure prediction by ZEFSAII (Michael W. Deem and Ramdas Pophale) SiO2 
 PCOD8220014
Probable space group: P M N A
;
_chemical_formula_sum "Si O2"
_cell_formula_units_Z 64
_cell_length_a 8.892094
_cell_length_b 17.334682
_cell_length_c 19.962193
_cell_angle_alpha 90.000000
_cell_angle_beta 90.000000
_cell_angle_gamma 90.000000
_cell_volume 3077.004804
_symmetry_space_group_name_H-M "P M N A"
_symmetry_group_IT_number 53
_symmetry_cell_setting 'orthorhombic'
loop_
_space_group_symop_operation_xyz
x,y,z
1/2-x,-y,1/2+z
x,-y,-z
1/2-x,y,1/2-z
-x,-y,-z
1/2+x,y,1/2-z
-x,y,z
1/2+x,-y,1/2+z
loop_
_atom_site_type_symbol
_atom_site_label
_atom_site_fract_x
_atom_site_fract_y
_atom_site_fract_z
Si Si1 0.823841 0.709893 0.181649
Si Si2 0.823413 0.073331 0.543445
Si Si3 0.676260 0.732189 0.815148
Si Si4 0.676715 0.887423 0.320360
Si Si5 0.331642 0.620547 0.501000
Si Si6 0.176560 0.570591 0.382540
Si Si7 0.823346 0.225711 0.462969
Si Si8 0.168364 0.576298 0.846976
O O1 0.750000 0.682473 0.250000
O O2 0.783280 0.798251 0.166327
O O3 0.746739 0.655666 0.127417
O O4 0.000000 0.695794 0.185238
O O5 0.741881 0.067521 0.615485
O O6 0.774836 0.147074 0.499379
O O7 0.000000 0.073764 0.557967
O O8 0.773991 0.000000 0.500000
O O9 0.750000 0.774135 0.750000
O O10 0.500000 0.730334 0.804697
O O11 0.719727 0.777242 0.883537
O O12 0.735864 0.644489 0.814713
O O13 0.750000 0.915354 0.250000
O O14 0.500000 0.902273 0.314830
O O15 0.500000 0.623168 0.470013
O O16 0.225502 0.560849 0.460004
O O17 0.266849 0.707041 0.500815
O O18 0.338068 0.587110 0.574417
O O19 0.248794 0.505578 0.334113
O O20 0.000000 0.569260 0.371936
O O21 0.000000 0.242534 0.470264
O O22 0.000000 0.574853 0.816362
#
# Coordination Sequence:
#
# PCOD8220014 Si02
#       8
#     8   8   8   8   8   8   8   8
#     4  10  21  37  55  77 105 138 180 226 272 323
#     4  10  21  38  61  90 125 160 192 231 281 336
#     4  10  20  36  57  80 106 141 189 239 290 346
#     4  10  21  38  62  89 118 155 196 237 281 336
#     4  10  20  34  53  76 102 135 178 228 280 334
#     4  12  23  33  49  74 105 141 180 225 279 336
#     4   9  19  36  58  83 112 148 189 234 285 343
#     4  10  21  36  52  72 101 137 179 229 284 337
#
# _framework density 20.799448000000002
#
# number of rings (size 3 to 8) (size 9 to 14) (size 15 to 20)
#    0.000    1.875    0.000    4.125    0.000    8.250 
#    0.000    3.125    0.000    1.500    0.000    0.000 
#    0.000    0.000    0.000    0.000    0.000    0.000 
#
# Total GULP energy -793475.855602 kJ/mol
# GULP energy per Si atom -12398.060244 kJ/mol
# Density = 2.075211 g / cm^3
# Si number density = 20.799448 Si / 1000 Ang^3
#
#
#
# Elastic Constant Matrix: (Units=GPa)
#
#
# Indices 1 2 3 4 5 6 
#
# 1 102.6439 33.9085 43.0415 0.0000 0.0000 0.0000
# 2 33.9085 76.5007 36.0207 0.0000 0.0000 0.0000
# 3 43.0415 36.0207 118.4714 0.0000 0.0000 0.0000
# 4 0.0000 0.0000 0.0000 16.1151 0.0000 0.0000
# 5 0.0000 0.0000 0.0000 0.0000 38.0801 0.0000
# 6 0.0000 0.0000 0.0000 0.0000 0.0000 21.3217
#
#
#
# Elastic Compliance Matrix: (Units=1/GPa)
#
#
# Indices 1 2 3 4 5 6 
#
# 1 0.012439 -0.003951 -0.003318 0.000000 0.000000 0.000000
# 2 -0.003951 0.016511 -0.003585 0.000000 0.000000 0.000000
# 3 -0.003318 -0.003585 0.010736 0.000000 0.000000 0.000000
# 4 0.000000 0.000000 0.000000 0.062054 0.000000 0.000000
# 5 0.000000 0.000000 0.000000 0.000000 0.026260 0.000000
# 6 0.000000 0.000000 0.000000 0.000000 0.000000 0.046901
#
#
# Mechanical properties :
#
#
# Convention : Reuss Voigt Hill
#
# Bulk Modulus (GPa) = 55.62119 58.17303 56.89711
# Shear Modulus (GPa) = 24.67907 27.41306 26.04606
#
# Velocity S-wave (km/s) = 3.44833 3.63432 3.54255
# Velocity P-wave (km/s) = 6.53103 6.75576 6.64435
#
# Compressibility (1/GPa) = 0.01797876
#
# Stress axis : x y z
#
# Youngs Moduli (GPa) = 80.39236 60.56578 93.14371
#
# Poissons Ratio (x) = 0.23931 0.30903
# Poissons Ratio (y) = 0.31766 0.33388
# Poissons Ratio (z) = 0.26673 0.21710
#
# Static dielectric constant tensor:
#      x y z
#    x 3.835760 0.000000 0.000000 
#    y 0.000000 3.593980 0.000000 
#    z 0.000000 0.000000 3.960760 
# 
# 
# High freq. dielectric constant tensor:
#      x y z
#    x 1.818110 0.000000 0.000000 
#    y 0.000000 1.787450 0.000000 
#    z 0.000000 0.000000 1.829530 
# 
# From -- ./inp_files/31231.got.cif
#   From: 2010.03.12/outbox.cif.g09.slc.cpg/sg53_16_cif.got.tgz:31231.got - 2010.04.16 14:36:59.
