data_PCOD8220742
_publ_section_title
;
Structure prediction by ZEFSAII (Michael W. Deem and Ramdas Pophale) SiO2 
 PCOD8220742
Probable space group: P M N A
;
_chemical_formula_sum "Si O2"
_cell_formula_units_Z 56
_cell_length_a 14.876128
_cell_length_b 18.309497
_cell_length_c 10.455897
_cell_angle_alpha 90.000000
_cell_angle_beta 90.000000
_cell_angle_gamma 90.000000
_cell_volume 2847.918891
_symmetry_space_group_name_H-M "P M N A"
_symmetry_group_IT_number 53
_symmetry_cell_setting 'orthorhombic'
loop_
_space_group_symop_operation_xyz
x,y,z
1/2-x,-y,1/2+z
x,-y,-z
1/2-x,y,1/2-z
-x,-y,-z
1/2+x,y,1/2-z
-x,y,z
1/2+x,-y,1/2+z
loop_
_atom_site_type_symbol
_atom_site_label
_atom_site_fract_x
_atom_site_fract_y
_atom_site_fract_z
Si Si1 0.393994 0.527018 0.633937
Si Si2 0.237896 0.921471 0.053621
Si Si3 0.148764 0.384529 0.761368
Si Si4 0.101129 0.674633 0.965137
Si Si5 0.106683 0.879252 0.272196
Si Si6 0.249662 0.781861 0.899975
Si Si7 0.401360 0.734421 0.079016
O O1 0.352056 0.500000 0.500000
O O2 0.500000 0.518367 0.633226
O O3 0.356676 0.473834 0.746994
O O4 0.368773 0.613348 0.641583
O O5 0.152904 0.891829 0.135106
O O6 0.333172 0.927220 0.129190
O O7 0.251240 0.867015 0.934852
O O8 0.211750 0.000000 0.000000
O O9 0.250000 0.356932 0.750000
O O10 0.099035 0.345814 0.642984
O O11 0.104276 0.360141 0.893900
O O12 0.160491 0.746217 0.957199
O O13 0.000000 0.700011 0.937871
O O14 0.120018 0.794536 0.311101
O O15 0.000000 0.901480 0.272386
O O16 0.250000 0.772392 0.750000
O O17 0.334232 0.739576 0.960292
O O18 0.500000 0.748864 0.021623
#
# Coordination Sequence:
#
# PCOD8220742 Si02
#       7
#     8   8   8   8   8   8   8
#     4   8  16  30  49  78 112 148 188 234 287 340
#     4  10  22  38  63  88 119 154 192 242 299 352
#     4  11  18  29  57  90 117 148 197 248 297 339
#     4  10  20  37  58  84 121 159 196 242 294 351
#     4   9  20  38  61  88 118 150 192 244 294 344
#     4  11  24  39  59  85 117 156 201 238 297 367
#     4  10  20  37  59  86 119 152 194 248 296 345
#
# _framework density 19.663481999999998
#
# number of rings (size 3 to 8) (size 9 to 14) (size 15 to 20)
#    0.000    2.143    1.429    3.000    4.000    3.429 
#    0.000    0.000    0.000    0.000    0.000    4.000 
#    0.000    0.000    0.000    0.000    0.000    0.000 
#
# Total GULP energy -694010.630313 kJ/mol
# GULP energy per Si atom -12393.046970 kJ/mol
# Density = 1.961873 g / cm^3
# Si number density = 19.663482 Si / 1000 Ang^3
#
#
#
# Elastic Constant Matrix: (Units=GPa)
#
#
# Indices 1 2 3 4 5 6 
#
# 1 124.7341 33.8725 36.6954 0.0000 0.0000 0.0000
# 2 33.8725 91.7136 41.5627 0.0000 0.0000 0.0000
# 3 36.6954 41.5627 91.3968 0.0000 0.0000 0.0000
# 4 0.0000 0.0000 0.0000 23.4938 0.0000 0.0000
# 5 0.0000 0.0000 0.0000 0.0000 6.8266 0.0000
# 6 0.0000 0.0000 0.0000 0.0000 0.0000 24.2996
#
#
#
# Elastic Compliance Matrix: (Units=1/GPa)
#
#
# Indices 1 2 3 4 5 6 
#
# 1 0.009439 -0.002228 -0.002777 0.000000 0.000000 0.000000
# 2 -0.002228 0.014260 -0.005590 0.000000 0.000000 0.000000
# 3 -0.002777 -0.005590 0.014598 0.000000 0.000000 0.000000
# 4 0.000000 0.000000 0.000000 0.042564 0.000000 0.000000
# 5 0.000000 0.000000 0.000000 0.000000 0.146485 0.000000
# 6 0.000000 0.000000 0.000000 0.000000 0.000000 0.041153
#
#
# Mechanical properties :
#
#
# Convention : Reuss Voigt Hill
#
# Bulk Modulus (GPa) = 58.45310 59.12287 58.78799
# Shear Modulus (GPa) = 16.92673 23.97159 20.44916
#
# Velocity S-wave (km/s) = 2.93716 3.49534 3.22833
# Velocity P-wave (km/s) = 6.42602 6.81340 6.62255
#
# Compressibility (1/GPa) = 0.01710773
#
# Stress axis : x y z
#
# Youngs Moduli (GPa) = 105.94498 70.12816 68.50162
#
# Poissons Ratio (x) = 0.15623 0.19020
# Poissons Ratio (y) = 0.23602 0.38293
# Poissons Ratio (z) = 0.29417 0.39203
#
# Static dielectric constant tensor:
#      x y z
#    x 3.653010 0.000000 0.000000 
#    y 0.000000 3.622320 0.000000 
#    z 0.000000 0.000000 3.285460 
# 
# 
# High freq. dielectric constant tensor:
#      x y z
#    x 1.771290 0.000000 0.000000 
#    y 0.000000 1.761140 0.000000 
#    z 0.000000 0.000000 1.734280 
# 
# From -- ./inp_files/8855.got.cif
#   From: 2010.03.12/outbox.cif.g09.slc.cpg/sg53_5_cif.got.tgz:8855.got - 2010.04.16 14:36:59.
