data_PCOD8220818
_publ_section_title
;
Structure prediction by ZEFSAII (Michael W. Deem and Ramdas Pophale) SiO2 
 PCOD8220818
Probable space group: P M N A
;
_chemical_formula_sum "Si O2"
_cell_formula_units_Z 48
_cell_length_a 9.026432
_cell_length_b 18.577779
_cell_length_c 14.709844
_cell_angle_alpha 90.000000
_cell_angle_beta 90.000000
_cell_angle_gamma 90.000000
_cell_volume 2466.709316
_symmetry_space_group_name_H-M "P M N A"
_symmetry_group_IT_number 53
_symmetry_cell_setting 'orthorhombic'
loop_
_space_group_symop_operation_xyz
x,y,z
1/2-x,-y,1/2+z
x,-y,-z
1/2-x,y,1/2-z
-x,-y,-z
1/2+x,y,1/2-z
-x,y,z
1/2+x,-y,1/2+z
loop_
_atom_site_type_symbol
_atom_site_label
_atom_site_fract_x
_atom_site_fract_y
_atom_site_fract_z
Si Si1 0.332176 0.506576 0.606841
Si Si2 0.674036 0.111409 0.518157
Si Si3 0.675502 0.333950 0.342476
Si Si4 0.327200 0.016322 0.348041
Si Si5 0.672995 0.633595 0.162157
Si Si6 0.325438 0.741527 0.004037
O O1 0.322595 0.500000 0.500000
O O2 0.500000 0.493717 0.640978
O O3 0.273322 0.585037 0.634549
O O4 0.225932 0.448410 0.651926
O O5 0.500000 0.129593 0.520022
O O6 0.714395 0.057624 0.600603
O O7 0.772306 0.181102 0.538464
O O8 0.717259 0.079704 0.418718
O O9 0.750000 0.309268 0.250000
O O10 0.500000 0.327659 0.337328
O O11 0.735791 0.277249 0.414292
O O12 0.250000 0.024248 0.250000
O O13 0.500000 0.019392 0.327937
O O14 0.750000 0.668527 0.250000
O O15 0.500000 0.633692 0.178005
O O16 0.719829 0.681438 0.077019
O O17 0.500000 0.741944 0.985337
#
# Coordination Sequence:
#
# PCOD8220818 Si02
#       6
#     8   8   8   8   8   8
#     4  10  20  37  61  86 111 146 192 241 296 350
#     4   9  20  39  60  84 118 156 188 226 281 341
#     4  11  23  39  60  84 114 151 193 241 293 348
#     4   9  19  37  62  90 117 149 189 229 277 335
#     4  11  24  39  58  83 114 152 195 243 293 346
#     4  11  24  40  58  85 118 153 195 239 286 341
#
# _framework density 19.459123000000002
#
# number of rings (size 3 to 8) (size 9 to 14) (size 15 to 20)
#    0.000    1.833    1.667    3.000    0.000    7.667 
#    0.000    6.667    0.000    0.000    0.000    0.000 
#    0.000    0.000    0.000    0.000    0.000    0.000 
#
# Total GULP energy -595282.196692 kJ/mol
# GULP energy per Si atom -12401.712431 kJ/mol
# Density = 1.941483 g / cm^3
# Si number density = 19.459123 Si / 1000 Ang^3
#
#
#
# Elastic Constant Matrix: (Units=GPa)
#
#
# Indices 1 2 3 4 5 6 
#
# 1 65.7573 29.1635 34.6334 0.0000 0.0000 0.0000
# 2 29.1635 72.5112 6.7571 0.0000 0.0000 0.0000
# 3 34.6334 6.7571 91.9328 0.0000 0.0000 0.0000
# 4 0.0000 0.0000 0.0000 14.6617 0.0000 0.0000
# 5 0.0000 0.0000 0.0000 0.0000 34.3266 0.0000
# 6 0.0000 0.0000 0.0000 0.0000 0.0000 6.3177
#
#
#
# Elastic Compliance Matrix: (Units=1/GPa)
#
#
# Indices 1 2 3 4 5 6 
#
# 1 0.023325 -0.008622 -0.008154 0.000000 0.000000 0.000000
# 2 -0.008622 0.017073 0.001993 0.000000 0.000000 0.000000
# 3 -0.008154 0.001993 0.013803 0.000000 0.000000 0.000000
# 4 0.000000 0.000000 0.000000 0.068205 0.000000 0.000000
# 5 0.000000 0.000000 0.000000 0.000000 0.029132 0.000000
# 6 0.000000 0.000000 0.000000 0.000000 0.000000 0.158285
#
#
# Mechanical properties :
#
#
# Convention : Reuss Voigt Hill
#
# Bulk Modulus (GPa) = 40.58964 41.25659 40.92312
# Shear Modulus (GPa) = 14.38440 21.70435 18.04437
#
# Velocity S-wave (km/s) = 2.72179 3.34336 3.04846
# Velocity P-wave (km/s) = 5.54813 6.01263 5.78505
#
# Compressibility (1/GPa) = 0.02463683
#
# Stress axis : x y z
#
# Youngs Moduli (GPa) = 42.87160 58.57284 72.44972
#
# Poissons Ratio (x) = 0.50499 0.59073
# Poissons Ratio (y) = 0.36962 -0.14440
# Poissons Ratio (z) = 0.34956 -0.11674
#
# Static dielectric constant tensor:
#      x y z
#    x 3.467050 0.000000 0.000000 
#    y 0.000000 3.536570 0.000000 
#    z 0.000000 0.000000 3.796650 
# 
# 
# High freq. dielectric constant tensor:
#      x y z
#    x 1.757190 0.000000 0.000000 
#    y 0.000000 1.754900 0.000000 
#    z 0.000000 0.000000 1.769550 
# 
# From -- ./inp_files/20172.got.cif
#   From: 2010.03.12/outbox.cif.g09.slc.cpg/sg53_11_cif.got.tgz:20172.got - 2010.04.16 14:36:59.
