data_PCOD8220330
_publ_section_title
;
Structure prediction by ZEFSAII (Michael W. Deem and Ramdas Pophale) SiO2 
 PCOD8220330
Probable space group: P M N A
;
_chemical_formula_sum "Si O2"
_cell_formula_units_Z 56
_cell_length_a 8.816267
_cell_length_b 15.253194
_cell_length_c 22.888232
_cell_angle_alpha 90.000000
_cell_angle_beta 90.000000
_cell_angle_gamma 90.000000
_cell_volume 3077.923171
_symmetry_space_group_name_H-M "P M N A"
_symmetry_group_IT_number 53
_symmetry_cell_setting 'orthorhombic'
loop_
_space_group_symop_operation_xyz
x,y,z
1/2-x,-y,1/2+z
x,-y,-z
1/2-x,y,1/2-z
-x,-y,-z
1/2+x,y,1/2-z
-x,y,z
1/2+x,-y,1/2+z
loop_
_atom_site_type_symbol
_atom_site_label
_atom_site_fract_x
_atom_site_fract_y
_atom_site_fract_z
Si Si1 0.177150 0.673472 0.313710
Si Si2 0.177797 0.691463 0.813669
Si Si3 0.825235 0.901296 0.489122
Si Si4 0.324136 0.520597 0.812727
Si Si5 0.821159 0.832239 0.125431
Si Si6 0.828140 0.841399 0.616660
Si Si7 0.323411 0.990171 0.190275
O O1 0.250000 0.684058 0.250000
O O2 0.201015 0.575424 0.340842
O O3 0.255411 0.736881 0.360081
O O4 0.000000 0.695303 0.307639
O O5 0.250000 0.707345 0.750000
O O6 0.242019 0.602428 0.844869
O O7 0.213737 0.772160 0.855883
O O8 0.000000 0.683424 0.805815
O O9 0.723604 0.856458 0.440200
O O10 0.805573 0.843535 0.547216
O O11 0.000000 0.903704 0.467849
O O12 0.767725 0.000000 0.500000
O O13 0.250000 0.516254 0.750000
O O14 0.500000 0.543614 0.807412
O O15 0.000000 0.830778 0.131558
O O16 0.754537 0.900041 0.171991
O O17 0.792195 0.938115 0.640657
O O18 0.000000 0.814702 0.633134
O O19 0.250000 0.024950 0.250000
O O20 0.500000 0.972729 0.199829
#
# Coordination Sequence:
#
# PCOD8220330 Si02
#       7
#     8   8   8   8   8   8   8
#     4  10  20  35  56  82 112 145 181 224 271 325
#     4  11  21  33  53  81 115 147 179 219 268 323
#     4  10  20  40  62  79 101 139 186 229 273 319
#     4   9  17  31  53  79 108 142 180 219 266 321
#     4  12  24  36  54  80 110 144 180 224 269 321
#     4  10  21  37  58  79 105 140 180 225 270 320
#     4  11  22  37  54  77 108 143 179 220 271 322
#
# _framework density 18.194085999999999
#
# number of rings (size 3 to 8) (size 9 to 14) (size 15 to 20)
#    0.000    1.571    1.429    5.571    0.000    4.857 
#    0.000    0.000    0.000    0.857    0.000    6.000 
#    0.000    0.000    0.000    0.000    0.000    0.000 
#
# Total GULP energy -694440.524302 kJ/mol
# GULP energy per Si atom -12400.723648 kJ/mol
# Density = 1.815268 g / cm^3
# Si number density = 18.194086 Si / 1000 Ang^3
#
#
#
# Elastic Constant Matrix: (Units=GPa)
#
#
# Indices 1 2 3 4 5 6 
#
# 1 139.7336 62.3477 34.7356 0.0000 0.0000 0.0000
# 2 62.3477 113.7547 27.2635 0.0000 0.0000 0.0000
# 3 34.7356 27.2635 65.2242 0.0000 0.0000 0.0000
# 4 0.0000 0.0000 0.0000 14.7826 0.0000 0.0000
# 5 0.0000 0.0000 0.0000 0.0000 28.3494 0.0000
# 6 0.0000 0.0000 0.0000 0.0000 0.0000 30.6863
#
#
#
# Elastic Compliance Matrix: (Units=1/GPa)
#
#
# Indices 1 2 3 4 5 6 
#
# 1 0.010113 -0.004725 -0.003410 0.000000 0.000000 0.000000
# 2 -0.004725 0.011977 -0.002490 0.000000 0.000000 0.000000
# 3 -0.003410 -0.002490 0.018189 0.000000 0.000000 0.000000
# 4 0.000000 0.000000 0.000000 0.067647 0.000000 0.000000
# 5 0.000000 0.000000 0.000000 0.000000 0.035274 0.000000
# 6 0.000000 0.000000 0.000000 0.000000 0.000000 0.032588
#
#
# Mechanical properties :
#
#
# Convention : Reuss Voigt Hill
#
# Bulk Modulus (GPa) = 52.55566 63.04512 57.80039
# Shear Modulus (GPa) = 24.58430 27.72138 26.15284
#
# Velocity S-wave (km/s) = 3.67989 3.90763 3.79547
# Velocity P-wave (km/s) = 6.85597 7.42200 7.14459
#
# Compressibility (1/GPa) = 0.01902745
#
# Stress axis : x y z
#
# Youngs Moduli (GPa) = 98.88655 83.48993 54.97884
#
# Poissons Ratio (x) = 0.39451 0.18750
# Poissons Ratio (y) = 0.46726 0.13690
# Poissons Ratio (z) = 0.33724 0.20790
#
# Static dielectric constant tensor:
#      x y z
#    x 3.441620 0.000000 0.000000 
#    y 0.000000 3.860190 0.000000 
#    z 0.000000 0.000000 3.093530 
# 
# 
# High freq. dielectric constant tensor:
#      x y z
#    x 1.716530 0.000000 0.000000 
#    y 0.000000 1.715240 0.000000 
#    z 0.000000 0.000000 1.675540 
# 
# From -- ./inp_files/30753.got.cif
#   From: 2010.03.12/outbox.cif.g09.slc.cpg/sg53_16_cif.got.tgz:30753.got - 2010.04.16 14:36:59.
