data_PCOD8220292
_publ_section_title
;
Structure prediction by ZEFSAII (Michael W. Deem and Ramdas Pophale) SiO2 
 PCOD8220292
Probable space group: P M N A
;
_chemical_formula_sum "Si O2"
_cell_formula_units_Z 64
_cell_length_a 9.235697
_cell_length_b 14.816470
_cell_length_c 23.616822
_cell_angle_alpha 90.000000
_cell_angle_beta 90.000000
_cell_angle_gamma 90.000000
_cell_volume 3231.736019
_symmetry_space_group_name_H-M "P M N A"
_symmetry_group_IT_number 53
_symmetry_cell_setting 'orthorhombic'
loop_
_space_group_symop_operation_xyz
x,y,z
1/2-x,-y,1/2+z
x,-y,-z
1/2-x,y,1/2-z
-x,-y,-z
1/2+x,y,1/2-z
-x,y,z
1/2+x,-y,1/2+z
loop_
_atom_site_type_symbol
_atom_site_label
_atom_site_fract_x
_atom_site_fract_y
_atom_site_fract_z
Si Si1 0.333833 0.798650 0.370378
Si Si2 0.834041 0.861798 0.891193
Si Si3 0.336069 0.554800 0.845365
Si Si4 0.331399 0.226971 0.502145
Si Si5 0.670896 0.015387 0.690386
Si Si6 0.165205 0.712980 0.801104
Si Si7 0.833579 0.593437 0.524611
Si Si8 0.330106 0.355708 0.809294
O O1 0.500000 0.769367 0.360083
O O2 0.307743 0.819036 0.436844
O O3 0.295198 0.886474 0.334169
O O4 0.227315 0.719826 0.351733
O O5 0.768315 0.842180 0.953964
O O6 0.812644 0.768390 0.858157
O O7 0.000000 0.889280 0.898464
O O8 0.763322 0.943621 0.855313
O O9 0.500000 0.570779 0.824571
O O10 0.228602 0.612526 0.806929
O O11 0.316222 0.589108 0.908605
O O12 0.294211 0.450372 0.839102
O O13 0.500000 0.244794 0.489205
O O14 0.253961 0.323356 0.500973
O O15 0.750000 0.002640 0.750000
O O16 0.500000 0.999229 0.700013
O O17 0.250000 0.762709 0.750000
O O18 0.000000 0.705476 0.783254
O O19 0.770493 0.500000 0.500000
O O20 0.000000 0.605298 0.505709
O O21 0.250000 0.347153 0.750000
O O22 0.500000 0.341412 0.799334
#
# Coordination Sequence:
#
# PCOD8220292 Si02
#       8
#     8   8   8   8   8   8   8   8
#     4  10  22  38  60  87 115 150 193 239 289 343
#     4   9  19  36  58  84 116 149 187 233 283 336
#     4  10  21  36  54  80 111 147 189 232 283 341
#     4  10  20  37  58  85 117 150 192 237 284 341
#     4  10  21  39  61  87 116 150 191 237 290 346
#     4  11  21  34  54  80 112 148 185 229 279 333
#     4  10  20  35  55  80 113 152 193 235 282 338
#     4  11  23  39  59  82 114 152 193 241 292 344
#
# _framework density 19.803598999999998
#
# number of rings (size 3 to 8) (size 9 to 14) (size 15 to 20)
#    0.000    1.875    1.250    2.625    0.000    5.750 
#    0.000    3.750    0.000    0.000    0.000    2.625 
#    0.000    0.000    0.000    0.000    0.000    0.000 
#
# Total GULP energy -793573.132303 kJ/mol
# GULP energy per Si atom -12399.580192 kJ/mol
# Density = 1.975852 g / cm^3
# Si number density = 19.803599 Si / 1000 Ang^3
#
#
#
# Elastic Constant Matrix: (Units=GPa)
#
#
# Indices 1 2 3 4 5 6 
#
# 1 66.9887 31.6839 36.0879 0.0000 0.0000 0.0000
# 2 31.6839 88.3231 31.1115 0.0000 0.0000 0.0000
# 3 36.0879 31.1115 83.9127 0.0000 0.0000 0.0000
# 4 0.0000 0.0000 0.0000 34.0980 0.0000 0.0000
# 5 0.0000 0.0000 0.0000 0.0000 28.8637 0.0000
# 6 0.0000 0.0000 0.0000 0.0000 0.0000 22.0187
#
#
#
# Elastic Compliance Matrix: (Units=1/GPa)
#
#
# Indices 1 2 3 4 5 6 
#
# 1 0.021229 -0.005060 -0.007254 0.000000 0.000000 0.000000
# 2 -0.005060 0.014229 -0.003099 0.000000 0.000000 0.000000
# 3 -0.007254 -0.003099 0.016186 0.000000 0.000000 0.000000
# 4 0.000000 0.000000 0.000000 0.029327 0.000000 0.000000
# 5 0.000000 0.000000 0.000000 0.000000 0.034646 0.000000
# 6 0.000000 0.000000 0.000000 0.000000 0.000000 0.045416
#
#
# Mechanical properties :
#
#
# Convention : Reuss Voigt Hill
#
# Bulk Modulus (GPa) = 48.03714 48.55457 48.29585
# Shear Modulus (GPa) = 25.15112 26.35215 25.75164
#
# Velocity S-wave (km/s) = 3.56761 3.65180 3.60995
# Velocity P-wave (km/s) = 6.42494 6.50785 6.46653
#
# Compressibility (1/GPa) = 0.02081723
#
# Stress axis : x y z
#
# Youngs Moduli (GPa) = 47.10547 70.27867 61.78259
#
# Poissons Ratio (x) = 0.35563 0.44815
# Poissons Ratio (y) = 0.23837 0.19148
# Poissons Ratio (z) = 0.34169 0.21781
#
# Static dielectric constant tensor:
#      x y z
#    x 3.473470 0.000000 0.000000 
#    y 0.000000 3.614400 0.000000 
#    z 0.000000 0.000000 3.838540 
# 
# 
# High freq. dielectric constant tensor:
#      x y z
#    x 1.751410 0.000000 0.000000 
#    y 0.000000 1.771520 0.000000 
#    z 0.000000 0.000000 1.790400 
# 
# From -- ./inp_files/34280.got.cif
#   From: 2010.03.12/outbox.cif.g09.slc.cpg/sg53_18_cif.got.tgz:34280.got - 2010.04.16 14:36:59.
