data_PCOD8220474
_publ_section_title
;
Structure prediction by ZEFSAII (Michael W. Deem and Ramdas Pophale) SiO2 
 PCOD8220474
Probable space group: P M N A
;
_chemical_formula_sum "Si O2"
_cell_formula_units_Z 64
_cell_length_a 8.821467
_cell_length_b 16.787714
_cell_length_c 23.719098
_cell_angle_alpha 90.000000
_cell_angle_beta 90.000000
_cell_angle_gamma 90.000000
_cell_volume 3512.614948
_symmetry_space_group_name_H-M "P M N A"
_symmetry_group_IT_number 53
_symmetry_cell_setting 'orthorhombic'
loop_
_space_group_symop_operation_xyz
x,y,z
1/2-x,-y,1/2+z
x,-y,-z
1/2-x,y,1/2-z
-x,-y,-z
1/2+x,y,1/2-z
-x,y,z
1/2+x,-y,1/2+z
loop_
_atom_site_type_symbol
_atom_site_label
_atom_site_fract_x
_atom_site_fract_y
_atom_site_fract_z
Si Si1 0.172999 0.315429 0.981283
Si Si2 0.324440 0.531766 0.406400
Si Si3 0.820162 0.272844 0.187920
Si Si4 0.321440 0.366093 0.087806
Si Si5 0.323853 0.900200 0.690239
Si Si6 0.321441 0.229043 0.629103
Si Si7 0.679201 0.626597 0.190571
Si Si8 0.677908 0.071654 0.688872
O O1 0.194579 0.402565 0.954697
O O2 0.222744 0.248354 0.935679
O O3 0.000000 0.301915 0.000201
O O4 0.277687 0.306611 0.036554
O O5 0.500000 0.519211 0.391153
O O6 0.252424 0.450280 0.428390
O O7 0.234092 0.557977 0.351209
O O8 0.750000 0.283037 0.250000
O O9 0.745526 0.336764 0.146954
O O10 0.779919 0.184356 0.161551
O O11 0.000000 0.286903 0.191282
O O12 0.500000 0.373412 0.093304
O O13 0.250000 0.902097 0.750000
O O14 0.500000 0.899811 0.701098
O O15 0.277383 0.984834 0.661067
O O16 0.500000 0.244910 0.637393
O O17 0.233946 0.286609 0.671407
O O18 0.271315 0.139134 0.644292
O O19 0.750000 0.604809 0.250000
O O20 0.500000 0.626171 0.194556
O O21 0.750000 0.086068 0.750000
O O22 0.500000 0.077578 0.698743
#
# Coordination Sequence:
#
# PCOD8220474 Si02
#       8
#     8   8   8   8   8   8   8   8
#     4   9  19  36  55  74  99 133 169 207 251 295
#     4  10  21  38  57  76  99 129 167 210 256 301
#     4  10  20  36  56  78 105 134 165 204 253 304
#     4  12  24  36  54  79 102 128 166 208 250 300
#     4   8  15  28  48  73 101 132 165 203 247 295
#     4   9  18  32  50  73 103 137 172 210 251 295
#     4  11  21  33  49  71 103 139 173 207 248 298
#     4   9  16  27  46  75 106 135 169 207 247 295
#
# _framework density 18.220044000000001
#
# number of rings (size 3 to 8) (size 9 to 14) (size 15 to 20)
#    0.000    2.250    0.000    4.500    0.000    6.500 
#    0.000    2.500    0.000    0.750    0.000    5.250 
#    0.000    0.000    0.000    0.000    0.000    0.000 
#
# Total GULP energy -793154.340898 kJ/mol
# GULP energy per Si atom -12393.036577 kJ/mol
# Density = 1.817857 g / cm^3
# Si number density = 18.220044 Si / 1000 Ang^3
#
#
#
# Elastic Constant Matrix: (Units=GPa)
#
#
# Indices 1 2 3 4 5 6 
#
# 1 81.3007 24.3046 29.1056 0.0000 0.0000 0.0000
# 2 24.3046 73.6448 21.3058 0.0000 0.0000 0.0000
# 3 29.1056 21.3058 75.2729 0.0000 0.0000 0.0000
# 4 0.0000 0.0000 0.0000 17.1690 0.0000 0.0000
# 5 0.0000 0.0000 0.0000 0.0000 28.1756 0.0000
# 6 0.0000 0.0000 0.0000 0.0000 0.0000 21.1723
#
#
#
# Elastic Compliance Matrix: (Units=1/GPa)
#
#
# Indices 1 2 3 4 5 6 
#
# 1 0.015099 -0.003588 -0.004823 0.000000 0.000000 0.000000
# 2 -0.003588 0.015642 -0.003040 0.000000 0.000000 0.000000
# 3 -0.004823 -0.003040 0.016010 0.000000 0.000000 0.000000
# 4 0.000000 0.000000 0.000000 0.058245 0.000000 0.000000
# 5 0.000000 0.000000 0.000000 0.000000 0.035492 0.000000
# 6 0.000000 0.000000 0.000000 0.000000 0.000000 0.047232
#
#
# Mechanical properties :
#
#
# Convention : Reuss Voigt Hill
#
# Bulk Modulus (GPa) = 41.92863 42.18341 42.05602
# Shear Modulus (GPa) = 22.87580 23.67018 23.27299
#
# Velocity S-wave (km/s) = 3.54719 3.60825 3.57785
# Velocity P-wave (km/s) = 6.31182 6.36881 6.34038
#
# Compressibility (1/GPa) = 0.02385005
#
# Stress axis : x y z
#
# Youngs Moduli (GPa) = 66.22880 63.92916 62.45959
#
# Poissons Ratio (x) = 0.22937 0.30123
# Poissons Ratio (y) = 0.23762 0.18989
# Poissons Ratio (z) = 0.31941 0.19436
#
# Static dielectric constant tensor:
#      x y z
#    x 3.316950 0.000000 0.000000 
#    y 0.000000 3.898320 0.000000 
#    z 0.000000 0.000000 3.156990 
# 
# 
# High freq. dielectric constant tensor:
#      x y z
#    x 1.709230 0.000000 0.000000 
#    y 0.000000 1.708640 0.000000 
#    z 0.000000 0.000000 1.684180 
# 
# From -- ./inp_files/34456.got.cif
#   From: 2010.03.12/outbox.cif.g09.slc.cpg/sg53_18_cif.got.tgz:34456.got - 2010.04.16 14:36:59.
