data_PCOD8220546
_publ_section_title
;
Structure prediction by ZEFSAII (Michael W. Deem and Ramdas Pophale) SiO2 
 PCOD8220546
Probable space group: P M N A
;
_chemical_formula_sum "Si O2"
_cell_formula_units_Z 64
_cell_length_a 8.728185
_cell_length_b 11.812256
_cell_length_c 31.018982
_cell_angle_alpha 90.000000
_cell_angle_beta 90.000000
_cell_angle_gamma 90.000000
_cell_volume 3198.043260
_symmetry_space_group_name_H-M "P M N A"
_symmetry_group_IT_number 53
_symmetry_cell_setting 'orthorhombic'
loop_
_space_group_symop_operation_xyz
x,y,z
1/2-x,-y,1/2+z
x,-y,-z
1/2-x,y,1/2-z
-x,-y,-z
1/2+x,y,1/2-z
-x,y,z
1/2+x,-y,1/2+z
loop_
_atom_site_type_symbol
_atom_site_label
_atom_site_fract_x
_atom_site_fract_y
_atom_site_fract_z
Si Si1 0.678028 0.859891 0.616073
Si Si2 0.321265 0.745009 0.055458
Si Si3 0.324302 0.232706 0.705774
Si Si4 0.175488 0.500396 0.794742
Si Si5 0.819039 0.489072 0.950625
Si Si6 0.819695 0.626203 0.625295
Si Si7 0.179075 0.907352 0.368418
Si Si8 0.678065 0.878381 0.516227
O O1 0.500000 0.841051 0.625315
O O2 0.770661 0.754733 0.635493
O O3 0.716115 0.868708 0.565945
O O4 0.730995 0.975740 0.638423
O O5 0.500000 0.718124 0.058390
O O6 0.231602 0.631598 0.068679
O O7 0.272250 0.846939 0.087011
O O8 0.274290 0.780931 0.007351
O O9 0.250000 0.190354 0.750000
O O10 0.500000 0.192172 0.702972
O O11 0.311271 0.366486 0.701296
O O12 0.222818 0.178253 0.668891
O O13 0.250000 0.543024 0.750000
O O14 0.264314 0.550201 0.835260
O O15 0.000000 0.541044 0.795741
O O16 0.751705 0.587243 0.920324
O O17 0.000000 0.501179 0.948946
O O18 0.759089 0.500000 0.000000
O O19 0.000000 0.616479 0.621580
O O20 0.000000 0.933603 0.367565
O O21 0.500000 0.858990 0.505706
O O22 0.734541 0.000000 0.500000
#
# Coordination Sequence:
#
# PCOD8220546 Si02
#       8
#     8   8   8   8   8   8   8   8
#     4  11  23  40  61  84 116 159 205 248 296 354
#     4  11  23  36  57  87 118 152 193 246 300 350
#     4  10  21  38  63  92 121 153 188 234 290 350
#     4  10  21  40  67  97 126 159 201 248 302 364
#     4  11  24  41  60  84 118 161 207 253 304 364
#     4  12  25  41  62  89 124 162 204 254 310 367
#     4  11  23  38  57  86 120 152 192 239 290 346
#     4  10  20  36  57  82 113 155 202 247 294 351
#
# _framework density 20.012236999999999
#
# number of rings (size 3 to 8) (size 9 to 14) (size 15 to 20)
#    0.000    1.250    1.250    4.875    0.000   10.250 
#    0.000    0.625    0.000    0.000    0.000    0.000 
#    0.000    0.000    0.000    0.000    0.000    0.000 
#
# Total GULP energy -794001.124548 kJ/mol
# GULP energy per Si atom -12406.267571 kJ/mol
# Density = 1.996669 g / cm^3
# Si number density = 20.012237 Si / 1000 Ang^3
#
#
#
# Elastic Constant Matrix: (Units=GPa)
#
#
# Indices 1 2 3 4 5 6 
#
# 1 86.9210 31.6479 42.8074 0.0000 0.0000 0.0000
# 2 31.6479 59.5962 9.8238 0.0000 0.0000 0.0000
# 3 42.8074 9.8238 89.7896 0.0000 0.0000 0.0000
# 4 0.0000 0.0000 0.0000 17.1773 0.0000 0.0000
# 5 0.0000 0.0000 0.0000 0.0000 29.8319 0.0000
# 6 0.0000 0.0000 0.0000 0.0000 0.0000 35.6849
#
#
#
# Elastic Compliance Matrix: (Units=1/GPa)
#
#
# Indices 1 2 3 4 5 6 
#
# 1 0.018488 -0.008519 -0.007882 0.000000 0.000000 0.000000
# 2 -0.008519 0.021013 0.001762 0.000000 0.000000 0.000000
# 3 -0.007882 0.001762 0.014702 0.000000 0.000000 0.000000
# 4 0.000000 0.000000 0.000000 0.058216 0.000000 0.000000
# 5 0.000000 0.000000 0.000000 0.000000 0.033521 0.000000
# 6 0.000000 0.000000 0.000000 0.000000 0.000000 0.028023
#
#
# Mechanical properties :
#
#
# Convention : Reuss Voigt Hill
#
# Bulk Modulus (GPa) = 40.11876 44.98500 42.55188
# Shear Modulus (GPa) = 23.63510 26.67401 25.15456
#
# Velocity S-wave (km/s) = 3.44034 3.65483 3.54921
# Velocity P-wave (km/s) = 5.98932 6.35121 6.17292
#
# Compressibility (1/GPa) = 0.02492599
#
# Stress axis : x y z
#
# Youngs Moduli (GPa) = 54.08840 47.58996 68.01691
#
# Poissons Ratio (x) = 0.40540 0.53613
# Poissons Ratio (y) = 0.46076 -0.11987
# Poissons Ratio (z) = 0.42634 -0.08387
#
# Static dielectric constant tensor:
#      x y z
#    x 3.677770 0.000000 0.000000 
#    y 0.000000 3.686580 0.000000 
#    z 0.000000 0.000000 3.803920 
# 
# 
# High freq. dielectric constant tensor:
#      x y z
#    x 1.790310 0.000000 0.000000 
#    y 0.000000 1.784170 0.000000 
#    z 0.000000 0.000000 1.777060 
# 
# From -- ./inp_files/38184.got.cif
#   From: 2010.03.12/outbox.cif.g09.slc.cpg/sg53_20_cif.got.tgz:38184.got - 2010.04.16 14:36:59.
