data_PCOD8220514
_publ_section_title
;
Structure prediction by ZEFSAII (Michael W. Deem and Ramdas Pophale) SiO2 
 PCOD8220514
Probable space group: P M N A
;
_chemical_formula_sum "Si O2"
_cell_formula_units_Z 48
_cell_length_a 9.013231
_cell_length_b 30.024585
_cell_length_c 9.534140
_cell_angle_alpha 90.000000
_cell_angle_beta 90.000000
_cell_angle_gamma 90.000000
_cell_volume 2580.114859
_symmetry_space_group_name_H-M "P M N A"
_symmetry_group_IT_number 53
_symmetry_cell_setting 'orthorhombic'
loop_
_space_group_symop_operation_xyz
x,y,z
1/2-x,-y,1/2+z
x,-y,-z
1/2-x,y,1/2-z
-x,-y,-z
1/2+x,y,1/2-z
-x,y,z
1/2+x,-y,1/2+z
loop_
_atom_site_type_symbol
_atom_site_label
_atom_site_fract_x
_atom_site_fract_y
_atom_site_fract_z
Si Si1 0.675178 0.281970 0.104813
Si Si2 0.827303 0.863485 0.893438
Si Si3 0.827852 0.615269 0.608432
Si Si4 0.674574 0.540185 0.099911
Si Si5 0.325477 0.036563 0.393234
Si Si6 0.823796 0.785454 0.099804
O O1 0.750000 0.266282 0.250000
O O2 0.500000 0.272007 0.111366
O O3 0.710151 0.333590 0.075988
O O4 0.751761 0.256434 0.977659
O O5 0.750000 0.848472 0.750000
O O6 0.779544 0.913387 0.939679
O O7 0.000000 0.861046 0.861787
O O8 0.781378 0.830357 0.017099
O O9 0.750000 0.598574 0.750000
O O10 0.775225 0.586024 0.475893
O O11 0.000000 0.607902 0.635926
O O12 0.750000 0.536432 0.250000
O O13 0.500000 0.538681 0.125222
O O14 0.726526 0.500000 0.000000
O O15 0.250000 0.023468 0.250000
O O16 0.500000 0.032536 0.374909
O O17 0.263544 0.000000 0.500000
O O18 0.750000 0.789920 0.250000
O O19 0.000000 0.778627 0.112766
#
# Coordination Sequence:
#
# PCOD8220514 Si02
#       6
#     8   8   8   8   8   8
#     4  10  20  36  57  80 107 139 176 215 258 310
#     4   9  19  35  54  75 100 133 171 210 253 304
#     4   9  19  35  55  80 107 136 172 213 255 304
#     4  10  21  36  54  78 107 138 174 214 257 306
#     4   9  18  33  52  75 103 133 167 207 251 302
#     4  11  23  37  53  76 106 138 174 217 265 311
#
# _framework density 18.603822000000001
#
# number of rings (size 3 to 8) (size 9 to 14) (size 15 to 20)
#    0.000    2.333    0.000    2.000    0.000    6.000 
#    0.000    1.667    0.000    0.000    0.000    0.000 
#    0.000    0.000    0.000    0.000    0.000    0.000 
#
# Total GULP energy -595263.518902 kJ/mol
# GULP energy per Si atom -12401.323310 kJ/mol
# Density = 1.856148 g / cm^3
# Si number density = 18.603822 Si / 1000 Ang^3
#
#
#
# Elastic Constant Matrix: (Units=GPa)
#
#
# Indices 1 2 3 4 5 6 
#
# 1 62.1930 50.3215 65.1143 0.0000 0.0000 0.0000
# 2 50.3215 117.2059 97.9289 0.0000 0.0000 0.0000
# 3 65.1143 97.9289 180.5691 0.0000 0.0000 0.0000
# 4 0.0000 0.0000 0.0000 37.8039 0.0000 0.0000
# 5 0.0000 0.0000 0.0000 0.0000 39.2911 0.0000
# 6 0.0000 0.0000 0.0000 0.0000 0.0000 30.2228
#
#
#
# Elastic Compliance Matrix: (Units=1/GPa)
#
#
# Indices 1 2 3 4 5 6 
#
# 1 0.028410 -0.006652 -0.006637 0.000000 0.000000 0.000000
# 2 -0.006652 0.017159 -0.006907 0.000000 0.000000 0.000000
# 3 -0.006637 -0.006907 0.011678 0.000000 0.000000 0.000000
# 4 0.000000 0.000000 0.000000 0.026452 0.000000 0.000000
# 5 0.000000 0.000000 0.000000 0.000000 0.025451 0.000000
# 6 0.000000 0.000000 0.000000 0.000000 0.000000 0.033088
#
#
# Mechanical properties :
#
#
# Convention : Reuss Voigt Hill
#
# Bulk Modulus (GPa) = 59.33372 87.41080 73.37226
# Shear Modulus (GPa) = 26.56050 31.23712 28.89881
#
# Velocity S-wave (km/s) = 3.78258 4.10209 3.94557
# Velocity P-wave (km/s) = 7.14421 8.33808 7.76413
#
# Compressibility (1/GPa) = 0.01685382
#
# Stress axis : x y z
#
# Youngs Moduli (GPa) = 35.19835 58.27751 85.63464
#
# Poissons Ratio (x) = 0.38767 0.56838
# Poissons Ratio (y) = 0.23415 0.59150
# Poissons Ratio (z) = 0.23362 0.40254
#
# Static dielectric constant tensor:
#      x y z
#    x 3.397790 0.000000 0.000000 
#    y 0.000000 3.753880 0.000000 
#    z 0.000000 0.000000 3.435730 
# 
# 
# High freq. dielectric constant tensor:
#      x y z
#    x 1.721150 0.000000 0.000000 
#    y 0.000000 1.736000 0.000000 
#    z 0.000000 0.000000 1.720120 
# 
# From -- ./inp_files/6594.got.cif
#   From: 2010.03.12/outbox.cif.g09.slc.cpg/sg53_4_cif.got.tgz:6594.got - 2010.04.16 14:36:59.
