data_PCOD8220185
_publ_section_title
;
Structure prediction by ZEFSAII (Michael W. Deem and Ramdas Pophale) SiO2 
 PCOD8220185
Probable space group: P M N A
;
_chemical_formula_sum "Si O2"
_cell_formula_units_Z 64
_cell_length_a 8.870412
_cell_length_b 23.606943
_cell_length_c 14.719677
_cell_angle_alpha 90.000000
_cell_angle_beta 90.000000
_cell_angle_gamma 90.000000
_cell_volume 3082.349093
_symmetry_space_group_name_H-M "P M N A"
_symmetry_group_IT_number 53
_symmetry_cell_setting 'orthorhombic'
loop_
_space_group_symop_operation_xyz
x,y,z
1/2-x,-y,1/2+z
x,-y,-z
1/2-x,y,1/2-z
-x,-y,-z
1/2+x,y,1/2-z
-x,y,z
1/2+x,-y,1/2+z
loop_
_atom_site_type_symbol
_atom_site_label
_atom_site_fract_x
_atom_site_fract_y
_atom_site_fract_z
Si Si1 0.325238 0.958406 0.844244
Si Si2 0.665081 0.609158 0.335523
Si Si3 0.322822 0.347341 0.151853
Si Si4 0.322241 0.563537 0.993000
Si Si5 0.175390 0.909282 0.344497
Si Si6 0.832444 0.259090 0.837759
Si Si7 0.821167 0.871897 0.976468
Si Si8 0.821137 0.757784 0.528911
O O1 0.250000 0.940031 0.750000
O O2 0.500000 0.941630 0.841238
O O3 0.302182 0.024400 0.863816
O O4 0.243774 0.926042 0.925114
O O5 0.750000 0.580361 0.250000
O O6 0.500000 0.580811 0.344346
O O7 0.758385 0.600904 0.426385
O O8 0.647184 0.675112 0.317298
O O9 0.250000 0.345759 0.250000
O O10 0.500000 0.343784 0.164802
O O11 0.266501 0.294364 0.091442
O O12 0.276287 0.405951 0.101398
O O13 0.500000 0.562869 0.004464
O O14 0.255837 0.500000 0.000000
O O15 0.250000 0.892038 0.250000
O O16 0.263574 0.873451 0.419903
O O17 0.000000 0.892751 0.345109
O O18 0.750000 0.230960 0.750000
O O19 0.000000 0.232124 0.851370
O O20 0.731284 0.250758 0.926095
O O21 0.000000 0.872927 0.972279
O O22 0.757209 0.814390 0.931156
O O23 0.000000 0.764514 0.531008
#
# Coordination Sequence:
#
# PCOD8220185 Si02
#       8
#     8   8   8   8   8   8   8   8
#     4  10  21  39  63  90 121 159 204 254 308 364
#     4  10  20  34  57  86 118 153 190 236 288 351
#     4  10  23  42  65  89 117 159 202 248 301 356
#     4  10  21  39  62  90 124 158 198 248 301 356
#     4  10  21  39  63  91 124 162 204 251 306 368
#     4  10  20  35  58  87 115 149 190 237 292 355
#     4  12  25  39  59  89 124 161 204 254 308 365
#     4  11  23  41  62  85 117 157 205 255 304 360
#
# _framework density 20.763383999999999
#
# number of rings (size 3 to 8) (size 9 to 14) (size 15 to 20)
#    0.000    1.625    1.250    3.375    0.000    7.250 
#    0.000    5.000    0.000    0.000    0.000    0.000 
#    0.000    0.000    0.000    0.000    0.000    0.000 
#
# Total GULP energy -793750.201613 kJ/mol
# GULP energy per Si atom -12402.346900 kJ/mol
# Density = 2.071613 g / cm^3
# Si number density = 20.763384 Si / 1000 Ang^3
#
#
#
# Elastic Constant Matrix: (Units=GPa)
#
#
# Indices 1 2 3 4 5 6 
#
# 1 103.7742 45.2092 45.9525 0.0000 0.0000 0.0000
# 2 45.2092 83.7679 34.4031 0.0000 0.0000 0.0000
# 3 45.9525 34.4031 125.2637 0.0000 0.0000 0.0000
# 4 0.0000 0.0000 0.0000 12.2935 0.0000 0.0000
# 5 0.0000 0.0000 0.0000 0.0000 38.1221 0.0000
# 6 0.0000 0.0000 0.0000 0.0000 0.0000 43.7763
#
#
#
# Elastic Compliance Matrix: (Units=1/GPa)
#
#
# Indices 1 2 3 4 5 6 
#
# 1 0.013769 -0.006038 -0.003393 0.000000 0.000000 0.000000
# 2 -0.006038 0.016103 -0.002208 0.000000 0.000000 0.000000
# 3 -0.003393 -0.002208 0.009834 0.000000 0.000000 0.000000
# 4 0.000000 0.000000 0.000000 0.081344 0.000000 0.000000
# 5 0.000000 0.000000 0.000000 0.000000 0.026231 0.000000
# 6 0.000000 0.000000 0.000000 0.000000 0.000000 0.022843
#
#
# Mechanical properties :
#
#
# Convention : Reuss Voigt Hill
#
# Bulk Modulus (GPa) = 60.86566 62.65947 61.76257
# Shear Modulus (GPa) = 25.14103 31.32112 28.23108
#
# Velocity S-wave (km/s) = 3.48348 3.88813 3.69135
# Velocity P-wave (km/s) = 6.74960 7.09930 6.92666
#
# Compressibility (1/GPa) = 0.01642963
#
# Stress axis : x y z
#
# Youngs Moduli (GPa) = 72.62684 62.10054 101.68629
#
# Poissons Ratio (x) = 0.37494 0.34501
# Poissons Ratio (y) = 0.43849 0.22449
# Poissons Ratio (z) = 0.24642 0.13710
#
# Static dielectric constant tensor:
#      x y z
#    x 3.907070 0.000000 0.000000 
#    y 0.000000 3.901410 0.000000 
#    z 0.000000 0.000000 3.738210 
# 
# 
# High freq. dielectric constant tensor:
#      x y z
#    x 1.820900 0.000000 0.000000 
#    y 0.000000 1.811640 0.000000 
#    z 0.000000 0.000000 1.813560 
# 
# From -- ./inp_files/21000.got.cif
#   From: 2010.03.12/outbox.cif.g09.slc.cpg/sg53_11_cif.got.tgz:21000.got - 2010.04.16 14:36:59.
