data_PCOD8220348
_publ_section_title
;
Structure prediction by ZEFSAII (Michael W. Deem and Ramdas Pophale) SiO2 
 PCOD8220348
Probable space group: P M N A
;
_chemical_formula_sum "Si O2"
_cell_formula_units_Z 48
_cell_length_a 17.860302
_cell_length_b 7.448359
_cell_length_c 19.455852
_cell_angle_alpha 90.000000
_cell_angle_beta 90.000000
_cell_angle_gamma 90.000000
_cell_volume 2588.210846
_symmetry_space_group_name_H-M "P M N A"
_symmetry_group_IT_number 53
_symmetry_cell_setting 'orthorhombic'
loop_
_space_group_symop_operation_xyz
x,y,z
1/2-x,-y,1/2+z
x,-y,-z
1/2-x,y,1/2-z
-x,-y,-z
1/2+x,y,1/2-z
-x,y,z
1/2+x,-y,1/2+z
loop_
_atom_site_type_symbol
_atom_site_label
_atom_site_fract_x
_atom_site_fract_y
_atom_site_fract_z
Si Si1 0.277527 0.825223 0.581432
Si Si2 0.670294 0.516802 0.923565
Si Si3 0.587741 0.783238 0.312146
Si Si4 0.832569 0.137849 0.224048
Si Si5 0.913456 0.463188 0.290295
Si Si6 0.702095 0.771760 0.431044
O O1 0.199313 0.719974 0.586578
O O2 0.330209 0.782003 0.646586
O O3 0.320831 0.763750 0.511796
O O4 0.258003 0.036925 0.582628
O O5 0.607065 0.473843 0.867461
O O6 0.740105 0.383893 0.912316
O O7 0.635465 0.500000 0.000000
O O8 0.500000 0.799097 0.326941
O O9 0.607654 0.619775 0.262217
O O10 0.628051 0.751363 0.385152
O O11 0.616023 0.961835 0.274151
O O12 0.750000 0.084908 0.250000
O O13 0.866510 0.286876 0.273339
O O14 0.000000 0.414306 0.286673
#
# Coordination Sequence:
#
# PCOD8220348 Si02
#       6
#     8   8   8   8   8   8
#     4   9  18  34  53  87 105 139 188 228 265 318
#     4  10  20  35  57  80 106 144 188 233 272 327
#     4  10  23  38  55  85 119 149 181 228 283 333
#     4  11  21  35  61  83 109 149 191 228 274 328
#     4  11  24  38  54  82 116 145 181 234 284 330
#     4   9  19  34  57  79 114 141 185 226 265 330
#
# _framework density 18.545629999999999
#
# number of rings (size 3 to 8) (size 9 to 14) (size 15 to 20)
#    0.000    2.000    1.667    1.500    4.667    0.333 
#    0.000    7.500    0.000    6.500    0.000    8.167 
#    0.000    0.000    0.000    0.000    0.000    0.000 
#
# Total GULP energy -595185.236103 kJ/mol
# GULP energy per Si atom -12399.692419 kJ/mol
# Density = 1.850342 g / cm^3
# Si number density = 18.545630 Si / 1000 Ang^3
#
#
#
# Elastic Constant Matrix: (Units=GPa)
#
#
# Indices 1 2 3 4 5 6 
#
# 1 52.5318 26.7545 46.8088 0.0000 0.0000 0.0000
# 2 26.7545 66.4945 35.7332 0.0000 0.0000 0.0000
# 3 46.8088 35.7332 128.6439 0.0000 0.0000 0.0000
# 4 0.0000 0.0000 0.0000 21.2794 0.0000 0.0000
# 5 0.0000 0.0000 0.0000 0.0000 23.5790 0.0000
# 6 0.0000 0.0000 0.0000 0.0000 0.0000 23.4233
#
#
#
# Elastic Compliance Matrix: (Units=1/GPa)
#
#
# Indices 1 2 3 4 5 6 
#
# 1 0.031098 -0.007560 -0.009215 0.000000 0.000000 0.000000
# 2 -0.007560 0.019516 -0.002670 0.000000 0.000000 0.000000
# 3 -0.009215 -0.002670 0.011868 0.000000 0.000000 0.000000
# 4 0.000000 0.000000 0.000000 0.046994 0.000000 0.000000
# 5 0.000000 0.000000 0.000000 0.000000 0.042411 0.000000
# 6 0.000000 0.000000 0.000000 0.000000 0.000000 0.042693
#
#
# Mechanical properties :
#
#
# Convention : Reuss Voigt Hill
#
# Bulk Modulus (GPa) = 42.38985 51.80701 47.09843
# Shear Modulus (GPa) = 20.71824 22.88125 21.79975
#
# Velocity S-wave (km/s) = 3.34600 3.51633 3.43223
# Velocity P-wave (km/s) = 6.15096 6.66946 6.41545
#
# Compressibility (1/GPa) = 0.02359055
#
# Stress axis : x y z
#
# Youngs Moduli (GPa) = 32.15644 51.24124 84.25906
#
# Poissons Ratio (x) = 0.38740 0.77648
# Poissons Ratio (y) = 0.24311 0.22496
# Poissons Ratio (z) = 0.29633 0.13681
#
# Static dielectric constant tensor:
#      x y z
#    x 3.081020 0.000000 0.000000 
#    y 0.000000 3.531620 0.000000 
#    z 0.000000 0.000000 3.766710 
# 
# 
# High freq. dielectric constant tensor:
#      x y z
#    x 1.684330 0.000000 0.000000 
#    y 0.000000 1.732430 0.000000 
#    z 0.000000 0.000000 1.740000 
# 
# From -- ./inp_files/28265.got.cif
#   From: 2010.03.12/outbox.cif.g09.slc.cpg/sg53_15_cif.got.tgz:28265.got - 2010.04.16 14:36:59.
