data_PCOD8220885
_publ_section_title
;
Structure prediction by ZEFSAII (Michael W. Deem and Ramdas Pophale) SiO2 
 PCOD8220885
Probable space group: P M N A
;
_chemical_formula_sum "Si O2"
_cell_formula_units_Z 48
_cell_length_a 9.412326
_cell_length_b 28.334647
_cell_length_c 9.961422
_cell_angle_alpha 90.000000
_cell_angle_beta 90.000000
_cell_angle_gamma 90.000000
_cell_volume 2656.660789
_symmetry_space_group_name_H-M "P M N A"
_symmetry_group_IT_number 53
_symmetry_cell_setting 'orthorhombic'
loop_
_space_group_symop_operation_xyz
x,y,z
1/2-x,-y,1/2+z
x,-y,-z
1/2-x,y,1/2-z
-x,-y,-z
1/2+x,y,1/2-z
-x,y,z
1/2+x,-y,1/2+z
loop_
_atom_site_type_symbol
_atom_site_label
_atom_site_fract_x
_atom_site_fract_y
_atom_site_fract_z
Si Si1 0.744149 0.887086 0.596441
Si Si2 0.329486 0.289021 0.881952
Si Si3 0.500000 0.953272 0.911723
Si Si4 0.663210 0.640787 0.878209
Si Si5 0.500000 0.958041 0.604115
Si Si6 0.827567 0.808093 0.114944
Si Si7 0.665663 0.466892 0.119936
O O1 0.750000 0.868899 0.750000
O O2 0.630709 0.926368 0.570815
O O3 0.712516 0.842190 0.505918
O O4 0.878187 0.916800 0.552594
O O5 0.250000 0.308915 0.750000
O O6 0.500000 0.280730 0.859505
O O7 0.247350 0.241259 0.922363
O O8 0.299642 0.326944 0.996056
O O9 0.500000 0.973588 0.759972
O O10 0.500000 0.000000 0.000000
O O11 0.750000 0.658809 0.750000
O O12 0.500000 0.645089 0.837575
O O13 0.703130 0.587144 0.916510
O O14 0.500000 0.000000 0.500000
O O15 0.750000 0.827040 0.250000
O O16 0.000000 0.803535 0.132302
O O17 0.750000 0.483790 0.250000
O O18 0.500000 0.473744 0.148897
O O19 0.717997 0.500000 0.000000
#
# Coordination Sequence:
#
# PCOD8220885 Si02
#       7
#     8   8   4   8   4   8   8
#     4  10  22  39  58  83 113 146 179 222 268 318
#     4  10  21  37  56  80 110 142 179 226 274 327
#     4  10  22  36  58  86 112 144 182 220 265 318
#     4   9  19  35  54  79 109 144 186 228 275 328
#     4  10  20  38  58  80 114 144 180 222 263 312
#     4  11  23  39  59  84 111 143 183 226 271 324
#     4   9  18  33  52  76 109 145 184 231 276 326
#
# _framework density 18.067793999999999
#
# number of rings (size 3 to 8) (size 9 to 14) (size 15 to 20)
#    0.000    2.167    0.833    2.500    2.333    4.333 
#    0.000    1.667    0.000    0.000    0.000    0.000 
#    0.000    0.000    0.000    0.000    0.000    0.000 
#
# Total GULP energy -594802.702352 kJ/mol
# GULP energy per Si atom -12391.722966 kJ/mol
# Density = 1.802667 g / cm^3
# Si number density = 18.067794 Si / 1000 Ang^3
#
#
#
# Elastic Constant Matrix: (Units=GPa)
#
#
# Indices 1 2 3 4 5 6 
#
# 1 134.7369 59.7819 71.4804 0.0000 0.0000 0.0000
# 2 59.7819 99.4635 100.0732 0.0000 0.0000 0.0000
# 3 71.4804 100.0732 153.3390 0.0000 0.0000 0.0000
# 4 0.0000 0.0000 0.0000 46.4517 0.0000 0.0000
# 5 0.0000 0.0000 0.0000 0.0000 23.9349 0.0000
# 6 0.0000 0.0000 0.0000 0.0000 0.0000 31.9393
#
#
#
# Elastic Compliance Matrix: (Units=1/GPa)
#
#
# Indices 1 2 3 4 5 6 
#
# 1 0.010377 -0.003990 -0.002233 0.000000 0.000000 0.000000
# 2 -0.003990 0.030814 -0.018250 0.000000 0.000000 0.000000
# 3 -0.002233 -0.018250 0.019473 0.000000 0.000000 0.000000
# 4 0.000000 0.000000 0.000000 0.021528 0.000000 0.000000
# 5 0.000000 0.000000 0.000000 0.000000 0.041780 0.000000
# 6 0.000000 0.000000 0.000000 0.000000 0.000000 0.031309
#
#
# Mechanical properties :
#
#
# Convention : Reuss Voigt Hill
#
# Bulk Modulus (GPa) = 85.34414 94.46783 89.90598
# Shear Modulus (GPa) = 24.02295 30.87877 27.45086
#
# Velocity S-wave (km/s) = 3.65032 4.13855 3.90208
# Velocity P-wave (km/s) = 8.06874 8.67384 8.37676
#
# Compressibility (1/GPa) = 0.01171727
#
# Stress axis : x y z
#
# Youngs Moduli (GPa) = 96.36641 32.45266 51.35275
#
# Poissons Ratio (x) = 0.12949 0.11469
# Poissons Ratio (y) = 0.38450 0.93720
# Poissons Ratio (z) = 0.21522 0.59227
#
# Static dielectric constant tensor:
#      x y z
#    x 3.620500 0.000000 0.000000 
#    y 0.000000 3.290970 0.000000 
#    z 0.000000 0.000000 2.713940 
# 
# 
# High freq. dielectric constant tensor:
#      x y z
#    x 1.719270 0.000000 0.000000 
#    y 0.000000 1.700030 0.000000 
#    z 0.000000 0.000000 1.701530 
# 
# From -- ./inp_files/6835.got.cif
#   From: 2010.03.12/outbox.cif.g09.slc.cpg/sg53_4_cif.got.tgz:6835.got - 2010.04.16 14:36:59.
