data_PCOD8220734
_publ_section_title
;
Structure prediction by ZEFSAII (Michael W. Deem and Ramdas Pophale) SiO2 
 PCOD8220734
Probable space group: P M N A
;
_chemical_formula_sum "Si O2"
_cell_formula_units_Z 64
_cell_length_a 23.906115
_cell_length_b 9.886706
_cell_length_c 13.861845
_cell_angle_alpha 90.000000
_cell_angle_beta 90.000000
_cell_angle_gamma 90.000000
_cell_volume 3276.284917
_symmetry_space_group_name_H-M "P M N A"
_symmetry_group_IT_number 53
_symmetry_cell_setting 'orthorhombic'
loop_
_space_group_symop_operation_xyz
x,y,z
1/2-x,-y,1/2+z
x,-y,-z
1/2-x,y,1/2-z
-x,-y,-z
1/2+x,y,1/2-z
-x,y,z
1/2+x,-y,1/2+z
loop_
_atom_site_type_symbol
_atom_site_label
_atom_site_fract_x
_atom_site_fract_y
_atom_site_fract_z
Si Si1 0.291197 0.640779 0.962512
Si Si2 0.299123 0.691908 0.674939
Si Si3 0.721401 0.898778 0.085376
Si Si4 0.385106 0.055318 0.800838
Si Si5 0.619512 0.584512 0.817125
Si Si6 0.934852 0.691159 0.386148
Si Si7 0.660700 0.981059 0.608758
Si Si8 0.436803 0.802732 0.905990
O O1 0.230906 0.615393 0.912878
O O2 0.338545 0.675868 0.883965
O O3 0.313638 0.500000 0.000000
O O4 0.285623 0.746837 0.048099
O O5 0.250000 0.731160 0.750000
O O6 0.348323 0.591246 0.714285
O O7 0.325071 0.826509 0.630415
O O8 0.679370 0.915115 0.174063
O O9 0.784211 0.926153 0.120553
O O10 0.704981 0.000000 0.000000
O O11 0.425168 0.184382 0.813948
O O12 0.386482 0.023230 0.686587
O O13 0.404057 0.934229 0.870512
O O14 0.603625 0.433647 0.849893
O O15 0.565444 0.682751 0.824971
O O16 0.914359 0.740480 0.491795
O O17 0.000000 0.647494 0.386273
O O18 0.636723 0.000000 0.500000
O O19 0.500000 0.849818 0.921236
#
# Coordination Sequence:
#
# PCOD8220734 Si02
#       8
#     8   8   8   8   8   8   8   8
#     4  11  21  34  55  86 123 157 195 233 278 345
#     4  10  20  37  57  85 120 160 198 237 287 351
#     4  11  20  33  57  86 121 159 191 234 288 352
#     4  12  22  36  60  87 119 157 199 247 299 357
#     4  11  21  37  59  84 121 165 196 229 283 362
#     4  11  24  40  58  89 124 152 193 248 306 361
#     4  11  22  38  59  86 116 155 201 244 292 351
#     4  11  22  37  60  87 118 155 194 242 299 359
#
# _framework density 19.534320000000001
#
# number of rings (size 3 to 8) (size 9 to 14) (size 15 to 20)
#    0.000    1.000    3.750    6.375    0.000    3.000 
#    0.000    2.500    0.000    1.500    0.000    0.875 
#    0.000    0.000    0.000    0.000    0.000    0.000 
#
# Total GULP energy -793125.983400 kJ/mol
# GULP energy per Si atom -12392.593491 kJ/mol
# Density = 1.948986 g / cm^3
# Si number density = 19.534320 Si / 1000 Ang^3
#
#
#
# Elastic Constant Matrix: (Units=GPa)
#
#
# Indices 1 2 3 4 5 6 
#
# 1 52.3861 26.0128 30.4454 0.0000 0.0000 0.0000
# 2 26.0128 123.7758 29.5557 0.0000 0.0000 0.0000
# 3 30.4454 29.5557 86.6066 0.0000 0.0000 0.0000
# 4 0.0000 0.0000 0.0000 24.6614 0.0000 0.0000
# 5 0.0000 0.0000 0.0000 0.0000 -1.8939 0.0000
# 6 0.0000 0.0000 0.0000 0.0000 0.0000 29.0363
#
#
#
# Elastic Compliance Matrix: (Units=1/GPa)
#
#
# Indices 1 2 3 4 5 6 
#
# 1 0.025293 -0.003476 -0.007705 0.000000 0.000000 0.000000
# 2 -0.003476 0.009274 -0.001943 0.000000 0.000000 0.000000
# 3 -0.007705 -0.001943 0.014918 0.000000 0.000000 0.000000
# 4 0.000000 0.000000 0.000000 0.040549 0.000000 0.000000
# 5 0.000000 0.000000 0.000000 0.000000 -0.528007 0.000000
# 6 0.000000 0.000000 0.000000 0.000000 0.000000 0.034440
#
#
# Mechanical properties :
#
#
# Convention : Reuss Voigt Hill
#
# Bulk Modulus (GPa) = 43.03483 48.31070 45.67277
# Shear Modulus (GPa) = -13.53033 22.14441 4.30704
#
# Velocity S-wave (km/s) = -2.63467 3.37057 1.48649
# Velocity P-wave (km/s) = 3.58091 6.31922 5.13593
#
# Compressibility (1/GPa) = 0.02323699
#
# Stress axis : x y z
#
# Youngs Moduli (GPa) = 39.53664 107.83411 67.03233
#
# Poissons Ratio (x) = 0.37480 0.51650
# Poissons Ratio (y) = 0.13742 0.13024
# Poissons Ratio (z) = 0.30464 0.20951
#
# Static dielectric constant tensor:
#      x y z
#    x 3.541530 0.000000 0.000000 
#    y 0.000000 5.102460 0.000000 
#    z 0.000000 0.000000 1.253650 
# 
# 
# High freq. dielectric constant tensor:
#      x y z
#    x 1.748230 0.000000 0.000000 
#    y 0.000000 1.764650 0.000000 
#    z 0.000000 0.000000 1.740780 
# 
# From -- ./inp_files/24731.got.cif
#   From: 2010.03.12/outbox.cif.g09.slc.cpg/sg53_13_cif.got.tgz:24731.got - 2010.04.16 14:36:59.
