data_PCOD8220910
_publ_section_title
;
Structure prediction by ZEFSAII (Michael W. Deem and Ramdas Pophale) SiO2 
 PCOD8220910
Probable space group: P M N A
;
_chemical_formula_sum "Si O2"
_cell_formula_units_Z 64
_cell_length_a 17.020083
_cell_length_b 20.034128
_cell_length_c 9.215576
_cell_angle_alpha 90.000000
_cell_angle_beta 90.000000
_cell_angle_gamma 90.000000
_cell_volume 3142.350341
_symmetry_space_group_name_H-M "P M N A"
_symmetry_group_IT_number 53
_symmetry_cell_setting 'orthorhombic'
loop_
_space_group_symop_operation_xyz
x,y,z
1/2-x,-y,1/2+z
x,-y,-z
1/2-x,y,1/2-z
-x,-y,-z
1/2+x,y,1/2-z
-x,y,z
1/2+x,-y,1/2+z
loop_
_atom_site_type_symbol
_atom_site_label
_atom_site_fract_x
_atom_site_fract_y
_atom_site_fract_z
Si Si1 0.324180 0.487950 0.663360
Si Si2 0.410488 0.361014 0.596256
Si Si3 0.090591 0.130842 0.194948
Si Si4 0.161223 0.636416 0.791517
Si Si5 0.091139 0.253810 0.397965
Si Si6 0.910886 0.136159 0.860176
Si Si7 0.326721 0.995955 0.334062
Si Si8 0.837692 0.254777 0.708019
O O1 0.294960 0.500000 0.500000
O O2 0.250000 0.458779 0.750000
O O3 0.393200 0.433433 0.666677
O O4 0.354278 0.557374 0.734106
O O5 0.500000 0.359954 0.542544
O O6 0.354397 0.345772 0.459600
O O7 0.398532 0.305305 0.717792
O O8 0.117283 0.191269 0.298314
O O9 0.141846 0.065579 0.231393
O O10 0.000000 0.112349 0.220611
O O11 0.104172 0.152510 0.028902
O O12 0.250000 0.655810 0.750000
O O13 0.102177 0.677829 0.690878
O O14 0.148016 0.255299 0.536250
O O15 0.000000 0.247658 0.443900
O O16 0.852370 0.180607 0.766079
O O17 0.000000 0.152508 0.816706
O O18 0.894968 0.059193 0.820923
O O19 0.250000 0.972328 0.250000
O O20 0.301091 0.000000 0.500000
O O21 0.750000 0.277306 0.750000
#
# Coordination Sequence:
#
# PCOD8220910 Si02
#       8
#     8   8   8   8   8   8   8   8
#     4   9  20  37  59  86 117 152 192 237 288 345
#     4  11  22  38  61  87 116 153 196 238 285 345
#     4   9  20  38  60  84 112 149 188 234 287 338
#     4  10  21  38  60  87 117 153 193 236 289 343
#     4  11  23  39  59  85 117 150 192 243 291 339
#     4  10  20  38  61  84 113 149 191 234 284 345
#     4  10  21  36  57  85 115 148 189 234 281 338
#     4  12  25  40  58  83 117 154 193 238 291 349
#
# _framework density 20.366921000000001
#
# number of rings (size 3 to 8) (size 9 to 14) (size 15 to 20)
#    0.000    1.750    0.000    4.125    0.000   10.750 
#    0.000    0.000    0.000    4.875    0.000    0.000 
#    0.000    0.000    0.000    0.000    0.000    0.000 
#
# Total GULP energy -793856.099159 kJ/mol
# GULP energy per Si atom -12404.001549 kJ/mol
# Density = 2.032057 g / cm^3
# Si number density = 20.366921 Si / 1000 Ang^3
#
#
#
# Elastic Constant Matrix: (Units=GPa)
#
#
# Indices 1 2 3 4 5 6 
#
# 1 89.4597 39.7406 40.6083 0.0000 0.0000 0.0000
# 2 39.7406 109.0767 62.6244 0.0000 0.0000 0.0000
# 3 40.6083 62.6244 98.5392 0.0000 0.0000 0.0000
# 4 0.0000 0.0000 0.0000 24.6559 0.0000 0.0000
# 5 0.0000 0.0000 0.0000 0.0000 34.0211 0.0000
# 6 0.0000 0.0000 0.0000 0.0000 0.0000 32.9821
#
#
#
# Elastic Compliance Matrix: (Units=1/GPa)
#
#
# Indices 1 2 3 4 5 6 
#
# 1 0.014302 -0.002876 -0.004066 0.000000 0.000000 0.000000
# 2 -0.002876 0.015013 -0.008356 0.000000 0.000000 0.000000
# 3 -0.004066 -0.008356 0.017134 0.000000 0.000000 0.000000
# 4 0.000000 0.000000 0.000000 0.040558 0.000000 0.000000
# 5 0.000000 0.000000 0.000000 0.000000 0.029394 0.000000
# 6 0.000000 0.000000 0.000000 0.000000 0.000000 0.030319
#
#
# Mechanical properties :
#
#
# Convention : Reuss Voigt Hill
#
# Bulk Modulus (GPa) = 63.07988 64.78024 63.93006
# Shear Modulus (GPa) = 27.38218 28.60532 27.99375
#
# Velocity S-wave (km/s) = 3.67064 3.75173 3.71141
# Velocity P-wave (km/s) = 7.00027 7.11639 7.05857
#
# Compressibility (1/GPa) = 0.01585292
#
# Stress axis : x y z
#
# Youngs Moduli (GPa) = 69.92272 66.60782 58.36272
#
# Poissons Ratio (x) = 0.19158 0.23729
# Poissons Ratio (y) = 0.20112 0.48768
# Poissons Ratio (z) = 0.28429 0.55658
#
# Static dielectric constant tensor:
#      x y z
#    x 3.526960 0.000000 0.000000 
#    y 0.000000 3.795420 0.000000 
#    z 0.000000 0.000000 3.632240 
# 
# 
# High freq. dielectric constant tensor:
#      x y z
#    x 1.789920 0.000000 0.000000 
#    y 0.000000 1.807510 0.000000 
#    z 0.000000 0.000000 1.790320 
# 
# From -- ./inp_files/10245.got.cif
#   From: 2010.03.12/outbox.cif.g09.slc.cpg/sg53_6_cif.got.tgz:10245.got - 2010.04.16 14:36:59.
