data_PCOD8220922
_publ_section_title
;
Structure prediction by ZEFSAII (Michael W. Deem and Ramdas Pophale) SiO2 
 PCOD8220922
Probable space group: P M N A
;
_chemical_formula_sum "Si O2"
_cell_formula_units_Z 64
_cell_length_a 8.974518
_cell_length_b 21.290185
_cell_length_c 17.986127
_cell_angle_alpha 90.000000
_cell_angle_beta 90.000000
_cell_angle_gamma 90.000000
_cell_volume 3436.593971
_symmetry_space_group_name_H-M "P M N A"
_symmetry_group_IT_number 53
_symmetry_cell_setting 'orthorhombic'
loop_
_space_group_symop_operation_xyz
x,y,z
1/2-x,-y,1/2+z
x,-y,-z
1/2-x,y,1/2-z
-x,-y,-z
1/2+x,y,1/2-z
-x,y,z
1/2+x,-y,1/2+z
loop_
_atom_site_type_symbol
_atom_site_label
_atom_site_fract_x
_atom_site_fract_y
_atom_site_fract_z
Si Si1 0.325146 0.506922 0.827407
Si Si2 0.328322 0.867396 0.673465
Si Si3 0.172284 0.250621 0.080428
Si Si4 0.330438 0.606662 0.401108
Si Si5 0.328954 0.607586 0.574325
Si Si6 0.174791 0.070291 0.022080
Si Si7 0.827029 0.260617 0.828089
Si Si8 0.176287 0.183784 0.551936
O O1 0.250000 0.524017 0.750000
O O2 0.500000 0.507039 0.816141
O O3 0.277053 0.438503 0.855225
O O4 0.280742 0.559945 0.885974
O O5 0.250000 0.885340 0.750000
O O6 0.500000 0.876023 0.690142
O O7 0.291673 0.795581 0.649311
O O8 0.278277 0.914720 0.607373
O O9 0.204305 0.322110 0.104170
O O10 0.000000 0.242686 0.054975
O O11 0.274620 0.233035 0.010994
O O12 0.500000 0.585937 0.385092
O O13 0.293216 0.602383 0.487632
O O14 0.302231 0.677439 0.376690
O O15 0.500000 0.589037 0.590603
O O16 0.000000 0.084218 0.011647
O O17 0.266370 0.114344 0.966765
O O18 0.217512 0.000000 0.000000
O O19 0.750000 0.271732 0.750000
O O20 0.747912 0.202926 0.869568
O O21 0.000000 0.244946 0.816813
O O22 0.000000 0.183792 0.559074
#
# Coordination Sequence:
#
# PCOD8220922 Si02
#       8
#     8   8   8   8   8   8   8   8
#     4  12  26  41  56  78 111 149 190 239 290 345
#     4   9  18  32  54  83 115 146 184 230 280 333
#     4   9  18  36  58  81 110 149 188 226 275 337
#     4  10  21  39  63  85 109 145 187 234 289 347
#     4  10  20  38  62  85 110 145 187 233 288 345
#     4   9  19  38  62  83 109 155 204 240 282 338
#     4  11  22  38  59  86 116 150 190 236 290 343
#     4  11  21  34  56  86 118 149 184 231 282 337
#
# _framework density 18.623090999999999
#
# number of rings (size 3 to 8) (size 9 to 14) (size 15 to 20)
#    0.000    1.875    1.250    4.125    0.000    7.250 
#    0.000    1.875    0.000    1.500    0.000    0.000 
#    0.000    0.000    0.000    0.000    0.000    0.000 
#
# Total GULP energy -793786.131131 kJ/mol
# GULP energy per Si atom -12402.908299 kJ/mol
# Density = 1.858070 g / cm^3
# Si number density = 18.623091 Si / 1000 Ang^3
#
#
#
# Elastic Constant Matrix: (Units=GPa)
#
#
# Indices 1 2 3 4 5 6 
#
# 1 119.4377 50.0534 58.2135 0.0000 0.0000 0.0000
# 2 50.0534 82.3564 37.7006 0.0000 0.0000 0.0000
# 3 58.2135 37.7006 108.6584 0.0000 0.0000 0.0000
# 4 0.0000 0.0000 0.0000 22.6744 0.0000 0.0000
# 5 0.0000 0.0000 0.0000 0.0000 32.5086 0.0000
# 6 0.0000 0.0000 0.0000 0.0000 0.0000 21.8239
#
#
#
# Elastic Compliance Matrix: (Units=1/GPa)
#
#
# Indices 1 2 3 4 5 6 
#
# 1 0.013266 -0.005717 -0.005123 0.000000 0.000000 0.000000
# 2 -0.005717 0.016899 -0.002800 0.000000 0.000000 0.000000
# 3 -0.005123 -0.002800 0.012920 0.000000 0.000000 0.000000
# 4 0.000000 0.000000 0.000000 0.044103 0.000000 0.000000
# 5 0.000000 0.000000 0.000000 0.000000 0.030761 0.000000
# 6 0.000000 0.000000 0.000000 0.000000 0.000000 0.045821
#
#
# Mechanical properties :
#
#
# Convention : Reuss Voigt Hill
#
# Bulk Modulus (GPa) = 63.28138 66.93195 65.10667
# Shear Modulus (GPa) = 25.46884 26.36704 25.91794
#
# Velocity S-wave (km/s) = 3.70211 3.76683 3.73461
# Velocity P-wave (km/s) = 7.23381 7.41195 7.32342
#
# Compressibility (1/GPa) = 0.01580244
#
# Stress axis : x y z
#
# Youngs Moduli (GPa) = 75.38326 59.17535 77.40141
#
# Poissons Ratio (x) = 0.33831 0.39656
# Poissons Ratio (y) = 0.43097 0.21676
# Poissons Ratio (z) = 0.38622 0.16572
#
# Static dielectric constant tensor:
#      x y z
#    x 3.356720 0.000000 0.000000 
#    y 0.000000 3.461610 0.000000 
#    z 0.000000 0.000000 3.472240 
# 
# 
# High freq. dielectric constant tensor:
#      x y z
#    x 1.719470 0.000000 0.000000 
#    y 0.000000 1.721580 0.000000 
#    z 0.000000 0.000000 1.722430 
# 
# From -- ./inp_files/26980.got.cif
#   From: 2010.03.12/outbox.cif.g09.slc.cpg/sg53_14_cif.got.tgz:26980.got - 2010.04.16 14:36:59.
