data_PCOD8220321
_publ_section_title
;
Structure prediction by ZEFSAII (Michael W. Deem and Ramdas Pophale) SiO2 
 PCOD8220321
Probable space group: P M N A
;
_chemical_formula_sum "Si O2"
_cell_formula_units_Z 64
_cell_length_a 8.817829
_cell_length_b 20.102577
_cell_length_c 18.578262
_cell_angle_alpha 90.000000
_cell_angle_beta 90.000000
_cell_angle_gamma 90.000000
_cell_volume 3293.202906
_symmetry_space_group_name_H-M "P M N A"
_symmetry_group_IT_number 53
_symmetry_cell_setting 'orthorhombic'
loop_
_space_group_symop_operation_xyz
x,y,z
1/2-x,-y,1/2+z
x,-y,-z
1/2-x,y,1/2-z
-x,-y,-z
1/2+x,y,1/2-z
-x,y,z
1/2+x,-y,1/2+z
loop_
_atom_site_type_symbol
_atom_site_label
_atom_site_fract_x
_atom_site_fract_y
_atom_site_fract_z
Si Si1 0.820339 0.001169 0.327864
Si Si2 0.322501 0.508059 0.081720
Si Si3 0.180059 0.236773 0.326254
Si Si4 0.679102 0.877248 0.589148
Si Si5 0.821199 0.381812 0.824619
Si Si6 0.677096 0.111548 0.577654
Si Si7 0.176788 0.768182 0.176440
Si Si8 0.822670 0.387095 0.323465
O O1 0.750000 0.986497 0.250000
O O2 0.777278 0.942701 0.382265
O O3 0.000000 0.005959 0.320279
O O4 0.757198 0.069577 0.359245
O O5 0.500000 0.520723 0.093144
O O6 0.234217 0.571381 0.111656
O O7 0.268205 0.439015 0.116855
O O8 0.276192 0.500000 0.000000
O O9 0.250000 0.214320 0.250000
O O10 0.254494 0.194308 0.389857
O O11 0.228240 0.312533 0.344039
O O12 0.000000 0.226479 0.324074
O O13 0.500000 0.879050 0.601465
O O14 0.720412 0.890441 0.506140
O O15 0.750000 0.407129 0.750000
O O16 0.765947 0.306407 0.841587
O O17 0.000000 0.386243 0.817869
O O18 0.500000 0.094696 0.589016
O O19 0.718517 0.183891 0.609963
O O20 0.250000 0.795520 0.250000
O O21 0.000000 0.767659 0.191003
O O22 0.750000 0.411572 0.250000
O O23 0.000000 0.388861 0.312258
#
# Coordination Sequence:
#
# PCOD8220321 Si02
#       8
#     8   8   8   8   8   8   8   8
#     4  12  25  41  62  86 113 146 187 231 273 322
#     4  10  21  36  53  77 111 147 183 227 280 333
#     4  10  20  36  57  81 109 141 183 230 275 327
#     4  11  23  39  59  84 116 150 182 222 275 329
#     4  10  20  35  56  81 109 143 185 229 273 325
#     4  10  22  40  60  84 116 150 183 224 275 327
#     4   9  19  36  57  82 111 144 183 226 272 324
#     4   9  19  35  55  78 105 141 183 228 276 327
#
# _framework density 19.433968
#
# number of rings (size 3 to 8) (size 9 to 14) (size 15 to 20)
#    0.000    1.875    0.000    3.750    0.000    7.750 
#    0.000    0.000    0.000    0.000    0.000    0.000 
#    0.000    0.000    0.000    0.000    0.000    0.000 
#
# Total GULP energy -793818.493100 kJ/mol
# GULP energy per Si atom -12403.413955 kJ/mol
# Density = 1.938974 g / cm^3
# Si number density = 19.433968 Si / 1000 Ang^3
#
#
#
# Elastic Constant Matrix: (Units=GPa)
#
#
# Indices 1 2 3 4 5 6 
#
# 1 73.8185 38.7173 44.9163 0.0000 0.0000 0.0000
# 2 38.7173 103.6230 57.0795 0.0000 0.0000 0.0000
# 3 44.9163 57.0795 117.1757 0.0000 0.0000 0.0000
# 4 0.0000 0.0000 0.0000 28.1095 0.0000 0.0000
# 5 0.0000 0.0000 0.0000 0.0000 31.3283 0.0000
# 6 0.0000 0.0000 0.0000 0.0000 0.0000 30.3591
#
#
#
# Elastic Compliance Matrix: (Units=1/GPa)
#
#
# Indices 1 2 3 4 5 6 
#
# 1 0.018917 -0.004201 -0.005205 0.000000 0.000000 0.000000
# 2 -0.004201 0.014122 -0.005269 0.000000 0.000000 0.000000
# 3 -0.005205 -0.005269 0.013096 0.000000 0.000000 0.000000
# 4 0.000000 0.000000 0.000000 0.035575 0.000000 0.000000
# 5 0.000000 0.000000 0.000000 0.000000 0.031920 0.000000
# 6 0.000000 0.000000 0.000000 0.000000 0.000000 0.032939
#
#
# Mechanical properties :
#
#
# Convention : Reuss Voigt Hill
#
# Bulk Modulus (GPa) = 59.57500 64.00480 61.78990
# Shear Modulus (GPa) = 27.54586 28.21964 27.88275
#
# Velocity S-wave (km/s) = 3.76893 3.81475 3.79191
# Velocity P-wave (km/s) = 7.04709 7.23941 7.14390
#
# Compressibility (1/GPa) = 0.01678557
#
# Stress axis : x y z
#
# Youngs Moduli (GPa) = 52.86182 70.80934 76.35865
#
# Poissons Ratio (x) = 0.29747 0.39745
# Poissons Ratio (y) = 0.22208 0.40234
# Poissons Ratio (z) = 0.27515 0.37310
#
# Static dielectric constant tensor:
#      x y z
#    x 3.534920 0.000000 0.000000 
#    y 0.000000 3.850950 0.000000 
#    z 0.000000 0.000000 3.579390 
# 
# 
# High freq. dielectric constant tensor:
#      x y z
#    x 1.757160 0.000000 0.000000 
#    y 0.000000 1.771250 0.000000 
#    z 0.000000 0.000000 1.756290 
# 
# From -- ./inp_files/27002.got.cif
#   From: 2010.03.12/outbox.cif.g09.slc.cpg/sg53_14_cif.got.tgz:27002.got - 2010.04.16 14:36:59.
