data_PCOD8220962
_publ_section_title
;
Structure prediction by ZEFSAII (Michael W. Deem and Ramdas Pophale) SiO2 
 PCOD8220962
Probable space group: P M N A
;
_chemical_formula_sum "Si O2"
_cell_formula_units_Z 64
_cell_length_a 14.262178
_cell_length_b 11.489936
_cell_length_c 17.709694
_cell_angle_alpha 90.000000
_cell_angle_beta 90.000000
_cell_angle_gamma 90.000000
_cell_volume 2902.114341
_symmetry_space_group_name_H-M "P M N A"
_symmetry_group_IT_number 53
_symmetry_cell_setting 'orthorhombic'
loop_
_space_group_symop_operation_xyz
x,y,z
1/2-x,-y,1/2+z
x,-y,-z
1/2-x,y,1/2-z
-x,-y,-z
1/2+x,y,1/2-z
-x,y,z
1/2+x,-y,1/2+z
loop_
_atom_site_type_symbol
_atom_site_label
_atom_site_fract_x
_atom_site_fract_y
_atom_site_fract_z
Si Si1 0.779772 0.537332 0.080015
Si Si2 0.268037 0.805961 0.087754
Si Si3 0.806155 0.821303 0.577764
Si Si4 0.388778 0.966940 0.170902
Si Si5 0.849776 0.606302 0.781911
Si Si6 0.099304 0.790431 0.889701
Si Si7 0.398614 0.409381 0.120964
Si Si8 0.896982 0.050520 0.843709
O O1 0.763537 0.673178 0.090793
O O2 0.840516 0.488630 0.150442
O O3 0.676611 0.482941 0.075942
O O4 0.828601 0.500000 0.000000
O O5 0.350204 0.839405 0.146889
O O6 0.172801 0.874354 0.106029
O O7 0.319232 0.845982 0.010403
O O8 0.700625 0.762523 0.574779
O O9 0.876992 0.727529 0.611916
O O10 0.824203 0.938218 0.626179
O O11 0.500000 0.982378 0.154200
O O12 0.363653 0.973043 0.258586
O O13 0.750000 0.648156 0.750000
O O14 0.903645 0.720738 0.810543
O O15 0.903628 0.554321 0.709781
O O16 0.000000 0.755968 0.932593
O O17 0.095923 0.926948 0.882093
O O18 0.500000 0.435509 0.085393
O O19 0.000000 0.110908 0.843948
#
# Coordination Sequence:
#
# PCOD8220962 Si02
#       8
#     8   8   8   8   8   8   8   8
#     4  11  23  45  64  93 133 182 225 277 338 396
#     4  12  25  42  68  93 136 182 224 275 339 406
#     4  12  23  42  66 101 136 178 218 278 346 407
#     4  11  25  42  65  99 136 178 224 272 338 413
#     4  10  20  38  65  95 131 168 224 279 336 392
#     4  11  21  37  66  98 129 165 215 271 333 400
#     4  11  23  40  68  99 133 173 225 284 339 398
#     4  10  24  43  66  98 136 175 219 275 341 412
#
# _framework density 22.052887999999999
#
# number of rings (size 3 to 8) (size 9 to 14) (size 15 to 20)
#    0.000    1.000    5.000    2.250    0.000    6.750 
#    0.000    3.750    0.000    2.625    0.000    0.000 
#    0.000    0.000    0.000    0.000    0.000    0.000 
#
# Total GULP energy -792842.658163 kJ/mol
# GULP energy per Si atom -12388.166534 kJ/mol
# Density = 2.200269 g / cm^3
# Si number density = 22.052888 Si / 1000 Ang^3
#
#
#
# Elastic Constant Matrix: (Units=GPa)
#
#
# Indices 1 2 3 4 5 6 
#
# 1 98.5284 12.8076 18.5970 0.0000 0.0000 0.0000
# 2 12.8076 105.6479 25.9832 0.0000 0.0000 0.0000
# 3 18.5970 25.9832 84.2001 0.0000 0.0000 0.0000
# 4 0.0000 0.0000 0.0000 25.5165 0.0000 0.0000
# 5 0.0000 0.0000 0.0000 0.0000 15.1619 0.0000
# 6 0.0000 0.0000 0.0000 0.0000 0.0000 25.4810
#
#
#
# Elastic Compliance Matrix: (Units=1/GPa)
#
#
# Indices 1 2 3 4 5 6 
#
# 1 0.010649 -0.000771 -0.002114 0.000000 0.000000 0.000000
# 2 -0.000771 0.010299 -0.003008 0.000000 0.000000 0.000000
# 3 -0.002114 -0.003008 0.013272 0.000000 0.000000 0.000000
# 4 0.000000 0.000000 0.000000 0.039190 0.000000 0.000000
# 5 0.000000 0.000000 0.000000 0.000000 0.065955 0.000000
# 6 0.000000 0.000000 0.000000 0.000000 0.000000 0.039245
#
#
# Mechanical properties :
#
#
# Convention : Reuss Voigt Hill
#
# Bulk Modulus (GPa) = 44.57670 44.79467 44.68569
# Shear Modulus (GPa) = 25.26884 28.63112 26.94998
#
# Velocity S-wave (km/s) = 3.38868 3.60709 3.49959
# Velocity P-wave (km/s) = 5.96392 6.14041 6.05281
#
# Compressibility (1/GPa) = 0.02243324
#
# Stress axis : x y z
#
# Youngs Moduli (GPa) = 93.90918 97.10055 75.34916
#
# Poissons Ratio (x) = 0.07486 0.15929
# Poissons Ratio (y) = 0.07240 0.22663
# Poissons Ratio (z) = 0.19852 0.29205
#
# Static dielectric constant tensor:
#      x y z
#    x 4.299460 0.000000 0.000000 
#    y 0.000000 3.870070 0.000000 
#    z 0.000000 0.000000 4.077940 
# 
# 
# High freq. dielectric constant tensor:
#      x y z
#    x 1.874200 0.000000 0.000000 
#    y 0.000000 1.855010 0.000000 
#    z 0.000000 0.000000 1.867390 
# 
# From -- ./inp_files/28565.got.cif
#   From: 2010.03.12/outbox.cif.g09.slc.cpg/sg53_15_cif.got.tgz:28565.got - 2010.04.16 14:36:59.
