data_PCOD8220733
_publ_section_title
;
Structure prediction by ZEFSAII (Michael W. Deem and Ramdas Pophale) SiO2 
 PCOD8220733
Probable space group: P M N A
;
_chemical_formula_sum "Si O2"
_cell_formula_units_Z 64
_cell_length_a 9.003517
_cell_length_b 14.213301
_cell_length_c 25.518908
_cell_angle_alpha 90.000000
_cell_angle_beta 90.000000
_cell_angle_gamma 90.000000
_cell_volume 3265.646929
_symmetry_space_group_name_H-M "P M N A"
_symmetry_group_IT_number 53
_symmetry_cell_setting 'orthorhombic'
loop_
_space_group_symop_operation_xyz
x,y,z
1/2-x,-y,1/2+z
x,-y,-z
1/2-x,y,1/2-z
-x,-y,-z
1/2+x,y,1/2-z
-x,y,z
1/2+x,-y,1/2+z
loop_
_atom_site_type_symbol
_atom_site_label
_atom_site_fract_x
_atom_site_fract_y
_atom_site_fract_z
Si Si1 0.673541 0.770919 0.695980
Si Si2 0.669738 0.590755 0.971382
Si Si3 0.324667 0.196292 0.694861
Si Si4 0.825408 0.588777 0.863723
Si Si5 0.175065 0.107454 0.095495
Si Si6 0.173112 0.591499 0.196377
Si Si7 0.675137 0.090428 0.898755
Si Si8 0.669915 0.795329 0.998633
O O1 0.750000 0.801148 0.750000
O O2 0.500000 0.773355 0.706347
O O3 0.725577 0.666268 0.678931
O O4 0.717628 0.844370 0.650551
O O5 0.500000 0.567722 0.957618
O O6 0.751903 0.613865 0.918098
O O7 0.741882 0.500000 0.000000
O O8 0.684780 0.683058 0.007770
O O9 0.250000 0.171572 0.750000
O O10 0.500000 0.180796 0.699832
O O11 0.284670 0.303342 0.677999
O O12 0.259446 0.126603 0.652238
O O13 0.774470 0.484312 0.846565
O O14 0.000000 0.595862 0.872123
O O15 0.000000 0.086597 0.092095
O O16 0.269186 0.013362 0.088787
O O17 0.220871 0.174836 0.047880
O O18 0.250000 0.564173 0.250000
O O19 0.000000 0.582390 0.206912
O O20 0.500000 0.090922 0.888249
O O21 0.719010 0.155531 0.947695
O O22 0.500000 0.822344 0.984081
#
# Coordination Sequence:
#
# PCOD8220733 Si02
#       8
#     8   8   8   8   8   8   8   8
#     4  10  22  38  59  87 119 155 197 243 295 355
#     4  10  22  38  58  87 120 156 195 237 288 350
#     4  10  21  39  60  87 120 156 196 242 294 349
#     4  10  20  37  57  84 119 153 192 239 290 348
#     4  11  23  41  62  88 119 153 197 251 302 356
#     4   9  19  34  55  82 114 149 189 233 280 337
#     4  11  24  40  62  89 117 154 197 247 300 357
#     4  10  22  41  62  87 120 156 197 243 296 356
#
# _framework density 19.597954000000001
#
# number of rings (size 3 to 8) (size 9 to 14) (size 15 to 20)
#    0.000    1.875    1.250    1.875    1.750    5.750 
#    0.000    1.250    0.000    0.000    0.000    0.000 
#    0.000    0.000    0.000    0.000    0.000    0.000 
#
# Total GULP energy -793765.524848 kJ/mol
# GULP energy per Si atom -12402.586326 kJ/mol
# Density = 1.955335 g / cm^3
# Si number density = 19.597954 Si / 1000 Ang^3
#
#
#
# Elastic Constant Matrix: (Units=GPa)
#
#
# Indices 1 2 3 4 5 6 
#
# 1 52.9995 30.2828 41.8392 0.0000 0.0000 0.0000
# 2 30.2828 109.2228 47.4752 0.0000 0.0000 0.0000
# 3 41.8392 47.4752 112.6919 0.0000 0.0000 0.0000
# 4 0.0000 0.0000 0.0000 22.1905 0.0000 0.0000
# 5 0.0000 0.0000 0.0000 0.0000 34.0991 0.0000
# 6 0.0000 0.0000 0.0000 0.0000 0.0000 29.4869
#
#
#
# Elastic Compliance Matrix: (Units=1/GPa)
#
#
# Indices 1 2 3 4 5 6 
#
# 1 0.028034 -0.003977 -0.008733 0.000000 0.000000 0.000000
# 2 -0.003977 0.011772 -0.003483 0.000000 0.000000 0.000000
# 3 -0.008733 -0.003483 0.013583 0.000000 0.000000 0.000000
# 4 0.000000 0.000000 0.000000 0.045064 0.000000 0.000000
# 5 0.000000 0.000000 0.000000 0.000000 0.029326 0.000000
# 6 0.000000 0.000000 0.000000 0.000000 0.000000 0.033913
#
#
# Mechanical properties :
#
#
# Convention : Reuss Voigt Hill
#
# Bulk Modulus (GPa) = 47.60901 57.12317 52.36609
# Shear Modulus (GPa) = 24.86563 27.50977 26.18770
#
# Velocity S-wave (km/s) = 3.56587 3.75067 3.65944
# Velocity P-wave (km/s) = 6.42647 6.92586 6.68083
#
# Compressibility (1/GPa) = 0.02100443
#
# Stress axis : x y z
#
# Youngs Moduli (GPa) = 35.67040 84.94660 73.61953
#
# Poissons Ratio (x) = 0.33782 0.64292
# Poissons Ratio (y) = 0.14186 0.25641
# Poissons Ratio (z) = 0.31151 0.29586
#
# Static dielectric constant tensor:
#      x y z
#    x 3.507100 0.000000 0.000000 
#    y 0.000000 3.802900 0.000000 
#    z 0.000000 0.000000 3.633340 
# 
# 
# High freq. dielectric constant tensor:
#      x y z
#    x 1.760910 0.000000 0.000000 
#    y 0.000000 1.777490 0.000000 
#    z 0.000000 0.000000 1.761460 
# 
# From -- ./inp_files/34174.got.cif
#   From: 2010.03.12/outbox.cif.g09.slc.cpg/sg53_18_cif.got.tgz:34174.got - 2010.04.16 14:36:59.
