data_PCOD8220527
_publ_section_title
;
Structure prediction by ZEFSAII (Michael W. Deem and Ramdas Pophale) SiO2 
 PCOD8220527
Probable space group: P M N A
;
_chemical_formula_sum "Si O2"
_cell_formula_units_Z 48
_cell_length_a 8.741537
_cell_length_b 15.001358
_cell_length_c 19.417884
_cell_angle_alpha 90.000000
_cell_angle_beta 90.000000
_cell_angle_gamma 90.000000
_cell_volume 2546.362782
_symmetry_space_group_name_H-M "P M N A"
_symmetry_group_IT_number 53
_symmetry_cell_setting 'orthorhombic'
loop_
_space_group_symop_operation_xyz
x,y,z
1/2-x,-y,1/2+z
x,-y,-z
1/2-x,y,1/2-z
-x,-y,-z
1/2+x,y,1/2-z
-x,y,z
1/2+x,-y,1/2+z
loop_
_atom_site_type_symbol
_atom_site_label
_atom_site_fract_x
_atom_site_fract_y
_atom_site_fract_z
Si Si1 0.819606 0.536985 0.425843
Si Si2 0.681794 0.727833 0.436820
Si Si3 0.180194 0.866587 0.178272
Si Si4 0.181408 0.603273 0.825415
Si Si5 0.318905 0.932955 0.678089
Si Si6 0.318681 0.771676 0.588738
O O1 0.766677 0.500000 0.500000
O O2 0.768444 0.638262 0.417258
O O3 0.735186 0.483355 0.366249
O O4 0.000000 0.528036 0.415979
O O5 0.500000 0.711710 0.435968
O O6 0.734663 0.802267 0.382523
O O7 0.741003 0.761126 0.511059
O O8 0.250000 0.832768 0.250000
O O9 0.000000 0.864587 0.186225
O O10 0.236998 0.966881 0.160598
O O11 0.250000 0.601734 0.750000
O O12 0.244118 0.690680 0.864870
O O13 0.000000 0.603121 0.820456
O O14 0.250000 0.900025 0.750000
O O15 0.500000 0.928625 0.684271
O O16 0.259014 0.865827 0.618968
O O17 0.500000 0.769727 0.589022
#
# Coordination Sequence:
#
# PCOD8220527 Si02
#       6
#     8   8   8   8   8   8
#     4  11  23  39  58  81 109 144 185 230 279 331
#     4  10  20  36  57  81 107 144 185 225 276 330
#     4   9  19  34  55  79 108 143 182 225 270 321
#     4  11  22  37  58  84 113 146 183 228 275 330
#     4   9  17  32  52  78 109 144 180 221 269 320
#     4   9  18  32  54  81 110 142 181 222 270 326
#
# _framework density 18.850417
#
# number of rings (size 3 to 8) (size 9 to 14) (size 15 to 20)
#    0.000    2.167    1.667    1.500    0.000    2.667 
#    0.000    6.667    0.000    0.000    0.000    5.833 
#    0.000    0.000    0.000    0.000    0.000    0.000 
#
# Total GULP energy -595283.507136 kJ/mol
# GULP energy per Si atom -12401.739732 kJ/mol
# Density = 1.880751 g / cm^3
# Si number density = 18.850417 Si / 1000 Ang^3
#
#
#
# Elastic Constant Matrix: (Units=GPa)
#
#
# Indices 1 2 3 4 5 6 
#
# 1 34.7384 26.2932 33.5158 0.0000 0.0000 0.0000
# 2 26.2932 142.4455 96.7650 0.0000 0.0000 0.0000
# 3 33.5158 96.7650 178.9350 0.0000 0.0000 0.0000
# 4 0.0000 0.0000 0.0000 69.2815 0.0000 0.0000
# 5 0.0000 0.0000 0.0000 0.0000 24.4421 0.0000
# 6 0.0000 0.0000 0.0000 0.0000 0.0000 18.1016
#
#
#
# Elastic Compliance Matrix: (Units=1/GPa)
#
#
# Indices 1 2 3 4 5 6 
#
# 1 0.036075 -0.003270 -0.004989 0.000000 0.000000 0.000000
# 2 -0.003270 0.011393 -0.005549 0.000000 0.000000 0.000000
# 3 -0.004989 -0.005549 0.009524 0.000000 0.000000 0.000000
# 4 0.000000 0.000000 0.000000 0.014434 0.000000 0.000000
# 5 0.000000 0.000000 0.000000 0.000000 0.040913 0.000000
# 6 0.000000 0.000000 0.000000 0.000000 0.000000 0.055244
#
#
# Mechanical properties :
#
#
# Convention : Reuss Voigt Hill
#
# Bulk Modulus (GPa) = 34.04051 74.36298 54.20175
# Shear Modulus (GPa) = 24.39156 35.66805 30.02980
#
# Velocity S-wave (km/s) = 3.60106 4.35462 3.99564
# Velocity P-wave (km/s) = 5.94875 8.05098 7.07834
#
# Compressibility (1/GPa) = 0.02937676
#
# Stress axis : x y z
#
# Youngs Moduli (GPa) = 27.72027 87.77227 105.00127
#
# Poissons Ratio (x) = 0.28701 0.52382
# Poissons Ratio (y) = 0.09064 0.58262
# Poissons Ratio (z) = 0.13829 0.48702
#
# Static dielectric constant tensor:
#      x y z
#    x 3.235080 0.000000 0.000000 
#    y 0.000000 3.706370 0.000000 
#    z 0.000000 0.000000 3.684680 
# 
# 
# High freq. dielectric constant tensor:
#      x y z
#    x 1.712170 0.000000 0.000000 
#    y 0.000000 1.743590 0.000000 
#    z 0.000000 0.000000 1.738430 
# 
# From -- ./inp_files/26164.got.cif
#   From: 2010.03.12/outbox.cif.g09.slc.cpg/sg53_14_cif.got.tgz:26164.got - 2010.04.16 14:36:59.
