data_PCOD8220170
_publ_section_title
;
Structure prediction by ZEFSAII (Michael W. Deem and Ramdas Pophale) SiO2 
 PCOD8220170
Probable space group: P M N A
;
_chemical_formula_sum "Si O2"
_cell_formula_units_Z 64
_cell_length_a 29.914694
_cell_length_b 9.202934
_cell_length_c 11.574973
_cell_angle_alpha 90.000000
_cell_angle_beta 90.000000
_cell_angle_gamma 90.000000
_cell_volume 3186.624265
_symmetry_space_group_name_H-M "P M N A"
_symmetry_group_IT_number 53
_symmetry_cell_setting 'orthorhombic'
loop_
_space_group_symop_operation_xyz
x,y,z
1/2-x,-y,1/2+z
x,-y,-z
1/2-x,y,1/2-z
-x,-y,-z
1/2+x,y,1/2-z
-x,y,z
1/2+x,-y,1/2+z
loop_
_atom_site_type_symbol
_atom_site_label
_atom_site_fract_x
_atom_site_fract_y
_atom_site_fract_z
Si Si1 0.295259 0.634395 0.303988
Si Si2 0.880310 0.681890 0.615665
Si Si3 0.081902 0.839645 0.158603
Si Si4 0.799955 0.697925 0.780638
Si Si5 0.549508 0.348301 0.471060
Si Si6 0.172019 0.839400 0.008097
Si Si7 0.053074 0.156553 0.235125
Si Si8 0.879917 0.352161 0.650501
O O1 0.250000 0.690563 0.250000
O O2 0.294503 0.463723 0.331439
O O3 0.298589 0.724885 0.421645
O O4 0.332449 0.669580 0.209913
O O5 0.830787 0.708634 0.666735
O O6 0.917859 0.798815 0.653808
O O7 0.896283 0.519577 0.650949
O O8 0.876248 0.704718 0.479344
O O9 0.124335 0.847205 0.072488
O O10 0.086737 0.748353 0.276427
O O11 0.064033 0.995939 0.192639
O O12 0.045580 0.754512 0.082779
O O13 0.750000 0.758663 0.750000
O O14 0.827776 0.787590 0.875647
O O15 0.575965 0.500000 0.500000
O O16 0.500000 0.390864 0.430598
O O17 0.571642 0.265147 0.363857
O O18 0.193167 0.000000 0.000000
O O19 0.000000 0.169720 0.259954
#
# Coordination Sequence:
#
# PCOD8220170 Si02
#       8
#     8   8   8   8   8   8   8   8
#     4   9  20  37  60  84 115 148 197 245 290 350
#     4  10  20  40  60  84 121 153 202 249 299 352
#     4  11  21  37  57  83 116 153 195 239 294 354
#     4  10  21  36  61  91 113 151 194 244 295 354
#     4  10  20  34  56  85 114 143 183 240 297 348
#     4  11  22  35  54  82 117 151 187 232 292 346
#     4  11  23  39  61  88 119 160 202 248 303 361
#     4   9  21  37  60  85 113 162 196 247 303 349
#
# _framework density 20.083949
#
# number of rings (size 3 to 8) (size 9 to 14) (size 15 to 20)
#    0.000    1.875    0.000    4.125    1.750    4.000 
#    0.000    3.750    0.000    0.000    0.000    0.000 
#    0.000    0.000    0.000    0.000    0.000    0.000 
#
# Total GULP energy -793238.791121 kJ/mol
# GULP energy per Si atom -12394.356111 kJ/mol
# Density = 2.003824 g / cm^3
# Si number density = 20.083949 Si / 1000 Ang^3
#
#
#
# Elastic Constant Matrix: (Units=GPa)
#
#
# Indices 1 2 3 4 5 6 
#
# 1 72.8936 17.4351 19.2083 0.0000 0.0000 0.0000
# 2 17.4351 90.2616 36.5672 0.0000 0.0000 0.0000
# 3 19.2083 36.5672 116.9061 0.0000 0.0000 0.0000
# 4 0.0000 0.0000 0.0000 31.1447 0.0000 0.0000
# 5 0.0000 0.0000 0.0000 0.0000 24.7241 0.0000
# 6 0.0000 0.0000 0.0000 0.0000 0.0000 25.2687
#
#
#
# Elastic Compliance Matrix: (Units=1/GPa)
#
#
# Indices 1 2 3 4 5 6 
#
# 1 0.014688 -0.002129 -0.001747 0.000000 0.000000 0.000000
# 2 -0.002129 0.012995 -0.003715 0.000000 0.000000 0.000000
# 3 -0.001747 -0.003715 0.010003 0.000000 0.000000 0.000000
# 4 0.000000 0.000000 0.000000 0.032108 0.000000 0.000000
# 5 0.000000 0.000000 0.000000 0.000000 0.040446 0.000000
# 6 0.000000 0.000000 0.000000 0.000000 0.000000 0.039575
#
#
# Mechanical properties :
#
#
# Convention : Reuss Voigt Hill
#
# Bulk Modulus (GPa) = 44.43783 47.38694 45.91238
# Shear Modulus (GPa) = 28.98548 30.01754 29.50151
#
# Velocity S-wave (km/s) = 3.80309 3.87020 3.83679
# Velocity P-wave (km/s) = 6.43885 6.60431 6.52210
#
# Compressibility (1/GPa) = 0.02250335
#
# Stress axis : x y z
#
# Youngs Moduli (GPa) = 68.08110 76.95129 99.97034
#
# Poissons Ratio (x) = 0.16386 0.17468
# Poissons Ratio (y) = 0.14497 0.37138
# Poissons Ratio (z) = 0.11896 0.28587
#
# Static dielectric constant tensor:
#      x y z
#    x 3.501170 0.000000 0.000000 
#    y 0.000000 3.801800 0.000000 
#    z 0.000000 0.000000 3.667900 
# 
# 
# High freq. dielectric constant tensor:
#      x y z
#    x 1.772560 0.000000 0.000000 
#    y 0.000000 1.788360 0.000000 
#    z 0.000000 0.000000 1.785410 
# 
# From -- ./inp_files/19038.got.cif
#   From: 2010.03.12/outbox.cif.g09.slc.cpg/sg53_10_cif.got.tgz:19038.got - 2010.04.16 14:36:59.
