data_PCOD8220248
_publ_section_title
;
Structure prediction by ZEFSAII (Michael W. Deem and Ramdas Pophale) SiO2 
 PCOD8220248
Probable space group: P M N A
;
_chemical_formula_sum "Si O2"
_cell_formula_units_Z 48
_cell_length_a 15.183198
_cell_length_b 16.143766
_cell_length_c 8.666800
_cell_angle_alpha 90.000000
_cell_angle_beta 90.000000
_cell_angle_gamma 90.000000
_cell_volume 2124.353977
_symmetry_space_group_name_H-M "P M N A"
_symmetry_group_IT_number 53
_symmetry_cell_setting 'orthorhombic'
loop_
_space_group_symop_operation_xyz
x,y,z
1/2-x,-y,1/2+z
x,-y,-z
1/2-x,y,1/2-z
-x,-y,-z
1/2+x,y,1/2-z
-x,y,z
1/2+x,-y,1/2+z
loop_
_atom_site_type_symbol
_atom_site_label
_atom_site_fract_x
_atom_site_fract_y
_atom_site_fract_z
Si Si1 0.097296 0.345930 0.017689
Si Si2 0.597898 0.284140 0.831597
Si Si3 0.845907 0.883350 0.205555
Si Si4 0.597758 0.962174 0.848477
Si Si5 0.398015 0.171073 0.378978
Si Si6 0.729255 0.581033 0.073854
O O1 0.110810 0.270538 0.139742
O O2 0.000000 0.387399 0.048837
O O3 0.098361 0.312313 0.844504
O O4 0.181047 0.406842 0.028626
O O5 0.500000 0.292976 0.903112
O O6 0.626396 0.188299 0.828224
O O7 0.665033 0.338994 0.934918
O O8 0.750000 0.914267 0.250000
O O9 0.907389 0.963844 0.223232
O O10 0.844966 0.854043 0.030403
O O11 0.500000 0.935986 0.900763
O O12 0.640504 0.879450 0.769571
O O13 0.648433 0.000000 0.000000
O O14 0.500000 0.146531 0.403777
O O15 0.750000 0.561290 0.250000
O O16 0.682358 0.500000 0.000000
#
# Coordination Sequence:
#
# PCOD8220248 Si02
#       6
#     8   8   8   8   8   8
#     4   8  15  30  54  81 106 139 183 227 275 333
#     4   9  17  32  55  78 102 138 184 232 283 342
#     4  11  20  32  53  79 104 135 182 236 285 337
#     4  10  21  35  50  74 111 149 181 221 275 333
#     4   9  17  33  57  78 100 138 188 232 272 333
#     4  10  20  35  54  79 112 145 184 237 291 345
#
# _framework density 22.595106999999999
#
# number of rings (size 3 to 8) (size 9 to 14) (size 15 to 20)
#    0.000    2.500    0.000    5.500    0.000    3.333 
#    0.000    1.667    0.000    2.000    0.000    0.000 
#    0.000    0.000    0.000    0.000    0.000    1.833 
#
# Total GULP energy -594669.936026 kJ/mol
# GULP energy per Si atom -12388.957001 kJ/mol
# Density = 2.254368 g / cm^3
# Si number density = 22.595107 Si / 1000 Ang^3
#
#
#
# Elastic Constant Matrix: (Units=GPa)
#
#
# Indices 1 2 3 4 5 6 
#
# 1 90.0557 30.4959 27.0761 0.0000 0.0000 0.0000
# 2 30.4959 110.2639 31.4767 0.0000 0.0000 0.0000
# 3 27.0761 31.4767 66.0143 0.0000 0.0000 0.0000
# 4 0.0000 0.0000 0.0000 42.1167 0.0000 0.0000
# 5 0.0000 0.0000 0.0000 0.0000 12.3400 0.0000
# 6 0.0000 0.0000 0.0000 0.0000 0.0000 23.4732
#
#
#
# Elastic Compliance Matrix: (Units=1/GPa)
#
#
# Indices 1 2 3 4 5 6 
#
# 1 0.013209 -0.002439 -0.004255 0.000000 0.000000 0.000000
# 2 -0.002439 0.010948 -0.004220 0.000000 0.000000 0.000000
# 3 -0.004255 -0.004220 0.018906 0.000000 0.000000 0.000000
# 4 0.000000 0.000000 0.000000 0.023744 0.000000 0.000000
# 5 0.000000 0.000000 0.000000 0.000000 0.081037 0.000000
# 6 0.000000 0.000000 0.000000 0.000000 0.000000 0.042602
#
#
# Mechanical properties :
#
#
# Convention : Reuss Voigt Hill
#
# Bulk Modulus (GPa) = 47.09059 49.38126 48.23593
# Shear Modulus (GPa) = 22.79437 27.40500 25.09969
#
# Velocity S-wave (km/s) = 3.17964 3.48641 3.33655
# Velocity P-wave (km/s) = 5.86229 6.17325 6.01978
#
# Compressibility (1/GPa) = 0.02123566
#
# Stress axis : x y z
#
# Youngs Moduli (GPa) = 75.70380 91.33825 52.89408
#
# Poissons Ratio (x) = 0.22274 0.22507
# Poissons Ratio (y) = 0.18461 0.22322
# Poissons Ratio (z) = 0.32213 0.38546
#
# Static dielectric constant tensor:
#      x y z
#    x 4.121510 0.000000 0.000000 
#    y 0.000000 4.094630 0.000000 
#    z 0.000000 0.000000 3.777880 
# 
# 
# High freq. dielectric constant tensor:
#      x y z
#    x 1.879510 0.000000 0.000000 
#    y 0.000000 1.884080 0.000000 
#    z 0.000000 0.000000 1.855070 
# 
# From -- ./inp_files/8629.got.cif
#   From: 2010.03.12/outbox.cif.g09.slc.cpg/sg53_5_cif.got.tgz:8629.got - 2010.04.16 14:36:59.
