data_PCOD8220338
_publ_section_title
;
Structure prediction by ZEFSAII (Michael W. Deem and Ramdas Pophale) SiO2 
 PCOD8220338
Probable space group: P M N A
;
_chemical_formula_sum "Si O2"
_cell_formula_units_Z 64
_cell_length_a 9.364064
_cell_length_b 12.553709
_cell_length_c 28.529122
_cell_angle_alpha 90.000000
_cell_angle_beta 90.000000
_cell_angle_gamma 90.000000
_cell_volume 3353.704833
_symmetry_space_group_name_H-M "P M N A"
_symmetry_group_IT_number 53
_symmetry_cell_setting 'orthorhombic'
loop_
_space_group_symop_operation_xyz
x,y,z
1/2-x,-y,1/2+z
x,-y,-z
1/2-x,y,1/2-z
-x,-y,-z
1/2+x,y,1/2-z
-x,y,z
1/2+x,-y,1/2+z
loop_
_atom_site_type_symbol
_atom_site_label
_atom_site_fract_x
_atom_site_fract_y
_atom_site_fract_z
Si Si1 0.166679 0.352531 0.109781
Si Si2 0.665840 0.961826 0.111664
Si Si3 0.329864 0.913695 0.299697
Si Si4 0.165395 0.825917 0.557413
Si Si5 0.165997 0.449469 0.950033
Si Si6 0.339513 0.319989 0.705106
Si Si7 0.167879 0.767162 0.453397
Si Si8 0.837788 0.548797 0.796669
O O1 0.250206 0.252205 0.091092
O O2 0.218811 0.462002 0.086386
O O3 0.200423 0.361865 0.165112
O O4 0.000000 0.335379 0.099277
O O5 0.500000 0.960292 0.126592
O O6 0.760376 0.983017 0.158561
O O7 0.710321 0.852751 0.086028
O O8 0.696631 0.054585 0.074253
O O9 0.250000 0.935467 0.250000
O O10 0.500000 0.937262 0.294872
O O11 0.295064 0.792402 0.317863
O O12 0.217221 0.812360 0.503933
O O13 0.000000 0.797170 0.561910
O O14 0.252749 0.341850 0.941363
O O15 0.000000 0.420696 0.944141
O O16 0.200151 0.500000 0.000000
O O17 0.250000 0.344745 0.750000
O O18 0.500000 0.304219 0.722359
O O19 0.319088 0.431557 0.677102
O O20 0.000000 0.745044 0.453194
O O21 0.750000 0.569317 0.750000
O O22 0.000000 0.559989 0.780352
#
# Coordination Sequence:
#
# PCOD8220338 Si02
#       8
#     8   8   8   8   8   8   8   8
#     4  10  21  36  56  81 114 151 186 228 280 338
#     4  10  22  39  58  83 113 148 191 238 288 337
#     4  10  20  35  57  83 113 148 186 232 282 337
#     4  10  21  39  60  80 109 149 191 237 286 335
#     4  10  20  35  56  83 116 151 182 222 282 345
#     4   8  15  28  47  71 101 136 171 210 263 319
#     4  10  21  37  59  85 114 147 189 237 284 339
#     4   9  18  33  52  76 108 145 183 225 271 326
#
# _framework density 19.083372000000001
#
# number of rings (size 3 to 8) (size 9 to 14) (size 15 to 20)
#    0.000    2.375    1.250    0.750    1.750    4.250 
#    0.000    0.625    0.000    3.750    0.000    0.000 
#    0.000    0.000    0.000    0.000    0.000    0.000 
#
# Total GULP energy -793056.484196 kJ/mol
# GULP energy per Si atom -12391.507566 kJ/mol
# Density = 1.903994 g / cm^3
# Si number density = 19.083372 Si / 1000 Ang^3
#
#
#
# Elastic Constant Matrix: (Units=GPa)
#
#
# Indices 1 2 3 4 5 6 
#
# 1 48.9087 31.0774 26.9826 0.0000 0.0000 0.0000
# 2 31.0774 83.0517 23.2084 0.0000 0.0000 0.0000
# 3 26.9826 23.2084 71.6179 0.0000 0.0000 0.0000
# 4 0.0000 0.0000 0.0000 19.1791 0.0000 0.0000
# 5 0.0000 0.0000 0.0000 0.0000 28.9445 0.0000
# 6 0.0000 0.0000 0.0000 0.0000 0.0000 28.4216
#
#
#
# Elastic Compliance Matrix: (Units=1/GPa)
#
#
# Indices 1 2 3 4 5 6 
#
# 1 0.031115 -0.009200 -0.008741 0.000000 0.000000 0.000000
# 2 -0.009200 0.015960 -0.001706 0.000000 0.000000 0.000000
# 3 -0.008741 -0.001706 0.017809 0.000000 0.000000 0.000000
# 4 0.000000 0.000000 0.000000 0.052140 0.000000 0.000000
# 5 0.000000 0.000000 0.000000 0.000000 0.034549 0.000000
# 6 0.000000 0.000000 0.000000 0.000000 0.000000 0.035185
#
#
# Mechanical properties :
#
#
# Convention : Reuss Voigt Hill
#
# Bulk Modulus (GPa) = 39.07877 40.67947 39.87912
# Shear Modulus (GPa) = 21.31455 23.46304 22.38879
#
# Velocity S-wave (km/s) = 3.34566 3.51023 3.42893
# Velocity P-wave (km/s) = 5.95373 6.14751 6.05140
#
# Compressibility (1/GPa) = 0.02558934
#
# Stress axis : x y z
#
# Youngs Moduli (GPa) = 32.13911 62.65665 56.15106
#
# Poissons Ratio (x) = 0.57645 0.49084
# Poissons Ratio (y) = 0.29569 0.09578
# Poissons Ratio (z) = 0.28094 0.10687
#
# Static dielectric constant tensor:
#      x y z
#    x 3.404520 0.000000 0.000000 
#    y 0.000000 3.522830 0.000000 
#    z 0.000000 0.000000 3.433660 
# 
# 
# High freq. dielectric constant tensor:
#      x y z
#    x 1.735700 0.000000 0.000000 
#    y 0.000000 1.737090 0.000000 
#    z 0.000000 0.000000 1.741060 
# 
# From -- ./inp_files/38264.got.cif
#   From: 2010.03.12/outbox.cif.g09.slc.cpg/sg53_20_cif.got.tgz:38264.got - 2010.04.16 14:36:59.
