data_PCOD8220834
_publ_section_title
;
Structure prediction by ZEFSAII (Michael W. Deem and Ramdas Pophale) SiO2 
 PCOD8220834
Probable space group: P M N A
;
_chemical_formula_sum "Si O2"
_cell_formula_units_Z 56
_cell_length_a 8.686202
_cell_length_b 14.214459
_cell_length_c 22.104638
_cell_angle_alpha 90.000000
_cell_angle_beta 90.000000
_cell_angle_gamma 90.000000
_cell_volume 2729.252187
_symmetry_space_group_name_H-M "P M N A"
_symmetry_group_IT_number 53
_symmetry_cell_setting 'orthorhombic'
loop_
_space_group_symop_operation_xyz
x,y,z
1/2-x,-y,1/2+z
x,-y,-z
1/2-x,y,1/2-z
-x,-y,-z
1/2+x,y,1/2-z
-x,y,z
1/2+x,-y,1/2+z
loop_
_atom_site_type_symbol
_atom_site_label
_atom_site_fract_x
_atom_site_fract_y
_atom_site_fract_z
Si Si1 0.818593 0.380106 0.687051
Si Si2 0.824963 0.581463 0.642003
Si Si3 0.681338 0.730152 0.068728
Si Si4 0.181992 0.955931 0.684081
Si Si5 0.681346 0.052142 0.939032
Si Si6 0.821698 0.241980 0.188552
Si Si7 0.833911 0.401994 0.027376
O O1 0.750000 0.343300 0.750000
O O2 0.762409 0.487375 0.674781
O O3 0.766096 0.308242 0.634626
O O4 0.000000 0.380798 0.691878
O O5 0.708095 0.669260 0.646568
O O6 0.808707 0.569417 0.570696
O O7 0.000000 0.604633 0.661330
O O8 0.500000 0.714042 0.059786
O O9 0.726549 0.838824 0.060289
O O10 0.776172 0.675820 0.018958
O O11 0.250000 0.987503 0.750000
O O12 0.227735 0.849390 0.668212
O O13 0.000000 0.965954 0.689993
O O14 0.245644 0.013265 0.625682
O O15 0.500000 0.036172 0.938882
O O16 0.748342 0.000000 0.000000
O O17 0.750000 0.280558 0.250000
O O18 0.000000 0.215325 0.194184
O O19 0.000000 0.365364 0.054587
O O20 0.878241 0.500000 0.000000
#
# Coordination Sequence:
#
# PCOD8220834 Si02
#       7
#     8   8   8   8   8   8   8
#     4  10  22  37  57  85 116 154 197 241 291 347
#     4  11  22  37  58  85 117 158 199 241 294 348
#     4  10  21  40  62  86 116 154 201 248 295 360
#     4  10  20  37  61  89 120 158 204 251 310 372
#     4   9  20  38  62  91 118 151 202 258 307 358
#     4  11  22  37  57  86 121 157 198 243 293 352
#     4  11  23  38  58  87 121 155 191 236 291 351
#
# _framework density 20.518440999999999
#
# number of rings (size 3 to 8) (size 9 to 14) (size 15 to 20)
#    0.000    1.714    1.429    3.857    2.000    4.000 
#    0.000    1.429    0.000    2.143    0.000    0.000 
#    0.000    0.000    0.000    0.000    0.000    0.000 
#
# Total GULP energy -693746.887633 kJ/mol
# GULP energy per Si atom -12388.337279 kJ/mol
# Density = 2.047174 g / cm^3
# Si number density = 20.518441 Si / 1000 Ang^3
#
#
#
# Elastic Constant Matrix: (Units=GPa)
#
#
# Indices 1 2 3 4 5 6 
#
# 1 53.7791 23.9260 23.8729 0.0000 0.0000 0.0000
# 2 23.9260 108.5751 46.5989 0.0000 0.0000 0.0000
# 3 23.8729 46.5989 107.7009 0.0000 0.0000 0.0000
# 4 0.0000 0.0000 0.0000 16.0308 0.0000 0.0000
# 5 0.0000 0.0000 0.0000 0.0000 36.9356 0.0000
# 6 0.0000 0.0000 0.0000 0.0000 0.0000 22.6661
#
#
#
# Elastic Compliance Matrix: (Units=1/GPa)
#
#
# Indices 1 2 3 4 5 6 
#
# 1 0.021553 -0.003315 -0.003343 0.000000 0.000000 0.000000
# 2 -0.003315 0.011820 -0.004380 0.000000 0.000000 0.000000
# 3 -0.003343 -0.004380 0.011921 0.000000 0.000000 0.000000
# 4 0.000000 0.000000 0.000000 0.062380 0.000000 0.000000
# 5 0.000000 0.000000 0.000000 0.000000 0.027074 0.000000
# 6 0.000000 0.000000 0.000000 0.000000 0.000000 0.044119
#
#
# Mechanical properties :
#
#
# Convention : Reuss Voigt Hill
#
# Bulk Modulus (GPa) = 43.06727 50.98341 47.02534
# Shear Modulus (GPa) = 23.95984 26.83698 25.39841
#
# Velocity S-wave (km/s) = 3.42090 3.62047 3.52210
# Velocity P-wave (km/s) = 6.05298 6.50989 6.28559
#
# Compressibility (1/GPa) = 0.02321949
#
# Stress axis : x y z
#
# Youngs Moduli (GPa) = 46.39643 84.60031 83.88585
#
# Poissons Ratio (x) = 0.28042 0.28046
# Poissons Ratio (y) = 0.15379 0.36738
# Poissons Ratio (z) = 0.15512 0.37051
#
# Static dielectric constant tensor:
#      x y z
#    x 3.478450 0.000000 0.000000 
#    y 0.000000 4.101100 0.000000 
#    z 0.000000 0.000000 4.140530 
# 
# 
# High freq. dielectric constant tensor:
#      x y z
#    x 1.790060 0.000000 0.000000 
#    y 0.000000 1.801540 0.000000 
#    z 0.000000 0.000000 1.810890 
# 
# From -- ./inp_files/30850.got.cif
#   From: 2010.03.12/outbox.cif.g09.slc.cpg/sg53_16_cif.got.tgz:30850.got - 2010.04.16 14:36:59.
