data_PCOD8220595
_publ_section_title
;
Structure prediction by ZEFSAII (Michael W. Deem and Ramdas Pophale) SiO2 
 PCOD8220595
Probable space group: P M N A
;
_chemical_formula_sum "Si O2"
_cell_formula_units_Z 48
_cell_length_a 8.905340
_cell_length_b 30.188371
_cell_length_c 9.121963
_cell_angle_alpha 90.000000
_cell_angle_beta 90.000000
_cell_angle_gamma 90.000000
_cell_volume 2452.327624
_symmetry_space_group_name_H-M "P M N A"
_symmetry_group_IT_number 53
_symmetry_cell_setting 'orthorhombic'
loop_
_space_group_symop_operation_xyz
x,y,z
1/2-x,-y,1/2+z
x,-y,-z
1/2-x,y,1/2-z
-x,-y,-z
1/2+x,y,1/2-z
-x,y,z
1/2+x,-y,1/2+z
loop_
_atom_site_type_symbol
_atom_site_label
_atom_site_fract_x
_atom_site_fract_y
_atom_site_fract_z
Si Si1 0.674539 0.119732 0.907924
Si Si2 0.675396 0.621201 0.400108
Si Si3 0.325978 0.956289 0.594520
Si Si4 0.325190 0.205931 0.096957
Si Si5 0.677027 0.458590 0.405136
Si Si6 0.677283 0.722094 0.404250
O O1 0.750000 0.118767 0.750000
O O2 0.500000 0.108355 0.889442
O O3 0.748383 0.084161 0.013596
O O4 0.700366 0.167440 0.979241
O O5 0.750000 0.606210 0.250000
O O6 0.500000 0.616477 0.375477
O O7 0.732479 0.587774 0.524936
O O8 0.718819 0.671396 0.442160
O O9 0.250000 0.964562 0.750000
O O10 0.500000 0.944886 0.618131
O O11 0.302911 0.000000 0.500000
O O12 0.250000 0.191998 0.250000
O O13 0.500000 0.215342 0.123567
O O14 0.246332 0.249830 0.036135
O O15 0.733467 0.500000 0.500000
O O16 0.750000 0.463637 0.250000
O O17 0.500000 0.459172 0.387439
O O18 0.750000 0.736482 0.250000
O O19 0.500000 0.730210 0.393742
#
# Coordination Sequence:
#
# PCOD8220595 Si02
#       6
#     8   8   8   8   8   8
#     4  11  24  41  63  89 118 153 193 238 287 340
#     4   9  19  35  55  81 110 142 182 226 273 328
#     4  11  24  41  63  91 123 158 196 239 286 338
#     4  11  24  40  59  85 116 151 191 236 286 338
#     4  10  21  36  54  78 108 141 180 225 273 327
#     4  10  20  36  58  83 113 148 187 231 279 334
#
# _framework density 19.573240999999999
#
# number of rings (size 3 to 8) (size 9 to 14) (size 15 to 20)
#    0.000    1.667    0.000    4.000    0.000   10.333 
#    0.000    1.667    0.000    0.000    0.000    0.000 
#    0.000    0.000    0.000    0.000    0.000    0.000 
#
# Total GULP energy -595434.255583 kJ/mol
# GULP energy per Si atom -12404.880325 kJ/mol
# Density = 1.952869 g / cm^3
# Si number density = 19.573241 Si / 1000 Ang^3
#
#
#
# Elastic Constant Matrix: (Units=GPa)
#
#
# Indices 1 2 3 4 5 6 
#
# 1 104.4850 57.3029 70.4398 0.0000 0.0000 0.0000
# 2 57.3029 102.2826 56.9539 0.0000 0.0000 0.0000
# 3 70.4398 56.9539 148.3365 0.0000 0.0000 0.0000
# 4 0.0000 0.0000 0.0000 36.3934 0.0000 0.0000
# 5 0.0000 0.0000 0.0000 0.0000 41.1575 0.0000
# 6 0.0000 0.0000 0.0000 0.0000 0.0000 34.2902
#
#
#
# Elastic Compliance Matrix: (Units=1/GPa)
#
#
# Indices 1 2 3 4 5 6 
#
# 1 0.016764 -0.006308 -0.005539 0.000000 0.000000 0.000000
# 2 -0.006308 0.014809 -0.002691 0.000000 0.000000 0.000000
# 3 -0.005539 -0.002691 0.010405 0.000000 0.000000 0.000000
# 4 0.000000 0.000000 0.000000 0.027477 0.000000 0.000000
# 5 0.000000 0.000000 0.000000 0.000000 0.024297 0.000000
# 6 0.000000 0.000000 0.000000 0.000000 0.000000 0.029163
#
#
# Mechanical properties :
#
#
# Convention : Reuss Voigt Hill
#
# Bulk Modulus (GPa) = 77.49895 80.49971 78.99933
# Shear Modulus (GPa) = 31.99170 33.72874 32.86022
#
# Velocity S-wave (km/s) = 4.04723 4.15566 4.10180
# Velocity P-wave (km/s) = 7.84350 8.01515 7.92979
#
# Compressibility (1/GPa) = 0.01290340
#
# Stress axis : x y z
#
# Youngs Moduli (GPa) = 59.65076 67.52697 96.11070
#
# Poissons Ratio (x) = 0.42595 0.53234
# Poissons Ratio (y) = 0.37627 0.25859
# Poissons Ratio (z) = 0.33040 0.18168
#
# Static dielectric constant tensor:
#      x y z
#    x 3.688040 0.000000 0.000000 
#    y 0.000000 3.835830 0.000000 
#    z 0.000000 0.000000 3.332810 
# 
# 
# High freq. dielectric constant tensor:
#      x y z
#    x 1.771310 0.000000 0.000000 
#    y 0.000000 1.777250 0.000000 
#    z 0.000000 0.000000 1.770170 
# 
# From -- ./inp_files/6575.got.cif
#   From: 2010.03.12/outbox.cif.g09.slc.cpg/sg53_4_cif.got.tgz:6575.got - 2010.04.16 14:36:59.
