data_PCOD8220165
_publ_section_title
;
Structure prediction by ZEFSAII (Michael W. Deem and Ramdas Pophale) SiO2 
 PCOD8220165
Probable space group: P M N A
;
_chemical_formula_sum "Si O2"
_cell_formula_units_Z 64
_cell_length_a 8.621884
_cell_length_b 20.630385
_cell_length_c 18.342537
_cell_angle_alpha 90.000000
_cell_angle_beta 90.000000
_cell_angle_gamma 90.000000
_cell_volume 3262.638165
_symmetry_space_group_name_H-M "P M N A"
_symmetry_group_IT_number 53
_symmetry_cell_setting 'orthorhombic'
loop_
_space_group_symop_operation_xyz
x,y,z
1/2-x,-y,1/2+z
x,-y,-z
1/2-x,y,1/2-z
-x,-y,-z
1/2+x,y,1/2-z
-x,y,z
1/2+x,-y,1/2+z
loop_
_atom_site_type_symbol
_atom_site_label
_atom_site_fract_x
_atom_site_fract_y
_atom_site_fract_z
Si Si1 0.317170 0.613883 0.442847
Si Si2 0.177466 0.609967 0.601601
Si Si3 0.816220 0.006808 0.672725
Si Si4 0.817107 0.118906 0.101901
Si Si5 0.818897 0.490108 0.826981
Si Si6 0.680564 0.885000 0.057983
Si Si7 0.179145 0.247489 0.410115
Si Si8 0.677338 0.244031 0.564003
O O1 0.500000 0.607177 0.459504
O O2 0.225772 0.604238 0.517617
O O3 0.254964 0.559080 0.388131
O O4 0.281129 0.684191 0.405502
O O5 0.278097 0.563716 0.652620
O O6 0.199861 0.683870 0.631344
O O7 0.000000 0.588179 0.608465
O O8 0.750000 0.030104 0.750000
O O9 0.764543 0.059667 0.613151
O O10 0.000000 0.999993 0.676432
O O11 0.740722 0.938828 0.652260
O O12 0.734370 0.184096 0.134608
O O13 0.000000 0.125749 0.108892
O O14 0.771657 0.106472 0.017698
O O15 0.750000 0.469817 0.750000
O O16 0.000000 0.482584 0.820890
O O17 0.500000 0.890853 0.040576
O O18 0.717673 0.814760 0.095133
O O19 0.295306 0.248722 0.477964
O O20 0.000000 0.239426 0.435282
O O21 0.500000 0.226182 0.580290
#
# Coordination Sequence:
#
# PCOD8220165 Si02
#       8
#     8   8   8   8   8   8   8   8
#     4   9  19  35  55  80 108 140 176 217 266 315
#     4  10  20  34  56  84 109 137 175 218 263 315
#     4  11  24  40  56  76 107 144 180 221 266 314
#     4  11  21  34  57  85 110 139 177 218 261 313
#     4  11  23  38  54  74 106 144 181 222 266 314
#     4  10  20  35  56  82 110 140 176 218 265 313
#     4   9  17  31  52  79 110 138 170 215 264 312
#     4   9  16  29  52  80 108 136 172 217 263 312
#
# _framework density 19.616026000000002
#
# number of rings (size 3 to 8) (size 9 to 14) (size 15 to 20)
#    0.000    2.000    0.000    5.625    0.000    8.000 
#    0.000    1.250    0.000    6.000    0.000    0.000 
#    0.000    0.000    0.000    0.000    0.000    0.000 
#
# Total GULP energy -793377.264237 kJ/mol
# GULP energy per Si atom -12396.519754 kJ/mol
# Density = 1.957138 g / cm^3
# Si number density = 19.616026 Si / 1000 Ang^3
#
#
#
# Elastic Constant Matrix: (Units=GPa)
#
#
# Indices 1 2 3 4 5 6 
#
# 1 61.4041 17.1306 11.4848 0.0000 0.0000 0.0000
# 2 17.1306 98.1586 7.5417 0.0000 0.0000 0.0000
# 3 11.4848 7.5417 38.6828 0.0000 0.0000 0.0000
# 4 0.0000 0.0000 0.0000 -3.0528 0.0000 0.0000
# 5 0.0000 0.0000 0.0000 0.0000 25.5139 0.0000
# 6 0.0000 0.0000 0.0000 0.0000 0.0000 19.3011
#
#
#
# Elastic Compliance Matrix: (Units=1/GPa)
#
#
# Indices 1 2 3 4 5 6 
#
# 1 0.017953 -0.002765 -0.004791 0.000000 0.000000 0.000000
# 2 -0.002765 0.010768 -0.001279 0.000000 0.000000 0.000000
# 3 -0.004791 -0.001279 0.027523 0.000000 0.000000 0.000000
# 4 0.000000 0.000000 0.000000 -0.327569 0.000000 0.000000
# 5 0.000000 0.000000 0.000000 0.000000 0.039194 0.000000
# 6 0.000000 0.000000 0.000000 0.000000 0.000000 0.051810
#
#
# Mechanical properties :
#
#
# Convention : Reuss Voigt Hill
#
# Bulk Modulus (GPa) = 25.92346 30.06221 27.99283
# Shear Modulus (GPa) = -33.37959 19.15834 -7.11062
#
# Velocity S-wave (km/s) = -4.12958 3.12856 -1.90598
# Velocity P-wave (km/s) = 3.08120 5.33002 3.07533
#
# Compressibility (1/GPa) = 0.03857510
#
# Stress axis : x y z
#
# Youngs Moduli (GPa) = 55.70082 92.86450 36.33323
#
# Poissons Ratio (x) = 0.25678 0.17408
# Poissons Ratio (y) = 0.15402 0.04645
# Poissons Ratio (z) = 0.26687 0.11873
#
# Static dielectric constant tensor:
#      x y z
#    x 3.580940 0.000000 0.000000 
#    y 0.000000 4.248790 0.000000 
#    z 0.000000 0.000000 3.330660 
# 
# 
# High freq. dielectric constant tensor:
#      x y z
#    x 1.773800 0.000000 0.000000 
#    y 0.000000 1.789540 0.000000 
#    z 0.000000 0.000000 1.716730 
# 
# From -- ./inp_files/26930.got.cif
#   From: 2010.03.12/outbox.cif.g09.slc.cpg/sg53_14_cif.got.tgz:26930.got - 2010.04.16 14:36:59.
