data_PCOD8220755
_publ_section_title
;
Structure prediction by ZEFSAII (Michael W. Deem and Ramdas Pophale) SiO2 
 PCOD8220755
Probable space group: P M N A
;
_chemical_formula_sum "Si O2"
_cell_formula_units_Z 40
_cell_length_a 8.544657
_cell_length_b 25.064447
_cell_length_c 9.722145
_cell_angle_alpha 90.000000
_cell_angle_beta 90.000000
_cell_angle_gamma 90.000000
_cell_volume 2082.163625
_symmetry_space_group_name_H-M "P M N A"
_symmetry_group_IT_number 53
_symmetry_cell_setting 'orthorhombic'
loop_
_space_group_symop_operation_xyz
x,y,z
1/2-x,-y,1/2+z
x,-y,-z
1/2-x,y,1/2-z
-x,-y,-z
1/2+x,y,1/2-z
-x,y,z
1/2+x,-y,1/2+z
loop_
_atom_site_type_symbol
_atom_site_label
_atom_site_fract_x
_atom_site_fract_y
_atom_site_fract_z
Si Si1 0.683120 0.546500 0.105830
Si Si2 0.315353 0.339818 0.599712
Si Si3 0.815216 0.042726 0.894093
Si Si4 0.814583 0.163484 0.897866
Si Si5 0.315067 0.749202 0.903442
O O1 0.750000 0.526076 0.250000
O O2 0.500000 0.559397 0.118504
O O3 0.771723 0.599879 0.058980
O O4 0.719968 0.500000 0.000000
O O5 0.250000 0.324767 0.750000
O O6 0.500000 0.331933 0.601472
O O7 0.242126 0.302672 0.484069
O O8 0.750000 0.023563 0.750000
O O9 0.760216 0.102850 0.928334
O O10 0.000000 0.040355 0.891412
O O11 0.744597 0.000000 0.000000
O O12 0.750000 0.182685 0.750000
O O13 0.000000 0.170118 0.896246
O O14 0.743355 0.198066 0.019738
O O15 0.250000 0.748305 0.750000
O O16 0.500000 0.749345 0.897132
#
# Coordination Sequence:
#
# PCOD8220755 Si02
#       5
#     8   8   8   8   8
#     4  10  21  37  58  85 116 150 190 233 278 330
#     4  11  22  39  62  86 114 150 191 232 278 333
#     4   9  19  35  55  81 112 146 185 228 274 327
#     4  10  20  37  59  83 112 148 190 231 276 332
#     4  12  25  41  59  83 114 146 185 232 285 337
#
# _framework density 19.210785000000001
#
# number of rings (size 3 to 8) (size 9 to 14) (size 15 to 20)
#    0.000    1.600    0.000    6.600    0.000    4.400 
#    0.000    4.000    0.000    0.000    0.000    0.000 
#    0.000    0.000    0.000    0.000    0.000    0.000 
#
# Total GULP energy -496112.439720 kJ/mol
# GULP energy per Si atom -12402.810993 kJ/mol
# Density = 1.916706 g / cm^3
# Si number density = 19.210785 Si / 1000 Ang^3
#
#
#
# Elastic Constant Matrix: (Units=GPa)
#
#
# Indices 1 2 3 4 5 6 
#
# 1 110.2627 38.3551 57.4585 0.0000 0.0000 0.0000
# 2 38.3551 115.8832 99.5503 0.0000 0.0000 0.0000
# 3 57.4585 99.5503 170.3575 0.0000 0.0000 0.0000
# 4 0.0000 0.0000 0.0000 52.3372 0.0000 0.0000
# 5 0.0000 0.0000 0.0000 0.0000 36.3060 0.0000
# 6 0.0000 0.0000 0.0000 0.0000 0.0000 -12.2673
#
#
#
# Elastic Compliance Matrix: (Units=1/GPa)
#
#
# Indices 1 2 3 4 5 6 
#
# 1 0.011051 -0.000915 -0.003193 0.000000 0.000000 0.000000
# 2 -0.000915 0.017404 -0.009861 0.000000 0.000000 0.000000
# 3 -0.003193 -0.009861 0.012710 0.000000 0.000000 0.000000
# 4 0.000000 0.000000 0.000000 0.019107 0.000000 0.000000
# 5 0.000000 0.000000 0.000000 0.000000 0.027544 0.000000
# 6 0.000000 0.000000 0.000000 0.000000 0.000000 -0.081518
#
#
# Mechanical properties :
#
#
# Convention : Reuss Voigt Hill
#
# Bulk Modulus (GPa) = 75.60769 87.47014 81.53891
# Shear Modulus (GPa) = 129.38416 28.68449 79.03433
#
# Velocity S-wave (km/s) = 8.21559 3.86832 6.42105
# Velocity P-wave (km/s) = 11.37704 8.09830 9.87470
#
# Compressibility (1/GPa) = 0.01322617
#
# Stress axis : x y z
#
# Youngs Moduli (GPa) = 90.48727 57.45860 78.68120
#
# Poissons Ratio (x) = 0.05258 0.25120
# Poissons Ratio (y) = 0.08280 0.77591
# Poissons Ratio (z) = 0.28890 0.56663
#
# Static dielectric constant tensor:
#      x y z
#    x 3.646350 0.000000 0.000000 
#    y 0.000000 3.736150 0.000000 
#    z 0.000000 0.000000 3.638320 
# 
# 
# High freq. dielectric constant tensor:
#      x y z
#    x 1.762430 0.000000 0.000000 
#    y 0.000000 1.759600 0.000000 
#    z 0.000000 0.000000 1.748600 
# 
# From -- ./inp_files/6269.got.cif
#   From: 2010.03.12/outbox.cif.g09.slc.cpg/sg53_4_cif.got.tgz:6269.got - 2010.04.16 14:36:59.
