data_PCOD8220709
_publ_section_title
;
Structure prediction by ZEFSAII (Michael W. Deem and Ramdas Pophale) SiO2 
 PCOD8220709
Probable space group: P M N A
;
_chemical_formula_sum "Si O2"
_cell_formula_units_Z 64
_cell_length_a 14.370854
_cell_length_b 9.259250
_cell_length_c 22.650387
_cell_angle_alpha 90.000000
_cell_angle_beta 90.000000
_cell_angle_gamma 90.000000
_cell_volume 3013.935918
_symmetry_space_group_name_H-M "P M N A"
_symmetry_group_IT_number 53
_symmetry_cell_setting 'orthorhombic'
loop_
_space_group_symop_operation_xyz
x,y,z
1/2-x,-y,1/2+z
x,-y,-z
1/2-x,y,1/2-z
-x,-y,-z
1/2+x,y,1/2-z
-x,y,z
1/2+x,-y,1/2+z
loop_
_atom_site_type_symbol
_atom_site_label
_atom_site_fract_x
_atom_site_fract_y
_atom_site_fract_z
Si Si1 0.100465 0.038354 0.411547
Si Si2 0.391440 0.109607 0.698336
Si Si3 0.233705 0.848743 0.989156
Si Si4 0.209594 0.376660 0.107703
Si Si5 0.110288 0.216830 0.210334
Si Si6 0.773394 0.305033 0.888975
Si Si7 0.893378 0.777281 0.328751
Si Si8 0.602307 0.688878 0.837408
O O1 0.169566 0.094852 0.461489
O O2 0.085834 0.151302 0.359762
O O3 0.000000 0.007121 0.441386
O O4 0.136096 0.900806 0.375145
O O5 0.500000 0.108877 0.683140
O O6 0.342235 0.202301 0.647672
O O7 0.372667 0.179698 0.761846
O O8 0.351189 0.945975 0.700201
O O9 0.185308 0.732270 0.946260
O O10 0.255056 0.771593 0.050351
O O11 0.175128 0.000000 0.000000
O O12 0.149551 0.322206 0.161571
O O13 0.178595 0.541496 0.094612
O O14 0.320159 0.384548 0.121234
O O15 0.142142 0.290481 0.271430
O O16 0.000000 0.212044 0.207867
O O17 0.681431 0.343590 0.848785
O O18 0.000000 0.726411 0.336400
O O19 0.500000 0.608158 0.838933
#
# Coordination Sequence:
#
# PCOD8220709 Si02
#       8
#     8   8   8   8   8   8   8   8
#     4   9  17  33  58  92 121 151 198 252 300 346
#     4  10  22  40  65  94 123 157 206 261 309 359
#     4  11  22  40  63  85 111 159 212 260 294 344
#     4  11  25  39  57  86 125 166 203 248 307 369
#     4  10  20  37  63  90 115 151 205 263 309 355
#     4  12  25  40  58  88 128 166 200 245 306 368
#     4  10  20  36  62  95 128 160 198 246 302 363
#     4   9  18  34  59  88 122 158 198 246 299 358
#
# _framework density 21.234693
#
# number of rings (size 3 to 8) (size 9 to 14) (size 15 to 20)
#    0.000    1.750    2.500    1.875    1.750    4.750 
#    0.000    3.125    0.000    7.500    0.000    0.000 
#    0.000    0.000    0.000    0.000    0.000    0.000 
#
# Total GULP energy -792940.276060 kJ/mol
# GULP energy per Si atom -12389.691813 kJ/mol
# Density = 2.118636 g / cm^3
# Si number density = 21.234693 Si / 1000 Ang^3
#
#
#
# Elastic Constant Matrix: (Units=GPa)
#
#
# Indices 1 2 3 4 5 6 
#
# 1 21.1248 0.8009 22.1646 0.0000 0.0000 0.0000
# 2 0.8009 80.3318 29.9797 0.0000 0.0000 0.0000
# 3 22.1646 29.9797 125.3499 0.0000 0.0000 0.0000
# 4 0.0000 0.0000 0.0000 19.0438 0.0000 0.0000
# 5 0.0000 0.0000 0.0000 0.0000 22.7943 0.0000
# 6 0.0000 0.0000 0.0000 0.0000 0.0000 14.4323
#
#
#
# Elastic Compliance Matrix: (Units=1/GPa)
#
#
# Indices 1 2 3 4 5 6 
#
# 1 0.059071 0.003633 -0.011314 0.000000 0.000000 0.000000
# 2 0.003633 0.013892 -0.003965 0.000000 0.000000 0.000000
# 3 -0.011314 -0.003965 0.010927 0.000000 0.000000 0.000000
# 4 0.000000 0.000000 0.000000 0.052510 0.000000 0.000000
# 5 0.000000 0.000000 0.000000 0.000000 0.043871 0.000000
# 6 0.000000 0.000000 0.000000 0.000000 0.000000 0.069289
#
#
# Mechanical properties :
#
#
# Convention : Reuss Voigt Hill
#
# Bulk Modulus (GPa) = 16.50216 36.96633 26.73425
# Shear Modulus (GPa) = 17.06196 22.84485 19.95340
#
# Velocity S-wave (km/s) = 2.83767 3.28354 3.06871
# Velocity P-wave (km/s) = 4.30403 5.64108 5.01729
#
# Compressibility (1/GPa) = 0.06059811
#
# Stress axis : x y z
#
# Youngs Moduli (GPa) = 16.92884 71.98458 91.52038
#
# Poissons Ratio (x) = -0.26155 1.03546
# Poissons Ratio (y) = -0.06151 0.36288
# Poissons Ratio (z) = 0.19153 0.28542
#
# Static dielectric constant tensor:
#      x y z
#    x 3.740430 0.000000 0.000000 
#    y 0.000000 3.883330 0.000000 
#    z 0.000000 0.000000 3.899540 
# 
# 
# High freq. dielectric constant tensor:
#      x y z
#    x 1.816190 0.000000 0.000000 
#    y 0.000000 1.830850 0.000000 
#    z 0.000000 0.000000 1.839380 
# 
# From -- ./inp_files/35370.got.cif
#   From: 2010.03.12/outbox.cif.g09.slc.cpg/sg53_18_cif.got.tgz:35370.got - 2010.04.16 14:36:59.
