data_PCOD8220472
_publ_section_title
;
Structure prediction by ZEFSAII (Michael W. Deem and Ramdas Pophale) SiO2 
 PCOD8220472
Probable space group: P M N A
;
_chemical_formula_sum "Si O2"
_cell_formula_units_Z 56
_cell_length_a 8.932369
_cell_length_b 20.874376
_cell_length_c 14.796070
_cell_angle_alpha 90.000000
_cell_angle_beta 90.000000
_cell_angle_gamma 90.000000
_cell_volume 2758.840132
_symmetry_space_group_name_H-M "P M N A"
_symmetry_group_IT_number 53
_symmetry_cell_setting 'orthorhombic'
loop_
_space_group_symop_operation_xyz
x,y,z
1/2-x,-y,1/2+z
x,-y,-z
1/2-x,y,1/2-z
-x,-y,-z
1/2+x,y,1/2-z
-x,y,z
1/2+x,-y,1/2+z
loop_
_atom_site_type_symbol
_atom_site_label
_atom_site_fract_x
_atom_site_fract_y
_atom_site_fract_z
Si Si1 0.675206 0.472808 0.659962
Si Si2 0.823928 0.230034 0.509982
Si Si3 0.824974 0.983589 0.848611
Si Si4 0.333911 0.586607 0.904776
Si Si5 0.322400 0.292029 0.339656
Si Si6 0.163092 0.355191 0.600779
Si Si7 0.823832 0.098193 0.979935
O O1 0.750000 0.501008 0.750000
O O2 0.500000 0.481448 0.658499
O O3 0.750110 0.518096 0.584138
O O4 0.714451 0.397271 0.652996
O O5 0.729846 0.248189 0.422079
O O6 0.788725 0.280770 0.591170
O O7 0.771894 0.160837 0.543095
O O8 0.000000 0.231381 0.487090
O O9 0.750000 0.976102 0.750000
O O10 0.000000 0.980744 0.830430
O O11 0.778774 0.927823 0.919983
O O12 0.781520 0.049472 0.899215
O O13 0.500000 0.577796 0.862040
O O14 0.234409 0.634859 0.845640
O O15 0.351812 0.616736 0.001867
O O16 0.250000 0.261121 0.250000
O O17 0.500000 0.291051 0.333906
O O18 0.000000 0.361158 0.649215
O O19 0.000000 0.112980 0.978095
#
# Coordination Sequence:
#
# PCOD8220472 Si02
#       7
#     8   8   8   8   8   8   8
#     4  12  24  36  53  76 102 133 174 222 272 324
#     4  10  21  37  57  81 109 144 183 223 270 324
#     4   9  19  36  59  87 119 153 190 231 276 324
#     4  10  20  36  56  77 104 136 171 217 274 331
#     4  11  21  34  52  76 108 143 182 227 275 330
#     4   9  20  38  56  75 103 136 172 217 267 320
#     4   9  19  37  58  83 118 156 189 227 276 330
#
# _framework density 20.298383999999999
#
# number of rings (size 3 to 8) (size 9 to 14) (size 15 to 20)
#    0.000    2.000    0.000    6.000    0.000    6.857 
#    0.000    3.571    0.000    1.714    0.000    0.000 
#    0.000    0.000    0.000    0.000    0.000    0.000 
#
# Total GULP energy -694100.664305 kJ/mol
# GULP energy per Si atom -12394.654720 kJ/mol
# Density = 2.025218 g / cm^3
# Si number density = 20.298384 Si / 1000 Ang^3
#
#
#
# Elastic Constant Matrix: (Units=GPa)
#
#
# Indices 1 2 3 4 5 6 
#
# 1 133.2895 45.2453 17.9105 0.0000 0.0000 0.0000
# 2 45.2453 123.8502 10.1208 0.0000 0.0000 0.0000
# 3 17.9105 10.1208 48.9802 0.0000 0.0000 0.0000
# 4 0.0000 0.0000 0.0000 11.2805 0.0000 0.0000
# 5 0.0000 0.0000 0.0000 0.0000 30.8007 0.0000
# 6 0.0000 0.0000 0.0000 0.0000 0.0000 23.5464
#
#
#
# Elastic Compliance Matrix: (Units=1/GPa)
#
#
# Indices 1 2 3 4 5 6 
#
# 1 0.008884 -0.003031 -0.002622 0.000000 0.000000 0.000000
# 2 -0.003031 0.009247 -0.000802 0.000000 0.000000 0.000000
# 3 -0.002622 -0.000802 0.021541 0.000000 0.000000 0.000000
# 4 0.000000 0.000000 0.000000 0.088649 0.000000 0.000000
# 5 0.000000 0.000000 0.000000 0.000000 0.032467 0.000000
# 6 0.000000 0.000000 0.000000 0.000000 0.000000 0.042469
#
#
# Mechanical properties :
#
#
# Convention : Reuss Voigt Hill
#
# Bulk Modulus (GPa) = 37.36834 50.29702 43.83268
# Shear Modulus (GPa) = 22.21348 28.64840 25.43094
#
# Velocity S-wave (km/s) = 3.31168 3.76089 3.54341
# Velocity P-wave (km/s) = 5.75087 6.60997 6.19533
#
# Compressibility (1/GPa) = 0.02676062
#
# Stress axis : x y z
#
# Youngs Moduli (GPa) = 112.56517 108.14100 46.42300
#
# Poissons Ratio (x) = 0.32779 0.12173
# Poissons Ratio (y) = 0.34120 0.03725
# Poissons Ratio (z) = 0.29517 0.08677
#
# Static dielectric constant tensor:
#      x y z
#    x 4.340560 0.000000 0.000000 
#    y 0.000000 3.844170 0.000000 
#    z 0.000000 0.000000 3.621880 
# 
# 
# High freq. dielectric constant tensor:
#      x y z
#    x 1.795580 0.000000 0.000000 
#    y 0.000000 1.789930 0.000000 
#    z 0.000000 0.000000 1.780200 
# 
# From -- ./inp_files/20579.got.cif
#   From: 2010.03.12/outbox.cif.g09.slc.cpg/sg53_11_cif.got.tgz:20579.got - 2010.04.16 14:36:59.
