data_PCOD8220070
_publ_section_title
;
Structure prediction by ZEFSAII (Michael W. Deem and Ramdas Pophale) SiO2 
 PCOD8220070
Probable space group: P M N A
;
_chemical_formula_sum "Si O2"
_cell_formula_units_Z 48
_cell_length_a 8.843426
_cell_length_b 31.234961
_cell_length_c 9.075391
_cell_angle_alpha 90.000000
_cell_angle_beta 90.000000
_cell_angle_gamma 90.000000
_cell_volume 2506.841405
_symmetry_space_group_name_H-M "P M N A"
_symmetry_group_IT_number 53
_symmetry_cell_setting 'orthorhombic'
loop_
_space_group_symop_operation_xyz
x,y,z
1/2-x,-y,1/2+z
x,-y,-z
1/2-x,y,1/2-z
-x,-y,-z
1/2+x,y,1/2-z
-x,y,z
1/2+x,-y,1/2+z
loop_
_atom_site_type_symbol
_atom_site_label
_atom_site_fract_x
_atom_site_fract_y
_atom_site_fract_z
Si Si1 0.676905 0.367818 0.409430
Si Si2 0.176975 0.284175 0.409763
Si Si3 0.821191 0.124157 0.091106
Si Si4 0.176592 0.460985 0.092684
Si Si5 0.177639 0.959536 0.091001
Si Si6 0.322112 0.200124 0.910073
O O1 0.750000 0.369909 0.250000
O O2 0.500000 0.358453 0.396912
O O3 0.756445 0.327310 0.488563
O O4 0.707016 0.414419 0.485013
O O5 0.250000 0.275424 0.250000
O O6 0.215512 0.246096 0.520848
O O7 0.000000 0.289536 0.385472
O O8 0.750000 0.117258 0.250000
O O9 0.000000 0.130023 0.106038
O O10 0.776685 0.083364 0.993861
O O11 0.750970 0.165665 0.017020
O O12 0.250000 0.462328 0.250000
O O13 0.000000 0.468272 0.114745
O O14 0.247838 0.500000 0.000000
O O15 0.250000 0.958572 0.250000
O O16 0.000000 0.963586 0.111854
O O17 0.241177 0.000000 0.000000
O O18 0.250000 0.196769 0.750000
O O19 0.500000 0.191670 0.897805
#
# Coordination Sequence:
#
# PCOD8220070 Si02
#       6
#     8   8   8   8   8   8
#     4   9  16  28  49  73  99 132 169 212 258 306
#     4  10  20  34  54  79 104 133 172 217 263 314
#     4  11  23  39  61  87 115 148 188 232 276 325
#     4   9  18  32  49  72 101 132 169 211 256 308
#     4  10  22  39  59  86 118 152 190 231 277 328
#     4  11  24  40  58  81 111 146 182 223 273 327
#
# _framework density 19.147601999999999
#
# number of rings (size 3 to 8) (size 9 to 14) (size 15 to 20)
#    0.000    2.000    0.000    4.500    0.000    8.000 
#    0.000    0.833    0.000    4.000    0.000    0.000 
#    0.000    0.000    0.000    0.000    0.000    0.000 
#
# Total GULP energy -595028.556967 kJ/mol
# GULP energy per Si atom -12396.428270 kJ/mol
# Density = 1.910402 g / cm^3
# Si number density = 19.147602 Si / 1000 Ang^3
#
#
#
# Elastic Constant Matrix: (Units=GPa)
#
#
# Indices 1 2 3 4 5 6 
#
# 1 81.5912 66.4042 45.8007 0.0000 0.0000 0.0000
# 2 66.4042 168.7657 64.2006 0.0000 0.0000 0.0000
# 3 45.8007 64.2006 114.2343 0.0000 0.0000 0.0000
# 4 0.0000 0.0000 0.0000 26.3743 0.0000 0.0000
# 5 0.0000 0.0000 0.0000 0.0000 25.2700 0.0000
# 6 0.0000 0.0000 0.0000 0.0000 0.0000 26.3859
#
#
#
# Elastic Compliance Matrix: (Units=1/GPa)
#
#
# Indices 1 2 3 4 5 6 
#
# 1 0.019698 -0.006037 -0.004505 0.000000 0.000000 0.000000
# 2 -0.006037 0.009387 -0.002855 0.000000 0.000000 0.000000
# 3 -0.004505 -0.002855 0.012165 0.000000 0.000000 0.000000
# 4 0.000000 0.000000 0.000000 0.037916 0.000000 0.000000
# 5 0.000000 0.000000 0.000000 0.000000 0.039573 0.000000
# 6 0.000000 0.000000 0.000000 0.000000 0.000000 0.037899
#
#
# Mechanical properties :
#
#
# Convention : Reuss Voigt Hill
#
# Bulk Modulus (GPa) = 69.17572 79.71136 74.44354
# Shear Modulus (GPa) = 26.56045 28.15174 27.35610
#
# Velocity S-wave (km/s) = 3.72848 3.83854 3.78391
# Velocity P-wave (km/s) = 7.39875 7.83366 7.61931
#
# Compressibility (1/GPa) = 0.01445594
#
# Stress axis : x y z
#
# Youngs Moduli (GPa) = 50.76570 106.53223 82.20505
#
# Poissons Ratio (x) = 0.64313 0.37033
# Poissons Ratio (y) = 0.30647 0.23470
# Poissons Ratio (z) = 0.22870 0.30415
#
# Static dielectric constant tensor:
#      x y z
#    x 3.593540 0.000000 0.000000 
#    y 0.000000 4.348770 0.000000 
#    z 0.000000 0.000000 3.470810 
# 
# 
# High freq. dielectric constant tensor:
#      x y z
#    x 1.753430 0.000000 0.000000 
#    y 0.000000 1.774540 0.000000 
#    z 0.000000 0.000000 1.721010 
# 
# From -- ./inp_files/6697.got.cif
#   From: 2010.03.12/outbox.cif.g09.slc.cpg/sg53_4_cif.got.tgz:6697.got - 2010.04.16 14:36:59.
