data_PCOD8220783
_publ_section_title
;
Structure prediction by ZEFSAII (Michael W. Deem and Ramdas Pophale) SiO2 
 PCOD8220783
Probable space group: P M N A
;
_chemical_formula_sum "Si O2"
_cell_formula_units_Z 48
_cell_length_a 9.157969
_cell_length_b 28.271713
_cell_length_c 9.964842
_cell_angle_alpha 90.000000
_cell_angle_beta 90.000000
_cell_angle_gamma 90.000000
_cell_volume 2580.011903
_symmetry_space_group_name_H-M "P M N A"
_symmetry_group_IT_number 53
_symmetry_cell_setting 'orthorhombic'
loop_
_space_group_symop_operation_xyz
x,y,z
1/2-x,-y,1/2+z
x,-y,-z
1/2-x,y,1/2-z
-x,-y,-z
1/2+x,y,1/2-z
-x,y,z
1/2+x,-y,1/2+z
loop_
_atom_site_type_symbol
_atom_site_label
_atom_site_fract_x
_atom_site_fract_y
_atom_site_fract_z
Si Si1 0.677799 0.205624 0.610752
Si Si2 0.667588 0.033320 0.115982
Si Si3 0.824885 0.694801 0.385993
Si Si4 0.000000 0.453131 0.087893
Si Si5 0.756046 0.385133 0.403111
Si Si6 0.328101 0.857171 0.889492
Si Si7 0.000000 0.458291 0.394620
O O1 0.750000 0.188616 0.750000
O O2 0.500000 0.206711 0.617971
O O3 0.743567 0.256822 0.575103
O O4 0.734375 0.169792 0.499794
O O5 0.750000 0.019709 0.250000
O O6 0.500000 0.021083 0.141500
O O7 0.689043 0.087765 0.075986
O O8 0.732776 0.000000 0.000000
O O9 0.750000 0.675071 0.250000
O O10 0.790391 0.659569 0.505981
O O11 0.000000 0.702046 0.367538
O O12 0.879275 0.415329 0.051518
O O13 0.000000 0.474113 0.238911
O O14 0.000000 0.500000 0.000000
O O15 0.750000 0.366377 0.250000
O O16 0.867617 0.425938 0.426832
O O17 0.250000 0.844786 0.750000
O O18 0.500000 0.842386 0.886487
O O19 0.000000 0.500000 0.500000
#
# Coordination Sequence:
#
# PCOD8220783 Si02
#       7
#     8   8   8   4   8   8   4
#     4  11  23  40  61  86 117 152 193 242 295 353
#     4   9  19  35  55  82 116 154 197 244 293 346
#     4  11  23  40  61  87 116 149 190 237 287 343
#     4  10  22  36  58  86 114 148 190 232 275 336
#     4  10  22  39  59  84 116 151 186 231 282 335
#     4  10  20  37  59  85 119 156 199 247 294 350
#     4  10  20  38  58  82 116 148 186 230 279 328
#
# _framework density 18.604565000000001
#
# number of rings (size 3 to 8) (size 9 to 14) (size 15 to 20)
#    0.000    1.833    0.833    4.000    2.333    3.667 
#    0.000    3.333    0.000    0.000    0.000    0.000 
#    0.000    0.000    0.000    0.000    0.000    0.000 
#
# Total GULP energy -594689.122043 kJ/mol
# GULP energy per Si atom -12389.356709 kJ/mol
# Density = 1.856222 g / cm^3
# Si number density = 18.604565 Si / 1000 Ang^3
#
#
#
# Elastic Constant Matrix: (Units=GPa)
#
#
# Indices 1 2 3 4 5 6 
#
# 1 169.0299 58.5856 70.4948 0.0000 0.0000 0.0000
# 2 58.5856 91.6406 93.7772 0.0000 0.0000 0.0000
# 3 70.4948 93.7772 145.4869 0.0000 0.0000 0.0000
# 4 0.0000 0.0000 0.0000 38.4041 0.0000 0.0000
# 5 0.0000 0.0000 0.0000 0.0000 34.2210 0.0000
# 6 0.0000 0.0000 0.0000 0.0000 0.0000 34.9827
#
#
#
# Elastic Compliance Matrix: (Units=1/GPa)
#
#
# Indices 1 2 3 4 5 6 
#
# 1 0.007732 -0.003259 -0.001646 0.000000 0.000000 0.000000
# 2 -0.003259 0.033431 -0.019970 0.000000 0.000000 0.000000
# 3 -0.001646 -0.019970 0.020543 0.000000 0.000000 0.000000
# 4 0.000000 0.000000 0.000000 0.026039 0.000000 0.000000
# 5 0.000000 0.000000 0.000000 0.000000 0.029222 0.000000
# 6 0.000000 0.000000 0.000000 0.000000 0.000000 0.028586
#
#
# Mechanical properties :
#
#
# Convention : Reuss Voigt Hill
#
# Bulk Modulus (GPa) = 83.63273 94.65251 89.14262
# Shear Modulus (GPa) = 25.08956 33.74152 29.41554
#
# Velocity S-wave (km/s) = 3.67627 4.26328 3.98061
# Velocity P-wave (km/s) = 7.94168 8.67297 8.31537
#
# Compressibility (1/GPa) = 0.01195704
#
# Stress axis : x y z
#
# Youngs Moduli (GPa) = 129.33166 29.91277 48.67850
#
# Poissons Ratio (x) = 0.09747 0.08013
# Poissons Ratio (y) = 0.42144 0.97209
# Poissons Ratio (z) = 0.21290 0.59734
#
# Static dielectric constant tensor:
#      x y z
#    x 3.768420 0.000000 0.000000 
#    y 0.000000 3.374380 0.000000 
#    z 0.000000 0.000000 3.406990 
# 
# 
# High freq. dielectric constant tensor:
#      x y z
#    x 1.747380 0.000000 0.000000 
#    y 0.000000 1.722380 0.000000 
#    z 0.000000 0.000000 1.726410 
# 
# From -- ./inp_files/6779.got.cif
#   From: 2010.03.12/outbox.cif.g09.slc.cpg/sg53_4_cif.got.tgz:6779.got - 2010.04.16 14:36:59.
