data_PCOD8220711
_publ_section_title
;
Structure prediction by ZEFSAII (Michael W. Deem and Ramdas Pophale) SiO2 
 PCOD8220711
Probable space group: P M N A
;
_chemical_formula_sum "Si O2"
_cell_formula_units_Z 56
_cell_length_a 17.642081
_cell_length_b 10.005911
_cell_length_c 15.394312
_cell_angle_alpha 90.000000
_cell_angle_beta 90.000000
_cell_angle_gamma 90.000000
_cell_volume 2717.482347
_symmetry_space_group_name_H-M "P M N A"
_symmetry_group_IT_number 53
_symmetry_cell_setting 'orthorhombic'
loop_
_space_group_symop_operation_xyz
x,y,z
1/2-x,-y,1/2+z
x,-y,-z
1/2-x,y,1/2-z
-x,-y,-z
1/2+x,y,1/2-z
-x,y,z
1/2+x,-y,1/2+z
loop_
_atom_site_type_symbol
_atom_site_label
_atom_site_fract_x
_atom_site_fract_y
_atom_site_fract_z
Si Si1 0.838268 0.147756 0.504236
Si Si2 0.415068 0.533077 0.258201
Si Si3 0.086460 0.289747 0.350956
Si Si4 0.837293 0.863452 0.962465
Si Si5 0.915406 0.376249 0.937969
Si Si6 0.414852 0.819043 0.178398
Si Si7 0.086115 0.067402 0.211053
O O1 0.876263 0.260774 0.444056
O O2 0.751981 0.141657 0.474494
O O3 0.850888 0.183925 0.604457
O O4 0.875427 0.000000 0.500000
O O5 0.500000 0.481002 0.280653
O O6 0.375073 0.414467 0.201995
O O7 0.374297 0.569309 0.349978
O O8 0.417467 0.666903 0.204615
O O9 0.095159 0.155012 0.296849
O O10 0.000000 0.328389 0.370146
O O11 0.858901 0.866954 0.860732
O O12 0.870184 0.740402 0.015475
O O13 0.872031 0.000000 0.000000
O O14 0.000000 0.322035 0.915499
O O15 0.920707 0.500000 0.000000
O O16 0.500000 0.862636 0.146903
O O17 0.390864 0.916657 0.258889
O O18 0.000000 0.071465 0.175268
#
# Coordination Sequence:
#
# PCOD8220711 Si02
#       7
#     8   8   8   8   8   8   8
#     4  11  23  40  57  86 124 165 202 247 307 365
#     4   9  19  35  58  91 117 147 196 253 311 349
#     4  10  20  37  63  89 116 153 205 254 296 358
#     4  11  24  39  57  88 124 164 201 246 307 372
#     4  10  20  39  65  88 122 160 201 256 303 359
#     4  10  20  37  63  90 120 154 202 260 304 354
#     4  10  20  36  63  92 114 150 205 254 298 355
#
# _framework density 20.607310999999999
#
# number of rings (size 3 to 8) (size 9 to 14) (size 15 to 20)
#    0.000    1.857    1.429    2.571    0.000    6.286 
#    2.571    4.286    0.000    0.000    0.000    0.000 
#    0.000    0.000    0.000    0.000    0.000    0.000 
#
# Total GULP energy -694020.113118 kJ/mol
# GULP energy per Si atom -12393.216306 kJ/mol
# Density = 2.056041 g / cm^3
# Si number density = 20.607311 Si / 1000 Ang^3
#
#
#
# Elastic Constant Matrix: (Units=GPa)
#
#
# Indices 1 2 3 4 5 6 
#
# 1 60.4351 19.5890 43.0597 0.0000 0.0000 0.0000
# 2 19.5890 119.2640 36.9595 0.0000 0.0000 0.0000
# 3 43.0597 36.9595 128.0806 0.0000 0.0000 0.0000
# 4 0.0000 0.0000 0.0000 42.6794 0.0000 0.0000
# 5 0.0000 0.0000 0.0000 0.0000 24.6334 0.0000
# 6 0.0000 0.0000 0.0000 0.0000 0.0000 17.9884
#
#
#
# Elastic Compliance Matrix: (Units=1/GPa)
#
#
# Indices 1 2 3 4 5 6 
#
# 1 0.021985 -0.001450 -0.006973 0.000000 0.000000 0.000000
# 2 -0.001450 0.009304 -0.002197 0.000000 0.000000 0.000000
# 3 -0.006973 -0.002197 0.010786 0.000000 0.000000 0.000000
# 4 0.000000 0.000000 0.000000 0.023431 0.000000 0.000000
# 5 0.000000 0.000000 0.000000 0.000000 0.040595 0.000000
# 6 0.000000 0.000000 0.000000 0.000000 0.000000 0.055591
#
#
# Mechanical properties :
#
#
# Convention : Reuss Voigt Hill
#
# Bulk Modulus (GPa) = 47.99782 56.33291 52.16537
# Shear Modulus (GPa) = 26.33293 30.93833 28.63563
#
# Velocity S-wave (km/s) = 3.57857 3.87890 3.73176
# Velocity P-wave (km/s) = 6.35745 6.88890 6.62850
#
# Compressibility (1/GPa) = 0.02083428
#
# Stress axis : x y z
#
# Youngs Moduli (GPa) = 45.48621 107.48225 92.71478
#
# Poissons Ratio (x) = 0.15587 0.64646
# Poissons Ratio (y) = 0.06596 0.20372
# Poissons Ratio (z) = 0.31716 0.23616
#
# Static dielectric constant tensor:
#      x y z
#    x 3.458240 0.000000 0.000000 
#    y 0.000000 3.919500 0.000000 
#    z 0.000000 0.000000 3.798380 
# 
# 
# High freq. dielectric constant tensor:
#      x y z
#    x 1.764810 0.000000 0.000000 
#    y 0.000000 1.820690 0.000000 
#    z 0.000000 0.000000 1.814310 
# 
# From -- ./inp_files/24365.got.cif
#   From: 2010.03.12/outbox.cif.g09.slc.cpg/sg53_13_cif.got.tgz:24365.got - 2010.04.16 14:36:59.
