data_PCOD8220899
_publ_section_title
;
Structure prediction by ZEFSAII (Michael W. Deem and Ramdas Pophale) SiO2 
 PCOD8220899
Probable space group: P M N A
;
_chemical_formula_sum "Si O2"
_cell_formula_units_Z 48
_cell_length_a 7.695482
_cell_length_b 9.917414
_cell_length_c 30.809504
_cell_angle_alpha 90.000000
_cell_angle_beta 90.000000
_cell_angle_gamma 90.000000
_cell_volume 2351.359191
_symmetry_space_group_name_H-M "P M N A"
_symmetry_group_IT_number 53
_symmetry_cell_setting 'orthorhombic'
loop_
_space_group_symop_operation_xyz
x,y,z
1/2-x,-y,1/2+z
x,-y,-z
1/2-x,y,1/2-z
-x,-y,-z
1/2+x,y,1/2-z
-x,y,z
1/2+x,-y,1/2+z
loop_
_atom_site_type_symbol
_atom_site_label
_atom_site_fract_x
_atom_site_fract_y
_atom_site_fract_z
Si Si1 0.196386 0.336552 0.627879
Si Si2 0.500000 0.706300 0.524554
Si Si3 0.795562 0.824019 0.701476
Si Si4 0.796513 0.964773 0.367557
Si Si5 0.700925 0.908177 0.958405
Si Si6 0.500000 0.415286 0.565667
Si Si7 0.196367 0.522699 0.798991
O O1 0.267978 0.187833 0.640435
O O2 0.324051 0.400269 0.592805
O O3 0.185978 0.431140 0.670074
O O4 0.000000 0.326296 0.608566
O O5 0.675993 0.779386 0.539269
O O6 0.500000 0.563962 0.547307
O O7 0.500000 0.694197 0.472574
O O8 0.750000 0.871094 0.750000
O O9 0.712183 0.680377 0.689947
O O10 0.000000 0.806933 0.696350
O O11 0.714997 0.934028 0.668245
O O12 0.000000 0.971603 0.360853
O O13 0.743999 0.007946 0.415996
O O14 0.500000 0.860444 0.956100
O O15 0.735068 0.000000 0.000000
O O16 0.250000 0.493870 0.750000
O O17 0.000000 0.476850 0.806770
#
# Coordination Sequence:
#
# PCOD8220899 Si02
#       7
#     8   4   8   8   8   4   8
#     4  11  23  43  64  89 128 170 208 265 316 377
#     4  11  25  42  64  92 131 166 213 274 317 378
#     4  10  20  38  59  89 124 159 205 260 313 373
#     4   9  21  38  61  90 122 160 208 259 320 378
#     4  10  21  40  66  95 125 165 213 263 323 390
#     4  11  26  44  60  96 128 167 220 261 318 390
#     4  11  22  39  61  92 125 166 215 256 312 380
#
# _framework density 20.413723999999998
#
# number of rings (size 3 to 8) (size 9 to 14) (size 15 to 20)
#    0.000    1.667    0.833    4.250    2.333    4.000 
#    4.500    3.333    0.000    0.000    0.000    0.000 
#    0.000    0.000    0.000    0.000    0.000    0.000 
#
# Total GULP energy -595299.176075 kJ/mol
# GULP energy per Si atom -12402.066168 kJ/mol
# Density = 2.036726 g / cm^3
# Si number density = 20.413724 Si / 1000 Ang^3
#
#
#
# Elastic Constant Matrix: (Units=GPa)
#
#
# Indices 1 2 3 4 5 6 
#
# 1 95.7639 29.3860 23.1108 0.0000 0.0000 0.0000
# 2 29.3860 112.8457 79.5750 0.0000 0.0000 0.0000
# 3 23.1108 79.5750 144.3978 0.0000 0.0000 0.0000
# 4 0.0000 0.0000 0.0000 35.2777 0.0000 0.0000
# 5 0.0000 0.0000 0.0000 0.0000 24.8306 0.0000
# 6 0.0000 0.0000 0.0000 0.0000 0.0000 35.5811
#
#
#
# Elastic Compliance Matrix: (Units=1/GPa)
#
#
# Indices 1 2 3 4 5 6 
#
# 1 0.011358 -0.002741 -0.000307 0.000000 0.000000 0.000000
# 2 -0.002741 0.015156 -0.007913 0.000000 0.000000 0.000000
# 3 -0.000307 -0.007913 0.011335 0.000000 0.000000 0.000000
# 4 0.000000 0.000000 0.000000 0.028346 0.000000 0.000000
# 5 0.000000 0.000000 0.000000 0.000000 0.040273 0.000000
# 6 0.000000 0.000000 0.000000 0.000000 0.000000 0.028105
#
#
# Mechanical properties :
#
#
# Convention : Reuss Voigt Hill
#
# Bulk Modulus (GPa) = 62.79226 68.57232 65.68229
# Shear Modulus (GPa) = 30.90153 33.86693 32.38423
#
# Velocity S-wave (km/s) = 3.89493 4.07753 3.98728
# Velocity P-wave (km/s) = 7.14520 7.47212 7.31049
#
# Compressibility (1/GPa) = 0.01592553
#
# Stress axis : x y z
#
# Youngs Moduli (GPa) = 88.04693 65.98218 88.21940
#
# Poissons Ratio (x) = 0.18085 0.02711
# Poissons Ratio (y) = 0.24133 0.69811
# Poissons Ratio (z) = 0.02706 0.52214
#
# Static dielectric constant tensor:
#      x y z
#    x 3.692510 0.000000 0.000000 
#    y 0.000000 3.817690 0.000000 
#    z 0.000000 0.000000 3.859970 
# 
# 
# High freq. dielectric constant tensor:
#      x y z
#    x 1.803110 0.000000 0.000000 
#    y 0.000000 1.800630 0.000000 
#    z 0.000000 0.000000 1.803150 
# 
# From -- ./inp_files/37842.got.cif
#   From: 2010.03.12/outbox.cif.g09.slc.cpg/sg53_19_cif.got.tgz:37842.got - 2010.04.16 14:36:59.
