data_PCOD8220708
_publ_section_title
;
Structure prediction by ZEFSAII (Michael W. Deem and Ramdas Pophale) SiO2 
 PCOD8220708
Probable space group: P M N A
;
_chemical_formula_sum "Si O2"
_cell_formula_units_Z 64
_cell_length_a 18.288637
_cell_length_b 11.239900
_cell_length_c 15.056489
_cell_angle_alpha 90.000000
_cell_angle_beta 90.000000
_cell_angle_gamma 90.000000
_cell_volume 3095.048783
_symmetry_space_group_name_H-M "P M N A"
_symmetry_group_IT_number 53
_symmetry_cell_setting 'orthorhombic'
loop_
_space_group_symop_operation_xyz
x,y,z
1/2-x,-y,1/2+z
x,-y,-z
1/2-x,y,1/2-z
-x,-y,-z
1/2+x,y,1/2-z
-x,y,z
1/2+x,-y,1/2+z
loop_
_atom_site_type_symbol
_atom_site_label
_atom_site_fract_x
_atom_site_fract_y
_atom_site_fract_z
Si Si1 0.826834 0.451447 0.590529
Si Si2 0.291746 0.630028 0.660619
Si Si3 0.417885 0.558530 0.767853
Si Si4 0.682636 0.190065 0.957629
Si Si5 0.918992 0.201716 0.375220
Si Si6 0.583205 0.058124 0.817077
Si Si7 0.414359 0.066570 0.616871
Si Si8 0.168092 0.152871 0.033874
O O1 0.862697 0.500000 0.500000
O O2 0.759082 0.536892 0.610908
O O3 0.890938 0.458200 0.663439
O O4 0.798264 0.316769 0.586335
O O5 0.250000 0.677431 0.750000
O O6 0.365383 0.557439 0.682922
O O7 0.316218 0.733853 0.594637
O O8 0.500000 0.528664 0.738339
O O9 0.409645 0.689150 0.809173
O O10 0.637612 0.111634 0.888821
O O11 0.755737 0.119731 0.984646
O O12 0.637375 0.215471 0.045953
O O13 0.000000 0.199978 0.417263
O O14 0.905476 0.083752 0.317300
O O15 0.500000 0.091960 0.843038
O O16 0.601536 0.105550 0.718187
O O17 0.500000 0.034511 0.605326
O O18 0.363430 0.953063 0.594241
O O19 0.390576 0.171244 0.547525
#
# Coordination Sequence:
#
# PCOD8220708 Si02
#       8
#     8   8   8   8   8   8   8   8
#     4  11  21  42  61  83 126 169 202 259 319 364
#     4  10  21  41  63  92 126 164 209 265 320 366
#     4  10  21  37  64  98 121 160 217 262 310 371
#     4  12  23  38  62  93 126 167 215 254 316 390
#     4  10  20  36  62  94 129 165 202 255 318 375
#     4  10  23  42  62  90 135 171 199 255 319 383
#     4  10  24  45  62  91 129 169 211 252 317 376
#     4  11  22  38  64  93 118 163 211 261 306 369
#
# _framework density 20.678187999999999
#
# number of rings (size 3 to 8) (size 9 to 14) (size 15 to 20)
#    0.000    1.500    2.500    3.000    3.500    4.750 
#    6.750    0.000    0.000    1.125    0.000    0.000 
#    0.000    0.000    0.000    0.000    0.000    0.000 
#
# Total GULP energy -793322.596888 kJ/mol
# GULP energy per Si atom -12395.665576 kJ/mol
# Density = 2.063112 g / cm^3
# Si number density = 20.678188 Si / 1000 Ang^3
#
#
#
# Elastic Constant Matrix: (Units=GPa)
#
#
# Indices 1 2 3 4 5 6 
#
# 1 125.7006 19.2745 30.7722 0.0000 0.0000 0.0000
# 2 19.2745 63.2647 7.3634 0.0000 0.0000 0.0000
# 3 30.7722 7.3634 73.3797 0.0000 0.0000 0.0000
# 4 0.0000 0.0000 0.0000 30.1369 0.0000 0.0000
# 5 0.0000 0.0000 0.0000 0.0000 19.6758 0.0000
# 6 0.0000 0.0000 0.0000 0.0000 0.0000 12.7877
#
#
#
# Elastic Compliance Matrix: (Units=1/GPa)
#
#
# Indices 1 2 3 4 5 6 
#
# 1 0.009208 -0.002384 -0.003622 0.000000 0.000000 0.000000
# 2 -0.002384 0.016610 -0.000667 0.000000 0.000000 0.000000
# 3 -0.003622 -0.000667 0.015214 0.000000 0.000000 0.000000
# 4 0.000000 0.000000 0.000000 0.033182 0.000000 0.000000
# 5 0.000000 0.000000 0.000000 0.000000 0.050824 0.000000
# 6 0.000000 0.000000 0.000000 0.000000 0.000000 0.078200
#
#
# Mechanical properties :
#
#
# Convention : Reuss Voigt Hill
#
# Bulk Modulus (GPa) = 36.11953 41.90724 39.01339
# Shear Modulus (GPa) = 22.14232 26.18241 24.16236
#
# Velocity S-wave (km/s) = 3.27587 3.56221 3.42203
# Velocity P-wave (km/s) = 5.64037 6.10160 5.87551
#
# Compressibility (1/GPa) = 0.02768585
#
# Stress axis : x y z
#
# Youngs Moduli (GPa) = 108.60580 60.20296 65.73052
#
# Poissons Ratio (x) = 0.14350 0.23808
# Poissons Ratio (y) = 0.25888 0.04386
# Poissons Ratio (z) = 0.39338 0.04017
#
# Static dielectric constant tensor:
#      x y z
#    x 4.063570 0.000000 0.000000 
#    y 0.000000 3.617080 0.000000 
#    z 0.000000 0.000000 3.974290 
# 
# 
# High freq. dielectric constant tensor:
#      x y z
#    x 1.820310 0.000000 0.000000 
#    y 0.000000 1.790150 0.000000 
#    z 0.000000 0.000000 1.813210 
# 
# From -- ./inp_files/23879.got.cif
#   From: 2010.03.12/outbox.cif.g09.slc.cpg/sg53_12_cif.got.tgz:23879.got - 2010.04.16 14:36:59.
