data_PCOD8220801
_publ_section_title
;
Structure prediction by ZEFSAII (Michael W. Deem and Ramdas Pophale) SiO2 
 PCOD8220801
Probable space group: P M N A
;
_chemical_formula_sum "Si O2"
_cell_formula_units_Z 48
_cell_length_a 8.601265
_cell_length_b 9.894455
_cell_length_c 29.418689
_cell_angle_alpha 90.000000
_cell_angle_beta 90.000000
_cell_angle_gamma 90.000000
_cell_volume 2503.672511
_symmetry_space_group_name_H-M "P M N A"
_symmetry_group_IT_number 53
_symmetry_cell_setting 'orthorhombic'
loop_
_space_group_symop_operation_xyz
x,y,z
1/2-x,-y,1/2+z
x,-y,-z
1/2-x,y,1/2-z
-x,-y,-z
1/2+x,y,1/2-z
-x,y,z
1/2+x,-y,1/2+z
loop_
_atom_site_type_symbol
_atom_site_label
_atom_site_fract_x
_atom_site_fract_y
_atom_site_fract_z
Si Si1 0.683676 0.208466 0.877715
Si Si2 0.184479 0.980048 0.200950
Si Si3 0.316737 0.713518 0.702227
Si Si4 0.818500 0.620558 0.967200
Si Si5 0.183372 0.863095 0.025380
Si Si6 0.314380 0.508003 0.626150
O O1 0.500000 0.209250 0.875604
O O2 0.747830 0.115447 0.837648
O O3 0.736651 0.146771 0.925744
O O4 0.744552 0.359473 0.869902
O O5 0.250000 0.935399 0.250000
O O6 0.000000 0.965997 0.201712
O O7 0.237653 0.134179 0.189867
O O8 0.250000 0.666489 0.750000
O O9 0.500000 0.709853 0.704430
O O10 0.254937 0.603068 0.666713
O O11 0.747406 0.584173 0.918349
O O12 0.000000 0.645269 0.960892
O O13 0.778008 0.500000 0.000000
O O14 0.746074 0.752388 0.990758
O O15 0.000000 0.843403 0.033556
O O16 0.224310 0.000000 0.000000
O O17 0.500000 0.493434 0.624301
#
# Coordination Sequence:
#
# PCOD8220801 Si02
#       6
#     8   8   8   8   8   8
#     4  12  25  39  56  84 123 161 197 238 289 345
#     4  10  21  40  64  89 117 151 194 241 295 351
#     4   9  20  37  62  89 116 146 186 238 290 348
#     4   9  16  31  57  84 110 142 187 239 287 336
#     4  10  21  37  61  87 113 150 197 245 292 347
#     4  10  20  37  60  86 114 150 196 243 289 342
#
# _framework density 19.171835999999999
#
# number of rings (size 3 to 8) (size 9 to 14) (size 15 to 20)
#    0.000    2.000    1.667    2.000    2.333    2.333 
#    0.000    3.333    0.000    0.000    0.000    0.000 
#    0.000    0.000    0.000    0.000    0.000    0.000 
#
# Total GULP energy -595081.229189 kJ/mol
# GULP energy per Si atom -12397.525608 kJ/mol
# Density = 1.912820 g / cm^3
# Si number density = 19.171836 Si / 1000 Ang^3
#
#
#
# Elastic Constant Matrix: (Units=GPa)
#
#
# Indices 1 2 3 4 5 6 
#
# 1 60.8881 42.9775 49.2653 0.0000 0.0000 0.0000
# 2 42.9775 166.0160 118.8135 0.0000 0.0000 0.0000
# 3 49.2653 118.8135 200.9501 0.0000 0.0000 0.0000
# 4 0.0000 0.0000 0.0000 52.5308 0.0000 0.0000
# 5 0.0000 0.0000 0.0000 0.0000 32.9494 0.0000
# 6 0.0000 0.0000 0.0000 0.0000 0.0000 18.4030
#
#
#
# Elastic Compliance Matrix: (Units=1/GPa)
#
#
# Indices 1 2 3 4 5 6 
#
# 1 0.021364 -0.003090 -0.003411 0.000000 0.000000 0.000000
# 2 -0.003090 0.010889 -0.005681 0.000000 0.000000 0.000000
# 3 -0.003411 -0.005681 0.009171 0.000000 0.000000 0.000000
# 4 0.000000 0.000000 0.000000 0.019036 0.000000 0.000000
# 5 0.000000 0.000000 0.000000 0.000000 0.030350 0.000000
# 6 0.000000 0.000000 0.000000 0.000000 0.000000 0.054339
#
#
# Mechanical properties :
#
#
# Convention : Reuss Voigt Hill
#
# Bulk Modulus (GPa) = 58.60980 94.44077 76.52528
# Shear Modulus (GPa) = 28.53894 35.22981 31.88438
#
# Velocity S-wave (km/s) = 3.86241 4.29135 4.08252
# Velocity P-wave (km/s) = 7.10831 8.59775 7.88826
#
# Compressibility (1/GPa) = 0.01706199
#
# Stress axis : x y z
#
# Youngs Moduli (GPa) = 46.80738 91.83715 109.03513
#
# Poissons Ratio (x) = 0.28373 0.37192
# Poissons Ratio (y) = 0.14461 0.61939
# Poissons Ratio (z) = 0.15966 0.52170
#
# Static dielectric constant tensor:
#      x y z
#    x 3.286940 0.000000 0.000000 
#    y 0.000000 3.723290 0.000000 
#    z 0.000000 0.000000 3.741510 
# 
# 
# High freq. dielectric constant tensor:
#      x y z
#    x 1.720820 0.000000 0.000000 
#    y 0.000000 1.758730 0.000000 
#    z 0.000000 0.000000 1.761160 
# 
# From -- ./inp_files/37757.got.cif
#   From: 2010.03.12/outbox.cif.g09.slc.cpg/sg53_19_cif.got.tgz:37757.got - 2010.04.16 14:36:59.
