data_PCOD8220444
_publ_section_title
;
Structure prediction by ZEFSAII (Michael W. Deem and Ramdas Pophale) SiO2 
 PCOD8220444
Probable space group: P M N A
;
_chemical_formula_sum "Si O2"
_cell_formula_units_Z 48
_cell_length_a 8.827800
_cell_length_b 19.455631
_cell_length_c 14.489751
_cell_angle_alpha 90.000000
_cell_angle_beta 90.000000
_cell_angle_gamma 90.000000
_cell_volume 2488.620810
_symmetry_space_group_name_H-M "P M N A"
_symmetry_group_IT_number 53
_symmetry_cell_setting 'orthorhombic'
loop_
_space_group_symop_operation_xyz
x,y,z
1/2-x,-y,1/2+z
x,-y,-z
1/2-x,y,1/2-z
-x,-y,-z
1/2+x,y,1/2-z
-x,y,z
1/2+x,-y,1/2+z
loop_
_atom_site_type_symbol
_atom_site_label
_atom_site_fract_x
_atom_site_fract_y
_atom_site_fract_z
Si Si1 0.819631 0.759836 0.001394
Si Si2 0.324264 0.867286 0.348960
Si Si3 0.820545 0.152601 0.351054
Si Si4 0.676999 0.981753 0.650591
Si Si5 0.320672 0.490129 0.350126
Si Si6 0.320654 0.605168 0.486738
O O1 0.739612 0.782309 0.907172
O O2 0.762198 0.682983 0.023352
O O3 0.000000 0.764100 0.989237
O O4 0.759706 0.809491 0.082578
O O5 0.250000 0.858468 0.250000
O O6 0.500000 0.855253 0.332426
O O7 0.297428 0.943106 0.395386
O O8 0.750000 0.157276 0.250000
O O9 0.000000 0.153284 0.345812
O O10 0.761806 0.081569 0.400283
O O11 0.750000 0.988650 0.750000
O O12 0.500000 0.963548 0.657023
O O13 0.250000 0.481515 0.250000
O O14 0.500000 0.489858 0.338806
O O15 0.263846 0.560877 0.398772
O O16 0.265265 0.427723 0.416270
O O17 0.500000 0.602842 0.487119
#
# Coordination Sequence:
#
# PCOD8220444 Si02
#       6
#     8   8   8   8   8   8
#     4  10  20  36  54  75 104 141 175 209 254 308
#     4   9  19  33  52  75 102 135 174 216 262 308
#     4  11  22  36  53  75 101 134 173 218 264 310
#     4   9  16  30  50  72  97 130 171 217 260 306
#     4   9  17  33  56  81 103 133 171 207 247 296
#     4   8  17  34  54  74 105 140 170 202 246 303
#
# _framework density 19.287792
#
# number of rings (size 3 to 8) (size 9 to 14) (size 15 to 20)
#    0.000    2.667    0.000    4.000    0.000    3.333 
#    0.000    8.333    0.000    0.000    0.000    0.000 
#    0.000    0.000    0.000    0.000    0.000    0.000 
#
# Total GULP energy -594854.667296 kJ/mol
# GULP energy per Si atom -12392.805569 kJ/mol
# Density = 1.924389 g / cm^3
# Si number density = 19.287792 Si / 1000 Ang^3
#
#
#
# Elastic Constant Matrix: (Units=GPa)
#
#
# Indices 1 2 3 4 5 6 
#
# 1 61.1984 22.5025 15.0624 0.0000 0.0000 0.0000
# 2 22.5025 113.8211 14.9008 0.0000 0.0000 0.0000
# 3 15.0624 14.9008 64.5614 0.0000 0.0000 0.0000
# 4 0.0000 0.0000 0.0000 26.4360 0.0000 0.0000
# 5 0.0000 0.0000 0.0000 0.0000 27.8932 0.0000
# 6 0.0000 0.0000 0.0000 0.0000 0.0000 18.6778
#
#
#
# Elastic Compliance Matrix: (Units=1/GPa)
#
#
# Indices 1 2 3 4 5 6 
#
# 1 0.018381 -0.003168 -0.003557 0.000000 0.000000 0.000000
# 2 -0.003168 0.009606 -0.001478 0.000000 0.000000 0.000000
# 3 -0.003557 -0.001478 0.016660 0.000000 0.000000 0.000000
# 4 0.000000 0.000000 0.000000 0.037827 0.000000 0.000000
# 5 0.000000 0.000000 0.000000 0.000000 0.035851 0.000000
# 6 0.000000 0.000000 0.000000 0.000000 0.000000 0.053540
#
#
# Mechanical properties :
#
#
# Convention : Reuss Voigt Hill
#
# Bulk Modulus (GPa) = 35.41053 38.27915 36.84484
# Shear Modulus (GPa) = 25.29293 27.07575 26.18434
#
# Velocity S-wave (km/s) = 3.62518 3.75076 3.68851
# Velocity P-wave (km/s) = 5.99345 6.21667 6.10608
#
# Compressibility (1/GPa) = 0.02824018
#
# Stress axis : x y z
#
# Youngs Moduli (GPa) = 54.40482 104.10657 60.02373
#
# Poissons Ratio (x) = 0.32983 0.21351
# Poissons Ratio (y) = 0.17237 0.08870
# Poissons Ratio (z) = 0.19352 0.15385
#
# Static dielectric constant tensor:
#      x y z
#    x 3.406800 0.000000 0.000000 
#    y 0.000000 4.256370 0.000000 
#    z 0.000000 0.000000 3.426660 
# 
# 
# High freq. dielectric constant tensor:
#      x y z
#    x 1.728520 0.000000 0.000000 
#    y 0.000000 1.760040 0.000000 
#    z 0.000000 0.000000 1.741460 
# 
# From -- ./inp_files/20319.got.cif
#   From: 2010.03.12/outbox.cif.g09.slc.cpg/sg53_11_cif.got.tgz:20319.got - 2010.04.16 14:36:59.
