data_PCOD8220753
_publ_section_title
;
Structure prediction by ZEFSAII (Michael W. Deem and Ramdas Pophale) SiO2 
 PCOD8220753
Probable space group: P M N A
;
_chemical_formula_sum "Si O2"
_cell_formula_units_Z 48
_cell_length_a 8.654152
_cell_length_b 9.461595
_cell_length_c 30.284793
_cell_angle_alpha 90.000000
_cell_angle_beta 90.000000
_cell_angle_gamma 90.000000
_cell_volume 2479.781882
_symmetry_space_group_name_H-M "P M N A"
_symmetry_group_IT_number 53
_symmetry_cell_setting 'orthorhombic'
loop_
_space_group_symop_operation_xyz
x,y,z
1/2-x,-y,1/2+z
x,-y,-z
1/2-x,y,1/2-z
-x,-y,-z
1/2+x,y,1/2-z
-x,y,z
1/2+x,-y,1/2+z
loop_
_atom_site_type_symbol
_atom_site_label
_atom_site_fract_x
_atom_site_fract_y
_atom_site_fract_z
Si Si1 0.821464 0.334779 0.450671
Si Si2 0.679609 0.657488 0.052137
Si Si3 0.818450 0.847610 0.876072
Si Si4 0.816172 0.655172 0.796962
Si Si5 0.317872 0.351477 0.796362
Si Si6 0.318708 0.167033 0.627997
O O1 0.788326 0.300234 0.501670
O O2 0.772374 0.495089 0.439695
O O3 0.725254 0.226341 0.421701
O O4 0.000000 0.313552 0.439578
O O5 0.500000 0.679516 0.064105
O O6 0.786527 0.755591 0.081928
O O7 0.752029 0.762438 0.834006
O O8 0.000000 0.849862 0.872608
O O9 0.755943 0.007241 0.875614
O O10 0.750000 0.705358 0.750000
O O11 0.756490 0.500406 0.809909
O O12 0.000000 0.652062 0.794609
O O13 0.250000 0.297344 0.750000
O O14 0.500000 0.371116 0.792008
O O15 0.278135 0.237535 0.833126
O O16 0.500000 0.174643 0.638799
#
# Coordination Sequence:
#
# PCOD8220753 Si02
#       6
#     8   8   8   8   8   8
#     4   9  19  36  59  82 108 140 182 230 275 323
#     4   9  19  37  58  83 109 140 182 229 275 323
#     4  10  23  38  53  78 114 148 182 222 271 325
#     4  10  20  37  59  83 109 141 180 225 270 319
#     4  11  22  38  60  85 110 141 181 226 271 322
#     4  11  23  38  54  79 114 150 183 222 270 324
#
# _framework density 19.356542000000001
#
# number of rings (size 3 to 8) (size 9 to 14) (size 15 to 20)
#    0.000    2.000    0.000    5.500    0.000    8.000 
#    0.000    6.667    0.000    0.000    0.000    0.000 
#    0.000    0.000    0.000    0.000    0.000    0.000 
#
# Total GULP energy -595352.262019 kJ/mol
# GULP energy per Si atom -12403.172125 kJ/mol
# Density = 1.931249 g / cm^3
# Si number density = 19.356542 Si / 1000 Ang^3
#
#
#
# Elastic Constant Matrix: (Units=GPa)
#
#
# Indices 1 2 3 4 5 6 
#
# 1 60.1457 25.0833 26.8299 0.0000 0.0000 0.0000
# 2 25.0833 121.8983 74.6359 0.0000 0.0000 0.0000
# 3 26.8299 74.6359 117.3248 0.0000 0.0000 0.0000
# 4 0.0000 0.0000 0.0000 9.4456 0.0000 0.0000
# 5 0.0000 0.0000 0.0000 0.0000 36.1096 0.0000
# 6 0.0000 0.0000 0.0000 0.0000 0.0000 24.2740
#
#
#
# Elastic Compliance Matrix: (Units=1/GPa)
#
#
# Indices 1 2 3 4 5 6 
#
# 1 0.018816 -0.002027 -0.003014 0.000000 0.000000 0.000000
# 2 -0.002027 0.013656 -0.008224 0.000000 0.000000 0.000000
# 3 -0.003014 -0.008224 0.014444 0.000000 0.000000 0.000000
# 4 0.000000 0.000000 0.000000 0.105870 0.000000 0.000000
# 5 0.000000 0.000000 0.000000 0.000000 0.027694 0.000000
# 6 0.000000 0.000000 0.000000 0.000000 0.000000 0.041196
#
#
# Mechanical properties :
#
#
# Convention : Reuss Voigt Hill
#
# Bulk Modulus (GPa) = 49.04888 61.38519 55.21703
# Shear Modulus (GPa) = 19.60797 25.48714 22.54755
#
# Velocity S-wave (km/s) = 3.18620 3.63260 3.41670
# Velocity P-wave (km/s) = 6.23943 7.02681 6.64480
#
# Compressibility (1/GPa) = 0.02038783
#
# Stress axis : x y z
#
# Youngs Moduli (GPa) = 53.14696 73.22926 69.23322
#
# Poissons Ratio (x) = 0.14841 0.20864
# Poissons Ratio (y) = 0.10771 0.56935
# Poissons Ratio (z) = 0.16016 0.60221
#
# Static dielectric constant tensor:
#      x y z
#    x 3.435810 0.000000 0.000000 
#    y 0.000000 3.672280 0.000000 
#    z 0.000000 0.000000 3.643340 
# 
# 
# High freq. dielectric constant tensor:
#      x y z
#    x 1.751530 0.000000 0.000000 
#    y 0.000000 1.751230 0.000000 
#    z 0.000000 0.000000 1.766240 
# 
# From -- ./inp_files/37690.got.cif
#   From: 2010.03.12/outbox.cif.g09.slc.cpg/sg53_19_cif.got.tgz:37690.got - 2010.04.16 14:36:59.
