data_PCOD8220101
_publ_section_title
;
Structure prediction by ZEFSAII (Michael W. Deem and Ramdas Pophale) SiO2 
 PCOD8220101
Probable space group: P M N A
;
_chemical_formula_sum "Si O2"
_cell_formula_units_Z 64
_cell_length_a 9.102692
_cell_length_b 21.508776
_cell_length_c 17.736257
_cell_angle_alpha 90.000000
_cell_angle_beta 90.000000
_cell_angle_gamma 90.000000
_cell_volume 3472.542086
_symmetry_space_group_name_H-M "P M N A"
_symmetry_group_IT_number 53
_symmetry_cell_setting 'orthorhombic'
loop_
_space_group_symop_operation_xyz
x,y,z
1/2-x,-y,1/2+z
x,-y,-z
1/2-x,y,1/2-z
-x,-y,-z
1/2+x,y,1/2-z
-x,y,z
1/2+x,-y,1/2+z
loop_
_atom_site_type_symbol
_atom_site_label
_atom_site_fract_x
_atom_site_fract_y
_atom_site_fract_z
Si Si1 0.328424 0.065851 0.966660
Si Si2 0.671752 0.497273 0.328662
Si Si3 0.673444 0.603587 0.927005
Si Si4 0.329319 0.722678 0.828860
Si Si5 0.331875 0.243598 0.593617
Si Si6 0.673313 0.121678 0.673328
Si Si7 0.829931 0.809443 0.543401
Si Si8 0.667997 0.618618 0.417496
O O1 0.500000 0.067102 0.944724
O O2 0.232514 0.077356 0.892623
O O3 0.291892 0.118077 0.030075
O O4 0.280460 0.000000 0.000000
O O5 0.750000 0.483552 0.250000
O O6 0.500000 0.482079 0.320084
O O7 0.741237 0.454648 0.392834
O O8 0.699954 0.568345 0.352905
O O9 0.500000 0.591184 0.924589
O O10 0.718211 0.664590 0.880170
O O11 0.722432 0.610295 0.013140
O O12 0.250000 0.720379 0.750000
O O13 0.500000 0.720225 0.810917
O O14 0.285334 0.786525 0.872772
O O15 0.500000 0.229844 0.574839
O O16 0.280239 0.193302 0.655935
O O17 0.247754 0.234988 0.515920
O O18 0.305655 0.314017 0.621662
O O19 0.750000 0.100680 0.750000
O O20 0.500000 0.112672 0.681358
O O21 0.000000 0.796219 0.530665
O O22 0.500000 0.612794 0.446848
#
# Coordination Sequence:
#
# PCOD8220101 Si02
#       8
#     8   8   8   8   8   8   8   8
#     4   9  18  34  58  83 109 146 185 223 271 321
#     4  11  24  40  55  75 105 141 179 222 274 324
#     4  11  22  37  57  80 104 136 180 223 270 326
#     4  10  21  34  51  77 105 135 171 216 266 315
#     4   9  18  33  54  79 105 137 176 217 265 319
#     4  10  20  34  54  82 114 147 185 227 271 319
#     4   9  17  33  53  76 107 137 173 218 261 315
#     4  10  21  37  57  80 107 139 176 222 273 326
#
# _framework density 18.430302000000001
#
# number of rings (size 3 to 8) (size 9 to 14) (size 15 to 20)
#    0.000    2.125    1.250    1.875    0.000    6.250 
#    0.000    0.625    0.000    1.500    0.000    0.000 
#    0.000    0.000    0.000    0.000    0.000    0.000 
#
# Total GULP energy -793595.280139 kJ/mol
# GULP energy per Si atom -12399.926252 kJ/mol
# Density = 1.838835 g / cm^3
# Si number density = 18.430302 Si / 1000 Ang^3
#
#
#
# Elastic Constant Matrix: (Units=GPa)
#
#
# Indices 1 2 3 4 5 6 
#
# 1 67.2528 36.0370 38.2596 0.0000 0.0000 0.0000
# 2 36.0370 107.5886 27.0258 0.0000 0.0000 0.0000
# 3 38.2596 27.0258 75.4027 0.0000 0.0000 0.0000
# 4 0.0000 0.0000 0.0000 18.9335 0.0000 0.0000
# 5 0.0000 0.0000 0.0000 0.0000 32.2912 0.0000
# 6 0.0000 0.0000 0.0000 0.0000 0.0000 22.8883
#
#
#
# Elastic Compliance Matrix: (Units=1/GPa)
#
#
# Indices 1 2 3 4 5 6 
#
# 1 0.023392 -0.005334 -0.009958 0.000000 0.000000 0.000000
# 2 -0.005334 0.011431 -0.001390 0.000000 0.000000 0.000000
# 3 -0.009958 -0.001390 0.018813 0.000000 0.000000 0.000000
# 4 0.000000 0.000000 0.000000 0.052816 0.000000 0.000000
# 5 0.000000 0.000000 0.000000 0.000000 0.030968 0.000000
# 6 0.000000 0.000000 0.000000 0.000000 0.000000 0.043690
#
#
# Mechanical properties :
#
#
# Convention : Reuss Voigt Hill
#
# Bulk Modulus (GPa) = 49.32942 50.32098 49.82520
# Shear Modulus (GPa) = 22.60071 24.75071 23.67571
#
# Velocity S-wave (km/s) = 3.50563 3.66858 3.58803
# Velocity P-wave (km/s) = 6.57338 6.73107 6.65270
#
# Compressibility (1/GPa) = 0.02027188
#
# Stress axis : x y z
#
# Youngs Moduli (GPa) = 42.74926 87.48476 53.15478
#
# Poissons Ratio (x) = 0.46664 0.52929
# Poissons Ratio (y) = 0.22802 0.07391
# Poissons Ratio (z) = 0.42568 0.12164
#
# Static dielectric constant tensor:
#      x y z
#    x 3.411360 0.000000 0.000000 
#    y 0.000000 3.626950 0.000000 
#    z 0.000000 0.000000 3.240930 
# 
# 
# High freq. dielectric constant tensor:
#      x y z
#    x 1.718300 0.000000 0.000000 
#    y 0.000000 1.717850 0.000000 
#    z 0.000000 0.000000 1.703920 
# 
# From -- ./inp_files/26876.got.cif
#   From: 2010.03.12/outbox.cif.g09.slc.cpg/sg53_14_cif.got.tgz:26876.got - 2010.04.16 14:36:59.
