data_PCOD8220860
_publ_section_title
;
Structure prediction by ZEFSAII (Michael W. Deem and Ramdas Pophale) SiO2 
 PCOD8220860
Probable space group: P M N A
;
_chemical_formula_sum "Si O2"
_cell_formula_units_Z 32
_cell_length_a 13.797105
_cell_length_b 7.594936
_cell_length_c 14.463304
_cell_angle_alpha 90.000000
_cell_angle_beta 90.000000
_cell_angle_gamma 90.000000
_cell_volume 1515.582572
_symmetry_space_group_name_H-M "P M N A"
_symmetry_group_IT_number 53
_symmetry_cell_setting 'orthorhombic'
loop_
_space_group_symop_operation_xyz
x,y,z
1/2-x,-y,1/2+z
x,-y,-z
1/2-x,y,1/2-z
-x,-y,-z
1/2+x,y,1/2-z
-x,y,z
1/2+x,-y,1/2+z
loop_
_atom_site_type_symbol
_atom_site_label
_atom_site_fract_x
_atom_site_fract_y
_atom_site_fract_z
Si Si1 0.699593 0.308576 0.405766
Si Si2 0.890970 0.870020 0.583287
Si Si3 0.109821 0.015725 0.213962
Si Si4 0.113937 0.321051 0.898312
O O1 0.815540 0.292222 0.421656
O O2 0.640540 0.259481 0.498309
O O3 0.674647 0.504858 0.372391
O O4 0.673480 0.172996 0.325721
O O5 0.000000 0.791946 0.576851
O O6 0.867544 0.000000 0.500000
O O7 0.878748 0.986144 0.675929
O O8 0.145598 0.828938 0.173901
O O9 0.000000 0.048544 0.182239
O O10 0.000000 0.363925 0.892519
#
# Coordination Sequence:
#
# PCOD8220860 Si02
#       4
#     8   8   8   8
#     4  11  20  36  61  90 121 151 188 238 297 353
#     4  10  22  40  59  81 115 161 207 243 280 336
#     4  10  20  37  63  89 115 150 190 238 293 347
#     4  10  21  37  61  94 123 146 184 241 303 360
#
# _framework density 21.113993000000001
#
# number of rings (size 3 to 8) (size 9 to 14) (size 15 to 20)
#    0.000    1.750    0.000    6.000    0.000    2.000 
#    0.000   17.500    0.000   16.500    0.000    0.000 
#    0.000    0.000    0.000    0.000    0.000    0.000 
#
# Total GULP energy -396866.063472 kJ/mol
# GULP energy per Si atom -12402.064483 kJ/mol
# Density = 2.106594 g / cm^3
# Si number density = 21.113993 Si / 1000 Ang^3
#
#
#
# Elastic Constant Matrix: (Units=GPa)
#
#
# Indices 1 2 3 4 5 6 
#
# 1 114.0446 60.5050 33.3685 0.0000 0.0000 0.0000
# 2 60.5050 117.6241 63.8572 0.0000 0.0000 0.0000
# 3 33.3685 63.8572 108.2309 0.0000 0.0000 0.0000
# 4 0.0000 0.0000 0.0000 11.4738 0.0000 0.0000
# 5 0.0000 0.0000 0.0000 0.0000 15.2670 0.0000
# 6 0.0000 0.0000 0.0000 0.0000 0.0000 30.7017
#
#
#
# Elastic Compliance Matrix: (Units=1/GPa)
#
#
# Indices 1 2 3 4 5 6 
#
# 1 0.012060 -0.006157 -0.000085 0.000000 0.000000 0.000000
# 2 -0.006157 0.015652 -0.007336 0.000000 0.000000 0.000000
# 3 -0.000085 -0.007336 0.013594 0.000000 0.000000 0.000000
# 4 0.000000 0.000000 0.000000 0.087155 0.000000 0.000000
# 5 0.000000 0.000000 0.000000 0.000000 0.065501 0.000000
# 6 0.000000 0.000000 0.000000 0.000000 0.000000 0.032571
#
#
# Mechanical properties :
#
#
# Convention : Reuss Voigt Hill
#
# Bulk Modulus (GPa) = 70.68028 72.81789 71.74908
# Shear Modulus (GPa) = 19.34925 23.63309 21.49117
#
# Velocity S-wave (km/s) = 3.03052 3.34924 3.19386
# Velocity P-wave (km/s) = 6.76710 7.03700 6.90337
#
# Compressibility (1/GPa) = 0.01414822
#
# Stress axis : x y z
#
# Youngs Moduli (GPa) = 82.91752 63.89050 73.56005
#
# Poissons Ratio (x) = 0.39339 0.00628
# Poissons Ratio (y) = 0.51055 0.53966
# Poissons Ratio (z) = 0.00708 0.46872
#
# Static dielectric constant tensor:
#      x y z
#    x 4.138000 0.000000 0.000000 
#    y 0.000000 3.621220 0.000000 
#    z 0.000000 0.000000 3.850180 
# 
# 
# High freq. dielectric constant tensor:
#      x y z
#    x 1.844590 0.000000 0.000000 
#    y 0.000000 1.805920 0.000000 
#    z 0.000000 0.000000 1.832960 
# 
# From -- ./inp_files/15427.got.cif
#   From: 2010.03.12/outbox.cif.g09.slc.cpg/sg53_8_cif.got.tgz:15427.got - 2010.04.16 14:36:59.
