data_PCOD8220296
_publ_section_title
;
Structure prediction by ZEFSAII (Michael W. Deem and Ramdas Pophale) SiO2 
 PCOD8220296
Probable space group: P M N A
;
_chemical_formula_sum "Si O2"
_cell_formula_units_Z 64
_cell_length_a 8.857965
_cell_length_b 24.700879
_cell_length_c 14.607682
_cell_angle_alpha 90.000000
_cell_angle_beta 90.000000
_cell_angle_gamma 90.000000
_cell_volume 3196.153834
_symmetry_space_group_name_H-M "P M N A"
_symmetry_group_IT_number 53
_symmetry_cell_setting 'orthorhombic'
loop_
_space_group_symop_operation_xyz
x,y,z
1/2-x,-y,1/2+z
x,-y,-z
1/2-x,y,1/2-z
-x,-y,-z
1/2+x,y,1/2-z
-x,y,z
1/2+x,-y,1/2+z
loop_
_atom_site_type_symbol
_atom_site_label
_atom_site_fract_x
_atom_site_fract_y
_atom_site_fract_z
Si Si1 0.179007 0.368299 0.655132
Si Si2 0.177409 0.320634 0.470182
Si Si3 0.176210 0.481459 0.897760
Si Si4 0.174790 0.027814 0.159635
Si Si5 0.178458 0.412890 0.337574
Si Si6 0.179215 0.221793 0.350496
Si Si7 0.824376 0.872715 0.961011
Si Si8 0.821960 0.906162 0.157207
O O1 0.250000 0.347838 0.750000
O O2 0.227971 0.324847 0.576554
O O3 0.237096 0.427259 0.628159
O O4 0.000000 0.371371 0.664647
O O5 0.226132 0.377519 0.425077
O O6 0.246901 0.269946 0.414887
O O7 0.000000 0.313916 0.463590
O O8 0.241444 0.529067 0.836008
O O9 0.000000 0.472689 0.878686
O O10 0.211490 0.500000 0.000000
O O11 0.250000 0.053478 0.250000
O O12 0.206249 0.066069 0.072969
O O13 0.000000 0.023998 0.180963
O O14 0.238531 0.967429 0.141172
O O15 0.250000 0.381953 0.250000
O O16 0.000000 0.419484 0.329311
O O17 0.250000 0.225272 0.250000
O O18 0.222156 0.166610 0.401051
O O19 0.000000 0.225194 0.339524
O O20 0.000000 0.857214 0.948067
O O21 0.776370 0.870630 0.068141
O O22 0.750000 0.881292 0.250000
O O23 0.000000 0.905435 0.168761
#
# Coordination Sequence:
#
# PCOD8220296 Si02
#       8
#     8   8   8   8   8   8   8   8
#     4  11  22  40  62  85 113 148 188 229 277 328
#     4   9  21  40  61  81 108 144 183 227 277 328
#     4  11  22  36  55  84 117 149 185 224 268 324
#     4   9  17  30  50  77 111 149 187 229 278 333
#     4  11  21  36  57  82 110 145 182 221 271 325
#     4  11  23  41  62  86 113 144 182 229 283 335
#     4  10  20  35  55  81 112 149 190 232 281 336
#     4   9  18  33  53  78 111 150 191 233 278 329
#
# _framework density 20.024066000000001
#
# number of rings (size 3 to 8) (size 9 to 14) (size 15 to 20)
#    0.000    1.875    1.250    3.000    0.000    4.000 
#    0.000    5.000    0.000    6.750    0.000    0.000 
#    0.000    0.000    0.000    0.000    0.000    0.000 
#
# Total GULP energy -793400.366103 kJ/mol
# GULP energy per Si atom -12396.880720 kJ/mol
# Density = 1.997849 g / cm^3
# Si number density = 20.024066 Si / 1000 Ang^3
#
#
#
# Elastic Constant Matrix: (Units=GPa)
#
#
# Indices 1 2 3 4 5 6 
#
# 1 53.5517 23.2280 55.6574 0.0000 0.0000 0.0000
# 2 23.2280 73.3774 51.7960 0.0000 0.0000 0.0000
# 3 55.6574 51.7960 177.0721 0.0000 0.0000 0.0000
# 4 0.0000 0.0000 0.0000 31.5700 0.0000 0.0000
# 5 0.0000 0.0000 0.0000 0.0000 33.2263 0.0000
# 6 0.0000 0.0000 0.0000 0.0000 0.0000 7.3825
#
#
#
# Elastic Compliance Matrix: (Units=1/GPa)
#
#
# Indices 1 2 3 4 5 6 
#
# 1 0.028386 -0.003387 -0.007932 0.000000 0.000000 0.000000
# 2 -0.003387 0.017578 -0.004077 0.000000 0.000000 0.000000
# 3 -0.007932 -0.004077 0.009333 0.000000 0.000000 0.000000
# 4 0.000000 0.000000 0.000000 0.031676 0.000000 0.000000
# 5 0.000000 0.000000 0.000000 0.000000 0.030097 0.000000
# 6 0.000000 0.000000 0.000000 0.000000 0.000000 0.135455
#
#
# Mechanical properties :
#
#
# Convention : Reuss Voigt Hill
#
# Bulk Modulus (GPa) = 40.80646 62.81823 51.81235
# Shear Modulus (GPa) = 17.15351 25.99041 21.57196
#
# Velocity S-wave (km/s) = 2.93002 3.60663 3.28579
# Velocity P-wave (km/s) = 5.64532 6.98449 6.35031
#
# Compressibility (1/GPa) = 0.02450593
#
# Stress axis : x y z
#
# Youngs Moduli (GPa) = 35.22850 56.88771 107.14473
#
# Poissons Ratio (x) = 0.19268 0.84983
# Poissons Ratio (y) = 0.11932 0.43687
# Poissons Ratio (z) = 0.27942 0.23195
#
# Static dielectric constant tensor:
#      x y z
#    x 3.501510 0.000000 0.000000 
#    y 0.000000 3.542640 0.000000 
#    z 0.000000 0.000000 4.026860 
# 
# 
# High freq. dielectric constant tensor:
#      x y z
#    x 1.768070 0.000000 0.000000 
#    y 0.000000 1.759780 0.000000 
#    z 0.000000 0.000000 1.802320 
# 
# From -- ./inp_files/21024.got.cif
#   From: 2010.03.12/outbox.cif.g09.slc.cpg/sg53_11_cif.got.tgz:21024.got - 2010.04.16 14:36:59.
