data_PCOD8220682
_publ_section_title
;
Structure prediction by ZEFSAII (Michael W. Deem and Ramdas Pophale) SiO2 
 PCOD8220682
Probable space group: P M N A
;
_chemical_formula_sum "Si O2"
_cell_formula_units_Z 48
_cell_length_a 30.100810
_cell_length_b 9.694816
_cell_length_c 8.370377
_cell_angle_alpha 90.000000
_cell_angle_beta 90.000000
_cell_angle_gamma 90.000000
_cell_volume 2442.658603
_symmetry_space_group_name_H-M "P M N A"
_symmetry_group_IT_number 53
_symmetry_cell_setting 'orthorhombic'
loop_
_space_group_symop_operation_xyz
x,y,z
1/2-x,-y,1/2+z
x,-y,-z
1/2-x,y,1/2-z
-x,-y,-z
1/2+x,y,1/2-z
-x,y,z
1/2+x,-y,1/2+z
loop_
_atom_site_type_symbol
_atom_site_label
_atom_site_fract_x
_atom_site_fract_y
_atom_site_fract_z
Si Si1 0.335318 0.728356 0.872819
Si Si2 0.703535 0.203018 0.815305
Si Si3 0.549891 0.083405 0.839993
Si Si4 0.659662 0.464468 0.683818
Si Si5 0.863985 0.010241 0.184557
Si Si6 0.586216 0.628442 0.095439
O O1 0.319757 0.593954 0.778019
O O2 0.351698 0.838295 0.743791
O O3 0.295225 0.775493 0.991372
O O4 0.375775 0.693418 0.987552
O O5 0.750000 0.143186 0.750000
O O6 0.693895 0.341250 0.715458
O O7 0.664518 0.095123 0.787175
O O8 0.500000 0.048610 0.782357
O O9 0.551878 0.249447 0.865233
O O10 0.584252 0.029437 0.707048
O O11 0.561515 0.000000 0.000000
O O12 0.656000 0.500000 0.500000
O O13 0.609766 0.427758 0.743525
O O14 0.851608 0.000000 0.000000
O O15 0.563123 0.500000 0.000000
#
# Coordination Sequence:
#
# PCOD8220682 Si02
#       6
#     8   8   8   8   8   8
#     4  10  20  38  62  84 117 162 195 245 294 356
#     4  11  23  40  61  88 119 157 203 252 302 355
#     4  11  21  38  64  90 118 157 204 251 304 367
#     4  10  20  36  60  90 117 157 200 241 301 360
#     4  12  23  39  61  87 123 161 200 251 305 357
#     4   9  18  35  60  86 115 154 198 245 297 351
#
# _framework density 19.65072
#
# number of rings (size 3 to 8) (size 9 to 14) (size 15 to 20)
#    0.000    1.500    5.000    3.000    0.000    3.333 
#    0.000    2.500    0.000    0.500    0.000    0.000 
#    0.000    0.000    0.000    0.000    0.000    0.000 
#
# Total GULP energy -595164.003549 kJ/mol
# GULP energy per Si atom -12399.250074 kJ/mol
# Density = 1.960599 g / cm^3
# Si number density = 19.650720 Si / 1000 Ang^3
#
#
#
# Elastic Constant Matrix: (Units=GPa)
#
#
# Indices 1 2 3 4 5 6 
#
# 1 69.2807 6.5703 7.1916 0.0000 0.0000 0.0000
# 2 6.5703 80.3963 7.6968 0.0000 0.0000 0.0000
# 3 7.1916 7.6968 92.4199 0.0000 0.0000 0.0000
# 4 0.0000 0.0000 0.0000 27.1786 0.0000 0.0000
# 5 0.0000 0.0000 0.0000 0.0000 14.6469 0.0000
# 6 0.0000 0.0000 0.0000 0.0000 0.0000 8.4820
#
#
#
# Elastic Compliance Matrix: (Units=1/GPa)
#
#
# Indices 1 2 3 4 5 6 
#
# 1 0.014647 -0.001097 -0.001048 0.000000 0.000000 0.000000
# 2 -0.001097 0.012620 -0.000966 0.000000 0.000000 0.000000
# 3 -0.001048 -0.000966 0.010982 0.000000 0.000000 0.000000
# 4 0.000000 0.000000 0.000000 0.036794 0.000000 0.000000
# 5 0.000000 0.000000 0.000000 0.000000 0.068274 0.000000
# 6 0.000000 0.000000 0.000000 0.000000 0.000000 0.117897
#
#
# Mechanical properties :
#
#
# Convention : Reuss Voigt Hill
#
# Bulk Modulus (GPa) = 31.22266 31.66825 31.44546
# Shear Modulus (GPa) = 17.97843 24.77072 21.37458
#
# Velocity S-wave (km/s) = 3.02801 3.55427 3.30165
# Velocity P-wave (km/s) = 5.30551 5.74407 5.52914
#
# Compressibility (1/GPa) = 0.03202802
#
# Stress axis : x y z
#
# Youngs Moduli (GPa) = 68.27401 79.23643 91.05658
#
# Poissons Ratio (x) = 0.08689 0.09547
# Poissons Ratio (y) = 0.07487 0.08793
# Poissons Ratio (z) = 0.07158 0.07652
#
# Static dielectric constant tensor:
#      x y z
#    x 3.307960 0.000000 0.000000 
#    y 0.000000 4.214990 0.000000 
#    z 0.000000 0.000000 3.640440 
# 
# 
# High freq. dielectric constant tensor:
#      x y z
#    x 1.734070 0.000000 0.000000 
#    y 0.000000 1.785450 0.000000 
#    z 0.000000 0.000000 1.762020 
# 
# From -- ./inp_files/12961.got.cif
#   From: 2010.03.12/outbox.cif.g09.slc.cpg/sg53_7_cif.got.tgz:12961.got - 2010.04.16 14:36:59.
