data_PCOD8220220
_publ_section_title
;
Structure prediction by ZEFSAII (Michael W. Deem and Ramdas Pophale) SiO2 
 PCOD8220220
Probable space group: P M N A
;
_chemical_formula_sum "Si O2"
_cell_formula_units_Z 64
_cell_length_a 9.123882
_cell_length_b 11.910412
_cell_length_c 31.067265
_cell_angle_alpha 90.000000
_cell_angle_beta 90.000000
_cell_angle_gamma 90.000000
_cell_volume 3376.054637
_symmetry_space_group_name_H-M "P M N A"
_symmetry_group_IT_number 53
_symmetry_cell_setting 'orthorhombic'
loop_
_space_group_symop_operation_xyz
x,y,z
1/2-x,-y,1/2+z
x,-y,-z
1/2-x,y,1/2-z
-x,-y,-z
1/2+x,y,1/2-z
-x,y,z
1/2+x,-y,1/2+z
loop_
_atom_site_type_symbol
_atom_site_label
_atom_site_fract_x
_atom_site_fract_y
_atom_site_fract_z
Si Si1 0.833255 0.753020 0.062993
Si Si2 0.328941 0.227654 0.706684
Si Si3 0.835261 0.111887 0.019939
Si Si4 0.167607 0.613596 0.630872
Si Si5 0.327764 0.101820 0.869250
Si Si6 0.669966 0.470601 0.951520
Si Si7 0.329422 0.487915 0.706143
Si Si8 0.167348 0.144015 0.394917
O O1 0.736778 0.845356 0.087414
O O2 0.763510 0.630984 0.068028
O O3 0.000000 0.750940 0.081222
O O4 0.831470 0.785430 0.013124
O O5 0.250000 0.190175 0.750000
O O6 0.500000 0.201423 0.710620
O O7 0.258449 0.153736 0.670003
O O8 0.298569 0.357650 0.696568
O O9 0.755974 0.155009 0.061677
O O10 0.000000 0.079300 0.033375
O O11 0.760013 0.000000 0.000000
O O12 0.196934 0.572790 0.581745
O O13 0.271916 0.554946 0.665123
O O14 0.201173 0.746584 0.633890
O O15 0.000000 0.586900 0.643620
O O16 0.500000 0.128497 0.865913
O O17 0.295017 0.968656 0.868634
O O18 0.500000 0.434964 0.953000
O O19 0.723521 0.500000 0.000000
O O20 0.250000 0.526613 0.750000
O O21 0.500000 0.512990 0.712237
O O22 0.000000 0.143002 0.409535
#
# Coordination Sequence:
#
# PCOD8220220 Si02
#       8
#     8   8   8   8   8   8   8   8
#     4  11  22  35  54  80 111 145 185 233 282 332
#     4  10  21  38  61  88 117 145 177 222 277 336
#     4  10  20  35  53  76 109 148 189 233 282 331
#     4  10  21  38  58  82 115 152 191 238 287 337
#     4  11  22  36  56  83 112 143 184 229 275 328
#     4  10  21  37  57  81 113 152 192 235 285 341
#     4  10  21  38  62  90 115 144 184 230 283 342
#     4  10  22  38  57  81 110 149 194 236 277 329
#
# _framework density 18.957039000000002
#
# number of rings (size 3 to 8) (size 9 to 14) (size 15 to 20)
#    0.000    1.750    1.250    3.000    0.000    7.500 
#    0.000    0.625    0.000    0.000    0.000    0.000 
#    0.000    0.000    0.000    0.000    0.000    0.000 
#
# Total GULP energy -793758.749669 kJ/mol
# GULP energy per Si atom -12402.480464 kJ/mol
# Density = 1.891389 g / cm^3
# Si number density = 18.957039 Si / 1000 Ang^3
#
#
#
# Elastic Constant Matrix: (Units=GPa)
#
#
# Indices 1 2 3 4 5 6 
#
# 1 97.6477 51.2942 57.3381 0.0000 0.0000 0.0000
# 2 51.2942 100.6799 41.8237 0.0000 0.0000 0.0000
# 3 57.3381 41.8237 117.0475 0.0000 0.0000 0.0000
# 4 0.0000 0.0000 0.0000 53.3523 0.0000 0.0000
# 5 0.0000 0.0000 0.0000 0.0000 38.0642 0.0000
# 6 0.0000 0.0000 0.0000 0.0000 0.0000 31.2056
#
#
#
# Elastic Compliance Matrix: (Units=1/GPa)
#
#
# Indices 1 2 3 4 5 6 
#
# 1 0.017097 -0.006143 -0.006180 0.000000 0.000000 0.000000
# 2 -0.006143 0.013871 -0.001947 0.000000 0.000000 0.000000
# 3 -0.006180 -0.001947 0.012267 0.000000 0.000000 0.000000
# 4 0.000000 0.000000 0.000000 0.018743 0.000000 0.000000
# 5 0.000000 0.000000 0.000000 0.000000 0.026271 0.000000
# 6 0.000000 0.000000 0.000000 0.000000 0.000000 0.032046
#
#
# Mechanical properties :
#
#
# Convention : Reuss Voigt Hill
#
# Bulk Modulus (GPa) = 68.05549 68.47633 68.26591
# Shear Modulus (GPa) = 32.52377 35.51904 34.02141
#
# Velocity S-wave (km/s) = 4.14654 4.33327 4.24094
# Velocity P-wave (km/s) = 7.67482 7.82538 7.75047
#
# Compressibility (1/GPa) = 0.01469389
#
# Stress axis : x y z
#
# Youngs Moduli (GPa) = 58.49044 72.09227 81.52113
#
# Poissons Ratio (x) = 0.44287 0.50381
# Poissons Ratio (y) = 0.35931 0.15873
# Poissons Ratio (z) = 0.36148 0.14037
#
# Static dielectric constant tensor:
#      x y z
#    x 3.605610 0.000000 0.000000 
#    y 0.000000 3.559790 0.000000 
#    z 0.000000 0.000000 3.128890 
# 
# 
# High freq. dielectric constant tensor:
#      x y z
#    x 1.742830 0.000000 0.000000 
#    y 0.000000 1.737640 0.000000 
#    z 0.000000 0.000000 1.731200 
# 
# From -- ./inp_files/38277.got.cif
#   From: 2010.03.12/outbox.cif.g09.slc.cpg/sg53_20_cif.got.tgz:38277.got - 2010.04.16 14:36:59.
