data_PCOD8220057
_publ_section_title
;
Structure prediction by ZEFSAII (Michael W. Deem and Ramdas Pophale) SiO2 
 PCOD8220057
Probable space group: P M N A
;
_chemical_formula_sum "Si O2"
_cell_formula_units_Z 32
_cell_length_a 28.553022
_cell_length_b 12.423450
_cell_length_c 5.007149
_cell_angle_alpha 90.000000
_cell_angle_beta 90.000000
_cell_angle_gamma 90.000000
_cell_volume 1776.171149
_symmetry_space_group_name_H-M "P M N A"
_symmetry_group_IT_number 53
_symmetry_cell_setting 'orthorhombic'
loop_
_space_group_symop_operation_xyz
x,y,z
1/2-x,-y,1/2+z
x,-y,-z
1/2-x,y,1/2-z
-x,-y,-z
1/2+x,y,1/2-z
-x,y,z
1/2+x,-y,1/2+z
loop_
_atom_site_type_symbol
_atom_site_label
_atom_site_fract_x
_atom_site_fract_y
_atom_site_fract_z
Si Si1 0.596234 0.374634 0.444720
Si Si2 0.150984 0.686921 0.441106
Si Si3 0.219877 0.500000 0.500000
Si Si4 0.000000 0.578914 0.759016
Si Si5 0.718306 0.123647 0.997794
O O1 0.598687 0.500000 0.500000
O O2 0.608542 0.313664 0.722988
O O3 0.546084 0.346438 0.302756
O O4 0.634930 0.342427 0.235471
O O5 0.189834 0.597450 0.370818
O O6 0.171639 0.806250 0.467486
O O7 0.250000 0.544498 0.750000
O O8 0.000000 0.500000 0.500000
O O9 0.000000 0.500000 0.000000
O O10 0.750000 0.151197 0.750000
O O11 0.750000 0.154100 0.250000
O O12 0.701758 0.000000 0.000000
#
# Coordination Sequence:
#
# PCOD8220057 Si02
#       5
#     8   8   4   4   8
#     4  11  20  35  51  79 109 139 171 218 258 327
#     4  12  21  34  53  77 107 139 178 217 264 310
#     4  12  22  32  46  69 108 141 168 202 258 320
#     4  10  20  34  54  76 107 146 177 208 268 317
#     4  10  21  38  56  75 102 140 187 230 261 299
#
# _framework density 18.016280999999999
#
# number of rings (size 3 to 8) (size 9 to 14) (size 15 to 20)
#    0.000    1.000    2.500    7.500    0.000    0.000 
#    0.000    0.000    0.000    0.000    0.000    5.250 
#    0.000    0.000    0.000    0.000    0.000    0.000 
#
# Total GULP energy -396600.931591 kJ/mol
# GULP energy per Si atom -12393.779112 kJ/mol
# Density = 1.797528 g / cm^3
# Si number density = 18.016281 Si / 1000 Ang^3
#
#
#
# Elastic Constant Matrix: (Units=GPa)
#
#
# Indices 1 2 3 4 5 6 
#
# 1 94.5511 52.0969 35.4373 0.0000 0.0000 0.0000
# 2 52.0969 81.5247 26.9433 0.0000 0.0000 0.0000
# 3 35.4373 26.9433 126.4093 0.0000 0.0000 0.0000
# 4 0.0000 0.0000 0.0000 21.1961 0.0000 0.0000
# 5 0.0000 0.0000 0.0000 0.0000 1.7512 0.0000
# 6 0.0000 0.0000 0.0000 0.0000 0.0000 20.6346
#
#
#
# Elastic Compliance Matrix: (Units=1/GPa)
#
#
# Indices 1 2 3 4 5 6 
#
# 1 0.017113 -0.010059 -0.002653 0.000000 0.000000 0.000000
# 2 -0.010059 0.019108 -0.001253 0.000000 0.000000 0.000000
# 3 -0.002653 -0.001253 0.008922 0.000000 0.000000 0.000000
# 4 0.000000 0.000000 0.000000 0.047178 0.000000 0.000000
# 5 0.000000 0.000000 0.000000 0.000000 0.571045 0.000000
# 6 0.000000 0.000000 0.000000 0.000000 0.000000 0.048462
#
#
# Mechanical properties :
#
#
# Convention : Reuss Voigt Hill
#
# Bulk Modulus (GPa) = 58.09705 59.04888 58.57296
# Shear Modulus (GPa) = 6.70694 21.25023 13.97858
#
# Velocity S-wave (km/s) = 1.93153 3.43811 2.78850
# Velocity P-wave (km/s) = 6.10667 6.97189 6.55357
#
# Compressibility (1/GPa) = 0.01721258
#
# Stress axis : x y z
#
# Youngs Moduli (GPa) = 58.43448 52.33340 112.08594
#
# Poissons Ratio (x) = 0.52642 0.29742
# Poissons Ratio (y) = 0.58779 0.14043
# Poissons Ratio (z) = 0.15505 0.06557
#
# Static dielectric constant tensor:
#      x y z
#    x 7.254310 0.000000 0.000000 
#    y 0.000000 3.013580 0.000000 
#    z 0.000000 0.000000 3.437260 
# 
# 
# High freq. dielectric constant tensor:
#      x y z
#    x 1.695300 0.000000 0.000000 
#    y 0.000000 1.654130 0.000000 
#    z 0.000000 0.000000 1.726410 
# 
# From -- ./inp_files/4257.got.cif
#   From: 2010.03.12/outbox.cif.g09.slc.cpg/sg53_3_cif.got.tgz:4257.got - 2010.04.16 14:36:59.
