data_PCOD8220660
_publ_section_title
;
Structure prediction by ZEFSAII (Michael W. Deem and Ramdas Pophale) SiO2 
 PCOD8220660
Probable space group: P M N A
;
_chemical_formula_sum "Si O2"
_cell_formula_units_Z 48
_cell_length_a 8.703289
_cell_length_b 30.756527
_cell_length_c 9.058090
_cell_angle_alpha 90.000000
_cell_angle_beta 90.000000
_cell_angle_gamma 90.000000
_cell_volume 2424.696190
_symmetry_space_group_name_H-M "P M N A"
_symmetry_group_IT_number 53
_symmetry_cell_setting 'orthorhombic'
loop_
_space_group_symop_operation_xyz
x,y,z
1/2-x,-y,1/2+z
x,-y,-z
1/2-x,y,1/2-z
-x,-y,-z
1/2+x,y,1/2-z
-x,y,z
1/2+x,-y,1/2+z
loop_
_atom_site_type_symbol
_atom_site_label
_atom_site_fract_x
_atom_site_fract_y
_atom_site_fract_z
Si Si1 0.322525 0.956705 0.092938
Si Si2 0.180902 0.621031 0.086917
Si Si3 0.677393 0.456674 0.092624
Si Si4 0.318707 0.120146 0.409734
Si Si5 0.822229 0.706871 0.409155
Si Si6 0.320965 0.196855 0.912328
O O1 0.250000 0.966637 0.250000
O O2 0.500000 0.943268 0.108139
O O3 0.230941 0.917544 0.019965
O O4 0.301467 0.000000 0.000000
O O5 0.250000 0.615644 0.250000
O O6 0.236155 0.666640 0.010642
O O7 0.000000 0.620490 0.100177
O O8 0.233614 0.582299 0.983883
O O9 0.750000 0.466012 0.250000
O O10 0.500000 0.443804 0.108488
O O11 0.700176 0.500000 0.000000
O O12 0.250000 0.110614 0.250000
O O13 0.500000 0.121159 0.396023
O O14 0.260871 0.166012 0.470960
O O15 0.750000 0.710908 0.250000
O O16 0.798267 0.754502 0.480770
O O17 0.000000 0.694571 0.397114
O O18 0.250000 0.191189 0.750000
O O19 0.500000 0.185136 0.899605
#
# Coordination Sequence:
#
# PCOD8220660 Si02
#       6
#     8   8   8   8   8   8
#     4  11  24  42  65  92 122 156 195 239 288 343
#     4  11  21  35  58  86 118 153 191 236 285 340
#     4  11  24  41  61  85 114 148 188 234 284 340
#     4  12  25  41  61  85 118 156 196 243 293 347
#     4   9  17  31  54  83 115 150 191 237 284 338
#     4  10  20  36  59  87 118 153 195 241 288 340
#
# _framework density 19.796295000000001
#
# number of rings (size 3 to 8) (size 9 to 14) (size 15 to 20)
#    0.000    1.333    0.000    7.500    0.000    7.333 
#    0.000    0.833    0.000    4.000    0.000    0.000 
#    0.000    0.000    0.000    0.000    0.000    0.000 
#
# Total GULP energy -595219.827918 kJ/mol
# GULP energy per Si atom -12400.413082 kJ/mol
# Density = 1.975124 g / cm^3
# Si number density = 19.796295 Si / 1000 Ang^3
#
#
#
# Elastic Constant Matrix: (Units=GPa)
#
#
# Indices 1 2 3 4 5 6 
#
# 1 187.6211 72.2638 55.7253 0.0000 0.0000 0.0000
# 2 72.2638 115.0360 34.4497 0.0000 0.0000 0.0000
# 3 55.7253 34.4497 96.1831 0.0000 0.0000 0.0000
# 4 0.0000 0.0000 0.0000 37.6088 0.0000 0.0000
# 5 0.0000 0.0000 0.0000 0.0000 31.0662 0.0000
# 6 0.0000 0.0000 0.0000 0.0000 0.0000 40.8334
#
#
#
# Elastic Compliance Matrix: (Units=1/GPa)
#
#
# Indices 1 2 3 4 5 6 
#
# 1 0.007770 -0.003957 -0.003084 0.000000 0.000000 0.000000
# 2 -0.003957 0.011753 -0.001917 0.000000 0.000000 0.000000
# 3 -0.003084 -0.001917 0.012870 0.000000 0.000000 0.000000
# 4 0.000000 0.000000 0.000000 0.026590 0.000000 0.000000
# 5 0.000000 0.000000 0.000000 0.000000 0.032189 0.000000
# 6 0.000000 0.000000 0.000000 0.000000 0.000000 0.024490
#
#
# Mechanical properties :
#
#
# Convention : Reuss Voigt Hill
#
# Bulk Modulus (GPa) = 69.07790 80.41306 74.74548
# Shear Modulus (GPa) = 36.12595 37.66177 36.89386
#
# Velocity S-wave (km/s) = 4.27650 4.36646 4.32171
# Velocity P-wave (km/s) = 7.70420 8.13202 7.92100
#
# Compressibility (1/GPa) = 0.01447641
#
# Stress axis : x y z
#
# Youngs Moduli (GPa) = 128.69638 85.08508 77.69817
#
# Poissons Ratio (x) = 0.33672 0.23965
# Poissons Ratio (y) = 0.50931 0.14892
# Poissons Ratio (z) = 0.39695 0.16308
#
# Static dielectric constant tensor:
#      x y z
#    x 3.899550 0.000000 0.000000 
#    y 0.000000 4.282410 0.000000 
#    z 0.000000 0.000000 3.406340 
# 
# 
# High freq. dielectric constant tensor:
#      x y z
#    x 1.794620 0.000000 0.000000 
#    y 0.000000 1.797080 0.000000 
#    z 0.000000 0.000000 1.749970 
# 
# From -- ./inp_files/6671.got.cif
#   From: 2010.03.12/outbox.cif.g09.slc.cpg/sg53_4_cif.got.tgz:6671.got - 2010.04.16 14:36:59.
