data_PCOD8220640
_publ_section_title
;
Structure prediction by ZEFSAII (Michael W. Deem and Ramdas Pophale) SiO2 
 PCOD8220640
Probable space group: P M N A
;
_chemical_formula_sum "Si O2"
_cell_formula_units_Z 56
_cell_length_a 14.623717
_cell_length_b 9.779674
_cell_length_c 19.304811
_cell_angle_alpha 90.000000
_cell_angle_beta 90.000000
_cell_angle_gamma 90.000000
_cell_volume 2760.881115
_symmetry_space_group_name_H-M "P M N A"
_symmetry_group_IT_number 53
_symmetry_cell_setting 'orthorhombic'
loop_
_space_group_symop_operation_xyz
x,y,z
1/2-x,-y,1/2+z
x,-y,-z
1/2-x,y,1/2-z
-x,-y,-z
1/2+x,y,1/2-z
-x,y,z
1/2+x,-y,1/2+z
loop_
_atom_site_type_symbol
_atom_site_label
_atom_site_fract_x
_atom_site_fract_y
_atom_site_fract_z
Si Si1 0.605964 0.018982 0.788345
Si Si2 0.606074 0.891319 0.059999
Si Si3 0.262873 0.615180 0.592738
Si Si4 0.263534 0.309434 0.555513
Si Si5 0.603564 0.724928 0.826486
Si Si6 0.397846 0.534471 0.702923
Si Si7 0.392352 0.773402 0.326943
O O1 0.500000 0.052888 0.783617
O O2 0.640205 0.054210 0.865411
O O3 0.648675 0.111663 0.726182
O O4 0.627536 0.857787 0.779046
O O5 0.500000 0.849783 0.060728
O O6 0.665387 0.758622 0.045630
O O7 0.626510 0.000000 0.000000
O O8 0.239622 0.455300 0.588143
O O9 0.306197 0.671570 0.521358
O O10 0.172647 0.704583 0.609978
O O11 0.336634 0.628893 0.653497
O O12 0.335398 0.221340 0.601161
O O13 0.500000 0.743227 0.856128
O O14 0.612675 0.589799 0.780320
O O15 0.500000 0.553114 0.674391
O O16 0.373140 0.374488 0.707014
O O17 0.500000 0.795368 0.343462
#
# Coordination Sequence:
#
# PCOD8220640 Si02
#       7
#     8   8   8   8   8   8   8
#     4   9  19  36  58  83 112 147 192 238 286 344
#     4  10  21  38  57  79 115 155 192 235 284 346
#     4  10  21  37  55  83 120 150 193 242 287 348
#     4  10  22  37  56  84 115 155 197 238 286 350
#     4  10  20  36  59  85 116 152 187 236 295 345
#     4   9  19  36  60  84 111 151 193 240 295 345
#     4   9  19  38  61  86 114 147 195 247 290 343
#
# _framework density 20.283379
#
# number of rings (size 3 to 8) (size 9 to 14) (size 15 to 20)
#    0.000    2.429    0.000    1.286    2.000    3.429 
#    7.714    4.286    0.000    0.429    0.000    0.000 
#    0.000    0.000    0.000    0.000    0.000    0.000 
#
# Total GULP energy -694140.541470 kJ/mol
# GULP energy per Si atom -12395.366812 kJ/mol
# Density = 2.023721 g / cm^3
# Si number density = 20.283379 Si / 1000 Ang^3
#
#
#
# Elastic Constant Matrix: (Units=GPa)
#
#
# Indices 1 2 3 4 5 6 
#
# 1 71.6094 36.2109 46.8261 0.0000 0.0000 0.0000
# 2 36.2109 73.8421 41.3207 0.0000 0.0000 0.0000
# 3 46.8261 41.3207 117.7429 0.0000 0.0000 0.0000
# 4 0.0000 0.0000 0.0000 29.5280 0.0000 0.0000
# 5 0.0000 0.0000 0.0000 0.0000 27.8057 0.0000
# 6 0.0000 0.0000 0.0000 0.0000 0.0000 24.8990
#
#
#
# Elastic Compliance Matrix: (Units=1/GPa)
#
#
# Indices 1 2 3 4 5 6 
#
# 1 0.021554 -0.007184 -0.006051 0.000000 0.000000 0.000000
# 2 -0.007184 0.019246 -0.003897 0.000000 0.000000 0.000000
# 3 -0.006051 -0.003897 0.012267 0.000000 0.000000 0.000000
# 4 0.000000 0.000000 0.000000 0.033866 0.000000 0.000000
# 5 0.000000 0.000000 0.000000 0.000000 0.035964 0.000000
# 6 0.000000 0.000000 0.000000 0.000000 0.000000 0.040162
#
#
# Mechanical properties :
#
#
# Convention : Reuss Voigt Hill
#
# Bulk Modulus (GPa) = 53.18173 56.87886 55.03030
# Shear Modulus (GPa) = 24.55904 25.70234 25.13069
#
# Velocity S-wave (km/s) = 3.48342 3.56358 3.52373
# Velocity P-wave (km/s) = 6.51577 6.71082 6.61402
#
# Compressibility (1/GPa) = 0.01880345
#
# Stress axis : x y z
#
# Youngs Moduli (GPa) = 46.39509 51.95884 81.51810
#
# Poissons Ratio (x) = 0.37326 0.49326
# Poissons Ratio (y) = 0.33329 0.31770
# Poissons Ratio (z) = 0.28073 0.20250
#
# Static dielectric constant tensor:
#      x y z
#    x 3.603070 0.000000 0.000000 
#    y 0.000000 3.621460 0.000000 
#    z 0.000000 0.000000 3.776620 
# 
# 
# High freq. dielectric constant tensor:
#      x y z
#    x 1.781810 0.000000 0.000000 
#    y 0.000000 1.789110 0.000000 
#    z 0.000000 0.000000 1.792290 
# 
# From -- ./inp_files/32468.got.cif
#   From: 2010.03.12/outbox.cif.g09.slc.cpg/sg53_17_cif.got.tgz:32468.got - 2010.04.16 14:36:59.
