data_PCOD8220772
_publ_section_title
;
Structure prediction by ZEFSAII (Michael W. Deem and Ramdas Pophale) SiO2 
 PCOD8220772
Probable space group: P M N A
;
_chemical_formula_sum "Si O2"
_cell_formula_units_Z 40
_cell_length_a 8.584105
_cell_length_b 25.387366
_cell_length_c 9.119811
_cell_angle_alpha 90.000000
_cell_angle_beta 90.000000
_cell_angle_gamma 90.000000
_cell_volume 1987.460488
_symmetry_space_group_name_H-M "P M N A"
_symmetry_group_IT_number 53
_symmetry_cell_setting 'orthorhombic'
loop_
_space_group_symop_operation_xyz
x,y,z
1/2-x,-y,1/2+z
x,-y,-z
1/2-x,y,1/2-z
-x,-y,-z
1/2+x,y,1/2-z
-x,y,z
1/2+x,-y,1/2+z
loop_
_atom_site_type_symbol
_atom_site_label
_atom_site_fract_x
_atom_site_fract_y
_atom_site_fract_z
Si Si1 0.820146 0.447262 0.591626
Si Si2 0.684154 0.834707 0.589052
Si Si3 0.316530 0.646575 0.590003
Si Si4 0.816820 0.952669 0.906172
Si Si5 0.683954 0.741738 0.089673
O O1 0.800626 0.500000 0.500000
O O2 0.750000 0.458426 0.750000
O O3 0.722417 0.401426 0.516309
O O4 0.000000 0.429903 0.603235
O O5 0.750000 0.821275 0.750000
O O6 0.500000 0.825730 0.593238
O O7 0.729934 0.894095 0.540031
O O8 0.760245 0.798578 0.465062
O O9 0.250000 0.634281 0.750000
O O10 0.500000 0.654164 0.600519
O O11 0.242085 0.699483 0.527550
O O12 0.750000 0.963395 0.750000
O O13 0.000000 0.957589 0.900924
O O14 0.742798 0.000000 0.000000
O O15 0.750000 0.728924 0.250000
O O16 0.500000 0.740095 0.099076
#
# Coordination Sequence:
#
# PCOD8220772 Si02
#       5
#     8   8   8   8   8
#     4  11  24  42  65  94 128 165 205 249 298 351
#     4  10  20  37  59  84 115 152 195 240 290 348
#     4  12  25  43  66  92 123 159 201 246 296 352
#     4   9  19  35  55  81 113 149 190 236 286 343
#     4  12  25  42  62  87 119 154 195 242 296 352
#
# _framework density 20.126187000000002
#
# number of rings (size 3 to 8) (size 9 to 14) (size 15 to 20)
#    0.000    1.200    0.000    6.600    0.000    5.200 
#    0.000    2.000    0.000    0.000    0.000    0.000 
#    0.000    0.000    0.000    0.000    0.000    0.000 
#
# Total GULP energy -496134.082267 kJ/mol
# GULP energy per Si atom -12403.352057 kJ/mol
# Density = 2.008038 g / cm^3
# Si number density = 20.126187 Si / 1000 Ang^3
#
#
#
# Elastic Constant Matrix: (Units=GPa)
#
#
# Indices 1 2 3 4 5 6 
#
# 1 110.7286 36.1699 48.9203 0.0000 0.0000 0.0000
# 2 36.1699 108.4859 46.6518 0.0000 0.0000 0.0000
# 3 48.9203 46.6518 108.9546 0.0000 0.0000 0.0000
# 4 0.0000 0.0000 0.0000 11.2506 0.0000 0.0000
# 5 0.0000 0.0000 0.0000 0.0000 35.0990 0.0000
# 6 0.0000 0.0000 0.0000 0.0000 0.0000 28.2904
#
#
#
# Elastic Compliance Matrix: (Units=1/GPa)
#
#
# Indices 1 2 3 4 5 6 
#
# 1 0.011608 -0.001997 -0.004357 0.000000 0.000000 0.000000
# 2 -0.001997 0.011641 -0.004088 0.000000 0.000000 0.000000
# 3 -0.004357 -0.004088 0.012885 0.000000 0.000000 0.000000
# 4 0.000000 0.000000 0.000000 0.088884 0.000000 0.000000
# 5 0.000000 0.000000 0.000000 0.000000 0.028491 0.000000
# 6 0.000000 0.000000 0.000000 0.000000 0.000000 0.035348
#
#
# Mechanical properties :
#
#
# Convention : Reuss Voigt Hill
#
# Bulk Modulus (GPa) = 65.57002 65.73924 65.65463
# Shear Modulus (GPa) = 23.27480 28.02315 25.64898
#
# Velocity S-wave (km/s) = 3.40434 3.73550 3.57376
# Velocity P-wave (km/s) = 6.93563 7.16517 7.05133
#
# Compressibility (1/GPa) = 0.01525087
#
# Stress axis : x y z
#
# Youngs Moduli (GPa) = 86.14520 85.89982 77.60989
#
# Poissons Ratio (x) = 0.17151 0.33816
# Poissons Ratio (y) = 0.17200 0.31728
# Poissons Ratio (z) = 0.37535 0.35117
#
# Static dielectric constant tensor:
#      x y z
#    x 3.821110 0.000000 0.000000 
#    y 0.000000 4.048840 0.000000 
#    z 0.000000 0.000000 3.812880 
# 
# 
# High freq. dielectric constant tensor:
#      x y z
#    x 1.799350 0.000000 0.000000 
#    y 0.000000 1.804500 0.000000 
#    z 0.000000 0.000000 1.791450 
# 
# From -- ./inp_files/6252.got.cif
#   From: 2010.03.12/outbox.cif.g09.slc.cpg/sg53_4_cif.got.tgz:6252.got - 2010.04.16 14:36:59.
