data_PCOD8220728
_publ_section_title
;
Structure prediction by ZEFSAII (Michael W. Deem and Ramdas Pophale) SiO2 
 PCOD8220728
Probable space group: P M N A
;
_chemical_formula_sum "Si O2"
_cell_formula_units_Z 56
_cell_length_a 8.470326
_cell_length_b 17.581337
_cell_length_c 19.443681
_cell_angle_alpha 90.000000
_cell_angle_beta 90.000000
_cell_angle_gamma 90.000000
_cell_volume 2895.546284
_symmetry_space_group_name_H-M "P M N A"
_symmetry_group_IT_number 53
_symmetry_cell_setting 'orthorhombic'
loop_
_space_group_symop_operation_xyz
x,y,z
1/2-x,-y,1/2+z
x,-y,-z
1/2-x,y,1/2-z
-x,-y,-z
1/2+x,y,1/2-z
-x,y,z
1/2+x,-y,1/2+z
loop_
_atom_site_type_symbol
_atom_site_label
_atom_site_fract_x
_atom_site_fract_y
_atom_site_fract_z
Si Si1 0.186356 0.503081 0.173675
Si Si2 0.814676 0.629802 0.929674
Si Si3 0.684180 0.371151 0.922085
Si Si4 0.314218 0.078250 0.676580
Si Si5 0.184181 0.791420 0.077137
Si Si6 0.817093 0.208940 0.432577
Si Si7 0.687166 0.093312 0.324658
O O1 0.250000 0.488317 0.250000
O O2 0.238550 0.434038 0.124361
O O3 0.259107 0.579511 0.142336
O O4 0.000000 0.511849 0.176401
O O5 0.723799 0.706086 0.907520
O O6 0.000000 0.645364 0.926110
O O7 0.771894 0.604448 0.007433
O O8 0.500000 0.382441 0.934296
O O9 0.720272 0.284032 0.902777
O O10 0.250000 0.103296 0.750000
O O11 0.500000 0.081322 0.679795
O O12 0.248941 0.138133 0.621228
O O13 0.261311 0.992885 0.656574
O O14 0.000000 0.776892 0.090653
O O15 0.211298 0.812586 0.998009
O O16 0.778815 0.148809 0.374579
O O17 0.000000 0.205356 0.452721
O O18 0.750000 0.114580 0.250000
O O19 0.500000 0.105452 0.329472
#
# Coordination Sequence:
#
# PCOD8220728 Si02
#       7
#     8   8   8   8   8   8   8
#     4  11  24  40  59  84 113 145 183 227 275 325
#     4  10  21  39  61  83 110 146 186 229 277 328
#     4  11  22  37  59  85 113 147 185 225 273 330
#     4   9  20  36  57  81 108 145 185 227 276 329
#     4  10  20  37  58  82 112 146 186 231 277 325
#     4  11  22  36  56  84 113 145 185 228 276 327
#     4  10  20  37  57  80 110 145 185 227 275 330
#
# _framework density 19.340046000000001
#
# number of rings (size 3 to 8) (size 9 to 14) (size 15 to 20)
#    0.000    1.714    0.000    6.429    0.000    7.429 
#    0.000    5.714    0.000    0.000    0.000    0.000 
#    0.000    0.000    0.000    0.000    0.000    0.000 
#
# Total GULP energy -694580.715527 kJ/mol
# GULP energy per Si atom -12403.227063 kJ/mol
# Density = 1.929603 g / cm^3
# Si number density = 19.340046 Si / 1000 Ang^3
#
#
#
# Elastic Constant Matrix: (Units=GPa)
#
#
# Indices 1 2 3 4 5 6 
#
# 1 57.9155 23.3397 15.2529 0.0000 0.0000 0.0000
# 2 23.3397 108.0038 73.4899 0.0000 0.0000 0.0000
# 3 15.2529 73.4899 99.2886 0.0000 0.0000 0.0000
# 4 0.0000 0.0000 0.0000 -12.5506 0.0000 0.0000
# 5 0.0000 0.0000 0.0000 0.0000 33.7971 0.0000
# 6 0.0000 0.0000 0.0000 0.0000 0.0000 30.3959
#
#
#
# Elastic Compliance Matrix: (Units=1/GPa)
#
#
# Indices 1 2 3 4 5 6 
#
# 1 0.018917 -0.004252 0.000241 0.000000 0.000000 0.000000
# 2 -0.004252 0.019609 -0.013861 0.000000 0.000000 0.000000
# 3 0.000241 -0.013861 0.020294 0.000000 0.000000 0.000000
# 4 0.000000 0.000000 0.000000 -0.079677 0.000000 0.000000
# 5 0.000000 0.000000 0.000000 0.000000 0.029588 0.000000
# 6 0.000000 0.000000 0.000000 0.000000 0.000000 0.032899
#
#
# Mechanical properties :
#
#
# Convention : Reuss Voigt Hill
#
# Bulk Modulus (GPa) = 43.33439 54.37478 48.85458
# Shear Modulus (GPa) = 58.77821 20.53683 39.65752
#
# Velocity S-wave (km/s) = 5.51887 3.26219 4.53320
# Velocity P-wave (km/s) = 7.94140 6.50886 7.26055
#
# Compressibility (1/GPa) = 0.02307636
#
# Stress axis : x y z
#
# Youngs Moduli (GPa) = 52.86374 50.99631 49.27577
#
# Poissons Ratio (x) = 0.21683 -0.01188
# Poissons Ratio (y) = 0.22477 0.68301
# Poissons Ratio (z) = -0.01275 0.70685
#
# Static dielectric constant tensor:
#      x y z
#    x 3.566350 0.000000 0.000000 
#    y 0.000000 3.744540 0.000000 
#    z 0.000000 0.000000 3.175470 
# 
# 
# High freq. dielectric constant tensor:
#      x y z
#    x 1.763030 0.000000 0.000000 
#    y 0.000000 1.761310 0.000000 
#    z 0.000000 0.000000 1.749870 
# 
# From -- ./inp_files/30833.got.cif
#   From: 2010.03.12/outbox.cif.g09.slc.cpg/sg53_16_cif.got.tgz:30833.got - 2010.04.16 14:36:59.
