data_PCOD8220631
_publ_section_title
;
Structure prediction by ZEFSAII (Michael W. Deem and Ramdas Pophale) SiO2 
 PCOD8220631
Probable space group: P M N A
;
_chemical_formula_sum "Si O2"
_cell_formula_units_Z 48
_cell_length_a 18.669407
_cell_length_b 14.493289
_cell_length_c 8.897819
_cell_angle_alpha 90.000000
_cell_angle_beta 90.000000
_cell_angle_gamma 90.000000
_cell_volume 2407.581751
_symmetry_space_group_name_H-M "P M N A"
_symmetry_group_IT_number 53
_symmetry_cell_setting 'orthorhombic'
loop_
_space_group_symop_operation_xyz
x,y,z
1/2-x,-y,1/2+z
x,-y,-z
1/2-x,y,1/2-z
-x,-y,-z
1/2+x,y,1/2-z
-x,y,z
1/2+x,-y,1/2+z
loop_
_atom_site_type_symbol
_atom_site_label
_atom_site_fract_x
_atom_site_fract_y
_atom_site_fract_z
Si Si1 0.579251 0.741584 0.240488
Si Si2 0.682273 0.045755 0.347941
Si Si3 0.082203 0.217627 0.091939
Si Si4 0.823742 0.618904 0.841855
Si Si5 0.917820 0.937908 0.355004
Si Si6 0.325373 0.583215 0.317215
O O1 0.500000 0.704735 0.206246
O O2 0.584723 0.771537 0.413421
O O3 0.596354 0.827404 0.127518
O O4 0.631634 0.655334 0.213050
O O5 0.750000 0.077871 0.250000
O O6 0.628652 0.129591 0.367343
O O7 0.712352 0.000000 0.500000
O O8 0.636576 0.965178 0.273523
O O9 0.116425 0.302654 0.186636
O O10 0.000000 0.205043 0.146468
O O11 0.750000 0.637858 0.750000
O O12 0.861134 0.518986 0.811513
O O13 0.808839 0.623830 0.019332
O O14 0.000000 0.952986 0.303684
O O15 0.900768 0.000000 0.500000
O O16 0.250000 0.562726 0.250000
#
# Coordination Sequence:
#
# PCOD8220631 Si02
#       6
#     8   8   8   8   8   8
#     4   9  18  34  56  83 111 146 193 240 286 341
#     4  12  24  39  57  84 114 149 192 238 292 354
#     4  10  20  36  59  84 111 148 190 237 293 347
#     4   9  18  35  55  83 116 146 190 238 283 344
#     4  10  21  39  59  81 113 151 194 242 289 345
#     4   9  18  33  56  82 112 153 189 231 292 345
#
# _framework density 19.937017999999998
#
# number of rings (size 3 to 8) (size 9 to 14) (size 15 to 20)
#    0.000    2.167    1.667    1.500    0.000    2.000 
#    9.000    3.333    0.000    0.000    0.000    4.667 
#    0.000    0.000    0.000    0.000    0.000    0.000 
#
# Total GULP energy -594741.763427 kJ/mol
# GULP energy per Si atom -12390.453405 kJ/mol
# Density = 1.989164 g / cm^3
# Si number density = 19.937018 Si / 1000 Ang^3
#
#
#
# Elastic Constant Matrix: (Units=GPa)
#
#
# Indices 1 2 3 4 5 6 
#
# 1 93.8927 60.7928 25.9106 0.0000 0.0000 0.0000
# 2 60.7928 133.5303 29.3399 0.0000 0.0000 0.0000
# 3 25.9106 29.3399 47.0435 0.0000 0.0000 0.0000
# 4 0.0000 0.0000 0.0000 28.2340 0.0000 0.0000
# 5 0.0000 0.0000 0.0000 0.0000 18.3915 0.0000
# 6 0.0000 0.0000 0.0000 0.0000 0.0000 26.7015
#
#
#
# Elastic Compliance Matrix: (Units=1/GPa)
#
#
# Indices 1 2 3 4 5 6 
#
# 1 0.016043 -0.006214 -0.004961 0.000000 0.000000 0.000000
# 2 -0.006214 0.011085 -0.003491 0.000000 0.000000 0.000000
# 3 -0.004961 -0.003491 0.026166 0.000000 0.000000 0.000000
# 4 0.000000 0.000000 0.000000 0.035418 0.000000 0.000000
# 5 0.000000 0.000000 0.000000 0.000000 0.054373 0.000000
# 6 0.000000 0.000000 0.000000 0.000000 0.000000 0.037451
#
#
# Mechanical properties :
#
#
# Convention : Reuss Voigt Hill
#
# Bulk Modulus (GPa) = 41.73061 56.28368 49.00715
# Shear Modulus (GPa) = 22.95108 25.22695 24.08901
#
# Velocity S-wave (km/s) = 3.39658 3.56101 3.47977
# Velocity P-wave (km/s) = 6.02985 6.72308 6.38587
#
# Compressibility (1/GPa) = 0.02396322
#
# Stress axis : x y z
#
# Youngs Moduli (GPa) = 62.33389 90.21213 38.21705
#
# Poissons Ratio (x) = 0.56056 0.18958
# Poissons Ratio (y) = 0.38733 0.13342
# Poissons Ratio (z) = 0.30921 0.31493
#
# Static dielectric constant tensor:
#      x y z
#    x 3.656390 0.000000 0.000000 
#    y 0.000000 3.852810 0.000000 
#    z 0.000000 0.000000 3.504150 
# 
# 
# High freq. dielectric constant tensor:
#      x y z
#    x 1.774530 0.000000 0.000000 
#    y 0.000000 1.792100 0.000000 
#    z 0.000000 0.000000 1.753570 
# 
# From -- ./inp_files/9914.got.cif
#   From: 2010.03.12/outbox.cif.g09.slc.cpg/sg53_5_cif.got.tgz:9914.got - 2010.04.16 14:36:59.
