data_PCOD8220535
_publ_section_title
;
Structure prediction by ZEFSAII (Michael W. Deem and Ramdas Pophale) SiO2 
 PCOD8220535
Probable space group: P M N A
;
_chemical_formula_sum "Si O2"
_cell_formula_units_Z 40
_cell_length_a 8.972430
_cell_length_b 25.206555
_cell_length_c 9.213621
_cell_angle_alpha 90.000000
_cell_angle_beta 90.000000
_cell_angle_gamma 90.000000
_cell_volume 2083.789843
_symmetry_space_group_name_H-M "P M N A"
_symmetry_group_IT_number 53
_symmetry_cell_setting 'orthorhombic'
loop_
_space_group_symop_operation_xyz
x,y,z
1/2-x,-y,1/2+z
x,-y,-z
1/2-x,y,1/2-z
-x,-y,-z
1/2+x,y,1/2-z
-x,y,z
1/2+x,-y,1/2+z
loop_
_atom_site_type_symbol
_atom_site_label
_atom_site_fract_x
_atom_site_fract_y
_atom_site_fract_z
Si Si1 0.325848 0.048898 0.094838
Si Si2 0.675451 0.549131 0.403320
Si Si3 0.323926 0.764543 0.598078
Si Si4 0.326565 0.643100 0.602617
Si Si5 0.675807 0.150591 0.903212
O O1 0.250000 0.049941 0.250000
O O2 0.500000 0.041760 0.121304
O O3 0.287863 0.102742 0.011373
O O4 0.263172 0.000000 0.000000
O O5 0.729900 0.500000 0.500000
O O6 0.750000 0.543474 0.250000
O O7 0.500000 0.548069 0.381814
O O8 0.728681 0.604488 0.474996
O O9 0.250000 0.781916 0.750000
O O10 0.500000 0.775533 0.607131
O O11 0.286322 0.703492 0.562457
O O12 0.250676 0.796794 0.467353
O O13 0.250000 0.624779 0.750000
O O14 0.500000 0.636136 0.629901
O O15 0.750000 0.137094 0.750000
O O16 0.500000 0.159392 0.883027
#
# Coordination Sequence:
#
# PCOD8220535 Si02
#       5
#     8   8   8   8   8
#     4  10  22  39  59  84 112 143 180 222 270 323
#     4  10  21  36  54  78 107 138 176 220 266 318
#     4  10  20  36  57  81 111 145 183 225 270 322
#     4   9  19  35  55  80 108 140 178 220 266 318
#     4  11  23  38  57  82 112 146 185 227 273 323
#
# _framework density 19.195793999999999
#
# number of rings (size 3 to 8) (size 9 to 14) (size 15 to 20)
#    0.000    2.000    0.000    3.000    0.000    6.400 
#    0.000    2.000    0.000    0.000    0.000    0.000 
#    0.000    0.000    0.000    0.000    0.000    0.000 
#
# Total GULP energy -496161.397965 kJ/mol
# GULP energy per Si atom -12404.034949 kJ/mol
# Density = 1.915210 g / cm^3
# Si number density = 19.195794 Si / 1000 Ang^3
#
#
#
# Elastic Constant Matrix: (Units=GPa)
#
#
# Indices 1 2 3 4 5 6 
#
# 1 68.2977 50.5680 66.9647 0.0000 0.0000 0.0000
# 2 50.5680 117.3268 81.1487 0.0000 0.0000 0.0000
# 3 66.9647 81.1487 174.9684 0.0000 0.0000 0.0000
# 4 0.0000 0.0000 0.0000 35.2919 0.0000 0.0000
# 5 0.0000 0.0000 0.0000 0.0000 40.8315 0.0000
# 6 0.0000 0.0000 0.0000 0.0000 0.0000 26.0626
#
#
#
# Elastic Compliance Matrix: (Units=1/GPa)
#
#
# Indices 1 2 3 4 5 6 
#
# 1 0.026391 -0.006461 -0.007104 0.000000 0.000000 0.000000
# 2 -0.006461 0.014130 -0.004081 0.000000 0.000000 0.000000
# 3 -0.007104 -0.004081 0.010327 0.000000 0.000000 0.000000
# 4 0.000000 0.000000 0.000000 0.028335 0.000000 0.000000
# 5 0.000000 0.000000 0.000000 0.000000 0.024491 0.000000
# 6 0.000000 0.000000 0.000000 0.000000 0.000000 0.038369
#
#
# Mechanical properties :
#
#
# Convention : Reuss Voigt Hill
#
# Bulk Modulus (GPa) = 64.28139 84.21731 74.24935
# Shear Modulus (GPa) = 27.39428 31.23131 29.31280
#
# Velocity S-wave (km/s) = 3.78179 4.03797 3.91198
# Velocity P-wave (km/s) = 7.25460 8.10607 7.69212
#
# Compressibility (1/GPa) = 0.01555660
#
# Stress axis : x y z
#
# Youngs Moduli (GPa) = 37.89195 70.76962 96.83643
#
# Poissons Ratio (x) = 0.45725 0.68791
# Poissons Ratio (y) = 0.24483 0.39516
# Poissons Ratio (z) = 0.26918 0.28879
#
# Static dielectric constant tensor:
#      x y z
#    x 3.488140 0.000000 0.000000 
#    y 0.000000 3.780100 0.000000 
#    z 0.000000 0.000000 0.968480 
# 
# 
# High freq. dielectric constant tensor:
#      x y z
#    x 1.746240 0.000000 0.000000 
#    y 0.000000 1.762290 0.000000 
#    z 0.000000 0.000000 1.751290 
# 
# From -- ./inp_files/6271.got.cif
#   From: 2010.03.12/outbox.cif.g09.slc.cpg/sg53_4_cif.got.tgz:6271.got - 2010.04.16 14:36:59.
