data_PCOD8220466
_publ_section_title
;
Structure prediction by ZEFSAII (Michael W. Deem and Ramdas Pophale) SiO2 
 PCOD8220466
Probable space group: P M N A
;
_chemical_formula_sum "Si O2"
_cell_formula_units_Z 56
_cell_length_a 18.912436
_cell_length_b 9.316260
_cell_length_c 16.833881
_cell_angle_alpha 90.000000
_cell_angle_beta 90.000000
_cell_angle_gamma 90.000000
_cell_volume 2966.014874
_symmetry_space_group_name_H-M "P M N A"
_symmetry_group_IT_number 53
_symmetry_cell_setting 'orthorhombic'
loop_
_space_group_symop_operation_xyz
x,y,z
1/2-x,-y,1/2+z
x,-y,-z
1/2-x,y,1/2-z
-x,-y,-z
1/2+x,y,1/2-z
-x,y,z
1/2+x,-y,1/2+z
loop_
_atom_site_type_symbol
_atom_site_label
_atom_site_fract_x
_atom_site_fract_y
_atom_site_fract_z
Si Si1 0.579864 0.105021 0.266819
Si Si2 0.579469 0.789623 0.216553
Si Si3 0.315449 0.420104 0.695016
Si Si4 0.287913 0.110050 0.173543
Si Si5 0.345453 0.889713 0.062705
Si Si6 0.237127 0.657502 0.028042
Si Si7 0.336573 0.287739 0.378300
O O1 0.500000 0.156203 0.248761
O O2 0.632295 0.161464 0.197054
O O3 0.605945 0.169172 0.351608
O O4 0.584637 0.932801 0.270030
O O5 0.500000 0.728984 0.217053
O O6 0.630007 0.671376 0.253660
O O7 0.598686 0.824517 0.124825
O O8 0.250000 0.463047 0.750000
O O9 0.286989 0.332769 0.619124
O O10 0.355584 0.562077 0.663792
O O11 0.250000 0.038633 0.250000
O O12 0.243634 0.248129 0.147187
O O13 0.287130 0.985581 0.108297
O O14 0.303725 0.764297 0.016157
O O15 0.382991 0.000000 0.000000
O O16 0.262993 0.500000 0.000000
O O17 0.168599 0.700310 0.973923
#
# Coordination Sequence:
#
# PCOD8220466 Si02
#       7
#     8   8   8   8   8   8   8
#     4   9  19  35  55  78 113 149 187 235 281 338
#     4  10  23  39  56  86 117 149 198 242 281 347
#     4  11  21  35  60  82 111 153 192 236 288 341
#     4   9  18  31  55  83 113 135 191 240 279 330
#     4  11  20  34  60  83 112 158 188 237 299 342
#     4  10  22  35  53  89 121 142 187 245 291 343
#     4  10  20  36  55  87 116 146 187 241 292 344
#
# _framework density 18.880552999999999
#
# number of rings (size 3 to 8) (size 9 to 14) (size 15 to 20)
#    0.000    2.000    2.857    1.286    6.000    0.857 
#    0.000    0.714    0.000    4.714    0.000    0.000 
#    0.000    0.000    0.000    0.000    0.000    0.000 
#
# Total GULP energy -694082.204202 kJ/mol
# GULP energy per Si atom -12394.325075 kJ/mol
# Density = 1.883758 g / cm^3
# Si number density = 18.880553 Si / 1000 Ang^3
#
#
#
# Elastic Constant Matrix: (Units=GPa)
#
#
# Indices 1 2 3 4 5 6 
#
# 1 96.8480 28.1313 24.9566 0.0000 0.0000 0.0000
# 2 28.1313 66.2857 26.5257 0.0000 0.0000 0.0000
# 3 24.9566 26.5257 99.6338 0.0000 0.0000 0.0000
# 4 0.0000 0.0000 0.0000 35.3777 0.0000 0.0000
# 5 0.0000 0.0000 0.0000 0.0000 19.8480 0.0000
# 6 0.0000 0.0000 0.0000 0.0000 0.0000 15.6327
#
#
#
# Elastic Compliance Matrix: (Units=1/GPa)
#
#
# Indices 1 2 3 4 5 6 
#
# 1 0.012077 -0.004382 -0.001859 0.000000 0.000000 0.000000
# 2 -0.004382 0.018475 -0.003821 0.000000 0.000000 0.000000
# 3 -0.001859 -0.003821 0.011520 0.000000 0.000000 0.000000
# 4 0.000000 0.000000 0.000000 0.028266 0.000000 0.000000
# 5 0.000000 0.000000 0.000000 0.000000 0.050383 0.000000
# 6 0.000000 0.000000 0.000000 0.000000 0.000000 0.063968
#
#
# Mechanical properties :
#
#
# Convention : Reuss Voigt Hill
#
# Bulk Modulus (GPa) = 45.56036 46.88829 46.22432
# Shear Modulus (GPa) = 23.57065 26.38196 24.97630
#
# Velocity S-wave (km/s) = 3.53712 3.74211 3.64106
# Velocity P-wave (km/s) = 6.39256 6.59995 6.49708
#
# Compressibility (1/GPa) = 0.02194891
#
# Stress axis : x y z
#
# Youngs Moduli (GPa) = 82.80109 54.12757 86.80874
#
# Poissons Ratio (x) = 0.23717 0.16134
# Poissons Ratio (y) = 0.36281 0.33170
# Poissons Ratio (z) = 0.15389 0.20682
#
# Static dielectric constant tensor:
#      x y z
#    x 3.311490 0.000000 0.000000 
#    y 0.000000 3.440170 0.000000 
#    z 0.000000 0.000000 3.663590 
# 
# 
# High freq. dielectric constant tensor:
#      x y z
#    x 1.702210 0.000000 0.000000 
#    y 0.000000 1.732630 0.000000 
#    z 0.000000 0.000000 1.738780 
# 
# From -- ./inp_files/29315.got.cif
#   From: 2010.03.12/outbox.cif.g09.slc.cpg/sg53_15_cif.got.tgz:29315.got - 2010.04.16 14:36:59.
