data_PCOD8221345
_publ_section_title
;
Structure prediction by ZEFSAII (Michael W. Deem and Ramdas Pophale) SiO2 
 PCOD8221345
Probable space group: P M N A
;
_chemical_formula_sum "Si O2"
_cell_formula_units_Z 56
_cell_length_a 14.299104
_cell_length_b 11.770070
_cell_length_c 15.064342
_cell_angle_alpha 90.000000
_cell_angle_beta 90.000000
_cell_angle_gamma 90.000000
_cell_volume 2535.350677
_symmetry_space_group_name_H-M "P M N A"
_symmetry_group_IT_number 53
_symmetry_cell_setting 'orthorhombic'
loop_
_space_group_symop_operation_xyz
x,y,z
1/2-x,-y,1/2+z
x,-y,-z
1/2-x,y,1/2-z
-x,-y,-z
1/2+x,y,1/2-z
-x,y,z
1/2+x,-y,1/2+z
loop_
_atom_site_type_symbol
_atom_site_label
_atom_site_fract_x
_atom_site_fract_y
_atom_site_fract_z
Si Si1 0.735620 0.112769 0.048490
Si Si2 0.195725 0.548935 0.401396
Si Si3 0.605642 0.000531 0.188474
Si Si4 0.099413 0.455600 0.901042
Si Si5 0.606401 0.831399 0.668470
Si Si6 0.603723 0.389025 0.235181
Si Si7 0.893208 0.778577 0.405821
O O1 0.825703 0.181610 0.084051
O O2 0.670271 0.077051 0.128318
O O3 0.676608 0.196042 0.986281
O O4 0.772016 0.000000 0.000000
O O5 0.179624 0.500000 0.500000
O O6 0.299863 0.605480 0.389476
O O7 0.178187 0.447134 0.331194
O O8 0.123995 0.649138 0.375768
O O9 0.500000 0.026701 0.158446
O O10 0.626442 0.865768 0.175951
O O11 0.620649 0.041402 0.290070
O O12 0.103064 0.559888 0.833579
O O13 0.000000 0.386787 0.883159
O O14 0.094880 0.500000 0.000000
O O15 0.500000 0.812969 0.635475
O O16 0.631038 0.742398 0.747529
O O17 0.500000 0.398643 0.192001
O O18 0.000000 0.790918 0.438315
#
# Coordination Sequence:
#
# PCOD8221345 Si02
#       7
#     8   8   8   8   8   8   8
#     4  10  21  37  60  92 123 162 205 259 322 383
#     4  11  24  38  62  95 131 171 213 265 322 380
#     4   9  19  38  62  87 117 156 204 256 314 381
#     4   9  20  39  61  86 122 167 213 257 309 383
#     4  10  22  38  65  96 123 163 211 265 320 379
#     4  10  22  40  62  91 128 166 212 266 320 378
#     4  10  22  40  62  90 127 164 207 260 326 388
#
# _framework density 22.087675000000001
#
# number of rings (size 3 to 8) (size 9 to 14) (size 15 to 20)
#    0.000    2.143    0.000    1.714    6.000    4.286 
#    0.000    5.714    0.000    4.286    0.000    0.000 
#    0.000    0.000    0.000    0.000    0.000    0.000 
#
# Total GULP energy -693855.014543 kJ/mol
# GULP energy per Si atom -12390.268117 kJ/mol
# Density = 2.203740 g / cm^3
# Si number density = 22.087675 Si / 1000 Ang^3
#
#
#
# Elastic Constant Matrix: (Units=GPa)
#
#
# Indices 1 2 3 4 5 6 
#
# 1 139.6473 44.8769 55.3616 0.0000 0.0000 0.0000
# 2 44.8769 87.1315 28.8710 0.0000 0.0000 0.0000
# 3 55.3616 28.8710 85.0465 0.0000 0.0000 0.0000
# 4 0.0000 0.0000 0.0000 22.6278 0.0000 0.0000
# 5 0.0000 0.0000 0.0000 0.0000 55.9781 0.0000
# 6 0.0000 0.0000 0.0000 0.0000 0.0000 10.2970
#
#
#
# Elastic Compliance Matrix: (Units=1/GPa)
#
#
# Indices 1 2 3 4 5 6 
#
# 1 0.010547 -0.003558 -0.005658 0.000000 0.000000 0.000000
# 2 -0.003558 0.014131 -0.002481 0.000000 0.000000 0.000000
# 3 -0.005658 -0.002481 0.016284 0.000000 0.000000 0.000000
# 4 0.000000 0.000000 0.000000 0.044193 0.000000 0.000000
# 5 0.000000 0.000000 0.000000 0.000000 0.017864 0.000000
# 6 0.000000 0.000000 0.000000 0.000000 0.000000 0.097115
#
#
# Mechanical properties :
#
#
# Convention : Reuss Voigt Hill
#
# Bulk Modulus (GPa) = 56.92053 63.33825 60.12939
# Shear Modulus (GPa) = 21.79737 29.96165 25.87951
#
# Velocity S-wave (km/s) = 3.14484 3.68705 3.42668
# Velocity P-wave (km/s) = 6.24603 6.84572 6.55274
#
# Compressibility (1/GPa) = 0.01756835
#
# Stress axis : x y z
#
# Youngs Moduli (GPa) = 94.81156 70.76427 61.41055
#
# Poissons Ratio (x) = 0.25175 0.34747
# Poissons Ratio (y) = 0.33729 0.15239
# Poissons Ratio (z) = 0.53645 0.17560
#
# Static dielectric constant tensor:
#      x y z
#    x 4.465140 0.000000 0.000000 
#    y 0.000000 3.575980 0.000000 
#    z 0.000000 0.000000 3.805830 
# 
# 
# High freq. dielectric constant tensor:
#      x y z
#    x 1.892130 0.000000 0.000000 
#    y 0.000000 1.844600 0.000000 
#    z 0.000000 0.000000 1.851730 
# 
# From -- ./inp_files/22846.got.cif
#   From: 2010.03.12/outbox.cif.g09.slc.cpg/sg53_12_cif.got.tgz:22846.got - 2010.04.16 14:36:59.
