data_PCOD8221788
_publ_section_title
;
Structure prediction by ZEFSAII (Michael W. Deem and Ramdas Pophale) SiO2 
 PCOD8221788
Probable space group: P M N A
;
_chemical_formula_sum "Si O2"
_cell_formula_units_Z 40
_cell_length_a 13.920323
_cell_length_b 15.173321
_cell_length_c 8.584064
_cell_angle_alpha 90.000000
_cell_angle_beta 90.000000
_cell_angle_gamma 90.000000
_cell_volume 1813.104789
_symmetry_space_group_name_H-M "P M N A"
_symmetry_group_IT_number 53
_symmetry_cell_setting 'orthorhombic'
loop_
_space_group_symop_operation_xyz
x,y,z
1/2-x,-y,1/2+z
x,-y,-z
1/2-x,y,1/2-z
-x,-y,-z
1/2+x,y,1/2-z
-x,y,z
1/2+x,-y,1/2+z
loop_
_atom_site_type_symbol
_atom_site_label
_atom_site_fract_x
_atom_site_fract_y
_atom_site_fract_z
Si Si1 0.389092 0.260575 0.404527
Si Si2 0.223048 0.410826 0.930160
Si Si3 0.609926 0.855817 0.133527
Si Si4 0.893647 0.679525 0.555893
Si Si5 0.689792 0.903214 0.461552
O O1 0.500000 0.248552 0.446143
O O2 0.346051 0.328568 0.531292
O O3 0.371847 0.290662 0.229846
O O4 0.335278 0.166173 0.404053
O O5 0.250000 0.417131 0.750000
O O6 0.175309 0.500000 0.000000
O O7 0.322994 0.400043 0.020968
O O8 0.500000 0.889409 0.099031
O O9 0.632988 0.860508 0.316050
O O10 0.694432 0.913888 0.054975
O O11 0.622206 0.757098 0.069773
O O12 0.000000 0.641248 0.541720
O O13 0.648401 0.000000 0.500000
#
# Coordination Sequence:
#
# PCOD8221788 Si02
#       5
#     8   8   8   8   8
#     4  11  24  43  68  97 134 176 222 278 334 398
#     4  12  25  43  70 100 134 174 217 273 334 401
#     4  10  22  41  64  93 130 175 227 275 333 393
#     4  10  22  42  69  97 131 176 222 273 336 402
#     4  11  24  41  65  95 133 181 227 281 334 395
#
# _framework density 22.061603999999999
#
# number of rings (size 3 to 8) (size 9 to 14) (size 15 to 20)
#    0.000    1.200    2.000    3.600    0.000    8.400 
#    0.000    2.000    0.000    0.000    0.000    0.000 
#    0.000    0.000    0.000    0.000    0.000    0.000 
#
# Total GULP energy -495806.780287 kJ/mol
# GULP energy per Si atom -12395.169507 kJ/mol
# Density = 2.201139 g / cm^3
# Si number density = 22.061604 Si / 1000 Ang^3
#
#
#
# Elastic Constant Matrix: (Units=GPa)
#
#
# Indices 1 2 3 4 5 6 
#
# 1 133.4886 37.9600 48.4608 0.0000 0.0000 0.0000
# 2 37.9600 117.4658 25.2462 0.0000 0.0000 0.0000
# 3 48.4608 25.2462 78.5301 0.0000 0.0000 0.0000
# 4 0.0000 0.0000 0.0000 27.0305 0.0000 0.0000
# 5 0.0000 0.0000 0.0000 0.0000 31.9195 0.0000
# 6 0.0000 0.0000 0.0000 0.0000 0.0000 -4.2353
#
#
#
# Elastic Compliance Matrix: (Units=1/GPa)
#
#
# Indices 1 2 3 4 5 6 
#
# 1 0.010101 -0.002067 -0.005569 0.000000 0.000000 0.000000
# 2 -0.002067 0.009568 -0.001800 0.000000 0.000000 0.000000
# 3 -0.005569 -0.001800 0.016749 0.000000 0.000000 0.000000
# 4 0.000000 0.000000 0.000000 0.036995 0.000000 0.000000
# 5 0.000000 0.000000 0.000000 0.000000 0.031329 0.000000
# 6 0.000000 0.000000 0.000000 0.000000 0.000000 -0.236109
#
#
# Mechanical properties :
#
#
# Convention : Reuss Voigt Hill
#
# Bulk Modulus (GPa) = 56.99410 61.42427 59.20919
# Shear Modulus (GPa) = -46.88394 25.46408 -10.70993
#
# Velocity S-wave (km/s) = -4.61492 3.40108 -2.20570
# Velocity P-wave (km/s) = 1.58320 6.58223 4.51770
#
# Compressibility (1/GPa) = 0.01754568
#
# Stress axis : x y z
#
# Youngs Moduli (GPa) = 99.00280 104.51387 59.70486
#
# Poissons Ratio (x) = 0.21606 0.33247
# Poissons Ratio (y) = 0.20467 0.10748
# Poissons Ratio (z) = 0.55130 0.18815
#
# Static dielectric constant tensor:
#      x y z
#    x 4.294790 0.000000 0.000000 
#    y 0.000000 3.761750 0.000000 
#    z 0.000000 0.000000 37.830470 
# 
# 
# High freq. dielectric constant tensor:
#      x y z
#    x 1.880160 0.000000 0.000000 
#    y 0.000000 1.853530 0.000000 
#    z 0.000000 0.000000 1.875400 
# 
# From -- ./inp_files/8371.got.cif
#   From: 2010.03.12/outbox.cif.g09.slc.cpg/sg53_5_cif.got.tgz:8371.got - 2010.04.16 14:36:59.
