data_PCOD8221064
_publ_section_title
;
Structure prediction by ZEFSAII (Michael W. Deem and Ramdas Pophale) SiO2 
 PCOD8221064
Probable space group: P M N A
;
_chemical_formula_sum "Si O2"
_cell_formula_units_Z 28
_cell_length_a 19.702653
_cell_length_b 12.670160
_cell_length_c 5.219586
_cell_angle_alpha 90.000000
_cell_angle_beta 90.000000
_cell_angle_gamma 90.000000
_cell_volume 1302.995349
_symmetry_space_group_name_H-M "P M N A"
_symmetry_group_IT_number 53
_symmetry_cell_setting 'orthorhombic'
loop_
_space_group_symop_operation_xyz
x,y,z
1/2-x,-y,1/2+z
x,-y,-z
1/2-x,y,1/2-z
-x,-y,-z
1/2+x,y,1/2-z
-x,y,z
1/2+x,-y,1/2+z
loop_
_atom_site_type_symbol
_atom_site_label
_atom_site_fract_x
_atom_site_fract_y
_atom_site_fract_z
Si Si1 0.925100 0.382797 0.250258
Si Si2 0.395435 0.747692 0.242259
Si Si3 0.681153 0.500000 0.500000
Si Si4 0.750000 0.315738 0.750000
Si Si5 0.000000 0.929314 0.251130
O O1 0.926009 0.321910 0.516539
O O2 0.000000 0.431587 0.214270
O O3 0.908067 0.304004 0.017359
O O4 0.869970 0.478657 0.242031
O O5 0.314215 0.758707 0.185569
O O6 0.431252 0.860765 0.244012
O O7 0.728297 0.397066 0.524989
O O8 0.000000 0.000000 0.500000
O O9 0.000000 0.000000 0.000000
#
# Coordination Sequence:
#
# PCOD8221064 Si02
#       5
#     8   8   4   4   4
#     4  11  20  37  60  92 133 167 218 250 299 352
#     4  11  23  41  65  90 126 165 201 265 320 370
#     4  10  21  34  60  93 132 184 216 246 278 369
#     4  10  22  40  60  92 134 172 208 240 306 364
#     4  12  24  44  70  95 114 151 212 268 330 390
#
# _framework density 21.488948000000001
#
# number of rings (size 3 to 8) (size 9 to 14) (size 15 to 20)
#    0.000    1.143    2.857    3.857    0.000    6.857 
#    0.000    8.571    0.000    0.000    0.000    0.000 
#    0.000    0.000    0.000    0.000    0.000    0.000 
#
# Total GULP energy -346930.262143 kJ/mol
# GULP energy per Si atom -12390.366505 kJ/mol
# Density = 2.144004 g / cm^3
# Si number density = 21.488948 Si / 1000 Ang^3
#
#
#
# Elastic Constant Matrix: (Units=GPa)
#
#
# Indices 1 2 3 4 5 6 
#
# 1 214.7404 63.2826 22.2986 0.0000 0.0000 0.0000
# 2 63.2826 109.7018 42.3265 0.0000 0.0000 0.0000
# 3 22.2986 42.3265 101.3050 0.0000 0.0000 0.0000
# 4 0.0000 0.0000 0.0000 37.3982 0.0000 0.0000
# 5 0.0000 0.0000 0.0000 0.0000 21.7879 0.0000
# 6 0.0000 0.0000 0.0000 0.0000 0.0000 -494.3282
#
#
#
# Elastic Compliance Matrix: (Units=1/GPa)
#
#
# Indices 1 2 3 4 5 6 
#
# 1 0.005612 -0.003291 0.000140 0.000000 0.000000 0.000000
# 2 -0.003291 0.012798 -0.004623 0.000000 0.000000 0.000000
# 3 0.000140 -0.004623 0.011772 0.000000 0.000000 0.000000
# 4 0.000000 0.000000 0.000000 0.026739 0.000000 0.000000
# 5 0.000000 0.000000 0.000000 0.000000 0.045897 0.000000
# 6 0.000000 0.000000 0.000000 0.000000 0.000000 -0.002023
#
#
# Mechanical properties :
#
#
# Convention : Reuss Voigt Hill
#
# Bulk Modulus (GPa) = 68.33627 75.72916 72.03271
# Shear Modulus (GPa) = 41.24685 -67.17245 -12.96280
#
# Velocity S-wave (km/s) = 4.38590 -5.59705 -2.45874
# Velocity P-wave (km/s) = 7.58405 2.54003 5.05302
#
# Compressibility (1/GPa) = 0.01463352
#
# Stress axis : x y z
#
# Youngs Moduli (GPa) = 178.18239 78.13797 84.94895
#
# Poissons Ratio (x) = 0.25719 -0.01188
# Poissons Ratio (y) = 0.58648 0.39269
# Poissons Ratio (z) = -0.02492 0.36120
#
# Static dielectric constant tensor:
#      x y z
#    x 4.689200 0.000000 0.000000 
#    y 0.000000 3.718250 0.000000 
#    z 0.000000 0.000000 3.927620 
# 
# 
# High freq. dielectric constant tensor:
#      x y z
#    x 1.873090 0.000000 0.000000 
#    y 0.000000 1.799410 0.000000 
#    z 0.000000 0.000000 1.856340 
# 
# From -- ./inp_files/2587.got.cif
#   From: 2010.03.12/outbox.cif.g09.slc.cpg/sg53_2_cif.got.tgz:2587.got - 2010.04.16 14:36:59.
