data_PCOD8221292
_publ_section_title
;
Structure prediction by ZEFSAII (Michael W. Deem and Ramdas Pophale) SiO2 
 PCOD8221292
Probable space group: P M N A
;
_chemical_formula_sum "Si O2"
_cell_formula_units_Z 56
_cell_length_a 8.430594
_cell_length_b 21.369695
_cell_length_c 14.960005
_cell_angle_alpha 90.000000
_cell_angle_beta 90.000000
_cell_angle_gamma 90.000000
_cell_volume 2695.182869
_symmetry_space_group_name_H-M "P M N A"
_symmetry_group_IT_number 53
_symmetry_cell_setting 'orthorhombic'
loop_
_space_group_symop_operation_xyz
x,y,z
1/2-x,-y,1/2+z
x,-y,-z
1/2-x,y,1/2-z
-x,-y,-z
1/2+x,y,1/2-z
-x,y,z
1/2+x,-y,1/2+z
loop_
_atom_site_type_symbol
_atom_site_label
_atom_site_fract_x
_atom_site_fract_y
_atom_site_fract_z
Si Si1 0.315314 0.087979 0.512273
Si Si2 0.815901 0.693448 0.158607
Si Si3 0.187537 0.700115 0.658066
Si Si4 0.187353 0.566829 0.391540
Si Si5 0.687237 0.010904 0.147664
Si Si6 0.312643 0.430706 0.096589
Si Si7 0.184517 0.777762 0.491573
O O1 0.500000 0.072447 0.514283
O O2 0.236165 0.052525 0.596341
O O3 0.286162 0.160900 0.528307
O O4 0.248304 0.067973 0.414804
O O5 0.750000 0.722824 0.250000
O O6 0.786056 0.618755 0.161683
O O7 0.712333 0.725037 0.082025
O O8 0.000000 0.708863 0.146238
O O9 0.250000 0.728546 0.750000
O O10 0.260873 0.630000 0.645875
O O11 0.247643 0.747914 0.583364
O O12 0.000000 0.696204 0.655111
O O13 0.238967 0.573016 0.494143
O O14 0.241254 0.496961 0.359409
O O15 0.000000 0.578055 0.377816
O O16 0.750000 0.013938 0.250000
O O17 0.500000 0.015052 0.153564
O O18 0.500000 0.428491 0.100616
O O19 0.000000 0.795670 0.495637
#
# Coordination Sequence:
#
# PCOD8221292 Si02
#       7
#     8   8   8   8   8   8   8
#     4  11  23  41  65  97 132 167 206 250 304 360
#     4  12  25  40  59  85 116 153 200 252 309 370
#     4  10  21  37  58  84 115 153 198 246 301 360
#     4   9  16  33  59  82 110 147 193 243 305 370
#     4  11  22  41  68 100 134 170 210 251 297 347
#     4   8  15  31  57  83 109 149 191 240 304 367
#     4  11  23  43  65  86 120 163 207 252 300 356
#
# _framework density 20.777809000000001
#
# number of rings (size 3 to 8) (size 9 to 14) (size 15 to 20)
#    0.000    1.714    1.429    6.000    0.000    2.857 
#    0.000    7.857    0.000    0.000    0.000    0.000 
#    0.000    0.000    0.000    0.000    0.000    0.000 
#
# Total GULP energy -694229.630248 kJ/mol
# GULP energy per Si atom -12396.957683 kJ/mol
# Density = 2.073052 g / cm^3
# Si number density = 20.777809 Si / 1000 Ang^3
#
#
#
# Elastic Constant Matrix: (Units=GPa)
#
#
# Indices 1 2 3 4 5 6 
#
# 1 61.7284 15.1751 19.5903 0.0000 0.0000 0.0000
# 2 15.1751 95.6439 17.3844 0.0000 0.0000 0.0000
# 3 19.5903 17.3844 115.5624 0.0000 0.0000 0.0000
# 4 0.0000 0.0000 0.0000 -0.5777 0.0000 0.0000
# 5 0.0000 0.0000 0.0000 0.0000 30.7211 0.0000
# 6 0.0000 0.0000 0.0000 0.0000 0.0000 -7.8462
#
#
#
# Elastic Compliance Matrix: (Units=1/GPa)
#
#
# Indices 1 2 3 4 5 6 
#
# 1 0.017606 -0.002314 -0.002636 0.000000 0.000000 0.000000
# 2 -0.002314 0.011054 -0.001271 0.000000 0.000000 0.000000
# 3 -0.002636 -0.001271 0.009291 0.000000 0.000000 0.000000
# 4 0.000000 0.000000 0.000000 -1.730977 0.000000 0.000000
# 5 0.000000 0.000000 0.000000 0.000000 0.032551 0.000000
# 6 0.000000 0.000000 0.000000 0.000000 0.000000 -0.127450
#
#
# Mechanical properties :
#
#
# Convention : Reuss Voigt Hill
#
# Bulk Modulus (GPa) = 39.20282 41.91495 40.55888
# Shear Modulus (GPa) = -2.82969 19.17843 8.17437
#
# Velocity S-wave (km/s) = -1.16826 3.04143 1.98563
# Velocity P-wave (km/s) = 4.13386 5.70530 4.98193
#
# Compressibility (1/GPa) = 0.02550837
#
# Stress axis : x y z
#
# Youngs Moduli (GPa) = 56.80014 90.46868 107.62653
#
# Poissons Ratio (x) = 0.20936 0.28375
# Poissons Ratio (y) = 0.13144 0.13674
# Poissons Ratio (z) = 0.14975 0.11494
#
# Static dielectric constant tensor:
#      x y z
#    x 3.491490 0.000000 0.000000 
#    y 0.000000 3.916880 0.000000 
#    z 0.000000 0.000000 3.962510 
# 
# 
# High freq. dielectric constant tensor:
#      x y z
#    x 1.799130 0.000000 0.000000 
#    y 0.000000 1.815640 0.000000 
#    z 0.000000 0.000000 1.815580 
# 
# From -- ./inp_files/20514.got.cif
#   From: 2010.03.12/outbox.cif.g09.slc.cpg/sg53_11_cif.got.tgz:20514.got - 2010.04.16 14:36:59.
