data_PCOD8221191
_publ_section_title
;
Structure prediction by ZEFSAII (Michael W. Deem and Ramdas Pophale) SiO2 
 PCOD8221191
Probable space group: P M N A
;
_chemical_formula_sum "Si O2"
_cell_formula_units_Z 64
_cell_length_a 17.640193
_cell_length_b 9.448276
_cell_length_c 20.217646
_cell_angle_alpha 90.000000
_cell_angle_beta 90.000000
_cell_angle_gamma 90.000000
_cell_volume 3369.663174
_symmetry_space_group_name_H-M "P M N A"
_symmetry_group_IT_number 53
_symmetry_cell_setting 'orthorhombic'
loop_
_space_group_symop_operation_xyz
x,y,z
1/2-x,-y,1/2+z
x,-y,-z
1/2-x,y,1/2-z
-x,-y,-z
1/2+x,y,1/2-z
-x,y,z
1/2+x,-y,1/2+z
loop_
_atom_site_type_symbol
_atom_site_label
_atom_site_fract_x
_atom_site_fract_y
_atom_site_fract_z
Si Si1 0.659559 0.339279 0.987214
Si Si2 0.825710 0.078488 0.065067
Si Si3 0.588512 0.834579 0.375013
Si Si4 0.293447 0.918599 0.816958
Si Si5 0.912010 0.601240 0.358859
Si Si6 0.410101 0.277955 0.119404
Si Si7 0.332563 0.211916 0.761327
Si Si8 0.838240 0.338795 0.986110
O O1 0.625226 0.301699 0.915967
O O2 0.748562 0.318978 0.981479
O O3 0.635492 0.500000 0.000000
O O4 0.621806 0.245645 0.045442
O O5 0.761612 0.095692 0.120277
O O6 0.896200 0.984499 0.089891
O O7 0.861291 0.232124 0.045690
O O8 0.790414 0.000000 0.000000
O O9 0.500000 0.810964 0.364518
O O10 0.631239 0.842530 0.305962
O O11 0.621881 0.704959 0.417889
O O12 0.250000 0.870675 0.750000
O O13 0.367331 0.821496 0.828156
O O14 0.322836 0.078742 0.810337
O O15 0.887955 0.437598 0.360780
O O16 0.885891 0.665987 0.289604
O O17 0.000000 0.617617 0.367281
O O18 0.500000 0.249374 0.122561
O O19 0.250000 0.280552 0.750000
O O20 0.862384 0.500000 0.000000
#
# Coordination Sequence:
#
# PCOD8221191 Si02
#       8
#     8   8   8   8   8   8   8   8
#     4   9  17  33  58  84 116 154 194 234 291 356
#     4  10  21  40  65  87 117 158 197 244 292 360
#     4  11  23  41  62  87 120 161 200 245 307 362
#     4  11  22  40  59  86 118 156 201 246 292 352
#     4  10  21  36  56  86 120 155 194 242 300 355
#     4  10  21  37  58  86 119 155 195 246 302 357
#     4  11  22  39  62  84 116 158 205 245 292 358
#     4  10  21  38  65  92 118 152 201 250 299 348
#
# _framework density 18.992995000000001
#
# number of rings (size 3 to 8) (size 9 to 14) (size 15 to 20)
#    0.000    1.750    3.750    1.500    1.750    5.500 
#    2.250    0.000    0.000    1.875    0.000    0.000 
#    0.000    0.000    0.000    0.000    0.000    0.000 
#
# Total GULP energy -793496.823460 kJ/mol
# GULP energy per Si atom -12398.387867 kJ/mol
# Density = 1.894977 g / cm^3
# Si number density = 18.992995 Si / 1000 Ang^3
#
#
#
# Elastic Constant Matrix: (Units=GPa)
#
#
# Indices 1 2 3 4 5 6 
#
# 1 71.3463 18.5074 21.7385 0.0000 0.0000 0.0000
# 2 18.5074 81.1855 24.8904 0.0000 0.0000 0.0000
# 3 21.7385 24.8904 87.0579 0.0000 0.0000 0.0000
# 4 0.0000 0.0000 0.0000 30.9496 0.0000 0.0000
# 5 0.0000 0.0000 0.0000 0.0000 28.2906 0.0000
# 6 0.0000 0.0000 0.0000 0.0000 0.0000 26.0634
#
#
#
# Elastic Compliance Matrix: (Units=1/GPa)
#
#
# Indices 1 2 3 4 5 6 
#
# 1 0.015655 -0.002598 -0.003166 0.000000 0.000000 0.000000
# 2 -0.002598 0.013932 -0.003335 0.000000 0.000000 0.000000
# 3 -0.003166 -0.003335 0.013231 0.000000 0.000000 0.000000
# 4 0.000000 0.000000 0.000000 0.032311 0.000000 0.000000
# 5 0.000000 0.000000 0.000000 0.000000 0.035347 0.000000
# 6 0.000000 0.000000 0.000000 0.000000 0.000000 0.038368
#
#
# Mechanical properties :
#
#
# Convention : Reuss Voigt Hill
#
# Bulk Modulus (GPa) = 40.61763 41.09583 40.85673
# Shear Modulus (GPa) = 28.53106 28.69095 28.61101
#
# Velocity S-wave (km/s) = 3.88001 3.89087 3.88544
# Velocity P-wave (km/s) = 6.44241 6.47066 6.45655
#
# Compressibility (1/GPa) = 0.02461985
#
# Stress axis : x y z
#
# Youngs Moduli (GPa) = 63.87819 71.77699 75.58242
#
# Poissons Ratio (x) = 0.18648 0.23931
# Poissons Ratio (y) = 0.16596 0.25203
# Poissons Ratio (z) = 0.20225 0.23934
#
# Static dielectric constant tensor:
#      x y z
#    x 3.361830 0.000000 0.000000 
#    y 0.000000 3.523650 0.000000 
#    z 0.000000 0.000000 3.617960 
# 
# 
# High freq. dielectric constant tensor:
#      x y z
#    x 1.734820 0.000000 0.000000 
#    y 0.000000 1.728670 0.000000 
#    z 0.000000 0.000000 1.744990 
# 
# From -- ./inp_files/32825.got.cif
#   From: 2010.03.12/outbox.cif.g09.slc.cpg/sg53_17_cif.got.tgz:32825.got - 2010.04.16 14:36:59.
