data_PCOD8221263
_publ_section_title
;
Structure prediction by ZEFSAII (Michael W. Deem and Ramdas Pophale) SiO2 
 PCOD8221263
Probable space group: P M N A
;
_chemical_formula_sum "Si O2"
_cell_formula_units_Z 48
_cell_length_a 8.946842
_cell_length_b 30.380124
_cell_length_c 8.828890
_cell_angle_alpha 90.000000
_cell_angle_beta 90.000000
_cell_angle_gamma 90.000000
_cell_volume 2399.746771
_symmetry_space_group_name_H-M "P M N A"
_symmetry_group_IT_number 53
_symmetry_cell_setting 'orthorhombic'
loop_
_space_group_symop_operation_xyz
x,y,z
1/2-x,-y,1/2+z
x,-y,-z
1/2-x,y,1/2-z
-x,-y,-z
1/2+x,y,1/2-z
-x,y,z
1/2+x,-y,1/2+z
loop_
_atom_site_type_symbol
_atom_site_label
_atom_site_fract_x
_atom_site_fract_y
_atom_site_fract_z
Si Si1 0.827456 0.118806 0.910324
Si Si2 0.824370 0.716923 0.412371
Si Si3 0.830133 0.956212 0.596362
Si Si4 0.826472 0.206497 0.093724
Si Si5 0.323325 0.543789 0.086742
Si Si6 0.174173 0.629326 0.589875
O O1 0.750000 0.115975 0.750000
O O2 0.000000 0.106569 0.890558
O O3 0.754284 0.084169 0.021727
O O4 0.805315 0.167450 0.974773
O O5 0.750000 0.723139 0.250000
O O6 0.754775 0.750612 0.531056
O O7 0.788946 0.668462 0.474103
O O8 0.000000 0.725918 0.397046
O O9 0.750000 0.968694 0.750000
O O10 0.000000 0.941514 0.625807
O O11 0.821753 0.000000 0.500000
O O12 0.750000 0.192145 0.250000
O O13 0.000000 0.217128 0.122119
O O14 0.250000 0.545312 0.250000
O O15 0.500000 0.545694 0.109117
O O16 0.271859 0.500000 0.000000
O O17 0.265092 0.584751 0.987051
O O18 0.250000 0.638028 0.750000
O O19 0.000000 0.625677 0.622671
#
# Coordination Sequence:
#
# PCOD8221263 Si02
#       6
#     8   8   8   8   8   8
#     4  11  24  41  63  90 121 157 197 243 293 347
#     4  11  23  39  60  86 117 153 194 240 291 347
#     4  11  24  41  63  91 123 159 199 244 293 347
#     4  11  24  41  62  89 120 155 196 242 292 347
#     4  10  21  37  57  83 114 148 189 235 284 340
#     4  10  22  38  57  84 115 149 191 237 286 343
#
# _framework density 20.002112
#
# number of rings (size 3 to 8) (size 9 to 14) (size 15 to 20)
#    0.000    1.333    0.000    5.000    0.000   11.667 
#    0.000    0.000    0.000    0.000    0.000    0.000 
#    0.000    0.000    0.000    0.000    0.000    0.000 
#
# Total GULP energy -595515.049621 kJ/mol
# GULP energy per Si atom -12406.563534 kJ/mol
# Density = 1.995659 g / cm^3
# Si number density = 20.002112 Si / 1000 Ang^3
#
#
#
# Elastic Constant Matrix: (Units=GPa)
#
#
# Indices 1 2 3 4 5 6 
#
# 1 114.9708 50.2049 52.0821 0.0000 0.0000 0.0000
# 2 50.2049 88.2440 9.5807 0.0000 0.0000 0.0000
# 3 52.0821 9.5807 111.2404 0.0000 0.0000 0.0000
# 4 0.0000 0.0000 0.0000 36.0474 0.0000 0.0000
# 5 0.0000 0.0000 0.0000 0.0000 43.1821 0.0000
# 6 0.0000 0.0000 0.0000 0.0000 0.0000 31.7138
#
#
#
# Elastic Compliance Matrix: (Units=1/GPa)
#
#
# Indices 1 2 3 4 5 6 
#
# 1 0.014998 -0.007844 -0.006346 0.000000 0.000000 0.000000
# 2 -0.007844 0.015541 0.002334 0.000000 0.000000 0.000000
# 3 -0.006346 0.002334 0.011760 0.000000 0.000000 0.000000
# 4 0.000000 0.000000 0.000000 0.027741 0.000000 0.000000
# 5 0.000000 0.000000 0.000000 0.000000 0.023158 0.000000
# 6 0.000000 0.000000 0.000000 0.000000 0.000000 0.031532
#
#
# Mechanical properties :
#
#
# Convention : Reuss Voigt Hill
#
# Bulk Modulus (GPa) = 53.80206 59.79897 56.80051
# Shear Modulus (GPa) = 32.33344 35.69448 34.01396
#
# Velocity S-wave (km/s) = 4.02494 4.22896 4.12821
# Velocity P-wave (km/s) = 6.96827 7.33530 7.15414
#
# Compressibility (1/GPa) = 0.01858665
#
# Stress axis : x y z
#
# Youngs Moduli (GPa) = 66.67547 64.34409 85.03483
#
# Poissons Ratio (x) = 0.50470 0.53967
# Poissons Ratio (y) = 0.52299 -0.19846
# Poissons Ratio (z) = 0.42315 -0.15017
#
# Static dielectric constant tensor:
#      x y z
#    x 3.813070 0.000000 0.000000 
#    y 0.000000 3.924790 0.000000 
#    z 0.000000 0.000000 3.631010 
# 
# 
# High freq. dielectric constant tensor:
#      x y z
#    x 1.789440 0.000000 0.000000 
#    y 0.000000 1.797930 0.000000 
#    z 0.000000 0.000000 1.797090 
# 
# From -- ./inp_files/6641.got.cif
#   From: 2010.03.12/outbox.cif.g09.slc.cpg/sg53_4_cif.got.tgz:6641.got - 2010.04.16 14:36:59.
