data_PCOD8221688
_publ_section_title
;
Structure prediction by ZEFSAII (Michael W. Deem and Ramdas Pophale) SiO2 
 PCOD8221688
Probable space group: P M N A
;
_chemical_formula_sum "Si O2"
_cell_formula_units_Z 56
_cell_length_a 14.085254
_cell_length_b 23.186761
_cell_length_c 9.160895
_cell_angle_alpha 90.000000
_cell_angle_beta 90.000000
_cell_angle_gamma 90.000000
_cell_volume 2991.869689
_symmetry_space_group_name_H-M "P M N A"
_symmetry_group_IT_number 53
_symmetry_cell_setting 'orthorhombic'
loop_
_space_group_symop_operation_xyz
x,y,z
1/2-x,-y,1/2+z
x,-y,-z
1/2-x,y,1/2-z
-x,-y,-z
1/2+x,y,1/2-z
-x,y,z
1/2+x,-y,1/2+z
loop_
_atom_site_type_symbol
_atom_site_label
_atom_site_fract_x
_atom_site_fract_y
_atom_site_fract_z
Si Si1 0.892240 0.652009 0.574618
Si Si2 0.500000 0.916982 0.095494
Si Si3 0.500000 0.038227 0.230507
Si Si4 0.310560 0.950864 0.615606
Si Si5 0.390953 0.338130 0.414799
Si Si6 0.741617 0.559371 0.582050
Si Si7 0.259628 0.733062 0.083520
Si Si8 0.206063 0.132880 0.597746
O O1 0.878485 0.670511 0.742178
O O2 0.835492 0.594045 0.533922
O O3 0.854874 0.704900 0.479293
O O4 0.000000 0.639486 0.533756
O O5 0.406520 0.877842 0.111585
O O6 0.500000 0.967892 0.218965
O O7 0.500000 0.941963 0.934570
O O8 0.412315 0.065745 0.318497
O O9 0.250000 0.975749 0.750000
O O10 0.254653 0.898612 0.539773
O O11 0.326525 0.000000 0.500000
O O12 0.500000 0.334965 0.464609
O O13 0.349546 0.401005 0.455357
O O14 0.333312 0.287469 0.494800
O O15 0.731018 0.500000 0.500000
O O16 0.750000 0.543475 0.750000
O O17 0.250000 0.713278 0.250000
O O18 0.271093 0.800950 0.069226
O O19 0.250000 0.111258 0.750000
#
# Coordination Sequence:
#
# PCOD8221688 Si02
#       8
#     8   4   4   8   8   8   8   8
#     4   9  19  37  61  80 109 158 199 240 292 349
#     4  11  22  44  64  88 122 156 195 238 299 360
#     4  11  23  40  64  92 118 158 194 238 292 360
#     4  12  23  39  63  90 120 154 197 239 293 352
#     4   9  19  39  60  82 113 156 199 239 289 347
#     4   9  18  32  52  82 119 151 191 240 290 348
#     4  10  22  39  57  86 116 149 190 241 299 341
#     4  11  25  43  62  88 121 158 193 247 297 354
#
# _framework density 18.717393000000001
#
# number of rings (size 3 to 8) (size 9 to 14) (size 15 to 20)
#    0.000    1.857    1.429    3.643    1.000    5.143 
#    5.143    0.000    0.000    0.000    0.000    0.000 
#    0.000    0.000    0.000    0.000    0.000    0.000 
#
# Total GULP energy -694359.385734 kJ/mol
# GULP energy per Si atom -12399.274745 kJ/mol
# Density = 1.867479 g / cm^3
# Si number density = 18.717393 Si / 1000 Ang^3
#
#
#
# Elastic Constant Matrix: (Units=GPa)
#
#
# Indices 1 2 3 4 5 6 
#
# 1 165.7369 48.1538 45.9721 0.0000 0.0000 0.0000
# 2 48.1538 83.1378 35.2217 0.0000 0.0000 0.0000
# 3 45.9721 35.2217 77.8105 0.0000 0.0000 0.0000
# 4 0.0000 0.0000 0.0000 13.0321 0.0000 0.0000
# 5 0.0000 0.0000 0.0000 0.0000 27.6996 0.0000
# 6 0.0000 0.0000 0.0000 0.0000 0.0000 15.6870
#
#
#
# Elastic Compliance Matrix: (Units=1/GPa)
#
#
# Indices 1 2 3 4 5 6 
#
# 1 0.007846 -0.003193 -0.003190 0.000000 0.000000 0.000000
# 2 -0.003193 0.016182 -0.005438 0.000000 0.000000 0.000000
# 3 -0.003190 -0.005438 0.017198 0.000000 0.000000 0.000000
# 4 0.000000 0.000000 0.000000 0.076734 0.000000 0.000000
# 5 0.000000 0.000000 0.000000 0.000000 0.036102 0.000000
# 6 0.000000 0.000000 0.000000 0.000000 0.000000 0.063747
#
#
# Mechanical properties :
#
#
# Convention : Reuss Voigt Hill
#
# Bulk Modulus (GPa) = 56.87341 65.04227 60.95784
# Shear Modulus (GPa) = 20.21729 24.43957 22.32843
#
# Velocity S-wave (km/s) = 3.29010 3.61739 3.45762
# Velocity P-wave (km/s) = 6.69958 7.22997 6.96982
#
# Compressibility (1/GPa) = 0.01758291
#
# Stress axis : x y z
#
# Youngs Moduli (GPa) = 127.44816 61.79869 58.14494
#
# Poissons Ratio (x) = 0.19732 0.18551
# Poissons Ratio (y) = 0.40694 0.31621
# Poissons Ratio (z) = 0.40662 0.33608
#
# Static dielectric constant tensor:
#      x y z
#    x 3.967510 0.000000 0.000000 
#    y 0.000000 3.262600 0.000000 
#    z 0.000000 0.000000 3.347880 
# 
# 
# High freq. dielectric constant tensor:
#      x y z
#    x 1.739070 0.000000 0.000000 
#    y 0.000000 1.715190 0.000000 
#    z 0.000000 0.000000 1.735210 
# 
# From -- ./inp_files/8886.got.cif
#   From: 2010.03.12/outbox.cif.g09.slc.cpg/sg53_5_cif.got.tgz:8886.got - 2010.04.16 14:36:59.
