data_PCOD8221525
_publ_section_title
;
Structure prediction by ZEFSAII (Michael W. Deem and Ramdas Pophale) SiO2 
 PCOD8221525
Probable space group: P M N A
;
_chemical_formula_sum "Si O2"
_cell_formula_units_Z 48
_cell_length_a 8.662063
_cell_length_b 9.844342
_cell_length_c 27.946980
_cell_angle_alpha 90.000000
_cell_angle_beta 90.000000
_cell_angle_gamma 90.000000
_cell_volume 2383.103559
_symmetry_space_group_name_H-M "P M N A"
_symmetry_group_IT_number 53
_symmetry_cell_setting 'orthorhombic'
loop_
_space_group_symop_operation_xyz
x,y,z
1/2-x,-y,1/2+z
x,-y,-z
1/2-x,y,1/2-z
-x,-y,-z
1/2+x,y,1/2-z
-x,y,z
1/2+x,-y,1/2+z
loop_
_atom_site_type_symbol
_atom_site_label
_atom_site_fract_x
_atom_site_fract_y
_atom_site_fract_z
Si Si1 0.823142 0.713012 0.701351
Si Si2 0.317472 0.600157 0.542243
Si Si3 0.324131 0.019413 0.142431
Si Si4 0.316322 0.101294 0.041351
Si Si5 0.819038 0.519315 0.143497
Si Si6 0.682238 0.763972 0.197771
O O1 0.750000 0.767850 0.750000
O O2 0.809196 0.832723 0.664053
O O3 0.718334 0.589717 0.684077
O O4 0.000000 0.665737 0.707926
O O5 0.262931 0.500000 0.500000
O O6 0.500000 0.616709 0.543145
O O7 0.246886 0.747894 0.533021
O O8 0.258989 0.535202 0.592218
O O9 0.500000 0.973399 0.136098
O O10 0.248219 0.033304 0.089910
O O11 0.248077 0.905995 0.176922
O O12 0.500000 0.113231 0.043966
O O13 0.260325 0.000000 0.000000
O O14 0.728668 0.654535 0.157888
O O15 0.000000 0.550281 0.142407
O O16 0.750000 0.732301 0.250000
O O17 0.500000 0.767665 0.204164
#
# Coordination Sequence:
#
# PCOD8221525 Si02
#       6
#     8   8   8   8   8   8
#     4  11  21  37  61  87 117 153 194 244 297 353
#     4  10  23  42  62  88 123 158 197 245 297 355
#     4   9  20  38  59  87 121 153 192 243 294 348
#     4  10  21  39  64  93 122 153 195 244 297 359
#     4  11  23  40  60  86 119 157 200 244 292 351
#     4  11  23  40  61  87 121 159 200 246 297 352
#
# _framework density 20.141801000000001
#
# number of rings (size 3 to 8) (size 9 to 14) (size 15 to 20)
#    0.000    1.667    1.667    2.500    2.333    1.333 
#    0.000    4.167    0.000    0.000    0.000    0.000 
#    0.000    0.000    0.000    0.000    0.000    0.000 
#
# Total GULP energy -595195.514529 kJ/mol
# GULP energy per Si atom -12399.906553 kJ/mol
# Density = 2.009596 g / cm^3
# Si number density = 20.141801 Si / 1000 Ang^3
#
#
#
# Elastic Constant Matrix: (Units=GPa)
#
#
# Indices 1 2 3 4 5 6 
#
# 1 45.7556 28.5159 31.1803 0.0000 0.0000 0.0000
# 2 28.5159 119.7165 45.4152 0.0000 0.0000 0.0000
# 3 31.1803 45.4152 136.0945 0.0000 0.0000 0.0000
# 4 0.0000 0.0000 0.0000 34.6540 0.0000 0.0000
# 5 0.0000 0.0000 0.0000 0.0000 20.7434 0.0000
# 6 0.0000 0.0000 0.0000 0.0000 0.0000 21.1123
#
#
#
# Elastic Compliance Matrix: (Units=1/GPa)
#
#
# Indices 1 2 3 4 5 6 
#
# 1 0.028189 -0.004883 -0.004829 0.000000 0.000000 0.000000
# 2 -0.004883 0.010409 -0.002355 0.000000 0.000000 0.000000
# 3 -0.004829 -0.002355 0.009240 0.000000 0.000000 0.000000
# 4 0.000000 0.000000 0.000000 0.028857 0.000000 0.000000
# 5 0.000000 0.000000 0.000000 0.000000 0.048208 0.000000
# 6 0.000000 0.000000 0.000000 0.000000 0.000000 0.047366
#
#
# Mechanical properties :
#
#
# Convention : Reuss Voigt Hill
#
# Bulk Modulus (GPa) = 42.18467 56.86549 49.52508
# Shear Modulus (GPa) = 24.47335 28.39896 26.43616
#
# Velocity S-wave (km/s) = 3.48954 3.75901 3.62678
# Velocity P-wave (km/s) = 6.10124 6.86542 6.49458
#
# Compressibility (1/GPa) = 0.02370529
#
# Stress axis : x y z
#
# Youngs Moduli (GPa) = 35.47499 96.06643 108.22427
#
# Poissons Ratio (x) = 0.46905 0.52261
# Poissons Ratio (y) = 0.17321 0.25487
# Poissons Ratio (z) = 0.17131 0.22624
#
# Static dielectric constant tensor:
#      x y z
#    x 3.494460 0.000000 0.000000 
#    y 0.000000 3.725230 0.000000 
#    z 0.000000 0.000000 3.963010 
# 
# 
# High freq. dielectric constant tensor:
#      x y z
#    x 1.766700 0.000000 0.000000 
#    y 0.000000 1.796730 0.000000 
#    z 0.000000 0.000000 1.804010 
# 
# From -- ./inp_files/37717.got.cif
#   From: 2010.03.12/outbox.cif.g09.slc.cpg/sg53_19_cif.got.tgz:37717.got - 2010.04.16 14:36:59.
