data_PCOD8221262
_publ_section_title
;
Structure prediction by ZEFSAII (Michael W. Deem and Ramdas Pophale) SiO2 
 PCOD8221262
Probable space group: P M N A
;
_chemical_formula_sum "Si O2"
_cell_formula_units_Z 32
_cell_length_a 8.901496
_cell_length_b 20.508081
_cell_length_c 8.908336
_cell_angle_alpha 90.000000
_cell_angle_beta 90.000000
_cell_angle_gamma 90.000000
_cell_volume 1626.239907
_symmetry_space_group_name_H-M "P M N A"
_symmetry_group_IT_number 53
_symmetry_cell_setting 'orthorhombic'
loop_
_space_group_symop_operation_xyz
x,y,z
1/2-x,-y,1/2+z
x,-y,-z
1/2-x,y,1/2-z
-x,-y,-z
1/2+x,y,1/2-z
-x,y,z
1/2+x,-y,1/2+z
loop_
_atom_site_type_symbol
_atom_site_label
_atom_site_fract_x
_atom_site_fract_y
_atom_site_fract_z
Si Si1 0.822647 0.680113 0.911866
Si Si2 0.823496 0.809070 0.088987
Si Si3 0.322422 0.935836 0.587843
Si Si4 0.327955 0.565483 0.093729
O O1 0.750000 0.676240 0.750000
O O2 0.000000 0.672684 0.895344
O O3 0.776133 0.748078 0.987419
O O4 0.761358 0.622429 0.013055
O O5 0.750000 0.802031 0.250000
O O6 0.000000 0.812209 0.113708
O O7 0.764384 0.873903 0.006476
O O8 0.250000 0.934798 0.750000
O O9 0.500000 0.934164 0.608451
O O10 0.268786 0.000000 0.500000
O O11 0.250000 0.550413 0.250000
O O12 0.500000 0.587334 0.117760
O O13 0.317858 0.500000 0.000000
#
# Coordination Sequence:
#
# PCOD8221262 Si02
#       4
#     8   8   8   8
#     4  11  23  39  60  86 117 152 192 237 286 341
#     4  10  22  38  57  84 115 149 190 235 283 337
#     4  10  21  37  57  83 114 148 189 234 281 335
#     4  11  24  41  62  88 118 152 191 236 285 339
#
# _framework density 19.677294
#
# number of rings (size 3 to 8) (size 9 to 14) (size 15 to 20)
#    0.000    1.500    0.000    4.500    0.000    9.500 
#    0.000    0.000    0.000    0.000    0.000    0.000 
#    0.000    0.000    0.000    0.000    0.000    0.000 
#
# Total GULP energy -396983.104066 kJ/mol
# GULP energy per Si atom -12405.722002 kJ/mol
# Density = 1.963251 g / cm^3
# Si number density = 19.677294 Si / 1000 Ang^3
#
#
#
# Elastic Constant Matrix: (Units=GPa)
#
#
# Indices 1 2 3 4 5 6 
#
# 1 65.1585 46.0965 54.4285 0.0000 0.0000 0.0000
# 2 46.0965 121.0624 34.7807 0.0000 0.0000 0.0000
# 3 54.4285 34.7807 139.3183 0.0000 0.0000 0.0000
# 4 0.0000 0.0000 0.0000 -15.4451 0.0000 0.0000
# 5 0.0000 0.0000 0.0000 0.0000 44.4888 0.0000
# 6 0.0000 0.0000 0.0000 0.0000 0.0000 47.5363
#
#
#
# Elastic Compliance Matrix: (Units=1/GPa)
#
#
# Indices 1 2 3 4 5 6 
#
# 1 0.028993 -0.008387 -0.009233 0.000000 0.000000 0.000000
# 2 -0.008387 0.011325 0.000449 0.000000 0.000000 0.000000
# 3 -0.009233 0.000449 0.010673 0.000000 0.000000 0.000000
# 4 0.000000 0.000000 0.000000 -0.064745 0.000000 0.000000
# 5 0.000000 0.000000 0.000000 0.000000 0.022478 0.000000
# 6 0.000000 0.000000 0.000000 0.000000 0.000000 0.021037
#
#
# Mechanical properties :
#
#
# Convention : Reuss Voigt Hill
#
# Bulk Modulus (GPa) = 60.06321 66.23897 63.15109
# Shear Modulus (GPa) = 71.78669 27.99823 49.89246
#
# Velocity S-wave (km/s) = 6.04659 3.77619 5.04087
# Velocity P-wave (km/s) = 8.90722 7.26282 8.12672
#
# Compressibility (1/GPa) = 0.01664913
#
# Stress axis : x y z
#
# Youngs Moduli (GPa) = 34.49067 88.30355 93.69594
#
# Poissons Ratio (x) = 0.74060 0.86512
# Poissons Ratio (y) = 0.28927 -0.04211
# Poissons Ratio (z) = 0.31846 -0.03969
#
# Static dielectric constant tensor:
#      x y z
#    x 3.663170 0.000000 0.000000 
#    y 0.000000 3.982930 0.000000 
#    z 0.000000 0.000000 3.634250 
# 
# 
# High freq. dielectric constant tensor:
#      x y z
#    x 1.769270 0.000000 0.000000 
#    y 0.000000 1.788450 0.000000 
#    z 0.000000 0.000000 1.786070 
# 
# From -- ./inp_files/6022.got.cif
#   From: 2010.03.12/outbox.cif.g09.slc.cpg/sg53_4_cif.got.tgz:6022.got - 2010.04.16 14:36:59.
