data_PCOD8221276
_publ_section_title
;
Structure prediction by ZEFSAII (Michael W. Deem and Ramdas Pophale) SiO2 
 PCOD8221276
Probable space group: P M N A
;
_chemical_formula_sum "Si O2"
_cell_formula_units_Z 48
_cell_length_a 9.058822
_cell_length_b 14.701093
_cell_length_c 19.109155
_cell_angle_alpha 90.000000
_cell_angle_beta 90.000000
_cell_angle_gamma 90.000000
_cell_volume 2544.853781
_symmetry_space_group_name_H-M "P M N A"
_symmetry_group_IT_number 53
_symmetry_cell_setting 'orthorhombic'
loop_
_space_group_symop_operation_xyz
x,y,z
1/2-x,-y,1/2+z
x,-y,-z
1/2-x,y,1/2-z
-x,-y,-z
1/2+x,y,1/2-z
-x,y,z
1/2+x,-y,1/2+z
loop_
_atom_site_type_symbol
_atom_site_label
_atom_site_fract_x
_atom_site_fract_y
_atom_site_fract_z
Si Si1 0.329653 0.728087 0.421353
Si Si2 0.326217 0.637369 0.678603
Si Si3 0.828713 0.429850 0.819788
Si Si4 0.330030 0.756827 0.935420
Si Si5 0.671277 0.899013 0.323424
Si Si6 0.170057 0.031732 0.424299
O O1 0.500000 0.727580 0.446310
O O2 0.285310 0.632985 0.385192
O O3 0.221847 0.740777 0.485933
O O4 0.299794 0.808349 0.367120
O O5 0.250000 0.670469 0.750000
O O6 0.500000 0.650565 0.686763
O O7 0.283045 0.533040 0.662176
O O8 0.269325 0.697149 0.615164
O O9 0.750000 0.394467 0.750000
O O10 0.000000 0.421484 0.803482
O O11 0.500000 0.727214 0.928903
O O12 0.308781 0.861289 0.914982
O O13 0.750000 0.887085 0.250000
O O14 0.500000 0.916804 0.310036
O O15 0.735083 0.985547 0.363988
O O16 0.000000 0.001901 0.416363
O O17 0.230152 0.000000 0.500000
#
# Coordination Sequence:
#
# PCOD8221276 Si02
#       6
#     8   8   8   8   8   8
#     4  10  21  37  57  85 118 152 189 231 283 341
#     4  10  21  39  61  84 114 150 191 238 284 337
#     4   9  19  36  58  83 114 153 191 232 284 336
#     4  11  23  38  60  86 113 150 191 236 288 340
#     4  11  23  37  59  88 118 151 190 236 283 338
#     4  10  21  40  61  81 111 150 190 235 287 339
#
# _framework density 18.861595000000001
#
# number of rings (size 3 to 8) (size 9 to 14) (size 15 to 20)
#    0.000    1.833    1.667    2.000    0.000    5.000 
#    0.000    3.333    0.000    0.000    0.000    0.000 
#    0.000    0.000    0.000    0.000    0.000    0.000 
#
# Total GULP energy -595447.658929 kJ/mol
# GULP energy per Si atom -12405.159561 kJ/mol
# Density = 1.881867 g / cm^3
# Si number density = 18.861595 Si / 1000 Ang^3
#
#
#
# Elastic Constant Matrix: (Units=GPa)
#
#
# Indices 1 2 3 4 5 6 
#
# 1 91.1928 46.3073 61.0448 0.0000 0.0000 0.0000
# 2 46.3073 82.6671 44.7969 0.0000 0.0000 0.0000
# 3 61.0448 44.7969 110.8867 0.0000 0.0000 0.0000
# 4 0.0000 0.0000 0.0000 29.3128 0.0000 0.0000
# 5 0.0000 0.0000 0.0000 0.0000 40.5528 0.0000
# 6 0.0000 0.0000 0.0000 0.0000 0.0000 79.0181
#
#
#
# Elastic Compliance Matrix: (Units=1/GPa)
#
#
# Indices 1 2 3 4 5 6 
#
# 1 0.019869 -0.006661 -0.008247 0.000000 0.000000 0.000000
# 2 -0.006661 0.017720 -0.003492 0.000000 0.000000 0.000000
# 3 -0.008247 -0.003492 0.014969 0.000000 0.000000 0.000000
# 4 0.000000 0.000000 0.000000 0.034115 0.000000 0.000000
# 5 0.000000 0.000000 0.000000 0.000000 0.024659 0.000000
# 6 0.000000 0.000000 0.000000 0.000000 0.000000 0.012655
#
#
# Mechanical properties :
#
#
# Convention : Reuss Voigt Hill
#
# Bulk Modulus (GPa) = 63.45840 65.44940 64.45390
# Shear Modulus (GPa) = 30.11329 38.61657 34.36493
#
# Velocity S-wave (km/s) = 4.00001 4.52969 4.27306
# Velocity P-wave (km/s) = 7.41962 7.88242 7.65452
#
# Compressibility (1/GPa) = 0.01575835
#
# Stress axis : x y z
#
# Youngs Moduli (GPa) = 50.33022 56.43330 66.80425
#
# Poissons Ratio (x) = 0.37588 0.55095
# Poissons Ratio (y) = 0.33523 0.23327
# Poissons Ratio (z) = 0.41508 0.19706
#
# Static dielectric constant tensor:
#      x y z
#    x 3.696630 0.000000 0.000000 
#    y 0.000000 3.619770 0.000000 
#    z 0.000000 0.000000 2.443070 
# 
# 
# High freq. dielectric constant tensor:
#      x y z
#    x 1.738770 0.000000 0.000000 
#    y 0.000000 1.740920 0.000000 
#    z 0.000000 0.000000 1.735880 
# 
# From -- ./inp_files/26153.got.cif
#   From: 2010.03.12/outbox.cif.g09.slc.cpg/sg53_14_cif.got.tgz:26153.got - 2010.04.16 14:36:59.
