data_PCOD8221436
_publ_section_title
;
Structure prediction by ZEFSAII (Michael W. Deem and Ramdas Pophale) SiO2 
 PCOD8221436
Probable space group: P M N A
;
_chemical_formula_sum "Si O2"
_cell_formula_units_Z 64
_cell_length_a 18.473942
_cell_length_b 9.096209
_cell_length_c 18.835534
_cell_angle_alpha 90.000000
_cell_angle_beta 90.000000
_cell_angle_gamma 90.000000
_cell_volume 3165.176579
_symmetry_space_group_name_H-M "P M N A"
_symmetry_group_IT_number 53
_symmetry_cell_setting 'orthorhombic'
loop_
_space_group_symop_operation_xyz
x,y,z
1/2-x,-y,1/2+z
x,-y,-z
1/2-x,y,1/2-z
-x,-y,-z
1/2+x,y,1/2-z
-x,y,z
1/2+x,-y,1/2+z
loop_
_atom_site_type_symbol
_atom_site_label
_atom_site_fract_x
_atom_site_fract_y
_atom_site_fract_z
Si Si1 0.419014 0.503273 0.270911
Si Si2 0.580506 0.038110 0.852642
Si Si3 0.719087 0.967180 0.672978
Si Si4 0.710212 0.312389 0.678190
Si Si5 0.917143 0.463495 0.388798
Si Si6 0.918909 0.158887 0.213292
Si Si7 0.337444 0.824616 0.928106
Si Si8 0.331795 0.279958 0.919445
O O1 0.500000 0.542630 0.297256
O O2 0.365423 0.597996 0.321168
O O3 0.410037 0.541362 0.188132
O O4 0.405846 0.329441 0.272761
O O5 0.500000 0.104107 0.854701
O O6 0.594540 0.939299 0.783512
O O7 0.593063 0.931939 0.920557
O O8 0.638065 0.171552 0.856896
O O9 0.750000 0.923883 0.750000
O O10 0.641783 0.889843 0.657496
O O11 0.772566 0.904374 0.613719
O O12 0.700778 0.138893 0.667908
O O13 0.750000 0.356607 0.750000
O O14 0.760233 0.361177 0.611276
O O15 0.860693 0.330774 0.394935
O O16 0.891402 0.596165 0.440721
O O17 0.000000 0.414967 0.404857
O O18 0.000000 0.130755 0.184128
O O19 0.314019 0.811472 0.009886
#
# Coordination Sequence:
#
# PCOD8221436 Si02
#       8
#     8   8   8   8   8   8   8   8
#     4  10  21  38  62  89 117 154 201 252 306 360
#     4  11  21  38  61  87 123 167 206 242 294 361
#     4  11  21  38  60  87 116 156 201 253 302 359
#     4  11  22  38  60  87 119 157 199 251 303 360
#     4  11  23  40  59  86 125 168 210 250 300 368
#     4  10  21  38  62  90 117 152 205 254 300 359
#     4  12  24  39  60  87 125 166 208 251 301 365
#     4  12  25  39  56  90 127 166 207 252 302 360
#
# _framework density 20.220040999999998
#
# number of rings (size 3 to 8) (size 9 to 14) (size 15 to 20)
#    0.000    1.000    5.000    2.250    1.750    4.000 
#    0.000    0.000    0.000    0.750    0.000    3.500 
#    0.000    0.000    0.000    0.000    0.000    0.000 
#
# Total GULP energy -793196.670233 kJ/mol
# GULP energy per Si atom -12393.697972 kJ/mol
# Density = 2.017402 g / cm^3
# Si number density = 20.220041 Si / 1000 Ang^3
#
#
#
# Elastic Constant Matrix: (Units=GPa)
#
#
# Indices 1 2 3 4 5 6 
#
# 1 142.5857 57.9239 42.7029 0.0000 0.0000 0.0000
# 2 57.9239 101.3750 14.7745 0.0000 0.0000 0.0000
# 3 42.7029 14.7745 48.6571 0.0000 0.0000 0.0000
# 4 0.0000 0.0000 0.0000 24.6274 0.0000 0.0000
# 5 0.0000 0.0000 0.0000 0.0000 23.5543 0.0000
# 6 0.0000 0.0000 0.0000 0.0000 0.0000 38.2889
#
#
#
# Elastic Compliance Matrix: (Units=1/GPa)
#
#
# Indices 1 2 3 4 5 6 
#
# 1 0.011870 -0.005508 -0.008745 0.000000 0.000000 0.000000
# 2 -0.005508 0.012877 0.000924 0.000000 0.000000 0.000000
# 3 -0.008745 0.000924 0.027946 0.000000 0.000000 0.000000
# 4 0.000000 0.000000 0.000000 0.040605 0.000000 0.000000
# 5 0.000000 0.000000 0.000000 0.000000 0.042455 0.000000
# 6 0.000000 0.000000 0.000000 0.000000 0.000000 0.026117
#
#
# Mechanical properties :
#
#
# Convention : Reuss Voigt Hill
#
# Bulk Modulus (GPa) = 38.40965 58.15783 48.28374
# Shear Modulus (GPa) = 25.35416 29.10855 27.23135
#
# Velocity S-wave (km/s) = 3.54490 3.79831 3.67379
# Velocity P-wave (km/s) = 5.98266 6.93261 6.47508
#
# Compressibility (1/GPa) = 0.02603513
#
# Stress axis : x y z
#
# Youngs Moduli (GPa) = 84.24764 77.65939 35.78299
#
# Poissons Ratio (x) = 0.42772 0.31292
# Poissons Ratio (y) = 0.46401 -0.03305
# Poissons Ratio (z) = 0.73673 -0.07174
#
# Static dielectric constant tensor:
#      x y z
#    x 3.897840 0.000000 0.000000 
#    y 0.000000 3.777550 0.000000 
#    z 0.000000 0.000000 3.330360 
# 
# 
# High freq. dielectric constant tensor:
#      x y z
#    x 1.792670 0.000000 0.000000 
#    y 0.000000 1.807660 0.000000 
#    z 0.000000 0.000000 1.742580 
# 
# From -- ./inp_files/32817.got.cif
#   From: 2010.03.12/outbox.cif.g09.slc.cpg/sg53_17_cif.got.tgz:32817.got - 2010.04.16 14:36:59.
