data_PCOD8221203
_publ_section_title
;
Structure prediction by ZEFSAII (Michael W. Deem and Ramdas Pophale) SiO2 
 PCOD8221203
Probable space group: P M N A
;
_chemical_formula_sum "Si O2"
_cell_formula_units_Z 40
_cell_length_a 13.967784
_cell_length_b 6.956608
_cell_length_c 18.845231
_cell_angle_alpha 90.000000
_cell_angle_beta 90.000000
_cell_angle_gamma 90.000000
_cell_volume 1831.160905
_symmetry_space_group_name_H-M "P M N A"
_symmetry_group_IT_number 53
_symmetry_cell_setting 'orthorhombic'
loop_
_space_group_symop_operation_xyz
x,y,z
1/2-x,-y,1/2+z
x,-y,-z
1/2-x,y,1/2-z
-x,-y,-z
1/2+x,y,1/2-z
-x,y,z
1/2+x,-y,1/2+z
loop_
_atom_site_type_symbol
_atom_site_label
_atom_site_fract_x
_atom_site_fract_y
_atom_site_fract_z
Si Si1 0.248650 0.939807 0.578918
Si Si2 0.230750 0.542328 0.639739
Si Si3 0.604956 0.057447 0.692874
Si Si4 0.395012 0.380908 0.268755
Si Si5 0.111332 0.815803 0.351110
O O1 0.316510 0.069968 0.630787
O O2 0.141200 0.997226 0.603494
O O3 0.275138 0.000000 0.500000
O O4 0.254873 0.707140 0.581765
O O5 0.159897 0.642046 0.695433
O O6 0.332870 0.486912 0.676725
O O7 0.174820 0.354877 0.612805
O O8 0.500000 0.135078 0.668749
O O9 0.635471 0.162781 0.766841
O O10 0.593898 0.831574 0.703600
O O11 0.500000 0.477961 0.258938
O O12 0.000000 0.776949 0.363423
#
# Coordination Sequence:
#
# PCOD8221203 Si02
#       5
#     8   8   8   8   8
#     4  11  24  41  60  87 130 170 200 245 304 374
#     4  10  21  36  58  88 121 154 198 250 304 355
#     4   9  19  38  64  92 119 152 203 258 307 358
#     4   9  17  33  58  87 117 148 186 246 309 350
#     4  11  23  39  64  91 117 156 209 262 306 357
#
# _framework density 21.844066000000002
#
# number of rings (size 3 to 8) (size 9 to 14) (size 15 to 20)
#    0.000    2.000    2.000    1.200    5.600    2.400 
#    0.000    1.000    0.000    0.000    0.000    7.000 
#    0.000    0.000    0.000    0.000    0.000    0.000 
#
# Total GULP energy -495538.472295 kJ/mol
# GULP energy per Si atom -12388.461807 kJ/mol
# Density = 2.179435 g / cm^3
# Si number density = 21.844066 Si / 1000 Ang^3
#
#
#
# Elastic Constant Matrix: (Units=GPa)
#
#
# Indices 1 2 3 4 5 6 
#
# 1 118.3193 8.8796 22.3595 0.0000 0.0000 0.0000
# 2 8.8796 39.8070 2.1643 0.0000 0.0000 0.0000
# 3 22.3595 2.1643 71.1529 0.0000 0.0000 0.0000
# 4 0.0000 0.0000 0.0000 21.7117 0.0000 0.0000
# 5 0.0000 0.0000 0.0000 0.0000 13.2174 0.0000
# 6 0.0000 0.0000 0.0000 0.0000 0.0000 26.7880
#
#
#
# Elastic Compliance Matrix: (Units=1/GPa)
#
#
# Indices 1 2 3 4 5 6 
#
# 1 0.009124 -0.001882 -0.002810 0.000000 0.000000 0.000000
# 2 -0.001882 0.025551 -0.000186 0.000000 0.000000 0.000000
# 3 -0.002810 -0.000186 0.014943 0.000000 0.000000 0.000000
# 4 0.000000 0.000000 0.000000 0.046058 0.000000 0.000000
# 5 0.000000 0.000000 0.000000 0.000000 0.075658 0.000000
# 6 0.000000 0.000000 0.000000 0.000000 0.000000 0.037330
#
#
# Mechanical properties :
#
#
# Convention : Reuss Voigt Hill
#
# Bulk Modulus (GPa) = 25.08653 32.89844 28.99248
# Shear Modulus (GPa) = 21.57892 25.40180 23.49036
#
# Velocity S-wave (km/s) = 3.14644 3.41379 3.28283
# Velocity P-wave (km/s) = 4.97085 5.53461 5.26029
#
# Compressibility (1/GPa) = 0.03986203
#
# Stress axis : x y z
#
# Youngs Moduli (GPa) = 109.60118 39.13703 66.92147
#
# Poissons Ratio (x) = 0.07367 0.18804
# Poissons Ratio (y) = 0.20632 0.01242
# Poissons Ratio (z) = 0.30797 0.00727
#
# Static dielectric constant tensor:
#      x y z
#    x 5.189330 0.000000 0.000000 
#    y 0.000000 3.977580 0.000000 
#    z 0.000000 0.000000 3.432870 
# 
# 
# High freq. dielectric constant tensor:
#      x y z
#    x 1.872300 0.000000 0.000000 
#    y 0.000000 1.871800 0.000000 
#    z 0.000000 0.000000 1.800390 
# 
# From -- ./inp_files/28087.got.cif
#   From: 2010.03.12/outbox.cif.g09.slc.cpg/sg53_15_cif.got.tgz:28087.got - 2010.04.16 14:36:59.
