data_PCOD8221956
_publ_section_title
;
Structure prediction by ZEFSAII (Michael W. Deem and Ramdas Pophale) SiO2 
 PCOD8221956
Probable space group: P M N A
;
_chemical_formula_sum "Si O2"
_cell_formula_units_Z 32
_cell_length_a 7.600138
_cell_length_b 11.637009
_cell_length_c 20.221480
_cell_angle_alpha 90.000000
_cell_angle_beta 90.000000
_cell_angle_gamma 90.000000
_cell_volume 1788.445814
_symmetry_space_group_name_H-M "P M N A"
_symmetry_group_IT_number 53
_symmetry_cell_setting 'orthorhombic'
loop_
_space_group_symop_operation_xyz
x,y,z
1/2-x,-y,1/2+z
x,-y,-z
1/2-x,y,1/2-z
-x,-y,-z
1/2+x,y,1/2-z
-x,y,z
1/2+x,-y,1/2+z
loop_
_atom_site_type_symbol
_atom_site_label
_atom_site_fract_x
_atom_site_fract_y
_atom_site_fract_z
Si Si1 0.000000 0.666166 0.946863
Si Si2 0.500000 0.588078 0.403441
Si Si3 0.201324 0.286363 0.673927
Si Si4 0.794562 0.914869 0.085828
Si Si5 0.303927 0.838751 0.943893
O O1 0.826760 0.735884 0.925768
O O2 0.000000 0.548923 0.906126
O O3 0.000000 0.645249 0.024899
O O4 0.323777 0.626419 0.366250
O O5 0.250000 0.291491 0.750000
O O6 0.231750 0.155936 0.649518
O O7 0.000000 0.323979 0.662933
O O8 0.000000 0.897623 0.072788
O O9 0.750073 0.048201 0.097724
O O10 0.696043 0.867209 0.021570
O O11 0.500000 0.799928 0.923755
#
# Coordination Sequence:
#
# PCOD8221956 Si02
#       5
#     4   4   8   8   8
#     4  11  22  38  57  82 125 152 192 248 285 337
#     4  11  24  39  56  87 114 156 203 239 286 336
#     4  12  22  38  60  86 113 148 192 243 288 343
#     4  11  18  33  55  85 119 147 180 229 291 347
#     4  11  19  32  55  84 117 152 181 227 290 350
#
# _framework density 17.89263
#
# number of rings (size 3 to 8) (size 9 to 14) (size 15 to 20)
#    0.000    0.750    7.500    3.750    0.000    1.000 
#    0.000    2.500    0.000    1.500    0.000    0.000 
#    0.000    0.000    0.000    0.000    0.000    0.000 
#
# Total GULP energy -396915.504041 kJ/mol
# GULP energy per Si atom -12403.609501 kJ/mol
# Density = 1.785191 g / cm^3
# Si number density = 17.892630 Si / 1000 Ang^3
#
#
#
# Elastic Constant Matrix: (Units=GPa)
#
#
# Indices 1 2 3 4 5 6 
#
# 1 174.5095 73.0665 40.0673 0.0000 0.0000 0.0000
# 2 73.0665 153.7331 52.7606 0.0000 0.0000 0.0000
# 3 40.0673 52.7606 76.7028 0.0000 0.0000 0.0000
# 4 0.0000 0.0000 0.0000 23.4842 0.0000 0.0000
# 5 0.0000 0.0000 0.0000 0.0000 97.5415 0.0000
# 6 0.0000 0.0000 0.0000 0.0000 0.0000 17.1899
#
#
#
# Elastic Compliance Matrix: (Units=1/GPa)
#
#
# Indices 1 2 3 4 5 6 
#
# 1 0.007356 -0.002850 -0.001882 0.000000 0.000000 0.000000
# 2 -0.002850 0.009619 -0.005128 0.000000 0.000000 0.000000
# 3 -0.001882 -0.005128 0.017548 0.000000 0.000000 0.000000
# 4 0.000000 0.000000 0.000000 0.042582 0.000000 0.000000
# 5 0.000000 0.000000 0.000000 0.000000 0.010252 0.000000
# 6 0.000000 0.000000 0.000000 0.000000 0.000000 0.058174
#
#
# Mechanical properties :
#
#
# Convention : Reuss Voigt Hill
#
# Bulk Modulus (GPa) = 67.55484 81.85932 74.70708
# Shear Modulus (GPa) = 29.37988 43.57985 36.47987
#
# Velocity S-wave (km/s) = 4.05657 4.94057 4.52023
# Velocity P-wave (km/s) = 7.73166 8.85411 8.31185
#
# Compressibility (1/GPa) = 0.01480279
#
# Stress axis : x y z
#
# Youngs Moduli (GPa) = 135.94696 103.95781 56.98780
#
# Poissons Ratio (x) = 0.29630 0.10725
# Poissons Ratio (y) = 0.38748 0.29222
# Poissons Ratio (z) = 0.25584 0.53308
#
# Static dielectric constant tensor:
#      x y z
#    x 3.548030 0.000000 0.000000 
#    y 0.000000 3.411680 0.000000 
#    z 0.000000 0.000000 3.056500 
# 
# 
# High freq. dielectric constant tensor:
#      x y z
#    x 1.716790 0.000000 0.000000 
#    y 0.000000 1.688240 0.000000 
#    z 0.000000 0.000000 1.655290 
# 
# From -- ./inp_files/30244.got.cif
#   From: 2010.03.12/outbox.cif.g09.slc.cpg/sg53_16_cif.got.tgz:30244.got - 2010.04.16 14:36:59.
