data_PCOD8221107
_publ_section_title
;
Structure prediction by ZEFSAII (Michael W. Deem and Ramdas Pophale) SiO2 
 PCOD8221107
Probable space group: P M N A
;
_chemical_formula_sum "Si O2"
_cell_formula_units_Z 64
_cell_length_a 13.952673
_cell_length_b 9.411861
_cell_length_c 24.458474
_cell_angle_alpha 90.000000
_cell_angle_beta 90.000000
_cell_angle_gamma 90.000000
_cell_volume 3211.901942
_symmetry_space_group_name_H-M "P M N A"
_symmetry_group_IT_number 53
_symmetry_cell_setting 'orthorhombic'
loop_
_space_group_symop_operation_xyz
x,y,z
1/2-x,-y,1/2+z
x,-y,-z
1/2-x,y,1/2-z
-x,-y,-z
1/2+x,y,1/2-z
-x,y,z
1/2+x,-y,1/2+z
loop_
_atom_site_type_symbol
_atom_site_label
_atom_site_fract_x
_atom_site_fract_y
_atom_site_fract_z
Si Si1 0.795945 0.535119 0.381805
Si Si2 0.895998 0.558240 0.724984
Si Si3 0.109659 0.393628 0.834094
Si Si4 0.893935 0.060726 0.837207
Si Si5 0.856209 0.124571 0.264476
Si Si6 0.198174 0.048055 0.380204
Si Si7 0.611382 0.212280 0.932455
Si Si8 0.885668 0.703693 0.555413
O O1 0.823622 0.466953 0.324131
O O2 0.679596 0.544501 0.381712
O O3 0.834768 0.694754 0.387074
O O4 0.844663 0.453287 0.432726
O O5 0.861301 0.473890 0.778443
O O6 0.911190 0.726303 0.735427
O O7 0.000000 0.497994 0.707969
O O8 0.000000 0.425794 0.851031
O O9 0.129095 0.225968 0.826766
O O10 0.900561 0.983731 0.778806
O O11 0.811748 0.988054 0.874692
O O12 0.000000 0.045035 0.864945
O O13 0.750000 0.170585 0.250000
O O14 0.856296 0.041030 0.322157
O O15 0.180513 0.203817 0.404291
O O16 0.146720 0.947330 0.423912
O O17 0.500000 0.223845 0.921765
O O18 0.637684 0.258231 0.993545
O O19 0.000000 0.713893 0.568206
#
# Coordination Sequence:
#
# PCOD8221107 Si02
#       8
#     8   8   8   8   8   8   8   8
#     4  12  22  39  63  87 120 159 197 243 295 354
#     4  11  22  35  57  90 125 160 195 238 290 352
#     4  10  23  40  60  87 122 160 198 243 290 347
#     4  10  22  40  60  88 123 159 199 244 291 346
#     4  10  21  35  56  88 123 159 197 239 287 350
#     4  11  22  39  63  88 119 161 197 243 296 352
#     4  11  24  40  62  90 117 154 200 247 300 356
#     4  11  24  42  62  88 123 154 194 248 302 355
#
# _framework density 19.925889000000002
#
# number of rings (size 3 to 8) (size 9 to 14) (size 15 to 20)
#    0.000    1.250    2.500    3.750    3.500    4.500 
#    0.000    0.000    0.000    4.500    0.000    0.000 
#    0.000    0.000    0.000    0.000    0.000    0.000 
#
# Total GULP energy -793413.823607 kJ/mol
# GULP energy per Si atom -12397.090994 kJ/mol
# Density = 1.988054 g / cm^3
# Si number density = 19.925889 Si / 1000 Ang^3
#
#
#
# Elastic Constant Matrix: (Units=GPa)
#
#
# Indices 1 2 3 4 5 6 
#
# 1 113.2555 22.8651 53.5927 0.0000 0.0000 0.0000
# 2 22.8651 67.8468 26.7976 0.0000 0.0000 0.0000
# 3 53.5927 26.7976 61.6561 0.0000 0.0000 0.0000
# 4 0.0000 0.0000 0.0000 27.4800 0.0000 0.0000
# 5 0.0000 0.0000 0.0000 0.0000 24.4542 0.0000
# 6 0.0000 0.0000 0.0000 0.0000 0.0000 29.8793
#
#
#
# Elastic Compliance Matrix: (Units=1/GPa)
#
#
# Indices 1 2 3 4 5 6 
#
# 1 0.015000 0.000114 -0.013088 0.000000 0.000000 0.000000
# 2 0.000114 0.017795 -0.007833 0.000000 0.000000 0.000000
# 3 -0.013088 -0.007833 0.031000 0.000000 0.000000 0.000000
# 4 0.000000 0.000000 0.000000 0.036390 0.000000 0.000000
# 5 0.000000 0.000000 0.000000 0.000000 0.040893 0.000000
# 6 0.000000 0.000000 0.000000 0.000000 0.000000 0.033468
#
#
# Mechanical properties :
#
#
# Convention : Reuss Voigt Hill
#
# Bulk Modulus (GPa) = 45.08499 49.91880 47.50189
# Shear Modulus (GPa) = 22.36618 25.66288 24.01453
#
# Velocity S-wave (km/s) = 3.35396 3.59265 3.47535
# Velocity P-wave (km/s) = 6.13793 6.50508 6.32417
#
# Compressibility (1/GPa) = 0.02218033
#
# Stress axis : x y z
#
# Youngs Moduli (GPa) = 66.66827 56.19701 32.25841
#
# Poissons Ratio (x) = -0.00642 0.42219
# Poissons Ratio (y) = -0.00762 0.25269
# Poissons Ratio (z) = 0.87253 0.44021
#
# Static dielectric constant tensor:
#      x y z
#    x 3.731640 0.000000 0.000000 
#    y 0.000000 3.707500 0.000000 
#    z 0.000000 0.000000 3.469090 
# 
# 
# High freq. dielectric constant tensor:
#      x y z
#    x 1.786160 0.000000 0.000000 
#    y 0.000000 1.791350 0.000000 
#    z 0.000000 0.000000 1.752900 
# 
# From -- ./inp_files/35314.got.cif
#   From: 2010.03.12/outbox.cif.g09.slc.cpg/sg53_18_cif.got.tgz:35314.got - 2010.04.16 14:36:59.
