data_PCOD8221016
_publ_section_title
;
Structure prediction by ZEFSAII (Michael W. Deem and Ramdas Pophale) SiO2 
 PCOD8221016
Probable space group: P M N A
;
_chemical_formula_sum "Si O2"
_cell_formula_units_Z 48
_cell_length_a 8.630410
_cell_length_b 12.537926
_cell_length_c 23.244604
_cell_angle_alpha 90.000000
_cell_angle_beta 90.000000
_cell_angle_gamma 90.000000
_cell_volume 2515.239138
_symmetry_space_group_name_H-M "P M N A"
_symmetry_group_IT_number 53
_symmetry_cell_setting 'orthorhombic'
loop_
_space_group_symop_operation_xyz
x,y,z
1/2-x,-y,1/2+z
x,-y,-z
1/2-x,y,1/2-z
-x,-y,-z
1/2+x,y,1/2-z
-x,y,z
1/2+x,-y,1/2+z
loop_
_atom_site_type_symbol
_atom_site_label
_atom_site_fract_x
_atom_site_fract_y
_atom_site_fract_z
Si Si1 0.681265 0.397919 0.310836
Si Si2 0.681122 0.192315 0.613619
Si Si3 0.182488 0.624314 0.311455
Si Si4 0.181387 0.007943 0.687760
Si Si5 0.681445 0.122642 0.000604
Si Si6 0.178689 0.791670 0.625647
O O1 0.750000 0.359747 0.250000
O O2 0.500000 0.414123 0.303812
O O3 0.754608 0.509354 0.330682
O O4 0.716619 0.309200 0.358534
O O5 0.500000 0.209616 0.622696
O O6 0.771410 0.291104 0.640672
O O7 0.722102 0.188379 0.546319
O O8 0.734178 0.082241 0.642020
O O9 0.250000 0.660176 0.250000
O O10 0.000000 0.618215 0.305618
O O11 0.250000 0.031154 0.750000
O O12 0.213861 0.886463 0.670261
O O13 0.000000 0.034927 0.687001
O O14 0.500000 0.131446 0.986281
O O15 0.723663 0.172299 0.061903
O O16 0.734232 0.000000 0.000000
O O17 0.000000 0.757807 0.629221
#
# Coordination Sequence:
#
# PCOD8221016 Si02
#       6
#     8   8   8   8   8   8
#     4  11  22  38  61  89 122 155 195 241 294 351
#     4  12  24  38  58  87 120 154 196 243 294 350
#     4  11  22  40  64  88 118 155 197 242 296 353
#     4  11  22  37  56  84 118 154 193 241 294 350
#     4  10  20  40  63  85 115 158 201 242 292 350
#     4  10  21  38  61  86 117 154 197 241 291 349
#
# _framework density 19.083673000000001
#
# number of rings (size 3 to 8) (size 9 to 14) (size 15 to 20)
#    0.000    1.167    1.667    7.000    0.000    3.667 
#    0.000    0.833    0.000    5.000    0.000    0.000 
#    0.000    0.000    0.000    0.000    0.000    0.000 
#
# Total GULP energy -595525.360152 kJ/mol
# GULP energy per Si atom -12406.778336 kJ/mol
# Density = 1.904024 g / cm^3
# Si number density = 19.083673 Si / 1000 Ang^3
#
#
#
# Elastic Constant Matrix: (Units=GPa)
#
#
# Indices 1 2 3 4 5 6 
#
# 1 131.1511 45.2372 36.7033 0.0000 0.0000 0.0000
# 2 45.2372 102.0671 44.3910 0.0000 0.0000 0.0000
# 3 36.7033 44.3910 93.9551 0.0000 0.0000 0.0000
# 4 0.0000 0.0000 0.0000 28.1800 0.0000 0.0000
# 5 0.0000 0.0000 0.0000 0.0000 33.3633 0.0000
# 6 0.0000 0.0000 0.0000 0.0000 0.0000 32.0837
#
#
#
# Elastic Compliance Matrix: (Units=1/GPa)
#
#
# Indices 1 2 3 4 5 6 
#
# 1 0.009327 -0.003208 -0.002128 0.000000 0.000000 0.000000
# 2 -0.003208 0.013435 -0.005094 0.000000 0.000000 0.000000
# 3 -0.002128 -0.005094 0.013881 0.000000 0.000000 0.000000
# 4 0.000000 0.000000 0.000000 0.035486 0.000000 0.000000
# 5 0.000000 0.000000 0.000000 0.000000 0.029973 0.000000
# 6 0.000000 0.000000 0.000000 0.000000 0.000000 0.031168
#
#
# Mechanical properties :
#
#
# Convention : Reuss Voigt Hill
#
# Bulk Modulus (GPa) = 63.36060 64.42623 63.89342
# Shear Modulus (GPa) = 31.36904 32.11485 31.74194
#
# Velocity S-wave (km/s) = 4.05873 4.10670 4.08279
# Velocity P-wave (km/s) = 7.43223 7.50465 7.46853
#
# Compressibility (1/GPa) = 0.01578268
#
# Stress axis : x y z
#
# Youngs Moduli (GPa) = 107.21694 74.43187 72.03859
#
# Poissons Ratio (x) = 0.23881 0.15327
# Poissons Ratio (y) = 0.34400 0.36699
# Poissons Ratio (z) = 0.22812 0.37918
#
# Static dielectric constant tensor:
#      x y z
#    x 3.582130 0.000000 0.000000 
#    y 0.000000 3.470380 0.000000 
#    z 0.000000 0.000000 3.469640 
# 
# 
# High freq. dielectric constant tensor:
#      x y z
#    x 1.751110 0.000000 0.000000 
#    y 0.000000 1.744400 0.000000 
#    z 0.000000 0.000000 1.742270 
# 
# From -- ./inp_files/33901.got.cif
#   From: 2010.03.12/outbox.cif.g09.slc.cpg/sg53_17_cif.got.tgz:33901.got - 2010.04.16 14:36:59.
