data_PCOD8221832
_publ_section_title
;
Structure prediction by ZEFSAII (Michael W. Deem and Ramdas Pophale) SiO2 
 PCOD8221832
Probable space group: P M N A
;
_chemical_formula_sum "Si O2"
_cell_formula_units_Z 40
_cell_length_a 7.857280
_cell_length_b 9.892574
_cell_length_c 25.831552
_cell_angle_alpha 90.000000
_cell_angle_beta 90.000000
_cell_angle_gamma 90.000000
_cell_volume 2007.853572
_symmetry_space_group_name_H-M "P M N A"
_symmetry_group_IT_number 53
_symmetry_cell_setting 'orthorhombic'
loop_
_space_group_symop_operation_xyz
x,y,z
1/2-x,-y,1/2+z
x,-y,-z
1/2-x,y,1/2-z
-x,-y,-z
1/2+x,y,1/2-z
-x,y,z
1/2+x,-y,1/2+z
loop_
_atom_site_type_symbol
_atom_site_label
_atom_site_fract_x
_atom_site_fract_y
_atom_site_fract_z
Si Si1 0.189951 0.722817 0.191536
Si Si2 0.500000 0.589267 0.949566
Si Si3 0.000000 0.084749 0.447195
Si Si4 0.700733 0.741743 0.807060
Si Si5 0.194301 0.483851 0.122923
Si Si6 0.186097 0.985609 0.353248
O O1 0.250000 0.747564 0.250000
O O2 0.277625 0.602352 0.158973
O O3 0.195460 0.856661 0.155586
O O4 0.000000 0.672285 0.197076
O O5 0.500000 0.753387 0.957774
O O6 0.325283 0.542566 0.923057
O O7 0.500000 0.500000 0.000000
O O8 0.000000 0.000000 0.500000
O O9 0.166634 0.039568 0.412999
O O10 0.750000 0.698392 0.750000
O O11 0.500000 0.722726 0.819654
O O12 0.814806 0.651102 0.843713
O O13 0.758387 0.894965 0.817507
O O14 0.000000 0.515610 0.103058
O O15 0.000000 0.941330 0.332157
#
# Coordination Sequence:
#
# PCOD8221832 Si02
#       6
#     8   4   4   8   8   8
#     4  11  24  37  58  95 132 178 221 259 322 388
#     4  12  26  46  76  98 126 178 218 282 349 382
#     4  10  22  44  70 102 120 168 228 270 339 398
#     4  11  20  36  59  92 128 173 217 257 328 393
#     4  11  24  43  64  96 134 169 219 276 322 401
#     4   9  20  38  60  88 129 161 211 271 311 395
#
# _framework density 19.921772000000001
#
# number of rings (size 3 to 8) (size 9 to 14) (size 15 to 20)
#    0.600    0.800    3.000    2.400    5.600    5.200 
#    0.000    0.000    0.000    1.200    0.000    0.000 
#    0.000    0.000    0.000    0.000    0.000    0.000 
#
# Total GULP energy -495541.569011 kJ/mol
# GULP energy per Si atom -12388.539225 kJ/mol
# Density = 1.987643 g / cm^3
# Si number density = 19.921772 Si / 1000 Ang^3
#
#
#
# Elastic Constant Matrix: (Units=GPa)
#
#
# Indices 1 2 3 4 5 6 
#
# 1 66.1488 37.3581 40.2412 0.0000 0.0000 0.0000
# 2 37.3581 128.2109 50.8750 0.0000 0.0000 0.0000
# 3 40.2412 50.8750 129.7556 0.0000 0.0000 0.0000
# 4 0.0000 0.0000 0.0000 41.8006 0.0000 0.0000
# 5 0.0000 0.0000 0.0000 0.0000 25.9961 0.0000
# 6 0.0000 0.0000 0.0000 0.0000 0.0000 25.9410
#
#
#
# Elastic Compliance Matrix: (Units=1/GPa)
#
#
# Indices 1 2 3 4 5 6 
#
# 1 0.020256 -0.004038 -0.004699 0.000000 0.000000 0.000000
# 2 -0.004038 0.010042 -0.002685 0.000000 0.000000 0.000000
# 3 -0.004699 -0.002685 0.010217 0.000000 0.000000 0.000000
# 4 0.000000 0.000000 0.000000 0.023923 0.000000 0.000000
# 5 0.000000 0.000000 0.000000 0.000000 0.038467 0.000000
# 6 0.000000 0.000000 0.000000 0.000000 0.000000 0.038549
#
#
# Mechanical properties :
#
#
# Convention : Reuss Voigt Hill
#
# Bulk Modulus (GPa) = 56.58833 64.56266 60.57549
# Shear Modulus (GPa) = 29.37930 31.79027 30.58479
#
# Velocity S-wave (km/s) = 3.84439 3.99902 3.92247
# Velocity P-wave (km/s) = 6.94066 7.33494 7.14052
#
# Compressibility (1/GPa) = 0.01767149
#
# Stress axis : x y z
#
# Youngs Moduli (GPa) = 49.36724 99.58628 97.87785
#
# Poissons Ratio (x) = 0.40210 0.45993
# Poissons Ratio (y) = 0.19933 0.26279
# Poissons Ratio (z) = 0.23198 0.26738
#
# Static dielectric constant tensor:
#      x y z
#    x 3.368850 0.000000 0.000000 
#    y 0.000000 3.702210 0.000000 
#    z 0.000000 0.000000 3.178030 
# 
# 
# High freq. dielectric constant tensor:
#      x y z
#    x 1.762600 0.000000 0.000000 
#    y 0.000000 1.795410 0.000000 
#    z 0.000000 0.000000 1.761980 
# 
# From -- ./inp_files/36086.got.cif
#   From: 2010.03.12/outbox.cif.g09.slc.cpg/sg53_19_cif.got.tgz:36086.got - 2010.04.16 14:36:59.
