data_PCOD8221121
_publ_section_title
;
Structure prediction by ZEFSAII (Michael W. Deem and Ramdas Pophale) SiO2 
 PCOD8221121
Probable space group: P M N A
;
_chemical_formula_sum "Si O2"
_cell_formula_units_Z 64
_cell_length_a 8.890650
_cell_length_b 16.764457
_cell_length_c 23.648276
_cell_angle_alpha 90.000000
_cell_angle_beta 90.000000
_cell_angle_gamma 90.000000
_cell_volume 3524.702692
_symmetry_space_group_name_H-M "P M N A"
_symmetry_group_IT_number 53
_symmetry_cell_setting 'orthorhombic'
loop_
_space_group_symop_operation_xyz
x,y,z
1/2-x,-y,1/2+z
x,-y,-z
1/2-x,y,1/2-z
-x,-y,-z
1/2+x,y,1/2-z
-x,y,z
1/2+x,-y,1/2+z
loop_
_atom_site_type_symbol
_atom_site_label
_atom_site_fract_x
_atom_site_fract_y
_atom_site_fract_z
Si Si1 0.822961 0.370674 0.691386
Si Si2 0.672718 0.465863 0.596399
Si Si3 0.328445 0.316783 0.518706
Si Si4 0.175669 0.741702 0.689242
Si Si5 0.677077 0.896817 0.688923
Si Si6 0.824790 0.071498 0.810277
Si Si7 0.323328 0.228689 0.629045
Si Si8 0.674195 0.369639 0.086046
O O1 0.750000 0.395650 0.750000
O O2 0.778135 0.439248 0.647662
O O3 0.763818 0.284408 0.672681
O O4 0.000000 0.366907 0.697808
O O5 0.500000 0.468031 0.616557
O O6 0.691547 0.404826 0.544788
O O7 0.724305 0.552719 0.577087
O O8 0.500000 0.301834 0.500221
O O9 0.277705 0.249943 0.564642
O O10 0.222432 0.308621 0.463863
O O11 0.250000 0.722537 0.750000
O O12 0.245737 0.820953 0.658471
O O13 0.206869 0.668514 0.647191
O O14 0.000000 0.755824 0.698666
O O15 0.750000 0.895976 0.750000
O O16 0.500000 0.882249 0.691774
O O17 0.715655 0.984285 0.663028
O O18 0.750000 0.088070 0.750000
O O19 0.777996 0.137646 0.856603
O O20 0.000000 0.075886 0.797395
O O21 0.500000 0.245528 0.637294
O O22 0.500000 0.391429 0.079348
#
# Coordination Sequence:
#
# PCOD8221121 Si02
#       8
#     8   8   8   8   8   8   8   8
#     4  11  21  33  49  71 102 138 172 205 247 297
#     4  10  21  37  55  75  99 129 167 210 253 296
#     4   9  19  35  54  74  98 131 168 205 247 293
#     4  10  21  36  53  75 102 130 160 199 248 298
#     4   9  16  28  48  73 100 131 164 199 243 292
#     4   9  17  28  46  74 105 134 166 204 244 290
#     4   9  18  33  50  72 103 135 169 209 248 289
#     4  11  23  36  53  77 101 126 162 207 251 299
#
# _framework density 18.157558999999999
#
# number of rings (size 3 to 8) (size 9 to 14) (size 15 to 20)
#    0.000    2.250    0.000    4.875    0.000    8.500 
#    0.000    1.250    0.000    0.750    0.000    5.250 
#    0.000    0.000    0.000    0.000    0.000    0.000 
#
# Total GULP energy -793366.494696 kJ/mol
# GULP energy per Si atom -12396.351480 kJ/mol
# Density = 1.811623 g / cm^3
# Si number density = 18.157559 Si / 1000 Ang^3
#
#
#
# Elastic Constant Matrix: (Units=GPa)
#
#
# Indices 1 2 3 4 5 6 
#
# 1 86.2804 29.7016 34.3102 0.0000 0.0000 0.0000
# 2 29.7016 75.7927 21.1169 0.0000 0.0000 0.0000
# 3 34.3102 21.1169 74.2016 0.0000 0.0000 0.0000
# 4 0.0000 0.0000 0.0000 15.2288 0.0000 0.0000
# 5 0.0000 0.0000 0.0000 0.0000 27.4045 0.0000
# 6 0.0000 0.0000 0.0000 0.0000 0.0000 -0.8887
#
#
#
# Elastic Compliance Matrix: (Units=1/GPa)
#
#
# Indices 1 2 3 4 5 6 
#
# 1 0.015451 -0.004415 -0.005888 0.000000 0.000000 0.000000
# 2 -0.004415 0.015591 -0.002396 0.000000 0.000000 0.000000
# 3 -0.005888 -0.002396 0.016881 0.000000 0.000000 0.000000
# 4 0.000000 0.000000 0.000000 0.065665 0.000000 0.000000
# 5 0.000000 0.000000 0.000000 0.000000 0.036490 0.000000
# 6 0.000000 0.000000 0.000000 0.000000 0.000000 -1.125252
#
#
# Mechanical properties :
#
#
# Convention : Reuss Voigt Hill
#
# Bulk Modulus (GPa) = 44.39175 45.17026 44.78100
# Shear Modulus (GPa) = -5.30636 18.42532 6.55948
#
# Velocity S-wave (km/s) = -1.71136 3.18896 1.90273
# Velocity P-wave (km/s) = 4.53830 6.20404 5.43536
#
# Compressibility (1/GPa) = 0.02252671
#
# Stress axis : x y z
#
# Youngs Moduli (GPa) = 64.71946 64.13806 59.23708
#
# Poissons Ratio (x) = 0.28314 0.34880
# Poissons Ratio (y) = 0.28570 0.14193
# Poissons Ratio (z) = 0.38108 0.15367
#
# Static dielectric constant tensor:
#      x y z
#    x 3.395960 0.000000 0.000000 
#    y 0.000000 3.846910 0.000000 
#    z 0.000000 0.000000 3.178480 
# 
# 
# High freq. dielectric constant tensor:
#      x y z
#    x 1.711340 0.000000 0.000000 
#    y 0.000000 1.702370 0.000000 
#    z 0.000000 0.000000 1.680190 
# 
# From -- ./inp_files/31107.got.cif
#   From: 2010.03.12/outbox.cif.g09.slc.cpg/sg53_16_cif.got.tgz:31107.got - 2010.04.16 14:36:59.
