data_PCOD8221877
_publ_section_title
;
Structure prediction by ZEFSAII (Michael W. Deem and Ramdas Pophale) SiO2 
 PCOD8221877
Probable space group: P M N A
;
_chemical_formula_sum "Si O2"
_cell_formula_units_Z 40
_cell_length_a 9.487605
_cell_length_b 23.643180
_cell_length_c 8.812533
_cell_angle_alpha 90.000000
_cell_angle_beta 90.000000
_cell_angle_gamma 90.000000
_cell_volume 1976.802311
_symmetry_space_group_name_H-M "P M N A"
_symmetry_group_IT_number 53
_symmetry_cell_setting 'orthorhombic'
loop_
_space_group_symop_operation_xyz
x,y,z
1/2-x,-y,1/2+z
x,-y,-z
1/2-x,y,1/2-z
-x,-y,-z
1/2+x,y,1/2-z
-x,y,z
1/2+x,-y,1/2+z
loop_
_atom_site_type_symbol
_atom_site_label
_atom_site_fract_x
_atom_site_fract_y
_atom_site_fract_z
Si Si1 0.335413 0.356905 0.405158
Si Si2 0.500000 0.060581 0.425585
Si Si3 0.500000 0.937568 0.931520
Si Si4 0.662746 0.444781 0.898728
Si Si5 0.253037 0.874543 0.425616
Si Si6 0.837811 0.250953 0.891452
O O1 0.250000 0.359557 0.250000
O O2 0.500000 0.376019 0.383821
O O3 0.252880 0.395993 0.522502
O O4 0.330846 0.293311 0.467634
O O5 0.500000 0.053689 0.246707
O O6 0.372669 0.096538 0.481504
O O7 0.500000 0.000000 0.500000
O O8 0.377572 0.898066 0.986837
O O9 0.500000 0.000000 0.000000
O O10 0.750000 0.461402 0.750000
O O11 0.500000 0.425333 0.864296
O O12 0.658001 0.500000 0.000000
O O13 0.250000 0.893152 0.250000
O O14 0.263972 0.807107 0.441430
O O15 0.750000 0.276669 0.750000
O O16 0.000000 0.240191 0.841586
#
# Coordination Sequence:
#
# PCOD8221877 Si02
#       6
#     8   4   4   8   8   8
#     4  11  24  42  64  96 134 174 219 271 325 384
#     4  12  24  42  66  90 128 164 205 264 315 388
#     4  12  26  42  64  96 124 166 211 258 325 384
#     4  11  24  42  66  97 133 175 222 274 330 391
#     4  11  23  43  65  93 126 164 211 262 320 386
#     4  10  23  42  66  94 126 166 211 260 317 380
#
# _framework density 20.2347
#
# number of rings (size 3 to 8) (size 9 to 14) (size 15 to 20)
#    0.000    1.000    1.000    5.400    4.200    8.000 
#    0.000    0.000    0.000    0.000    0.000    0.000 
#    0.000    0.000    0.000    0.000    0.000    0.000 
#
# Total GULP energy -495867.440310 kJ/mol
# GULP energy per Si atom -12396.686008 kJ/mol
# Density = 2.018864 g / cm^3
# Si number density = 20.234700 Si / 1000 Ang^3
#
#
#
# Elastic Constant Matrix: (Units=GPa)
#
#
# Indices 1 2 3 4 5 6 
#
# 1 187.7062 49.3245 66.3484 0.0000 0.0000 0.0000
# 2 49.3245 83.0728 41.2371 0.0000 0.0000 0.0000
# 3 66.3484 41.2371 146.0180 0.0000 0.0000 0.0000
# 4 0.0000 0.0000 0.0000 36.9037 0.0000 0.0000
# 5 0.0000 0.0000 0.0000 0.0000 42.8968 0.0000
# 6 0.0000 0.0000 0.0000 0.0000 0.0000 38.3867
#
#
#
# Elastic Compliance Matrix: (Units=1/GPa)
#
#
# Indices 1 2 3 4 5 6 
#
# 1 0.006922 -0.002964 -0.002308 0.000000 0.000000 0.000000
# 2 -0.002964 0.015270 -0.002965 0.000000 0.000000 0.000000
# 3 -0.002308 -0.002965 0.008735 0.000000 0.000000 0.000000
# 4 0.000000 0.000000 0.000000 0.027098 0.000000 0.000000
# 5 0.000000 0.000000 0.000000 0.000000 0.023312 0.000000
# 6 0.000000 0.000000 0.000000 0.000000 0.000000 0.026051
#
#
# Mechanical properties :
#
#
# Convention : Reuss Voigt Hill
#
# Bulk Modulus (GPa) = 69.19994 81.17966 75.18980
# Shear Modulus (GPa) = 38.85619 40.96325 39.90972
#
# Velocity S-wave (km/s) = 4.38685 4.50422 4.44592
# Velocity P-wave (km/s) = 7.74159 8.20102 7.97461
#
# Compressibility (1/GPa) = 0.01445088
#
# Stress axis : x y z
#
# Youngs Moduli (GPa) = 144.46036 65.48917 114.48513
#
# Poissons Ratio (x) = 0.19413 0.26426
# Poissons Ratio (y) = 0.42823 0.33949
# Poissons Ratio (z) = 0.33345 0.19420
#
# Static dielectric constant tensor:
#      x y z
#    x 4.104920 0.000000 0.000000 
#    y 0.000000 3.700030 0.000000 
#    z 0.000000 0.000000 3.269640 
# 
# 
# High freq. dielectric constant tensor:
#      x y z
#    x 1.816680 0.000000 0.000000 
#    y 0.000000 1.801810 0.000000 
#    z 0.000000 0.000000 1.798590 
# 
# From -- ./inp_files/6343.got.cif
#   From: 2010.03.12/outbox.cif.g09.slc.cpg/sg53_4_cif.got.tgz:6343.got - 2010.04.16 14:36:59.
