data_PCOD8221498
_publ_section_title
;
Structure prediction by ZEFSAII (Michael W. Deem and Ramdas Pophale) SiO2 
 PCOD8221498
Probable space group: P M N A
;
_chemical_formula_sum "Si O2"
_cell_formula_units_Z 40
_cell_length_a 15.030175
_cell_length_b 7.949225
_cell_length_c 15.784225
_cell_angle_alpha 90.000000
_cell_angle_beta 90.000000
_cell_angle_gamma 90.000000
_cell_volume 1885.871468
_symmetry_space_group_name_H-M "P M N A"
_symmetry_group_IT_number 53
_symmetry_cell_setting 'orthorhombic'
loop_
_space_group_symop_operation_xyz
x,y,z
1/2-x,-y,1/2+z
x,-y,-z
1/2-x,y,1/2-z
-x,-y,-z
1/2+x,y,1/2-z
-x,y,z
1/2+x,-y,1/2+z
loop_
_atom_site_type_symbol
_atom_site_label
_atom_site_fract_x
_atom_site_fract_y
_atom_site_fract_z
Si Si1 0.710493 0.500000 0.500000
Si Si2 0.500000 0.747570 0.997164
Si Si3 0.190619 0.556299 0.673033
Si Si4 0.848927 0.000000 0.500000
Si Si5 0.398902 0.176534 0.451370
Si Si6 0.000000 0.530770 0.357540
Si Si7 0.749930 0.079271 0.159656
O O1 0.773512 0.511717 0.417353
O O2 0.650407 0.669462 0.500305
O O3 0.500000 0.713663 0.098214
O O4 0.409387 0.843382 0.976250
O O5 0.500000 0.590058 0.937639
O O6 0.250000 0.485203 0.750000
O O7 0.090525 0.493052 0.695065
O O8 0.187787 0.758147 0.673085
O O9 0.786892 0.965217 0.417731
O O10 0.500000 0.231613 0.433762
O O11 0.349243 0.145098 0.362220
O O12 0.395171 0.000000 0.500000
O O13 0.750000 0.979254 0.250000
#
# Coordination Sequence:
#
# PCOD8221498 Si02
#       7
#     4   4   8   4   8   4   8
#     4  10  21  41  64  88 126 162 206 258 312 370
#     4  10  22  34  64  90 120 156 203 245 325 365
#     4  10  22  40  63  93 122 165 208 255 315 375
#     4  11  20  40  59  90 124 162 195 258 308 377
#     4  10  21  39  63  88 120 166 208 252 307 369
#     4  11  20  38  62  91 122 159 202 264 301 381
#     4  10  21  39  62  89 122 164 205 254 313 370
#
# _framework density 21.210353000000001
#
# number of rings (size 3 to 8) (size 9 to 14) (size 15 to 20)
#    0.000    1.800    3.000    1.500    2.800    0.000 
#   21.600    4.000    0.000    0.000    0.000    0.000 
#    0.000    0.000    0.000    0.000    0.000    0.000 
#
# Total GULP energy -495670.346440 kJ/mol
# GULP energy per Si atom -12391.758661 kJ/mol
# Density = 2.116208 g / cm^3
# Si number density = 21.210353 Si / 1000 Ang^3
#
#
#
# Elastic Constant Matrix: (Units=GPa)
#
#
# Indices 1 2 3 4 5 6 
#
# 1 171.3403 19.1257 60.4279 0.0000 0.0000 0.0000
# 2 19.1257 51.2455 9.8077 0.0000 0.0000 0.0000
# 3 60.4279 9.8077 157.8942 0.0000 0.0000 0.0000
# 4 0.0000 0.0000 0.0000 24.0324 0.0000 0.0000
# 5 0.0000 0.0000 0.0000 0.0000 27.0267 0.0000
# 6 0.0000 0.0000 0.0000 0.0000 0.0000 19.1083
#
#
#
# Elastic Compliance Matrix: (Units=1/GPa)
#
#
# Indices 1 2 3 4 5 6 
#
# 1 0.006966 -0.002115 -0.002535 0.000000 0.000000 0.000000
# 2 -0.002115 0.020391 -0.000457 0.000000 0.000000 0.000000
# 3 -0.002535 -0.000457 0.007332 0.000000 0.000000 0.000000
# 4 0.000000 0.000000 0.000000 0.041611 0.000000 0.000000
# 5 0.000000 0.000000 0.000000 0.000000 0.037000 0.000000
# 6 0.000000 0.000000 0.000000 0.000000 0.000000 0.052333
#
#
# Mechanical properties :
#
#
# Convention : Reuss Voigt Hill
#
# Bulk Modulus (GPa) = 40.85751 62.13364 51.49557
# Shear Modulus (GPa) = 27.17316 33.44140 30.30728
#
# Velocity S-wave (km/s) = 3.58317 3.97502 3.78417
# Velocity P-wave (km/s) = 6.03520 7.10108 6.58972
#
# Compressibility (1/GPa) = 0.02447531
#
# Stress axis : x y z
#
# Youngs Moduli (GPa) = 143.54714 49.04194 136.39168
#
# Poissons Ratio (x) = 0.10372 0.34572
# Poissons Ratio (y) = 0.30358 0.06236
# Poissons Ratio (z) = 0.36385 0.02242
#
# Static dielectric constant tensor:
#      x y z
#    x 4.136060 0.000000 0.000000 
#    y 0.000000 3.670200 0.000000 
#    z 0.000000 0.000000 3.881710 
# 
# 
# High freq. dielectric constant tensor:
#      x y z
#    x 1.843960 0.000000 0.000000 
#    y 0.000000 1.814220 0.000000 
#    z 0.000000 0.000000 1.818400 
# 
# From -- ./inp_files/22519.got.cif
#   From: 2010.03.12/outbox.cif.g09.slc.cpg/sg53_12_cif.got.tgz:22519.got - 2010.04.16 14:36:59.
