data_PCOD8221005
_publ_section_title
;
Structure prediction by ZEFSAII (Michael W. Deem and Ramdas Pophale) SiO2 
 PCOD8221005
Probable space group: P M N A
;
_chemical_formula_sum "Si O2"
_cell_formula_units_Z 48
_cell_length_a 15.307126
_cell_length_b 10.318260
_cell_length_c 15.058474
_cell_angle_alpha 90.000000
_cell_angle_beta 90.000000
_cell_angle_gamma 90.000000
_cell_volume 2378.379142
_symmetry_space_group_name_H-M "P M N A"
_symmetry_group_IT_number 53
_symmetry_cell_setting 'orthorhombic'
loop_
_space_group_symop_operation_xyz
x,y,z
1/2-x,-y,1/2+z
x,-y,-z
1/2-x,y,1/2-z
-x,-y,-z
1/2+x,y,1/2-z
-x,y,z
1/2+x,-y,1/2+z
loop_
_atom_site_type_symbol
_atom_site_label
_atom_site_fract_x
_atom_site_fract_y
_atom_site_fract_z
Si Si1 0.343570 0.384790 0.065773
Si Si2 0.351679 0.194745 0.770052
Si Si3 0.600917 0.135411 0.964964
Si Si4 0.138220 0.604965 0.927499
Si Si5 0.000000 0.184011 0.044674
Si Si6 0.853387 0.512593 0.254802
Si Si7 0.000000 0.929234 0.151383
O O1 0.240193 0.364802 0.068446
O O2 0.382421 0.426080 0.161186
O O3 0.370040 0.500000 0.000000
O O4 0.385417 0.249661 0.036271
O O5 0.250000 0.176778 0.750000
O O6 0.352243 0.163477 0.873382
O O7 0.388065 0.340654 0.759115
O O8 0.413004 0.103505 0.708934
O O9 0.500000 0.118154 0.944395
O O10 0.640436 0.000000 0.000000
O O11 0.088776 0.737070 0.945043
O O12 0.107121 0.552444 0.832369
O O13 0.110302 0.500000 0.000000
O O14 0.000000 0.079966 0.124525
O O15 0.000000 0.139124 0.943423
O O16 0.750000 0.519381 0.250000
#
# Coordination Sequence:
#
# PCOD8221005 Si02
#       7
#     8   8   8   8   4   8   4
#     4  10  20  39  65  95 128 163 221 271 314 389
#     4  11  23  43  70  93 125 170 214 262 330 387
#     4  11  25  44  63  92 133 171 213 272 327 387
#     4  10  21  38  64  95 130 164 211 270 328 381
#     4  11  25  42  60  92 135 168 211 265 326 376
#     4   9  19  37  64  97 127 163 211 273 326 379
#     4  11  26  44  63  93 131 170 223 265 303 410
#
# _framework density 20.181812000000001
#
# number of rings (size 3 to 8) (size 9 to 14) (size 15 to 20)
#    0.000    1.667    2.500    1.250    4.667    3.667 
#    3.000    1.667    0.000    0.000    0.000    0.000 
#    0.000    0.000    0.000    0.000    0.000    0.000 
#
# Total GULP energy -595178.284067 kJ/mol
# GULP energy per Si atom -12399.547585 kJ/mol
# Density = 2.013588 g / cm^3
# Si number density = 20.181812 Si / 1000 Ang^3
#
#
#
# Elastic Constant Matrix: (Units=GPa)
#
#
# Indices 1 2 3 4 5 6 
#
# 1 65.3308 25.1397 22.3797 0.0000 0.0000 0.0000
# 2 25.1397 120.6982 42.0534 0.0000 0.0000 0.0000
# 3 22.3797 42.0534 144.9372 0.0000 0.0000 0.0000
# 4 0.0000 0.0000 0.0000 33.2210 0.0000 0.0000
# 5 0.0000 0.0000 0.0000 0.0000 -36.9757 0.0000
# 6 0.0000 0.0000 0.0000 0.0000 0.0000 35.2759
#
#
#
# Elastic Compliance Matrix: (Units=1/GPa)
#
#
# Indices 1 2 3 4 5 6 
#
# 1 0.017044 -0.002929 -0.001782 0.000000 0.000000 0.000000
# 2 -0.002929 0.009720 -0.002368 0.000000 0.000000 0.000000
# 3 -0.001782 -0.002368 0.007862 0.000000 0.000000 0.000000
# 4 0.000000 0.000000 0.000000 0.030101 0.000000 0.000000
# 5 0.000000 0.000000 0.000000 0.000000 -0.027045 0.000000
# 6 0.000000 0.000000 0.000000 0.000000 0.000000 0.028348
#
#
# Mechanical properties :
#
#
# Convention : Reuss Voigt Hill
#
# Bulk Modulus (GPa) = 48.85663 56.67907 52.76785
# Shear Modulus (GPa) = 57.46328 22.39712 39.93020
#
# Velocity S-wave (km/s) = 5.34178 3.33493 4.45289
# Velocity P-wave (km/s) = 7.89348 6.55547 7.25538
#
# Compressibility (1/GPa) = 0.02046805
#
# Stress axis : x y z
#
# Youngs Moduli (GPa) = 58.67065 102.87738 127.19790
#
# Poissons Ratio (x) = 0.30135 0.22665
# Poissons Ratio (y) = 0.17186 0.30121
# Poissons Ratio (z) = 0.10454 0.24362
#
# Static dielectric constant tensor:
#      x y z
#    x 3.463860 0.000000 0.000000 
#    y 0.000000 3.797280 0.000000 
#    z 0.000000 0.000000 3.960460 
# 
# 
# High freq. dielectric constant tensor:
#      x y z
#    x 1.784240 0.000000 0.000000 
#    y 0.000000 1.787400 0.000000 
#    z 0.000000 0.000000 1.807030 
# 
# From -- ./inp_files/23704.got.cif
#   From: 2010.03.12/outbox.cif.g09.slc.cpg/sg53_12_cif.got.tgz:23704.got - 2010.04.16 14:36:59.
