data_PCOD8221523
_publ_section_title
;
Structure prediction by ZEFSAII (Michael W. Deem and Ramdas Pophale) SiO2 
 PCOD8221523
Probable space group: P M N A
;
_chemical_formula_sum "Si O2"
_cell_formula_units_Z 28
_cell_length_a 21.269089
_cell_length_b 12.642577
_cell_length_c 4.927230
_cell_angle_alpha 90.000000
_cell_angle_beta 90.000000
_cell_angle_gamma 90.000000
_cell_volume 1324.912908
_symmetry_space_group_name_H-M "P M N A"
_symmetry_group_IT_number 53
_symmetry_cell_setting 'orthorhombic'
loop_
_space_group_symop_operation_xyz
x,y,z
1/2-x,-y,1/2+z
x,-y,-z
1/2-x,y,1/2-z
-x,-y,-z
1/2+x,y,1/2-z
-x,y,z
1/2+x,-y,1/2+z
loop_
_atom_site_type_symbol
_atom_site_label
_atom_site_fract_x
_atom_site_fract_y
_atom_site_fract_z
Si Si1 0.930348 0.929139 0.258231
Si Si2 0.500000 0.423503 0.751150
Si Si3 0.122486 0.707123 0.153248
Si Si4 0.181562 0.388876 0.375783
O O1 0.886715 0.832689 0.161619
O O2 0.000000 0.889595 0.352819
O O3 0.899708 0.000000 0.500000
O O4 0.938373 0.000000 0.000000
O O5 0.500000 0.500000 0.500000
O O6 0.439564 0.348735 0.764469
O O7 0.500000 0.500000 0.000000
O O8 0.180136 0.687751 0.363348
O O9 0.136713 0.659951 0.855801
O O10 0.156547 0.500000 0.500000
O O11 0.250000 0.403872 0.250000
#
# Coordination Sequence:
#
# PCOD8221523 Si02
#       4
#     8   4   8   8
#     4  10  21  39  64  92 125 162 208 256 313 387
#     4  12  24  36  56  92 130 158 188 248 325 378
#     4  12  23  41  64  93 127 163 207 263 318 375
#     4  12  25  42  65  89 125 172 221 255 299 375
#
# _framework density 21.133465000000001
#
# number of rings (size 3 to 8) (size 9 to 14) (size 15 to 20)
#    0.000    0.571    1.429    9.429    0.000    0.000 
#    0.000    0.000    0.000   17.143    0.000    0.000 
#    0.000    0.000    0.000    0.000    0.000    0.000 
#
# Total GULP energy -347065.020150 kJ/mol
# GULP energy per Si atom -12395.179291 kJ/mol
# Density = 2.108536 g / cm^3
# Si number density = 21.133465 Si / 1000 Ang^3
#
#
#
# Elastic Constant Matrix: (Units=GPa)
#
#
# Indices 1 2 3 4 5 6 
#
# 1 48.6369 43.6314 24.2495 0.0000 0.0000 0.0000
# 2 43.6314 154.8406 65.8597 0.0000 0.0000 0.0000
# 3 24.2495 65.8597 152.6915 0.0000 0.0000 0.0000
# 4 0.0000 0.0000 0.0000 41.0445 0.0000 0.0000
# 5 0.0000 0.0000 0.0000 0.0000 43.1450 0.0000
# 6 0.0000 0.0000 0.0000 0.0000 0.0000 27.8837
#
#
#
# Elastic Compliance Matrix: (Units=1/GPa)
#
#
# Indices 1 2 3 4 5 6 
#
# 1 0.027714 -0.007271 -0.001265 0.000000 0.000000 0.000000
# 2 -0.007271 0.009817 -0.003080 0.000000 0.000000 0.000000
# 3 -0.001265 -0.003080 0.008078 0.000000 0.000000 0.000000
# 4 0.000000 0.000000 0.000000 0.024364 0.000000 0.000000
# 5 0.000000 0.000000 0.000000 0.000000 0.023178 0.000000
# 6 0.000000 0.000000 0.000000 0.000000 0.000000 0.035863
#
#
# Mechanical properties :
#
#
# Convention : Reuss Voigt Hill
#
# Bulk Modulus (GPa) = 44.68727 69.29445 56.99086
# Shear Modulus (GPa) = 31.30762 37.24320 34.27541
#
# Velocity S-wave (km/s) = 3.85310 4.20251 4.03159
# Velocity P-wave (km/s) = 6.40206 7.51055 6.97835
#
# Compressibility (1/GPa) = 0.02237774
#
# Stress axis : x y z
#
# Youngs Moduli (GPa) = 36.08248 101.86367 123.78754
#
# Poissons Ratio (x) = 0.74068 0.15660
# Poissons Ratio (y) = 0.26237 0.38121
# Poissons Ratio (z) = 0.04565 0.31369
#
# Static dielectric constant tensor:
#      x y z
#    x 3.692900 0.000000 0.000000 
#    y 0.000000 3.734290 0.000000 
#    z 0.000000 0.000000 4.015730 
# 
# 
# High freq. dielectric constant tensor:
#      x y z
#    x 1.806310 0.000000 0.000000 
#    y 0.000000 1.827990 0.000000 
#    z 0.000000 0.000000 1.854180 
# 
# From -- ./inp_files/2549.got.cif
#   From: 2010.03.12/outbox.cif.g09.slc.cpg/sg53_2_cif.got.tgz:2549.got - 2010.04.16 14:36:59.
