data_PCOD8221974
_publ_section_title
;
Structure prediction by ZEFSAII (Michael W. Deem and Ramdas Pophale) SiO2 
 PCOD8221974
Probable space group: P M N A
;
_chemical_formula_sum "Si O2"
_cell_formula_units_Z 64
_cell_length_a 8.910489
_cell_length_b 17.211468
_cell_length_c 26.625921
_cell_angle_alpha 90.000000
_cell_angle_beta 90.000000
_cell_angle_gamma 90.000000
_cell_volume 4083.420373
_symmetry_space_group_name_H-M "P M N A"
_symmetry_group_IT_number 53
_symmetry_cell_setting 'orthorhombic'
loop_
_space_group_symop_operation_xyz
x,y,z
1/2-x,-y,1/2+z
x,-y,-z
1/2-x,y,1/2-z
-x,-y,-z
1/2+x,y,1/2-z
-x,y,z
1/2+x,-y,1/2+z
loop_
_atom_site_type_symbol
_atom_site_label
_atom_site_fract_x
_atom_site_fract_y
_atom_site_fract_z
Si Si1 0.176667 0.326667 0.964169
Si Si2 0.174377 0.356973 0.430623
Si Si3 0.671957 0.918142 0.802590
Si Si4 0.672100 0.795014 0.880142
Si Si5 0.326043 0.981196 0.104628
Si Si6 0.333460 0.522903 0.057951
Si Si7 0.673088 0.827758 0.056213
Si Si8 0.176026 0.897338 0.959871
O O1 0.225473 0.403705 0.933321
O O2 0.235348 0.251281 0.934177
O O3 0.000000 0.323705 0.966783
O O4 0.238876 0.325243 0.020739
O O5 0.199523 0.298138 0.383709
O O6 0.226425 0.444193 0.414114
O O7 0.000000 0.361762 0.446408
O O8 0.750000 0.928953 0.750000
O O9 0.500000 0.932539 0.791398
O O10 0.700839 0.830904 0.824764
O O11 0.729785 0.983355 0.842242
O O12 0.500000 0.814206 0.896254
O O13 0.789307 0.834424 0.917237
O O14 0.500000 0.004353 0.096181
O O15 0.305732 0.887559 0.103120
O O16 0.228732 0.018200 0.059387
O O17 0.500000 0.545756 0.076748
O O18 0.335727 0.500000 0.000000
O O19 0.500000 0.805282 0.048511
O O20 0.730847 0.873664 0.008186
O O21 0.000000 0.898372 0.972165
#
# Coordination Sequence:
#
# PCOD8221974 Si02
#       8
#     8   8   8   8   8   8   8   8
#     4  11  20  27  38  60  88 117 147 183 224 255
#     4   9  16  28  45  60  80 115 154 185 209 247
#     4   9  18  33  50  68  87 110 141 177 221 267
#     4   9  17  30  47  64  86 118 152 180 211 259
#     4   9  20  35  48  61  80 113 151 179 212 264
#     4   8  15  27  41  57  78 112 154 182 208 248
#     4  11  20  31  45  58  81 118 154 184 213 252
#     4  11  20  28  41  64  90 113 141 181 223 258
#
# _framework density 15.673135
#
# number of rings (size 3 to 8) (size 9 to 14) (size 15 to 20)
#    0.000    2.375    1.250    4.500    0.000    6.750 
#    0.000    0.000    0.000    0.000    0.000    0.000 
#    0.000    1.000    0.000    3.750    0.000    2.875 
#
# Total GULP energy -793077.567712 kJ/mol
# GULP energy per Si atom -12391.836995 kJ/mol
# Density = 1.563746 g / cm^3
# Si number density = 15.673135 Si / 1000 Ang^3
#
#
#
# Elastic Constant Matrix: (Units=GPa)
#
#
# Indices 1 2 3 4 5 6 
#
# 1 67.6653 41.0590 15.4260 0.0000 0.0000 0.0000
# 2 41.0590 139.8340 37.7829 0.0000 0.0000 0.0000
# 3 15.4260 37.7829 45.1072 0.0000 0.0000 0.0000
# 4 0.0000 0.0000 0.0000 13.0542 0.0000 0.0000
# 5 0.0000 0.0000 0.0000 0.0000 16.7511 0.0000
# 6 0.0000 0.0000 0.0000 0.0000 0.0000 15.5478
#
#
#
# Elastic Compliance Matrix: (Units=1/GPa)
#
#
# Indices 1 2 3 4 5 6 
#
# 1 0.018158 -0.004723 -0.002254 0.000000 0.000000 0.000000
# 2 -0.004723 0.010472 -0.007156 0.000000 0.000000 0.000000
# 3 -0.002254 -0.007156 0.028934 0.000000 0.000000 0.000000
# 4 0.000000 0.000000 0.000000 0.076603 0.000000 0.000000
# 5 0.000000 0.000000 0.000000 0.000000 0.059698 0.000000
# 6 0.000000 0.000000 0.000000 0.000000 0.000000 0.064318
#
#
# Mechanical properties :
#
#
# Convention : Reuss Voigt Hill
#
# Bulk Modulus (GPa) = 34.13145 49.01581 41.57363
# Shear Modulus (GPa) = 16.87963 19.62654 18.25308
#
# Velocity S-wave (km/s) = 3.28530 3.54254 3.41634
# Velocity P-wave (km/s) = 6.01791 6.93357 6.49190
#
# Compressibility (1/GPa) = 0.02929849
#
# Stress axis : x y z
#
# Youngs Moduli (GPa) = 55.07160 95.49595 34.56087
#
# Poissons Ratio (x) = 0.45100 0.07790
# Poissons Ratio (y) = 0.26009 0.24733
# Poissons Ratio (z) = 0.12413 0.68339
#
# Static dielectric constant tensor:
#      x y z
#    x 2.950420 0.000000 0.000000 
#    y 0.000000 3.487370 0.000000 
#    z 0.000000 0.000000 2.592290 
# 
# 
# High freq. dielectric constant tensor:
#      x y z
#    x 1.602620 0.000000 0.000000 
#    y 0.000000 1.615320 0.000000 
#    z 0.000000 0.000000 1.532940 
# 
# From -- ./inp_files/36479.got.cif
#   From: 2010.03.12/outbox.cif.g09.slc.cpg/sg53_19_cif.got.tgz:36479.got - 2010.04.16 14:36:59.
