data_PCOD8221891
_publ_section_title
;
Structure prediction by ZEFSAII (Michael W. Deem and Ramdas Pophale) SiO2 
 PCOD8221891
Probable space group: P M N A
;
_chemical_formula_sum "Si O2"
_cell_formula_units_Z 40
_cell_length_a 17.753839
_cell_length_b 5.348237
_cell_length_c 17.527051
_cell_angle_alpha 90.000000
_cell_angle_beta 90.000000
_cell_angle_gamma 90.000000
_cell_volume 1664.223966
_symmetry_space_group_name_H-M "P M N A"
_symmetry_group_IT_number 53
_symmetry_cell_setting 'orthorhombic'
loop_
_space_group_symop_operation_xyz
x,y,z
1/2-x,-y,1/2+z
x,-y,-z
1/2-x,y,1/2-z
-x,-y,-z
1/2+x,y,1/2-z
-x,y,z
1/2+x,-y,1/2+z
loop_
_atom_site_type_symbol
_atom_site_label
_atom_site_fract_x
_atom_site_fract_y
_atom_site_fract_z
Si Si1 0.581338 0.274231 0.277871
Si Si2 0.699329 0.642750 0.313900
Si Si3 0.329305 0.480581 0.087537
Si Si4 0.584373 0.049128 0.586394
Si Si5 0.413567 0.983216 0.135717
O O1 0.500000 0.390935 0.254609
O O2 0.645575 0.473830 0.260172
O O3 0.594223 0.021691 0.227822
O O4 0.580631 0.211295 0.367854
O O5 0.750000 0.793063 0.250000
O O6 0.752193 0.463244 0.364561
O O7 0.649894 0.798687 0.372537
O O8 0.378537 0.231465 0.097672
O O9 0.373105 0.731523 0.111400
O O10 0.306142 0.500000 0.000000
O O11 0.500000 0.174678 0.588819
O O12 0.609357 0.000000 0.500000
O O13 0.500000 0.965191 0.109509
#
# Coordination Sequence:
#
# PCOD8221891 Si02
#       5
#     8   8   8   8   8
#     4  10  23  43  71 102 138 189 248 300 359 443
#     4  12  25  43  70 101 146 193 240 307 379 454
#     4  12  28  45  72 111 147 191 240 306 376 439
#     4  10  24  44  71 104 142 193 250 310 377 448
#     4  11  25  49  76 105 144 196 250 299 359 444
#
# _framework density 24.035228
#
# number of rings (size 3 to 8) (size 9 to 14) (size 15 to 20)
#    0.000    1.000    2.000    3.000    5.600    3.200 
#    0.000    3.000    0.000    0.000    0.000    0.000 
#    0.000    0.000    0.000    0.000    0.000    0.000 
#
# Total GULP energy -495747.503886 kJ/mol
# GULP energy per Si atom -12393.687597 kJ/mol
# Density = 2.398052 g / cm^3
# Si number density = 24.035228 Si / 1000 Ang^3
#
#
#
# Elastic Constant Matrix: (Units=GPa)
#
#
# Indices 1 2 3 4 5 6 
#
# 1 164.5552 49.4409 47.6419 0.0000 0.0000 0.0000
# 2 49.4409 85.7328 -2.7290 0.0000 0.0000 0.0000
# 3 47.6419 -2.7290 126.3628 0.0000 0.0000 0.0000
# 4 0.0000 0.0000 0.0000 16.6862 0.0000 0.0000
# 5 0.0000 0.0000 0.0000 0.0000 23.2946 0.0000
# 6 0.0000 0.0000 0.0000 0.0000 0.0000 -881.1762
#
#
#
# Elastic Compliance Matrix: (Units=1/GPa)
#
#
# Indices 1 2 3 4 5 6 
#
# 1 0.008557 -0.005041 -0.003335 0.000000 0.000000 0.000000
# 2 -0.005041 0.014642 0.002217 0.000000 0.000000 0.000000
# 3 -0.003335 0.002217 0.009219 0.000000 0.000000 0.000000
# 4 0.000000 0.000000 0.000000 0.059930 0.000000 0.000000
# 5 0.000000 0.000000 0.000000 0.000000 0.042928 0.000000
# 6 0.000000 0.000000 0.000000 0.000000 0.000000 -0.001135
#
#
# Mechanical properties :
#
#
# Convention : Reuss Voigt Hill
#
# Bulk Modulus (GPa) = 49.75289 62.81760 56.28524
# Shear Modulus (GPa) = 32.64571 -149.41927 -58.38678
#
# Velocity S-wave (km/s) = 3.68943 -7.89314 -4.93406
# Velocity P-wave (km/s) = 6.23652 7.54166 2.99854
#
# Compressibility (1/GPa) = 0.02009934
#
# Stress axis : x y z
#
# Youngs Moduli (GPa) = 116.86162 68.29783 108.47137
#
# Poissons Ratio (x) = 0.34429 0.36176
# Poissons Ratio (y) = 0.58909 -0.24046
# Poissons Ratio (z) = 0.38975 -0.15140
#
# Static dielectric constant tensor:
#      x y z
#    x 4.708300 0.000000 0.000000 
#    y 0.000000 3.946400 0.000000 
#    z 0.000000 0.000000 4.673950 
# 
# 
# High freq. dielectric constant tensor:
#      x y z
#    x 1.979500 0.000000 0.000000 
#    y 0.000000 1.924990 0.000000 
#    z 0.000000 0.000000 1.971190 
# 
# From -- ./inp_files/28746.got.cif
#   From: 2010.03.12/outbox.cif.g09.slc.cpg/sg53_15_cif.got.tgz:28746.got - 2010.04.16 14:36:59.
