data_PCOD8221907
_publ_section_title
;
Structure prediction by ZEFSAII (Michael W. Deem and Ramdas Pophale) SiO2 
 PCOD8221907
Probable space group: P M N A
;
_chemical_formula_sum "Si O2"
_cell_formula_units_Z 48
_cell_length_a 8.626733
_cell_length_b 16.665602
_cell_length_c 15.731760
_cell_angle_alpha 90.000000
_cell_angle_beta 90.000000
_cell_angle_gamma 90.000000
_cell_volume 2261.750396
_symmetry_space_group_name_H-M "P M N A"
_symmetry_group_IT_number 53
_symmetry_cell_setting 'orthorhombic'
loop_
_space_group_symop_operation_xyz
x,y,z
1/2-x,-y,1/2+z
x,-y,-z
1/2-x,y,1/2-z
-x,-y,-z
1/2+x,y,1/2-z
-x,y,z
1/2+x,-y,1/2+z
loop_
_atom_site_type_symbol
_atom_site_label
_atom_site_fract_x
_atom_site_fract_y
_atom_site_fract_z
Si Si1 0.183103 0.309978 0.838074
Si Si2 0.682344 0.158717 0.918269
Si Si3 0.682400 0.678512 0.835246
Si Si4 0.682988 0.993813 0.340819
Si Si5 0.321020 0.594155 0.504542
Si Si6 0.182951 0.167031 0.097134
O O1 0.250000 0.345844 0.750000
O O2 0.251171 0.220740 0.849522
O O3 0.000000 0.305131 0.831703
O O4 0.235884 0.366962 0.915862
O O5 0.500000 0.153009 0.907580
O O6 0.756462 0.070876 0.908019
O O7 0.729199 0.190116 0.010785
O O8 0.750000 0.635839 0.750000
O O9 0.500000 0.690079 0.827857
O O10 0.719943 0.626231 0.917788
O O11 0.767271 0.764883 0.836994
O O12 0.750000 0.970478 0.250000
O O13 0.500000 0.990827 0.337463
O O14 0.741773 0.081468 0.368469
O O15 0.294537 0.500000 0.500000
O O16 0.500000 0.616518 0.521451
O O17 0.000000 0.167405 0.080886
#
# Coordination Sequence:
#
# PCOD8221907 Si02
#       6
#     8   8   8   8   8   8
#     4  11  23  41  67  95 132 172 216 268 322 387
#     4  12  24  39  62  91 126 167 216 266 322 385
#     4  12  25  42  68  99 134 176 220 269 325 389
#     4  11  24  40  59  86 123 166 215 268 322 378
#     4  10  23  45  71  99 133 172 213 267 329 390
#     4  11  23  41  64  91 126 168 216 269 325 384
#
# _framework density 21.2225
#
# number of rings (size 3 to 8) (size 9 to 14) (size 15 to 20)
#    0.000    0.833    1.667    6.000    0.000    7.667 
#    0.000    1.667    0.000    0.000    0.000    0.000 
#    0.000    0.000    0.000    0.000    0.000    0.000 
#
# Total GULP energy -595549.200714 kJ/mol
# GULP energy per Si atom -12407.275015 kJ/mol
# Density = 2.117420 g / cm^3
# Si number density = 21.222500 Si / 1000 Ang^3
#
#
#
# Elastic Constant Matrix: (Units=GPa)
#
#
# Indices 1 2 3 4 5 6 
#
# 1 94.3630 36.0330 39.8497 0.0000 0.0000 0.0000
# 2 36.0330 99.2944 35.0814 0.0000 0.0000 0.0000
# 3 39.8497 35.0814 135.3897 0.0000 0.0000 0.0000
# 4 0.0000 0.0000 0.0000 19.3382 0.0000 0.0000
# 5 0.0000 0.0000 0.0000 0.0000 37.3071 0.0000
# 6 0.0000 0.0000 0.0000 0.0000 0.0000 16.1309
#
#
#
# Elastic Compliance Matrix: (Units=1/GPa)
#
#
# Indices 1 2 3 4 5 6 
#
# 1 0.013279 -0.003784 -0.002928 0.000000 0.000000 0.000000
# 2 -0.003784 0.012164 -0.002038 0.000000 0.000000 0.000000
# 3 -0.002928 -0.002038 0.008776 0.000000 0.000000 0.000000
# 4 0.000000 0.000000 0.000000 0.051711 0.000000 0.000000
# 5 0.000000 0.000000 0.000000 0.000000 0.026805 0.000000
# 6 0.000000 0.000000 0.000000 0.000000 0.000000 0.061993
#
#
# Mechanical properties :
#
#
# Convention : Reuss Voigt Hill
#
# Bulk Modulus (GPa) = 59.81342 61.21948 60.51645
# Shear Modulus (GPa) = 25.27792 29.09411 27.18601
#
# Velocity S-wave (km/s) = 3.45496 3.70660 3.58299
# Velocity P-wave (km/s) = 6.64536 6.87223 6.75975
#
# Compressibility (1/GPa) = 0.01671866
#
# Stress axis : x y z
#
# Youngs Moduli (GPa) = 75.30753 82.20671 113.94774
#
# Poissons Ratio (x) = 0.31110 0.33362
# Poissons Ratio (y) = 0.28499 0.23224
# Poissons Ratio (z) = 0.22049 0.16755
#
# Static dielectric constant tensor:
#      x y z
#    x 3.755020 0.000000 0.000000 
#    y 0.000000 3.904910 0.000000 
#    z 0.000000 0.000000 3.988170 
# 
# 
# High freq. dielectric constant tensor:
#      x y z
#    x 1.836160 0.000000 0.000000 
#    y 0.000000 1.830180 0.000000 
#    z 0.000000 0.000000 1.847950 
# 
# From -- ./inp_files/20192.got.cif
#   From: 2010.03.12/outbox.cif.g09.slc.cpg/sg53_11_cif.got.tgz:20192.got - 2010.04.16 14:36:59.
