data_PCOD8221181
_publ_section_title
;
Structure prediction by ZEFSAII (Michael W. Deem and Ramdas Pophale) SiO2 
 PCOD8221181
Probable space group: P M N A
;
_chemical_formula_sum "Si O2"
_cell_formula_units_Z 32
_cell_length_a 8.749678
_cell_length_b 20.508387
_cell_length_c 9.161521
_cell_angle_alpha 90.000000
_cell_angle_beta 90.000000
_cell_angle_gamma 90.000000
_cell_volume 1643.959659
_symmetry_space_group_name_H-M "P M N A"
_symmetry_group_IT_number 53
_symmetry_cell_setting 'orthorhombic'
loop_
_space_group_symop_operation_xyz
x,y,z
1/2-x,-y,1/2+z
x,-y,-z
1/2-x,y,1/2-z
-x,-y,-z
1/2+x,y,1/2-z
-x,y,z
1/2+x,-y,1/2+z
loop_
_atom_site_type_symbol
_atom_site_label
_atom_site_fract_x
_atom_site_fract_y
_atom_site_fract_z
Si Si1 0.820665 0.320736 0.409090
Si Si2 0.680766 0.938262 0.406973
Si Si3 0.179740 0.804990 0.407454
Si Si4 0.178583 0.564020 0.092460
O O1 0.750000 0.326661 0.250000
O O2 0.779122 0.250928 0.477443
O O3 0.753856 0.374810 0.514920
O O4 0.000000 0.331547 0.395949
O O5 0.750000 0.950199 0.250000
O O6 0.500000 0.931439 0.398701
O O7 0.749743 0.871585 0.473170
O O8 0.733418 0.000000 0.500000
O O9 0.250000 0.787743 0.250000
O O10 0.000000 0.813422 0.386382
O O11 0.250000 0.553483 0.250000
O O12 0.000000 0.577402 0.108807
O O13 0.214231 0.500000 0.000000
#
# Coordination Sequence:
#
# PCOD8221181 Si02
#       4
#     8   8   8   8
#     4  11  24  40  60  87 118 153 193 238 288 341
#     4  10  21  36  56  82 111 146 187 231 281 337
#     4  10  21  37  58  83 111 147 189 233 283 338
#     4  11  24  41  63  90 120 155 194 237 285 339
#
# _framework density 19.465198000000001
#
# number of rings (size 3 to 8) (size 9 to 14) (size 15 to 20)
#    0.000    1.500    0.000    6.000    0.000   13.000 
#    0.000    5.000    0.000    0.000    0.000    0.000 
#    0.000    0.000    0.000    0.000    0.000    0.000 
#
# Total GULP energy -396920.129860 kJ/mol
# GULP energy per Si atom -12403.754058 kJ/mol
# Density = 1.942089 g / cm^3
# Si number density = 19.465198 Si / 1000 Ang^3
#
#
#
# Elastic Constant Matrix: (Units=GPa)
#
#
# Indices 1 2 3 4 5 6 
#
# 1 112.8189 85.6086 63.0273 0.0000 0.0000 0.0000
# 2 85.6086 152.0204 75.8615 0.0000 0.0000 0.0000
# 3 63.0273 75.8615 122.8402 0.0000 0.0000 0.0000
# 4 0.0000 0.0000 0.0000 -12.9090 0.0000 0.0000
# 5 0.0000 0.0000 0.0000 0.0000 24.1449 0.0000
# 6 0.0000 0.0000 0.0000 0.0000 0.0000 34.9129
#
#
#
# Elastic Compliance Matrix: (Units=1/GPa)
#
#
# Indices 1 2 3 4 5 6 
#
# 1 0.016734 -0.007428 -0.003999 0.000000 0.000000 0.000000
# 2 -0.007428 0.012806 -0.004097 0.000000 0.000000 0.000000
# 3 -0.003999 -0.004097 0.012722 0.000000 0.000000 0.000000
# 4 0.000000 0.000000 0.000000 -0.077466 0.000000 0.000000
# 5 0.000000 0.000000 0.000000 0.000000 0.041417 0.000000
# 6 0.000000 0.000000 0.000000 0.000000 0.000000 0.028643
#
#
# Mechanical properties :
#
#
# Convention : Reuss Voigt Hill
#
# Bulk Modulus (GPa) = 89.16969 92.96383 91.06676
# Shear Modulus (GPa) = 71.79519 20.10858 45.95188
#
# Velocity S-wave (km/s) = 6.07980 3.21760 4.86400
# Velocity P-wave (km/s) = 9.75677 7.85281 8.85610
#
# Compressibility (1/GPa) = 0.01121457
#
# Stress axis : x y z
#
# Youngs Moduli (GPa) = 59.75711 78.08997 78.60118
#
# Poissons Ratio (x) = 0.58008 0.31430
# Poissons Ratio (y) = 0.44390 0.32203
# Poissons Ratio (z) = 0.23895 0.31993
#
# Static dielectric constant tensor:
#      x y z
#    x 3.752410 0.000000 0.000000 
#    y 0.000000 3.988200 0.000000 
#    z 0.000000 0.000000 3.489990 
# 
# 
# High freq. dielectric constant tensor:
#      x y z
#    x 1.777570 0.000000 0.000000 
#    y 0.000000 1.778400 0.000000 
#    z 0.000000 0.000000 1.760260 
# 
# From -- ./inp_files/6026.got.cif
#   From: 2010.03.12/outbox.cif.g09.slc.cpg/sg53_4_cif.got.tgz:6026.got - 2010.04.16 14:36:59.
