data_PCOD8221018
_publ_section_title
;
Structure prediction by ZEFSAII (Michael W. Deem and Ramdas Pophale) SiO2 
 PCOD8221018
Probable space group: P M N A
;
_chemical_formula_sum "Si O2"
_cell_formula_units_Z 48
_cell_length_a 8.885818
_cell_length_b 9.595684
_cell_length_c 29.226043
_cell_angle_alpha 90.000000
_cell_angle_beta 90.000000
_cell_angle_gamma 90.000000
_cell_volume 2491.973216
_symmetry_space_group_name_H-M "P M N A"
_symmetry_group_IT_number 53
_symmetry_cell_setting 'orthorhombic'
loop_
_space_group_symop_operation_xyz
x,y,z
1/2-x,-y,1/2+z
x,-y,-z
1/2-x,y,1/2-z
-x,-y,-z
1/2+x,y,1/2-z
-x,y,z
1/2+x,-y,1/2+z
loop_
_atom_site_type_symbol
_atom_site_label
_atom_site_fract_x
_atom_site_fract_y
_atom_site_fract_z
Si Si1 0.333311 0.860727 0.471652
Si Si2 0.822785 0.705371 0.878077
Si Si3 0.325713 0.636464 0.971961
Si Si4 0.823752 0.789337 0.297233
Si Si5 0.677709 0.528428 0.798061
Si Si6 0.824112 0.028384 0.873776
O O1 0.500000 0.790510 0.471538
O O2 0.209702 0.763521 0.494459
O O3 0.279980 0.895816 0.420686
O O4 0.344231 0.000000 0.500000
O O5 0.772658 0.640471 0.926207
O O6 0.740270 0.626923 0.837319
O O7 0.000000 0.684474 0.872898
O O8 0.776673 0.867129 0.876387
O O9 0.500000 0.640327 0.957973
O O10 0.282569 0.500000 0.000000
O O11 0.750000 0.836041 0.250000
O O12 0.777532 0.630981 0.309968
O O13 0.770198 0.896448 0.335101
O O14 0.000000 0.802555 0.291313
O O15 0.750000 0.574015 0.750000
O O16 0.500000 0.547535 0.794350
O O17 0.000000 0.042841 0.863147
#
# Coordination Sequence:
#
# PCOD8221018 Si02
#       6
#     8   8   8   8   8   8
#     4  10  20  40  63  86 118 157 200 243 289 348
#     4  11  23  41  63  88 119 158 201 245 296 353
#     4  11  25  41  58  87 124 158 198 248 296 351
#     4  10  22  40  63  89 120 154 195 242 294 352
#     4  10  22  41  63  90 121 155 197 244 295 353
#     4  10  22  39  61  89 120 154 197 244 292 350
#
# _framework density 19.261844
#
# number of rings (size 3 to 8) (size 9 to 14) (size 15 to 20)
#    0.000    1.667    1.667    2.000    2.333    6.333 
#    0.000    0.000    0.000    0.000    0.000    0.000 
#    0.000    0.000    0.000    0.000    0.000    0.000 
#
# Total GULP energy -595385.488180 kJ/mol
# GULP energy per Si atom -12403.864337 kJ/mol
# Density = 1.921800 g / cm^3
# Si number density = 19.261844 Si / 1000 Ang^3
#
#
#
# Elastic Constant Matrix: (Units=GPa)
#
#
# Indices 1 2 3 4 5 6 
#
# 1 68.8738 39.3460 53.2325 0.0000 0.0000 0.0000
# 2 39.3460 79.6931 57.5851 0.0000 0.0000 0.0000
# 3 53.2325 57.5851 144.5606 0.0000 0.0000 0.0000
# 4 0.0000 0.0000 0.0000 28.2923 0.0000 0.0000
# 5 0.0000 0.0000 0.0000 0.0000 41.2488 0.0000
# 6 0.0000 0.0000 0.0000 0.0000 0.0000 32.1054
#
#
#
# Elastic Compliance Matrix: (Units=1/GPa)
#
#
# Indices 1 2 3 4 5 6 
#
# 1 0.023003 -0.007353 -0.005542 0.000000 0.000000 0.000000
# 2 -0.007353 0.019970 -0.005247 0.000000 0.000000 0.000000
# 3 -0.005542 -0.005247 0.011048 0.000000 0.000000 0.000000
# 4 0.000000 0.000000 0.000000 0.035345 0.000000 0.000000
# 5 0.000000 0.000000 0.000000 0.000000 0.024243 0.000000
# 6 0.000000 0.000000 0.000000 0.000000 0.000000 0.031147
#
#
# Mechanical properties :
#
#
# Convention : Reuss Voigt Hill
#
# Bulk Modulus (GPa) = 56.37652 65.93939 61.15795
# Shear Modulus (GPa) = 26.74470 29.86025 28.30247
#
# Velocity S-wave (km/s) = 3.73027 3.94156 3.83737
# Velocity P-wave (km/s) = 6.91992 7.41769 7.17312
#
# Compressibility (1/GPa) = 0.01773788
#
# Stress axis : x y z
#
# Youngs Moduli (GPa) = 43.47300 50.07510 90.51074
#
# Poissons Ratio (x) = 0.36818 0.50157
# Poissons Ratio (y) = 0.31964 0.47495
# Poissons Ratio (z) = 0.24091 0.26277
#
# Static dielectric constant tensor:
#      x y z
#    x 3.559210 0.000000 0.000000 
#    y 0.000000 3.568660 0.000000 
#    z 0.000000 0.000000 2.898760 
# 
# 
# High freq. dielectric constant tensor:
#      x y z
#    x 1.756190 0.000000 0.000000 
#    y 0.000000 1.751550 0.000000 
#    z 0.000000 0.000000 1.763330 
# 
# From -- ./inp_files/37739.got.cif
#   From: 2010.03.12/outbox.cif.g09.slc.cpg/sg53_19_cif.got.tgz:37739.got - 2010.04.16 14:36:59.
