data_PCOD8221242
_publ_section_title
;
Structure prediction by ZEFSAII (Michael W. Deem and Ramdas Pophale) SiO2 
 PCOD8221242
Probable space group: P M N A
;
_chemical_formula_sum "Si O2"
_cell_formula_units_Z 64
_cell_length_a 14.638996
_cell_length_b 23.638286
_cell_length_c 8.951303
_cell_angle_alpha 90.000000
_cell_angle_beta 90.000000
_cell_angle_gamma 90.000000
_cell_volume 3097.515820
_symmetry_space_group_name_H-M "P M N A"
_symmetry_group_IT_number 53
_symmetry_cell_setting 'orthorhombic'
loop_
_space_group_symop_operation_xyz
x,y,z
1/2-x,-y,1/2+z
x,-y,-z
1/2-x,y,1/2-z
-x,-y,-z
1/2+x,y,1/2-z
-x,y,z
1/2+x,-y,1/2+z
loop_
_atom_site_type_symbol
_atom_site_label
_atom_site_fract_x
_atom_site_fract_y
_atom_site_fract_z
Si Si1 0.764344 0.556897 0.425920
Si Si2 0.106212 0.357588 0.422835
Si Si3 0.393547 0.844520 0.359560
Si Si4 0.892866 0.384680 0.081813
Si Si5 0.099043 0.736137 0.989566
Si Si6 0.395644 0.867803 0.019315
Si Si7 0.349628 0.761335 0.821119
Si Si8 0.264472 0.057011 0.577771
O O1 0.804951 0.500000 0.500000
O O2 0.750000 0.549804 0.250000
O O3 0.835751 0.607286 0.456816
O O4 0.666187 0.566638 0.505376
O O5 0.125499 0.383160 0.258743
O O6 0.138224 0.292094 0.431951
O O7 0.000000 0.362085 0.465910
O O8 0.500000 0.849351 0.402358
O O9 0.348166 0.785933 0.421691
O O10 0.376411 0.843752 0.183911
O O11 0.342746 0.895896 0.441464
O O12 0.000000 0.394122 0.048942
O O13 0.855005 0.325828 0.007940
O O14 0.000000 0.730519 0.065998
O O15 0.082043 0.753883 0.817273
O O16 0.500000 0.888543 0.001291
O O17 0.328729 0.921379 0.997351
O O18 0.373399 0.819040 0.903189
O O19 0.250000 0.763403 0.750000
O O20 0.250000 0.042903 0.750000
O O21 0.298504 0.000000 0.500000
#
# Coordination Sequence:
#
# PCOD8221242 Si02
#       8
#     8   8   8   8   8   8   8   8
#     4  12  26  42  61  85 117 156 203 254 299 351
#     4  10  21  40  64  89 121 158 195 239 294 355
#     4   9  19  36  57  82 115 151 187 235 294 352
#     4   9  19  38  63  89 120 156 192 238 295 353
#     4   9  17  32  55  84 115 144 179 222 273 335
#     4  10  21  37  56  81 116 154 187 228 288 351
#     4  11  20  33  58  89 120 150 185 229 280 339
#     4  10  22  38  54  75 105 144 195 247 293 344
#
# _framework density 20.661718
#
# number of rings (size 3 to 8) (size 9 to 14) (size 15 to 20)
#    0.000    2.000    0.000    5.250    0.000    4.000 
#    0.000    2.500    0.000    0.000    0.000    0.000 
#    0.000    0.000    0.000    0.000    0.000    0.000 
#
# Total GULP energy -793404.758276 kJ/mol
# GULP energy per Si atom -12396.949348 kJ/mol
# Density = 2.061469 g / cm^3
# Si number density = 20.661718 Si / 1000 Ang^3
#
#
#
# Elastic Constant Matrix: (Units=GPa)
#
#
# Indices 1 2 3 4 5 6 
#
# 1 80.4967 8.6726 10.7671 0.0000 0.0000 0.0000
# 2 8.6726 71.8474 19.8102 0.0000 0.0000 0.0000
# 3 10.7671 19.8102 51.7266 0.0000 0.0000 0.0000
# 4 0.0000 0.0000 0.0000 38.2443 0.0000 0.0000
# 5 0.0000 0.0000 0.0000 0.0000 18.7578 0.0000
# 6 0.0000 0.0000 0.0000 0.0000 0.0000 25.2874
#
#
#
# Elastic Compliance Matrix: (Units=1/GPa)
#
#
# Indices 1 2 3 4 5 6 
#
# 1 0.012831 -0.000908 -0.002323 0.000000 0.000000 0.000000
# 2 -0.000908 0.015626 -0.005795 0.000000 0.000000 0.000000
# 3 -0.002323 -0.005795 0.022035 0.000000 0.000000 0.000000
# 4 0.000000 0.000000 0.000000 0.026148 0.000000 0.000000
# 5 0.000000 0.000000 0.000000 0.000000 0.053311 0.000000
# 6 0.000000 0.000000 0.000000 0.000000 0.000000 0.039545
#
#
# Mechanical properties :
#
#
# Convention : Reuss Voigt Hill
#
# Bulk Modulus (GPa) = 30.82669 31.39672 31.11170
# Shear Modulus (GPa) = 25.20620 27.44594 26.32607
#
# Velocity S-wave (km/s) = 3.49656 3.64860 3.57339
# Velocity P-wave (km/s) = 5.59047 5.74268 5.66709
#
# Compressibility (1/GPa) = 0.03243943
#
# Stress axis : x y z
#
# Youngs Moduli (GPa) = 77.93342 63.99612 45.38140
#
# Poissons Ratio (x) = 0.05813 0.10542
# Poissons Ratio (y) = 0.07079 0.26300
# Poissons Ratio (z) = 0.18104 0.37088
#
# Static dielectric constant tensor:
#      x y z
#    x 3.847890 0.000000 0.000000 
#    y 0.000000 3.732670 0.000000 
#    z 0.000000 0.000000 3.627990 
# 
# 
# High freq. dielectric constant tensor:
#      x y z
#    x 1.814860 0.000000 0.000000 
#    y 0.000000 1.805200 0.000000 
#    z 0.000000 0.000000 1.791390 
# 
# From -- ./inp_files/8934.got.cif
#   From: 2010.03.12/outbox.cif.g09.slc.cpg/sg53_5_cif.got.tgz:8934.got - 2010.04.16 14:36:59.
