data_PCOD8221838
_publ_section_title
;
Structure prediction by ZEFSAII (Michael W. Deem and Ramdas Pophale) SiO2 
 PCOD8221838
Probable space group: P M N A
;
_chemical_formula_sum "Si O2"
_cell_formula_units_Z 56
_cell_length_a 26.740106
_cell_length_b 5.045002
_cell_length_c 21.377267
_cell_angle_alpha 90.000000
_cell_angle_beta 90.000000
_cell_angle_gamma 90.000000
_cell_volume 2883.876438
_symmetry_space_group_name_H-M "P M N A"
_symmetry_group_IT_number 53
_symmetry_cell_setting 'orthorhombic'
loop_
_space_group_symop_operation_xyz
x,y,z
1/2-x,-y,1/2+z
x,-y,-z
1/2-x,y,1/2-z
-x,-y,-z
1/2+x,y,1/2-z
-x,y,z
1/2+x,-y,1/2+z
loop_
_atom_site_type_symbol
_atom_site_label
_atom_site_fract_x
_atom_site_fract_y
_atom_site_fract_z
Si Si1 0.690645 0.039729 0.111109
Si Si2 0.672958 0.277072 0.331681
Si Si3 0.613223 0.830031 0.785699
Si Si4 0.442404 0.669755 0.170991
Si Si5 0.102589 0.766584 0.460302
Si Si6 0.732031 0.222189 0.685984
Si Si7 0.783073 0.247941 0.043495
O O1 0.654109 0.904095 0.061437
O O2 0.722482 0.790736 0.137219
O O3 0.661133 0.188720 0.167676
O O4 0.728891 0.249878 0.079030
O O5 0.624613 0.240240 0.287331
O O6 0.688443 0.584477 0.336255
O O7 0.671077 0.210324 0.406122
O O8 0.712969 0.076058 0.301250
O O9 0.571595 0.625905 0.808911
O O10 0.590887 0.125020 0.789287
O O11 0.500000 0.721595 0.185738
O O12 0.433025 0.696377 0.097143
O O13 0.113447 0.500000 0.500000
O O14 0.075232 0.000000 0.500000
O O15 0.750000 0.351239 0.750000
O O16 0.789729 0.500000 0.000000
O O17 0.786432 0.000000 0.000000
#
# Coordination Sequence:
#
# PCOD8221838 Si02
#       7
#     8   8   8   8   8   8   8
#     4  10  23  36  56  81 115 155 201 243 273 318
#     4  11  23  37  56  82 114 151 197 231 282 336
#     4  11  23  40  62  87 112 145 193 244 298 348
#     4  11  25  43  63  86 112 141 182 249 315 357
#     4  11  24  39  56  80 110 153 201 237 277 337
#     4  11  21  33  52  81 115 147 188 239 280 323
#     4  11  24  38  52  78 119 163 196 229 268 321
#
# _framework density 19.418306000000001
#
# number of rings (size 3 to 8) (size 9 to 14) (size 15 to 20)
#    0.000    1.143    1.429    5.571    4.000    9.714 
#    0.000    0.000    0.000    0.000    0.000    0.000 
#    0.000   11.429    0.000    0.000    0.000    0.000 
#
# Total GULP energy -693939.584064 kJ/mol
# GULP energy per Si atom -12391.778287 kJ/mol
# Density = 1.937411 g / cm^3
# Si number density = 19.418306 Si / 1000 Ang^3
#
#
#
# Elastic Constant Matrix: (Units=GPa)
#
#
# Indices 1 2 3 4 5 6 
#
# 1 60.2684 15.5636 40.8273 0.0000 0.0000 0.0000
# 2 15.5636 87.1539 16.2916 0.0000 0.0000 0.0000
# 3 40.8273 16.2916 92.8125 0.0000 0.0000 0.0000
# 4 0.0000 0.0000 0.0000 24.0020 0.0000 0.0000
# 5 0.0000 0.0000 0.0000 0.0000 12.6162 0.0000
# 6 0.0000 0.0000 0.0000 0.0000 0.0000 22.7087
#
#
#
# Elastic Compliance Matrix: (Units=1/GPa)
#
#
# Indices 1 2 3 4 5 6 
#
# 1 0.024112 -0.002402 -0.010185 0.000000 0.000000 0.000000
# 2 -0.002402 0.012102 -0.001068 0.000000 0.000000 0.000000
# 3 -0.010185 -0.001068 0.015442 0.000000 0.000000 0.000000
# 4 0.000000 0.000000 0.000000 0.041663 0.000000 0.000000
# 5 0.000000 0.000000 0.000000 0.000000 0.079263 0.000000
# 6 0.000000 0.000000 0.000000 0.000000 0.000000 0.044036
#
#
# Mechanical properties :
#
#
# Convention : Reuss Voigt Hill
#
# Bulk Modulus (GPa) = 41.07244 42.84443 41.95844
# Shear Modulus (GPa) = 19.83770 23.03553 21.43662
#
# Velocity S-wave (km/s) = 3.19971 3.44798 3.32616
# Velocity P-wave (km/s) = 5.90324 6.16143 6.03371
#
# Compressibility (1/GPa) = 0.02434722
#
# Stress axis : x y z
#
# Youngs Moduli (GPa) = 41.47231 82.62762 64.75749
#
# Poissons Ratio (x) = 0.19847 0.65957
# Poissons Ratio (y) = 0.09962 0.06915
# Poissons Ratio (z) = 0.42240 0.08823
#
# Static dielectric constant tensor:
#      x y z
#    x 3.191830 0.000000 0.000000 
#    y 0.000000 3.612950 0.000000 
#    z 0.000000 0.000000 3.874970 
# 
# 
# High freq. dielectric constant tensor:
#      x y z
#    x 1.696390 0.000000 0.000000 
#    y 0.000000 1.778750 0.000000 
#    z 0.000000 0.000000 1.763460 
# 
# From -- ./inp_files/33190.got.cif
#   From: 2010.03.12/outbox.cif.g09.slc.cpg/sg53_17_cif.got.tgz:33190.got - 2010.04.16 14:36:59.
