data_PCOD8221282
_publ_section_title
;
Structure prediction by ZEFSAII (Michael W. Deem and Ramdas Pophale) SiO2 
 PCOD8221282
Probable space group: P M N A
;
_chemical_formula_sum "Si O2"
_cell_formula_units_Z 28
_cell_length_a 9.580024
_cell_length_b 6.397302
_cell_length_c 22.739365
_cell_angle_alpha 90.000000
_cell_angle_beta 90.000000
_cell_angle_gamma 90.000000
_cell_volume 1393.611697
_symmetry_space_group_name_H-M "P M N A"
_symmetry_group_IT_number 53
_symmetry_cell_setting 'orthorhombic'
loop_
_space_group_symop_operation_xyz
x,y,z
1/2-x,-y,1/2+z
x,-y,-z
1/2-x,y,1/2-z
-x,-y,-z
1/2+x,y,1/2-z
-x,y,z
1/2+x,-y,1/2+z
loop_
_atom_site_type_symbol
_atom_site_label
_atom_site_fract_x
_atom_site_fract_y
_atom_site_fract_z
Si Si1 0.338736 0.019454 0.567198
Si Si2 0.153654 0.323337 0.158633
Si Si3 0.750000 0.008621 0.250000
Si Si4 0.158517 0.711949 0.348242
O O1 0.500000 0.089914 0.572789
O O2 0.243597 0.195621 0.596996
O O3 0.291673 0.000000 0.500000
O O4 0.314763 0.794445 0.597338
O O5 0.150226 0.152296 0.210512
O O6 0.271516 0.494113 0.170695
O O7 0.000000 0.428485 0.156776
O O8 0.656098 0.864874 0.207737
O O9 0.000000 0.669901 0.367929
#
# Coordination Sequence:
#
# PCOD8221282 Si02
#       4
#     8   8   4   8
#     4   9  20  40  62  82 109 149 194 234 273 327
#     4  10  21  37  58  82 109 145 188 230 274 329
#     4  10  22  38  58  80 110 150 190 228 272 330
#     4  11  23  37  57  86 117 147 182 230 286 336
#
# _framework density 20.09168
#
# number of rings (size 3 to 8) (size 9 to 14) (size 15 to 20)
#    0.000    2.000    0.000    2.571    0.000   13.143 
#    0.000    5.714    0.000    0.000    0.000    0.000 
#    0.000    0.000    0.000    0.000    0.000    0.000 
#
# Total GULP energy -347266.705415 kJ/mol
# GULP energy per Si atom -12402.382336 kJ/mol
# Density = 2.004595 g / cm^3
# Si number density = 20.091680 Si / 1000 Ang^3
#
#
#
# Elastic Constant Matrix: (Units=GPa)
#
#
# Indices 1 2 3 4 5 6 
#
# 1 134.6736 63.0233 42.4795 0.0000 0.0000 0.0000
# 2 63.0233 112.4248 52.3262 0.0000 0.0000 0.0000
# 3 42.4795 52.3262 145.1905 0.0000 0.0000 0.0000
# 4 0.0000 0.0000 0.0000 16.1537 0.0000 0.0000
# 5 0.0000 0.0000 0.0000 0.0000 13.0860 0.0000
# 6 0.0000 0.0000 0.0000 0.0000 0.0000 26.1839
#
#
#
# Elastic Compliance Matrix: (Units=1/GPa)
#
#
# Indices 1 2 3 4 5 6 
#
# 1 0.010213 -0.005208 -0.001111 0.000000 0.000000 0.000000
# 2 -0.005208 0.013343 -0.003285 0.000000 0.000000 0.000000
# 3 -0.001111 -0.003285 0.008397 0.000000 0.000000 0.000000
# 4 0.000000 0.000000 0.000000 0.061905 0.000000 0.000000
# 5 0.000000 0.000000 0.000000 0.000000 0.076418 0.000000
# 6 0.000000 0.000000 0.000000 0.000000 0.000000 0.038191
#
#
# Mechanical properties :
#
#
# Convention : Reuss Voigt Hill
#
# Bulk Modulus (GPa) = 78.46663 78.66077 78.56370
# Shear Modulus (GPa) = 21.55875 26.71536 24.13706
#
# Velocity S-wave (km/s) = 3.27925 3.65042 3.46980
# Velocity P-wave (km/s) = 7.31280 7.55006 7.43238
#
# Compressibility (1/GPa) = 0.01274427
#
# Stress axis : x y z
#
# Youngs Moduli (GPa) = 97.91368 74.94330 119.09641
#
# Poissons Ratio (x) = 0.39031 0.13233
# Poissons Ratio (y) = 0.50994 0.39125
# Poissons Ratio (z) = 0.10880 0.24620
#
# Static dielectric constant tensor:
#      x y z
#    x 3.439720 0.000000 0.000000 
#    y 0.000000 3.570800 0.000000 
#    z 0.000000 0.000000 3.721300 
# 
# 
# High freq. dielectric constant tensor:
#      x y z
#    x 1.778320 0.000000 0.000000 
#    y 0.000000 1.781370 0.000000 
#    z 0.000000 0.000000 1.786700 
# 
# From -- ./inp_files/31486.got.cif
#   From: 2010.03.12/outbox.cif.g09.slc.cpg/sg53_16_cif.got.tgz:31486.got - 2010.04.16 14:36:59.
