data_PCOD8221666
_publ_section_title
;
Structure prediction by ZEFSAII (Michael W. Deem and Ramdas Pophale) SiO2 
 PCOD8221666
Probable space group: P M N A
;
_chemical_formula_sum "Si O2"
_cell_formula_units_Z 64
_cell_length_a 15.224266
_cell_length_b 22.452320
_cell_length_c 10.034859
_cell_angle_alpha 90.000000
_cell_angle_beta 90.000000
_cell_angle_gamma 90.000000
_cell_volume 3430.116427
_symmetry_space_group_name_H-M "P M N A"
_symmetry_group_IT_number 53
_symmetry_cell_setting 'orthorhombic'
loop_
_space_group_symop_operation_xyz
x,y,z
1/2-x,-y,1/2+z
x,-y,-z
1/2-x,y,1/2-z
-x,-y,-z
1/2+x,y,1/2-z
-x,y,z
1/2+x,-y,1/2+z
loop_
_atom_site_type_symbol
_atom_site_label
_atom_site_fract_x
_atom_site_fract_y
_atom_site_fract_z
Si Si1 0.100328 0.554751 0.096242
Si Si2 0.248857 0.776987 0.091197
Si Si3 0.102601 0.952696 0.264875
Si Si4 0.349029 0.084941 0.253347
Si Si5 0.598389 0.861040 0.013242
Si Si6 0.749588 0.356232 0.593502
Si Si7 0.399487 0.445006 0.904535
Si Si8 0.599863 0.133758 0.530573
O O1 0.162445 0.608463 0.048630
O O2 0.119227 0.536744 0.250426
O O3 0.000000 0.575859 0.078807
O O4 0.121948 0.500000 0.000000
O O5 0.250000 0.779378 0.250000
O O6 0.247632 0.709941 0.032367
O O7 0.162019 0.808810 0.035127
O O8 0.337129 0.806049 0.034563
O O9 0.128924 0.916750 0.397207
O O10 0.132988 0.913707 0.139081
O O11 0.000000 0.967547 0.258927
O O12 0.154475 0.014158 0.266288
O O13 0.250000 0.109342 0.250000
O O14 0.402945 0.117464 0.138165
O O15 0.396554 0.101305 0.389649
O O16 0.500000 0.840659 0.053933
O O17 0.750000 0.349003 0.750000
O O18 0.837513 0.390909 0.548561
O O19 0.500000 0.424244 0.922661
O O20 0.377313 0.500000 0.000000
O O21 0.500000 0.154142 0.560879
#
# Coordination Sequence:
#
# PCOD8221666 Si02
#       8
#     8   8   8   8   8   8   8   8
#     4   9  17  31  54  83 114 145 179 219 268 318
#     4  11  22  38  59  84 110 145 198 237 271 326
#     4  10  22  38  58  86 110 139 181 226 284 343
#     4  12  24  36  60  85 111 144 179 229 289 347
#     4  11  23  40  59  81 112 146 183 230 283 337
#     4   9  19  33  53  82 113 143 183 228 266 311
#     4   9  17  31  54  83 114 145 179 219 268 318
#     4  11  23  40  59  81 112 146 183 230 283 337
#
# _framework density 18.658259000000001
#
# number of rings (size 3 to 8) (size 9 to 14) (size 15 to 20)
#    0.000    1.750    2.500    2.250    1.750    4.000 
#    0.000    2.500    5.500    0.000    0.000    0.000 
#    0.000    0.000    0.000    0.000    0.000    0.000 
#
# Total GULP energy -793766.230794 kJ/mol
# GULP energy per Si atom -12402.597356 kJ/mol
# Density = 1.861579 g / cm^3
# Si number density = 18.658259 Si / 1000 Ang^3
#
#
#
# Elastic Constant Matrix: (Units=GPa)
#
#
# Indices 1 2 3 4 5 6 
#
# 1 114.8816 69.1312 18.8587 0.0000 0.0000 0.0000
# 2 69.1312 134.2674 24.6559 0.0000 0.0000 0.0000
# 3 18.8587 24.6559 65.4587 0.0000 0.0000 0.0000
# 4 0.0000 0.0000 0.0000 17.8208 0.0000 0.0000
# 5 0.0000 0.0000 0.0000 0.0000 23.2962 0.0000
# 6 0.0000 0.0000 0.0000 0.0000 0.0000 -69.7791
#
#
#
# Elastic Compliance Matrix: (Units=1/GPa)
#
#
# Indices 1 2 3 4 5 6 
#
# 1 0.012712 -0.006309 -0.001286 0.000000 0.000000 0.000000
# 2 -0.006309 0.011132 -0.002376 0.000000 0.000000 0.000000
# 3 -0.001286 -0.002376 0.016542 0.000000 0.000000 0.000000
# 4 0.000000 0.000000 0.000000 0.056114 0.000000 0.000000
# 5 0.000000 0.000000 0.000000 0.000000 0.042926 0.000000
# 6 0.000000 0.000000 0.000000 0.000000 0.000000 -0.014331
#
#
# Mechanical properties :
#
#
# Convention : Reuss Voigt Hill
#
# Bulk Modulus (GPa) = 48.91044 59.98881 54.44962
# Shear Modulus (GPa) = 32.92677 7.73170 20.32923
#
# Velocity S-wave (km/s) = 4.20543 2.03785 3.30442
# Velocity P-wave (km/s) = 7.06056 6.14478 6.61853
#
# Compressibility (1/GPa) = 0.02044553
#
# Stress axis : x y z
#
# Youngs Moduli (GPa) = 78.66400 89.82730 60.45192
#
# Poissons Ratio (x) = 0.56673 0.07774
# Poissons Ratio (y) = 0.49630 0.14361
# Poissons Ratio (z) = 0.10116 0.21339
#
# Static dielectric constant tensor:
#      x y z
#    x 3.762320 0.000000 0.000000 
#    y 0.000000 3.429480 0.000000 
#    z 0.000000 0.000000 3.385930 
# 
# 
# High freq. dielectric constant tensor:
#      x y z
#    x 1.740740 0.000000 0.000000 
#    y 0.000000 1.705460 0.000000 
#    z 0.000000 0.000000 1.716140 
# 
# From -- ./inp_files/8984.got.cif
#   From: 2010.03.12/outbox.cif.g09.slc.cpg/sg53_5_cif.got.tgz:8984.got - 2010.04.16 14:36:59.
