data_PCOD8221587
_publ_section_title
;
Structure prediction by ZEFSAII (Michael W. Deem and Ramdas Pophale) SiO2 
 PCOD8221587
Probable space group: P M N A
;
_chemical_formula_sum "Si O2"
_cell_formula_units_Z 64
_cell_length_a 35.453145
_cell_length_b 7.586946
_cell_length_c 11.838733
_cell_angle_alpha 90.000000
_cell_angle_beta 90.000000
_cell_angle_gamma 90.000000
_cell_volume 3184.395385
_symmetry_space_group_name_H-M "P M N A"
_symmetry_group_IT_number 53
_symmetry_cell_setting 'orthorhombic'
loop_
_space_group_symop_operation_xyz
x,y,z
1/2-x,-y,1/2+z
x,-y,-z
1/2-x,y,1/2-z
-x,-y,-z
1/2+x,y,1/2-z
-x,y,z
1/2+x,-y,1/2+z
loop_
_atom_site_type_symbol
_atom_site_label
_atom_site_fract_x
_atom_site_fract_y
_atom_site_fract_z
Si Si1 0.832889 0.046781 0.371906
Si Si2 0.338943 0.299149 0.477997
Si Si3 0.706054 0.654455 0.743391
Si Si4 0.956300 0.331562 0.236586
Si Si5 0.579284 0.801313 0.514514
Si Si6 0.414506 0.322025 0.733666
Si Si7 0.920786 0.980751 0.630563
Si Si8 0.173115 0.719205 0.225710
O O1 0.877227 0.067560 0.349882
O O2 0.815135 0.889446 0.297341
O O3 0.823717 0.000000 0.500000
O O4 0.813953 0.232717 0.341229
O O5 0.351132 0.500000 0.500000
O O6 0.308809 0.280804 0.378462
O O7 0.376981 0.195360 0.444205
O O8 0.320931 0.226219 0.594328
O O9 0.750000 0.691799 0.750000
O O10 0.698578 0.446934 0.761958
O O11 0.946524 0.290992 0.106957
O O12 0.933004 0.500042 0.280147
O O13 0.000000 0.376288 0.246144
O O14 0.946600 0.170027 0.317545
O O15 0.574764 0.698625 0.397416
O O16 0.565202 0.000000 0.500000
O O17 0.430937 0.161440 0.806173
O O18 0.369797 0.336882 0.749403
O O19 0.930940 0.000000 0.500000
#
# Coordination Sequence:
#
# PCOD8221587 Si02
#       8
#     8   8   8   8   8   8   8   8
#     4  10  22  41  63  92 114 154 210 252 296 348
#     4   9  19  37  62  90 115 154 212 248 292 355
#     4  11  23  39  57  89 127 161 190 244 306 364
#     4  12  25  39  59  91 131 164 191 243 314 377
#     4  11  20  36  64  95 118 155 204 258 303 357
#     4  10  21  40  65  93 118 157 207 254 302 357
#     4  10  22  43  68  88 117 156 214 262 289 341
#     4   9  20  40  65  88 116 156 207 254 292 346
#
# _framework density 20.098006999999999
#
# number of rings (size 3 to 8) (size 9 to 14) (size 15 to 20)
#    0.000    1.750    1.250    4.125    3.500    3.500 
#    9.000    4.375    0.000    0.000    0.000    0.000 
#    0.000    0.000    0.000    0.000    0.000    0.000 
#
# Total GULP energy -793901.522989 kJ/mol
# GULP energy per Si atom -12404.711297 kJ/mol
# Density = 2.005226 g / cm^3
# Si number density = 20.098007 Si / 1000 Ang^3
#
#
#
# Elastic Constant Matrix: (Units=GPa)
#
#
# Indices 1 2 3 4 5 6 
#
# 1 68.7453 25.8254 26.4493 0.0000 0.0000 0.0000
# 2 25.8254 80.1957 22.2837 0.0000 0.0000 0.0000
# 3 26.4493 22.2837 98.7422 0.0000 0.0000 0.0000
# 4 0.0000 0.0000 0.0000 23.2827 0.0000 0.0000
# 5 0.0000 0.0000 0.0000 0.0000 5.4010 0.0000
# 6 0.0000 0.0000 0.0000 0.0000 0.0000 9.1768
#
#
#
# Elastic Compliance Matrix: (Units=1/GPa)
#
#
# Indices 1 2 3 4 5 6 
#
# 1 0.017726 -0.004683 -0.003691 0.000000 0.000000 0.000000
# 2 -0.004683 0.014541 -0.002027 0.000000 0.000000 0.000000
# 3 -0.003691 -0.002027 0.011574 0.000000 0.000000 0.000000
# 4 0.000000 0.000000 0.000000 0.042950 0.000000 0.000000
# 5 0.000000 0.000000 0.000000 0.000000 0.185150 0.000000
# 6 0.000000 0.000000 0.000000 0.000000 0.000000 0.108970
#
#
# Mechanical properties :
#
#
# Convention : Reuss Voigt Hill
#
# Bulk Modulus (GPa) = 43.40660 44.08889 43.74774
# Shear Modulus (GPa) = 12.21325 19.11378 15.66351
#
# Velocity S-wave (km/s) = 2.46780 3.08722 2.79472
# Velocity P-wave (km/s) = 5.45568 5.89003 5.67701
#
# Compressibility (1/GPa) = 0.02303797
#
# Stress axis : x y z
#
# Youngs Moduli (GPa) = 56.41522 68.77250 86.40331
#
# Poissons Ratio (x) = 0.32203 0.31894
# Poissons Ratio (y) = 0.26416 0.17516
# Poissons Ratio (z) = 0.20825 0.13942
#
# Static dielectric constant tensor:
#      x y z
#    x 3.349530 0.000000 0.000000 
#    y 0.000000 3.771050 0.000000 
#    z 0.000000 0.000000 3.786830 
# 
# 
# High freq. dielectric constant tensor:
#      x y z
#    x 1.758420 0.000000 0.000000 
#    y 0.000000 1.796140 0.000000 
#    z 0.000000 0.000000 1.785970 
# 
# From -- ./inp_files/19055.got.cif
#   From: 2010.03.12/outbox.cif.g09.slc.cpg/sg53_10_cif.got.tgz:19055.got - 2010.04.16 14:36:59.
