data_PCOD8221650
_publ_section_title
;
Structure prediction by ZEFSAII (Michael W. Deem and Ramdas Pophale) SiO2 
 PCOD8221650
Probable space group: P M N A
;
_chemical_formula_sum "Si O2"
_cell_formula_units_Z 64
_cell_length_a 8.920098
_cell_length_b 24.152905
_cell_length_c 15.287877
_cell_angle_alpha 90.000000
_cell_angle_beta 90.000000
_cell_angle_gamma 90.000000
_cell_volume 3293.716222
_symmetry_space_group_name_H-M "P M N A"
_symmetry_group_IT_number 53
_symmetry_cell_setting 'orthorhombic'
loop_
_space_group_symop_operation_xyz
x,y,z
1/2-x,-y,1/2+z
x,-y,-z
1/2-x,y,1/2-z
-x,-y,-z
1/2+x,y,1/2-z
-x,y,z
1/2+x,-y,1/2+z
loop_
_atom_site_type_symbol
_atom_site_label
_atom_site_fract_x
_atom_site_fract_y
_atom_site_fract_z
Si Si1 0.677401 0.125683 0.155871
Si Si2 0.177871 0.805038 0.493759
Si Si3 0.823992 0.114374 0.655497
Si Si4 0.322648 0.607750 0.337310
Si Si5 0.673880 0.312074 0.505640
Si Si6 0.176593 0.383897 0.161817
Si Si7 0.326951 0.994814 0.840694
Si Si8 0.323519 0.503245 0.898254
O O1 0.750000 0.137785 0.250000
O O2 0.500000 0.131322 0.167086
O O3 0.723747 0.064146 0.118117
O O4 0.738936 0.169466 0.085021
O O5 0.241023 0.840533 0.412106
O O6 0.230301 0.742713 0.483654
O O7 0.000000 0.807647 0.493542
O O8 0.750000 0.122824 0.750000
O O9 0.792730 0.053212 0.610306
O O10 0.000000 0.122568 0.669497
O O11 0.250000 0.634083 0.250000
O O12 0.500000 0.602764 0.327484
O O13 0.276805 0.646110 0.418317
O O14 0.253192 0.547446 0.349531
O O15 0.500000 0.296782 0.513006
O O16 0.712450 0.339899 0.413434
O O17 0.250000 0.359540 0.250000
O O18 0.254181 0.441644 0.140924
O O19 0.000000 0.393294 0.172871
O O20 0.250000 0.003219 0.750000
O O21 0.500000 0.989467 0.821149
O O22 0.500000 0.502189 0.880263
O O23 0.284465 0.500000 0.000000
#
# Coordination Sequence:
#
# PCOD8221650 Si02
#       8
#     8   8   8   8   8   8   8   8
#     4   9  18  33  53  79 108 142 179 223 275 330
#     4  10  22  37  55  79 108 142 186 232 277 328
#     4   9  18  33  53  79 108 142 179 223 275 330
#     4  11  23  41  63  88 117 151 190 232 280 334
#     4  10  24  43  60  79 110 150 191 234 281 328
#     4  11  23  41  63  88 117 151 190 232 280 334
#     4   8  14  27  49  75 106 138 174 217 269 329
#     4  11  22  37  62  94 124 154 186 225 277 333
#
# _framework density 19.43094
#
# number of rings (size 3 to 8) (size 9 to 14) (size 15 to 20)
#    0.000    2.125    1.250    1.500    0.000    5.000 
#    0.000    7.500    0.000    0.000    0.000    9.625 
#    0.000    0.000    0.000    0.000    0.000    0.000 
#
# Total GULP energy -793244.226745 kJ/mol
# GULP energy per Si atom -12394.441043 kJ/mol
# Density = 1.938671 g / cm^3
# Si number density = 19.430940 Si / 1000 Ang^3
#
#
#
# Elastic Constant Matrix: (Units=GPa)
#
#
# Indices 1 2 3 4 5 6 
#
# 1 46.0494 21.5972 30.1605 0.0000 0.0000 0.0000
# 2 21.5972 78.9229 14.6821 0.0000 0.0000 0.0000
# 3 30.1605 14.6821 89.8934 0.0000 0.0000 0.0000
# 4 0.0000 0.0000 0.0000 10.3825 0.0000 0.0000
# 5 0.0000 0.0000 0.0000 0.0000 29.5484 0.0000
# 6 0.0000 0.0000 0.0000 0.0000 0.0000 31.0575
#
#
#
# Elastic Compliance Matrix: (Units=1/GPa)
#
#
# Indices 1 2 3 4 5 6 
#
# 1 0.030961 -0.006745 -0.009286 0.000000 0.000000 0.000000
# 2 -0.006745 0.014537 -0.000111 0.000000 0.000000 0.000000
# 3 -0.009286 -0.000111 0.014258 0.000000 0.000000 0.000000
# 4 0.000000 0.000000 0.000000 0.096316 0.000000 0.000000
# 5 0.000000 0.000000 0.000000 0.000000 0.033843 0.000000
# 6 0.000000 0.000000 0.000000 0.000000 0.000000 0.032198
#
#
# Mechanical properties :
#
#
# Convention : Reuss Voigt Hill
#
# Bulk Modulus (GPa) = 36.40151 38.63837 37.51994
# Shear Modulus (GPa) = 18.97131 24.09275 21.53203
#
# Velocity S-wave (km/s) = 3.12804 3.52507 3.33247
# Velocity P-wave (km/s) = 5.64098 6.04121 5.84452
#
# Compressibility (1/GPa) = 0.02747139
#
# Stress axis : x y z
#
# Youngs Moduli (GPa) = 32.29826 68.78974 70.13522
#
# Poissons Ratio (x) = 0.46399 0.65130
# Poissons Ratio (y) = 0.21785 0.00780
# Poissons Ratio (z) = 0.29993 0.00765
#
# Static dielectric constant tensor:
#      x y z
#    x 3.517800 0.000000 0.000000 
#    y 0.000000 3.717910 0.000000 
#    z 0.000000 0.000000 3.745060 
# 
# 
# High freq. dielectric constant tensor:
#      x y z
#    x 1.750870 0.000000 0.000000 
#    y 0.000000 1.762830 0.000000 
#    z 0.000000 0.000000 1.758950 
# 
# From -- ./inp_files/20833.got.cif
#   From: 2010.03.12/outbox.cif.g09.slc.cpg/sg53_11_cif.got.tgz:20833.got - 2010.04.16 14:36:59.
