data_PCOD8221965
_publ_section_title
;
Structure prediction by ZEFSAII (Michael W. Deem and Ramdas Pophale) SiO2 
 PCOD8221965
Probable space group: P M N A
;
_chemical_formula_sum "Si O2"
_cell_formula_units_Z 40
_cell_length_a 16.444925
_cell_length_b 7.703828
_cell_length_c 16.655817
_cell_angle_alpha 90.000000
_cell_angle_beta 90.000000
_cell_angle_gamma 90.000000
_cell_volume 2110.106696
_symmetry_space_group_name_H-M "P M N A"
_symmetry_group_IT_number 53
_symmetry_cell_setting 'orthorhombic'
loop_
_space_group_symop_operation_xyz
x,y,z
1/2-x,-y,1/2+z
x,-y,-z
1/2-x,y,1/2-z
-x,-y,-z
1/2+x,y,1/2-z
-x,y,z
1/2+x,-y,1/2+z
loop_
_atom_site_type_symbol
_atom_site_label
_atom_site_fract_x
_atom_site_fract_y
_atom_site_fract_z
Si Si1 0.684614 0.915816 0.914137
Si Si2 0.320395 0.776606 0.684656
Si Si3 0.405206 0.573114 0.915501
Si Si4 0.657756 0.575608 0.247641
Si Si5 0.907260 0.932879 0.272216
O O1 0.773458 0.828449 0.897129
O O2 0.612306 0.776749 0.913602
O O3 0.655611 0.055667 0.847372
O O4 0.692723 0.000000 0.000000
O O5 0.250000 0.774396 0.750000
O O6 0.359567 0.582096 0.688343
O O7 0.388478 0.918797 0.706184
O O8 0.500000 0.537087 0.904715
O O9 0.358843 0.482853 0.843116
O O10 0.372671 0.500000 0.000000
O O11 0.750000 0.638278 0.250000
O O12 0.603452 0.743648 0.268988
O O13 0.000000 0.954256 0.301111
#
# Coordination Sequence:
#
# PCOD8221965 Si02
#       5
#     8   8   8   8   8
#     4  11  21  37  56  83 120 156 192 235 289 344
#     4   9  19  38  56  79 110 154 200 238 271 335
#     4  11  22  34  52  86 125 154 184 229 291 347
#     4  11  19  36  58  76 113 159 201 232 271 341
#     4  11  22  34  57  88 115 148 191 238 289 344
#
# _framework density 18.956388
#
# number of rings (size 3 to 8) (size 9 to 14) (size 15 to 20)
#    0.000    1.400    6.000    4.200    0.000    4.000 
#    0.000    0.000    0.000    0.600    0.000    1.400 
#    0.000    0.000    0.000    0.000    0.000    0.000 
#
# Total GULP energy -495839.039676 kJ/mol
# GULP energy per Si atom -12395.975992 kJ/mol
# Density = 1.891324 g / cm^3
# Si number density = 18.956388 Si / 1000 Ang^3
#
#
#
# Elastic Constant Matrix: (Units=GPa)
#
#
# Indices 1 2 3 4 5 6 
#
# 1 69.9505 36.3925 45.3121 0.0000 0.0000 0.0000
# 2 36.3925 131.0409 17.4323 0.0000 0.0000 0.0000
# 3 45.3121 17.4323 43.6273 0.0000 0.0000 0.0000
# 4 0.0000 0.0000 0.0000 23.6843 0.0000 0.0000
# 5 0.0000 0.0000 0.0000 0.0000 14.9437 0.0000
# 6 0.0000 0.0000 0.0000 0.0000 0.0000 -9.6735
#
#
#
# Elastic Compliance Matrix: (Units=1/GPa)
#
#
# Indices 1 2 3 4 5 6 
#
# 1 0.049521 -0.007299 -0.048517 0.000000 0.000000 0.000000
# 2 -0.007299 0.009135 0.003930 0.000000 0.000000 0.000000
# 3 -0.048517 0.003930 0.071742 0.000000 0.000000 0.000000
# 4 0.000000 0.000000 0.000000 0.042222 0.000000 0.000000
# 5 0.000000 0.000000 0.000000 0.000000 0.066918 0.000000
# 6 0.000000 0.000000 0.000000 0.000000 0.000000 -0.103375
#
#
# Mechanical properties :
#
#
# Convention : Reuss Voigt Hill
#
# Bulk Modulus (GPa) = 37.55563 49.21028 43.38296
# Shear Modulus (GPa) = 20.09562 15.48968 17.79265
#
# Velocity S-wave (km/s) = 3.25945 2.86164 3.06700
# Velocity P-wave (km/s) = 5.83266 6.07739 5.95628
#
# Compressibility (1/GPa) = 0.02662716
#
# Stress axis : x y z
#
# Youngs Moduli (GPa) = 20.19331 109.46489 13.93885
#
# Poissons Ratio (x) = 0.79896 0.67628
# Poissons Ratio (y) = 0.14739 -0.05479
# Poissons Ratio (z) = 0.97973 -0.43024
#
# Static dielectric constant tensor:
#      x y z
#    x 3.574660 0.000000 0.000000 
#    y 0.000000 4.018710 0.000000 
#    z 0.000000 0.000000 3.480880 
# 
# 
# High freq. dielectric constant tensor:
#      x y z
#    x 1.721510 0.000000 0.000000 
#    y 0.000000 1.758420 0.000000 
#    z 0.000000 0.000000 1.696500 
# 
# From -- ./inp_files/28074.got.cif
#   From: 2010.03.12/outbox.cif.g09.slc.cpg/sg53_15_cif.got.tgz:28074.got - 2010.04.16 14:36:59.
