data_PCOD8221142
_publ_section_title
;
Structure prediction by ZEFSAII (Michael W. Deem and Ramdas Pophale) SiO2 
 PCOD8221142
Probable space group: P M N A
;
_chemical_formula_sum "Si O2"
_cell_formula_units_Z 64
_cell_length_a 9.171247
_cell_length_b 21.728556
_cell_length_c 15.973818
_cell_angle_alpha 90.000000
_cell_angle_beta 90.000000
_cell_angle_gamma 90.000000
_cell_volume 3183.229769
_symmetry_space_group_name_H-M "P M N A"
_symmetry_group_IT_number 53
_symmetry_cell_setting 'orthorhombic'
loop_
_space_group_symop_operation_xyz
x,y,z
1/2-x,-y,1/2+z
x,-y,-z
1/2-x,y,1/2-z
-x,-y,-z
1/2+x,y,1/2-z
-x,y,z
1/2+x,-y,1/2+z
loop_
_atom_site_type_symbol
_atom_site_label
_atom_site_fract_x
_atom_site_fract_y
_atom_site_fract_z
Si Si1 0.160146 0.006933 0.096447
Si Si2 0.827538 0.116422 0.336149
Si Si3 0.172097 0.876561 0.164792
Si Si4 0.666842 0.755869 0.908061
Si Si5 0.170619 0.366925 0.836938
Si Si6 0.668087 0.572495 0.007014
Si Si7 0.332866 0.629240 0.832793
Si Si8 0.832756 0.244280 0.927235
O O1 0.223736 0.943339 0.133356
O O2 0.000000 0.022280 0.137033
O O3 0.279246 0.060134 0.105903
O O4 0.133020 0.000000 0.000000
O O5 0.750000 0.102836 0.250000
O O6 0.766949 0.180525 0.373052
O O7 0.000000 0.117760 0.324990
O O8 0.250000 0.860426 0.250000
O O9 0.221266 0.823312 0.100481
O O10 0.000000 0.874192 0.178209
O O11 0.500000 0.766193 0.932129
O O12 0.685338 0.703092 0.838374
O O13 0.745278 0.734032 0.991891
O O14 0.250000 0.384351 0.750000
O O15 0.237659 0.404905 0.914277
O O16 0.192536 0.294159 0.853982
O O17 0.000000 0.383758 0.829043
O O18 0.500000 0.593239 0.020308
O O19 0.682666 0.500000 0.000000
O O20 0.728499 0.599906 0.918983
O O21 0.250000 0.605132 0.750000
O O22 0.500000 0.609479 0.821462
O O23 0.000000 0.241910 0.954155
#
# Coordination Sequence:
#
# PCOD8221142 Si02
#       8
#     8   8   8   8   8   8   8   8
#     4  10  21  38  58  78 106 146 188 236 295 353
#     4  11  23  37  55  81 112 147 191 239 294 355
#     4  10  21  36  54  79 109 144 188 236 290 350
#     4  10  21  37  58  85 115 151 193 244 300 353
#     4  11  23  39  63  94 127 166 208 254 307 363
#     4  10  22  42  66  92 126 166 206 252 304 358
#     4  10  21  38  61  89 122 158 200 248 300 357
#     4  10  21  37  59  87 116 151 197 245 296 354
#
# _framework density 20.105366
#
# number of rings (size 3 to 8) (size 9 to 14) (size 15 to 20)
#    0.000    1.750    1.250    2.625    0.000    6.500 
#    0.000    1.250    0.000    0.000    0.000    0.000 
#    0.000    0.000    0.000    0.000    0.000    0.000 
#
# Total GULP energy -793629.619264 kJ/mol
# GULP energy per Si atom -12400.462801 kJ/mol
# Density = 2.005961 g / cm^3
# Si number density = 20.105366 Si / 1000 Ang^3
#
#
#
# Elastic Constant Matrix: (Units=GPa)
#
#
# Indices 1 2 3 4 5 6 
#
# 1 69.8071 30.3328 49.8032 0.0000 0.0000 0.0000
# 2 30.3328 92.8271 28.1552 0.0000 0.0000 0.0000
# 3 49.8032 28.1552 121.0148 0.0000 0.0000 0.0000
# 4 0.0000 0.0000 0.0000 24.3505 0.0000 0.0000
# 5 0.0000 0.0000 0.0000 0.0000 32.4471 0.0000
# 6 0.0000 0.0000 0.0000 0.0000 0.0000 28.2806
#
#
#
# Elastic Compliance Matrix: (Units=1/GPa)
#
#
# Indices 1 2 3 4 5 6 
#
# 1 0.022105 -0.004803 -0.007980 0.000000 0.000000 0.000000
# 2 -0.004803 0.012634 -0.000963 0.000000 0.000000 0.000000
# 3 -0.007980 -0.000963 0.011772 0.000000 0.000000 0.000000
# 4 0.000000 0.000000 0.000000 0.041067 0.000000 0.000000
# 5 0.000000 0.000000 0.000000 0.000000 0.030819 0.000000
# 6 0.000000 0.000000 0.000000 0.000000 0.000000 0.035360
#
#
# Mechanical properties :
#
#
# Convention : Reuss Voigt Hill
#
# Bulk Modulus (GPa) = 52.57696 55.58129 54.07913
# Shear Modulus (GPa) = 26.65404 28.70615 27.68010
#
# Velocity S-wave (km/s) = 3.64499 3.78270 3.71449
# Velocity P-wave (km/s) = 6.62737 6.83985 6.73445
#
# Compressibility (1/GPa) = 0.01901974
#
# Stress axis : x y z
#
# Youngs Moduli (GPa) = 45.23783 79.15033 84.95033
#
# Poissons Ratio (x) = 0.38015 0.67790
# Poissons Ratio (y) = 0.21727 0.08179
# Poissons Ratio (z) = 0.36100 0.07621
#
# Static dielectric constant tensor:
#      x y z
#    x 3.656800 0.000000 0.000000 
#    y 0.000000 3.886800 0.000000 
#    z 0.000000 0.000000 3.530460 
# 
# 
# High freq. dielectric constant tensor:
#      x y z
#    x 1.776000 0.000000 0.000000 
#    y 0.000000 1.793110 0.000000 
#    z 0.000000 0.000000 1.786750 
# 
# From -- ./inp_files/21004.got.cif
#   From: 2010.03.12/outbox.cif.g09.slc.cpg/sg53_11_cif.got.tgz:21004.got - 2010.04.16 14:36:59.
