data_PCOD8221594
_publ_section_title
;
Structure prediction by ZEFSAII (Michael W. Deem and Ramdas Pophale) SiO2 
 PCOD8221594
Probable space group: P M N A
;
_chemical_formula_sum "Si O2"
_cell_formula_units_Z 32
_cell_length_a 14.249182
_cell_length_b 7.709400
_cell_length_c 12.588844
_cell_angle_alpha 90.000000
_cell_angle_beta 90.000000
_cell_angle_gamma 90.000000
_cell_volume 1382.917795
_symmetry_space_group_name_H-M "P M N A"
_symmetry_group_IT_number 53
_symmetry_cell_setting 'orthorhombic'
loop_
_space_group_symop_operation_xyz
x,y,z
1/2-x,-y,1/2+z
x,-y,-z
1/2-x,y,1/2-z
-x,-y,-z
1/2+x,y,1/2-z
-x,y,z
1/2+x,-y,1/2+z
loop_
_atom_site_type_symbol
_atom_site_label
_atom_site_fract_x
_atom_site_fract_y
_atom_site_fract_z
Si Si1 0.500000 0.851626 0.808322
Si Si2 0.191917 0.605352 0.349717
Si Si3 0.500000 0.521241 0.246296
Si Si4 0.000000 0.849448 0.132998
Si Si5 0.692372 0.764303 0.927149
Si Si6 0.339769 0.000000 0.500000
O O1 0.500000 0.685284 0.727802
O O2 0.593363 0.837251 0.882134
O O3 0.500000 0.027571 0.738704
O O4 0.250000 0.681843 0.250000
O O5 0.190513 0.741975 0.445082
O O6 0.231176 0.414047 0.377517
O O7 0.084738 0.574658 0.326943
O O8 0.500000 0.642724 0.348870
O O9 0.094093 0.872322 0.066088
O O10 0.775714 0.902813 0.911495
#
# Coordination Sequence:
#
# PCOD8221594 Si02
#       6
#     4   8   4   4   8   4
#     4  10  24  44  75  98 135 178 228 293 351 404
#     4  10  21  40  67  99 132 177 223 281 352 404
#     4  10  22  41  68  95 130 173 225 279 339 410
#     4  11  26  46  65  98 141 192 230 277 351 412
#     4  10  23  41  66  99 134 172 231 284 341 414
#     4  11  26  43  62  98 142 181 236 285 334 426
#
# _framework density 23.139479000000001
#
# number of rings (size 3 to 8) (size 9 to 14) (size 15 to 20)
#    0.000    1.750    0.000    2.250   10.500    3.500 
#    0.000    1.250    0.000    0.000    0.000    0.000 
#    0.000    0.000    0.000    0.000    0.000    0.000 
#
# Total GULP energy -396537.230504 kJ/mol
# GULP energy per Si atom -12391.788453 kJ/mol
# Density = 2.308681 g / cm^3
# Si number density = 23.139479 Si / 1000 Ang^3
#
#
#
# Elastic Constant Matrix: (Units=GPa)
#
#
# Indices 1 2 3 4 5 6 
#
# 1 139.7166 42.6680 37.2621 0.0000 0.0000 0.0000
# 2 42.6680 86.2977 21.1860 0.0000 0.0000 0.0000
# 3 37.2621 21.1860 96.7791 0.0000 0.0000 0.0000
# 4 0.0000 0.0000 0.0000 34.7711 0.0000 0.0000
# 5 0.0000 0.0000 0.0000 0.0000 35.8477 0.0000
# 6 0.0000 0.0000 0.0000 0.0000 0.0000 12.8115
#
#
#
# Elastic Compliance Matrix: (Units=1/GPa)
#
#
# Indices 1 2 3 4 5 6 
#
# 1 0.009026 -0.003815 -0.002640 0.000000 0.000000 0.000000
# 2 -0.003815 0.013858 -0.001565 0.000000 0.000000 0.000000
# 3 -0.002640 -0.001565 0.011692 0.000000 0.000000 0.000000
# 4 0.000000 0.000000 0.000000 0.028759 0.000000 0.000000
# 5 0.000000 0.000000 0.000000 0.000000 0.027896 0.000000
# 6 0.000000 0.000000 0.000000 0.000000 0.000000 0.078055
#
#
# Mechanical properties :
#
#
# Convention : Reuss Voigt Hill
#
# Bulk Modulus (GPa) = 53.94739 58.33619 56.14179
# Shear Modulus (GPa) = 26.10889 31.46454 28.78671
#
# Velocity S-wave (km/s) = 3.36270 3.69152 3.53094
# Velocity P-wave (km/s) = 6.20013 6.59053 6.39831
#
# Compressibility (1/GPa) = 0.01853658
#
# Stress axis : x y z
#
# Youngs Moduli (GPa) = 110.78499 72.15993 85.52881
#
# Poissons Ratio (x) = 0.27527 0.22582
# Poissons Ratio (y) = 0.42262 0.13385
# Poissons Ratio (z) = 0.29251 0.11293
#
# Static dielectric constant tensor:
#      x y z
#    x 4.295060 0.000000 0.000000 
#    y 0.000000 4.400210 0.000000 
#    z 0.000000 0.000000 4.107410 
# 
# 
# High freq. dielectric constant tensor:
#      x y z
#    x 1.932470 0.000000 0.000000 
#    y 0.000000 1.918110 0.000000 
#    z 0.000000 0.000000 1.899520 
# 
# From -- ./inp_files/15568.got.cif
#   From: 2010.03.12/outbox.cif.g09.slc.cpg/sg53_8_cif.got.tgz:15568.got - 2010.04.16 14:36:59.
