data_PCOD8221764
_publ_section_title
;
Structure prediction by ZEFSAII (Michael W. Deem and Ramdas Pophale) SiO2 
 PCOD8221764
Probable space group: P M N A
;
_chemical_formula_sum "Si O2"
_cell_formula_units_Z 64
_cell_length_a 27.651543
_cell_length_b 9.255870
_cell_length_c 11.008035
_cell_angle_alpha 90.000000
_cell_angle_beta 90.000000
_cell_angle_gamma 90.000000
_cell_volume 2817.386431
_symmetry_space_group_name_H-M "P M N A"
_symmetry_group_IT_number 53
_symmetry_cell_setting 'orthorhombic'
loop_
_space_group_symop_operation_xyz
x,y,z
1/2-x,-y,1/2+z
x,-y,-z
1/2-x,y,1/2-z
-x,-y,-z
1/2+x,y,1/2-z
-x,y,z
1/2+x,-y,1/2+z
loop_
_atom_site_type_symbol
_atom_site_label
_atom_site_fract_x
_atom_site_fract_y
_atom_site_fract_z
Si Si1 0.919380 0.288046 0.294077
Si Si2 0.238839 0.588546 0.386190
Si Si3 0.552577 0.298788 0.945528
Si Si4 0.862720 0.553060 0.308042
Si Si5 0.446887 0.661728 0.535104
Si Si6 0.876913 0.802323 0.134056
Si Si7 0.056568 0.027479 0.688719
Si Si8 0.726908 0.087689 0.620803
O O1 0.946973 0.341696 0.413894
O O2 0.869573 0.381787 0.278240
O O3 0.952490 0.320599 0.178882
O O4 0.910536 0.116530 0.311224
O O5 0.262067 0.500000 0.500000
O O6 0.250000 0.525230 0.250000
O O7 0.181178 0.578708 0.399741
O O8 0.254833 0.751651 0.400235
O O9 0.500000 0.333681 0.890446
O O10 0.589349 0.395297 0.873196
O O11 0.561622 0.124144 0.933992
O O12 0.855583 0.651517 0.188105
O O13 0.432150 0.500000 0.500000
O O14 0.500000 0.699076 0.479046
O O15 0.403416 0.767551 0.493168
O O16 0.920744 0.868339 0.210093
O O17 0.831772 0.912563 0.124261
O O18 0.000000 0.989818 0.716001
O O19 0.750000 0.028872 0.750000
O O20 0.743801 0.000000 0.500000
#
# Coordination Sequence:
#
# PCOD8221764 Si02
#       8
#     8   8   8   8   8   8   8   8
#     4  12  23  39  63  97 138 181 233 284 331 407
#     4  11  24  48  74 104 142 185 233 301 367 434
#     4  10  22  40  64  95 138 186 225 279 346 408
#     4  11  23  45  69  97 136 178 232 288 348 413
#     4  11  24  39  63 100 141 185 235 288 335 408
#     4  11  23  47  70  94 138 186 229 281 356 424
#     4  10  23  41  64  98 142 184 225 279 340 411
#     4  11  26  51  78 105 142 181 237 306 368 435
#
# _framework density 22.716087999999999
#
# number of rings (size 3 to 8) (size 9 to 14) (size 15 to 20)
#    0.000    1.125    3.750    3.000    1.750    5.500 
#    4.500    1.250    0.000    0.000    0.000    0.000 
#    0.000    0.000    0.000    0.000    0.000    0.000 
#
# Total GULP energy -792964.418014 kJ/mol
# GULP energy per Si atom -12390.069031 kJ/mol
# Density = 2.266438 g / cm^3
# Si number density = 22.716088 Si / 1000 Ang^3
#
#
#
# Elastic Constant Matrix: (Units=GPa)
#
#
# Indices 1 2 3 4 5 6 
#
# 1 96.0494 21.1278 24.4898 0.0000 0.0000 0.0000
# 2 21.1278 91.1042 26.1943 0.0000 0.0000 0.0000
# 3 24.4898 26.1943 133.9685 0.0000 0.0000 0.0000
# 4 0.0000 0.0000 0.0000 33.5428 0.0000 0.0000
# 5 0.0000 0.0000 0.0000 0.0000 13.8886 0.0000
# 6 0.0000 0.0000 0.0000 0.0000 0.0000 26.3803
#
#
#
# Elastic Compliance Matrix: (Units=1/GPa)
#
#
# Indices 1 2 3 4 5 6 
#
# 1 0.011304 -0.002148 -0.001646 0.000000 0.000000 0.000000
# 2 -0.002148 0.012038 -0.001961 0.000000 0.000000 0.000000
# 3 -0.001646 -0.001961 0.008149 0.000000 0.000000 0.000000
# 4 0.000000 0.000000 0.000000 0.029813 0.000000 0.000000
# 5 0.000000 0.000000 0.000000 0.000000 0.072002 0.000000
# 6 0.000000 0.000000 0.000000 0.000000 0.000000 0.037907
#
#
# Mechanical properties :
#
#
# Convention : Reuss Voigt Hill
#
# Bulk Modulus (GPa) = 50.05045 51.63841 50.84443
# Shear Modulus (GPa) = 26.40151 31.38303 28.89227
#
# Velocity S-wave (km/s) = 3.41286 3.72093 3.57022
# Velocity P-wave (km/s) = 6.13278 6.42198 6.27905
#
# Compressibility (1/GPa) = 0.01997984
#
# Stress axis : x y z
#
# Youngs Moduli (GPa) = 88.46763 83.06706 122.71666
#
# Poissons Ratio (x) = 0.17843 0.20203
# Poissons Ratio (y) = 0.19003 0.24067
# Poissons Ratio (z) = 0.14565 0.16291
#
# Static dielectric constant tensor:
#      x y z
#    x 4.037040 0.000000 0.000000 
#    y 0.000000 4.236080 0.000000 
#    z 0.000000 0.000000 4.372210 
# 
# 
# High freq. dielectric constant tensor:
#      x y z
#    x 1.885670 0.000000 0.000000 
#    y 0.000000 1.894280 0.000000 
#    z 0.000000 0.000000 1.899300 
# 
# From -- ./inp_files/19035.got.cif
#   From: 2010.03.12/outbox.cif.g09.slc.cpg/sg53_10_cif.got.tgz:19035.got - 2010.04.16 14:36:59.
