data_PCOD8221898
_publ_section_title
;
Structure prediction by ZEFSAII (Michael W. Deem and Ramdas Pophale) SiO2 
 PCOD8221898
Probable space group: P M N A
;
_chemical_formula_sum "Si O2"
_cell_formula_units_Z 28
_cell_length_a 20.426837
_cell_length_b 12.896029
_cell_length_c 5.208899
_cell_angle_alpha 90.000000
_cell_angle_beta 90.000000
_cell_angle_gamma 90.000000
_cell_volume 1372.154648
_symmetry_space_group_name_H-M "P M N A"
_symmetry_group_IT_number 53
_symmetry_cell_setting 'orthorhombic'
loop_
_space_group_symop_operation_xyz
x,y,z
1/2-x,-y,1/2+z
x,-y,-z
1/2-x,y,1/2-z
-x,-y,-z
1/2+x,y,1/2-z
-x,y,z
1/2+x,-y,1/2+z
loop_
_atom_site_type_symbol
_atom_site_label
_atom_site_fract_x
_atom_site_fract_y
_atom_site_fract_z
Si Si1 0.709204 0.000000 0.500000
Si Si2 0.628431 0.797117 0.571313
Si Si3 0.677963 0.399251 0.648202
Si Si4 0.573453 0.282160 0.916228
O O1 0.666216 0.095764 0.406756
O O2 0.750000 0.964365 0.250000
O O3 0.679688 0.700961 0.540556
O O4 0.586842 0.782605 0.828067
O O5 0.580098 0.797081 0.325036
O O6 0.651885 0.500000 0.500000
O O7 0.750000 0.422225 0.750000
O O8 0.625831 0.376278 0.878529
O O9 0.500000 0.327754 0.925441
#
# Coordination Sequence:
#
# PCOD8221898 Si02
#       4
#     4   8   8   8
#     4  12  24  40  69 100 137 174 222 278 340 394
#     4  10  24  41  65  96 130 171 221 274 322 402
#     4  10  25  39  68  98 132 170 218 280 336 390
#     4  10  23  44  66  94 134 178 219 271 330 402
#
# _framework density 20.405863
#
# number of rings (size 3 to 8) (size 9 to 14) (size 15 to 20)
#    1.714    0.000    0.000    3.429    8.000    0.571 
#    0.000    5.714    0.000    0.000    0.000    0.000 
#    0.000    0.000    0.000    0.000    0.000    0.000 
#
# Total GULP energy -347007.784041 kJ/mol
# GULP energy per Si atom -12393.135144 kJ/mol
# Density = 2.035942 g / cm^3
# Si number density = 20.405863 Si / 1000 Ang^3
#
#
#
# Elastic Constant Matrix: (Units=GPa)
#
#
# Indices 1 2 3 4 5 6 
#
# 1 123.1861 31.8823 45.6455 0.0000 0.0000 0.0000
# 2 31.8823 117.5556 23.4735 0.0000 0.0000 0.0000
# 3 45.6455 23.4735 154.6758 0.0000 0.0000 0.0000
# 4 0.0000 0.0000 0.0000 18.6577 0.0000 0.0000
# 5 0.0000 0.0000 0.0000 0.0000 -63.2872 0.0000
# 6 0.0000 0.0000 0.0000 0.0000 0.0000 -3.5127
#
#
#
# Elastic Compliance Matrix: (Units=1/GPa)
#
#
# Indices 1 2 3 4 5 6 
#
# 1 0.009592 -0.002100 -0.002512 0.000000 0.000000 0.000000
# 2 -0.002100 0.009232 -0.000781 0.000000 0.000000 0.000000
# 3 -0.002512 -0.000781 0.007325 0.000000 0.000000 0.000000
# 4 0.000000 0.000000 0.000000 0.053597 0.000000 0.000000
# 5 0.000000 0.000000 0.000000 0.000000 -0.015801 0.000000
# 6 0.000000 0.000000 0.000000 0.000000 0.000000 -0.284683
#
#
# Mechanical properties :
#
#
# Convention : Reuss Voigt Hill
#
# Bulk Modulus (GPa) = 65.09254 66.38002 65.73628
# Shear Modulus (GPa) = -24.41048 9.99931 -7.20559
#
# Velocity S-wave (km/s) = -3.46243 2.21604 -1.88117
# Velocity P-wave (km/s) = 3.99795 6.25686 5.25033
#
# Compressibility (1/GPa) = 0.01536274
#
# Stress axis : x y z
#
# Youngs Moduli (GPa) = 104.25282 108.31720 136.51847
#
# Poissons Ratio (x) = 0.22745 0.34293
# Poissons Ratio (y) = 0.21892 0.10667
# Poissons Ratio (z) = 0.26188 0.08464
#
# Static dielectric constant tensor:
#      x y z
#    x 3.487310 0.000000 0.000000 
#    y 0.000000 3.420180 0.000000 
#    z 0.000000 0.000000 3.770090 
# 
# 
# High freq. dielectric constant tensor:
#      x y z
#    x 1.784450 0.000000 0.000000 
#    y 0.000000 1.780500 0.000000 
#    z 0.000000 0.000000 1.811390 
# 
# From -- ./inp_files/2703.got.cif
#   From: 2010.03.12/outbox.cif.g09.slc.cpg/sg53_2_cif.got.tgz:2703.got - 2010.04.16 14:36:59.
