data_PCOD8221468
_publ_section_title
;
Structure prediction by ZEFSAII (Michael W. Deem and Ramdas Pophale) SiO2 
 PCOD8221468
Probable space group: P M N A
;
_chemical_formula_sum "Si O2"
_cell_formula_units_Z 40
_cell_length_a 10.268521
_cell_length_b 13.680097
_cell_length_c 13.973859
_cell_angle_alpha 90.000000
_cell_angle_beta 90.000000
_cell_angle_gamma 90.000000
_cell_volume 1962.968946
_symmetry_space_group_name_H-M "P M N A"
_symmetry_group_IT_number 53
_symmetry_cell_setting 'orthorhombic'
loop_
_space_group_symop_operation_xyz
x,y,z
1/2-x,-y,1/2+z
x,-y,-z
1/2-x,y,1/2-z
-x,-y,-z
1/2+x,y,1/2-z
-x,y,z
1/2+x,-y,1/2+z
loop_
_atom_site_type_symbol
_atom_site_label
_atom_site_fract_x
_atom_site_fract_y
_atom_site_fract_z
Si Si1 0.255690 0.215322 0.549296
Si Si2 0.653253 0.397416 0.447679
Si Si3 0.000000 0.886496 0.522948
Si Si4 0.750000 0.322362 0.250000
Si Si5 0.500000 0.108989 0.527313
Si Si6 0.500000 0.025655 0.727519
Si Si7 0.000000 0.184855 0.268127
Si Si8 0.250000 0.869307 0.250000
O O1 0.267416 0.327634 0.519421
O O2 0.121534 0.169167 0.519538
O O3 0.371022 0.162639 0.489472
O O4 0.277930 0.203647 0.662276
O O5 0.670928 0.500000 0.500000
O O6 0.500000 0.370509 0.437804
O O7 0.722087 0.391090 0.342605
O O8 0.000000 0.879105 0.636202
O O9 0.000000 0.000000 0.500000
O O10 0.626316 0.252268 0.236819
O O11 0.500000 0.102880 0.641367
O O12 0.500000 0.000000 0.500000
O O13 0.367666 0.057549 0.782280
O O14 0.500000 0.909328 0.695138
#
# Coordination Sequence:
#
# PCOD8221468 Si02
#       8
#     8   8   4   4   4   4   4   4
#     4  11  22  40  62  92 129 173 221 273 324 389
#     4  11  25  47  74  99 131 169 224 280 339 399
#     4  12  24  38  60  98 140 180 212 266 334 389
#     4  12  25  45  70 100 130 172 216 278 340 392
#     4  10  22  34  58  88 126 170 229 265 313 395
#     4  10  22  36  54  91 127 183 221 268 314 386
#     4  12  24  38  66  93 138 176 220 267 325 391
#     4  10  21  39  58  86 136 174 228 268 318 384
#
# _framework density 20.377296999999999
#
# number of rings (size 3 to 8) (size 9 to 14) (size 15 to 20)
#    0.000    1.000    4.000    3.000    2.800    4.000 
#    0.000    2.000    0.000    0.000    0.000    0.000 
#    0.000    0.000    0.000    0.000    0.000    0.000 
#
# Total GULP energy -495676.238101 kJ/mol
# GULP energy per Si atom -12391.905953 kJ/mol
# Density = 2.033092 g / cm^3
# Si number density = 20.377297 Si / 1000 Ang^3
#
#
#
# Elastic Constant Matrix: (Units=GPa)
#
#
# Indices 1 2 3 4 5 6 
#
# 1 169.6309 71.6567 45.1612 0.0000 0.0000 0.0000
# 2 71.6567 137.4341 55.6793 0.0000 0.0000 0.0000
# 3 45.1612 55.6793 74.1283 0.0000 0.0000 0.0000
# 4 0.0000 0.0000 0.0000 39.2601 0.0000 0.0000
# 5 0.0000 0.0000 0.0000 0.0000 29.6897 0.0000
# 6 0.0000 0.0000 0.0000 0.0000 0.0000 28.1547
#
#
#
# Elastic Compliance Matrix: (Units=1/GPa)
#
#
# Indices 1 2 3 4 5 6 
#
# 1 0.007860 -0.003102 -0.002459 0.000000 0.000000 0.000000
# 2 -0.003102 0.011683 -0.006886 0.000000 0.000000 0.000000
# 3 -0.002459 -0.006886 0.020160 0.000000 0.000000 0.000000
# 4 0.000000 0.000000 0.000000 0.025471 0.000000 0.000000
# 5 0.000000 0.000000 0.000000 0.000000 0.033682 0.000000
# 6 0.000000 0.000000 0.000000 0.000000 0.000000 0.035518
#
#
# Mechanical properties :
#
#
# Convention : Reuss Voigt Hill
#
# Bulk Modulus (GPa) = 67.51900 80.68752 74.10326
# Shear Modulus (GPa) = 30.45001 33.33397 31.89199
#
# Velocity S-wave (km/s) = 3.86982 4.04894 3.96039
# Velocity P-wave (km/s) = 7.29203 7.84482 7.57347
#
# Compressibility (1/GPa) = 0.01481065
#
# Stress axis : x y z
#
# Youngs Moduli (GPa) = 127.22437 85.59274 49.60353
#
# Poissons Ratio (x) = 0.26552 0.12195
# Poissons Ratio (y) = 0.39467 0.34155
# Poissons Ratio (z) = 0.31279 0.58936
#
# Static dielectric constant tensor:
#      x y z
#    x 3.702760 0.000000 0.000000 
#    y 0.000000 3.478080 0.000000 
#    z 0.000000 0.000000 3.806860 
# 
# 
# High freq. dielectric constant tensor:
#      x y z
#    x 1.814280 0.000000 0.000000 
#    y 0.000000 1.782930 0.000000 
#    z 0.000000 0.000000 1.804880 
# 
# From -- ./inp_files/19976.got.cif
#   From: 2010.03.12/outbox.cif.g09.slc.cpg/sg53_10_cif.got.tgz:19976.got - 2010.04.16 14:36:59.
