data_PCOD8221582
_publ_section_title
;
Structure prediction by ZEFSAII (Michael W. Deem and Ramdas Pophale) SiO2 
 PCOD8221582
Probable space group: P M N A
;
_chemical_formula_sum "Si O2"
_cell_formula_units_Z 64
_cell_length_a 17.027758
_cell_length_b 15.869618
_cell_length_c 11.267383
_cell_angle_alpha 90.000000
_cell_angle_beta 90.000000
_cell_angle_gamma 90.000000
_cell_volume 3044.717471
_symmetry_space_group_name_H-M "P M N A"
_symmetry_group_IT_number 53
_symmetry_cell_setting 'orthorhombic'
loop_
_space_group_symop_operation_xyz
x,y,z
1/2-x,-y,1/2+z
x,-y,-z
1/2-x,y,1/2-z
-x,-y,-z
1/2+x,y,1/2-z
-x,y,z
1/2+x,-y,1/2+z
loop_
_atom_site_type_symbol
_atom_site_label
_atom_site_fract_x
_atom_site_fract_y
_atom_site_fract_z
Si Si1 0.161540 0.524746 0.872494
Si Si2 0.340422 0.461515 0.877730
Si Si3 0.909219 0.281817 0.625682
Si Si4 0.659810 0.960801 0.760118
Si Si5 0.907217 0.130589 0.779306
Si Si6 0.409905 0.132249 0.458700
Si Si7 0.089850 0.303676 0.166579
Si Si8 0.589213 0.808680 0.880798
O O1 0.250235 0.490805 0.875354
O O2 0.120899 0.490306 0.749385
O O3 0.153370 0.625272 0.865681
O O4 0.121268 0.500000 0.000000
O O5 0.351353 0.361178 0.883826
O O6 0.378995 0.500000 0.000000
O O7 0.878158 0.221021 0.730132
O O8 0.900650 0.222540 0.512464
O O9 0.000000 0.311812 0.641281
O O10 0.750000 0.979216 0.750000
O O11 0.632187 0.928677 0.632416
O O12 0.642022 0.891282 0.860654
O O13 0.619955 0.049520 0.796292
O O14 0.000000 0.134295 0.776550
O O15 0.872942 0.119593 0.911545
O O16 0.500000 0.104793 0.457234
O O17 0.400225 0.230378 0.429113
O O18 0.113876 0.267987 0.295195
O O19 0.000000 0.338710 0.166167
O O20 0.500000 0.834753 0.848910
#
# Coordination Sequence:
#
# PCOD8221582 Si02
#       8
#     8   8   8   8   8   8   8   8
#     4  10  22  38  56  87 120 155 198 248 314 367
#     4  10  22  42  58  83 120 163 205 243 311 384
#     4  10  22  40  64  90 114 154 209 256 304 360
#     4  11  22  39  55  96 127 159 201 245 301 367
#     4  10  21  40  65  89 120 162 206 254 303 358
#     4   9  19  39  66  89 119 163 206 249 300 360
#     4   9  18  35  61  89 115 149 199 254 299 352
#     4   9  19  40  65  88 118 159 206 251 297 355
#
# _framework density 21.020011
#
# number of rings (size 3 to 8) (size 9 to 14) (size 15 to 20)
#    0.000    2.250    0.000    3.000    1.750    2.500 
#   24.750    1.875    0.000    0.000    0.000    0.000 
#    0.000    0.000    0.000    0.000    0.000    0.000 
#
# Total GULP energy -793166.542668 kJ/mol
# GULP energy per Si atom -12393.227229 kJ/mol
# Density = 2.097217 g / cm^3
# Si number density = 21.020011 Si / 1000 Ang^3
#
#
#
# Elastic Constant Matrix: (Units=GPa)
#
#
# Indices 1 2 3 4 5 6 
#
# 1 40.5956 44.0878 13.3174 0.0000 0.0000 0.0000
# 2 44.0878 142.9580 33.5044 0.0000 0.0000 0.0000
# 3 13.3174 33.5044 119.0384 0.0000 0.0000 0.0000
# 4 0.0000 0.0000 0.0000 16.2809 0.0000 0.0000
# 5 0.0000 0.0000 0.0000 0.0000 28.3607 0.0000
# 6 0.0000 0.0000 0.0000 0.0000 0.0000 34.5994
#
#
#
# Elastic Compliance Matrix: (Units=1/GPa)
#
#
# Indices 1 2 3 4 5 6 
#
# 1 0.037149 -0.011223 -0.000997 0.000000 0.000000 0.000000
# 2 -0.011223 0.010880 -0.001807 0.000000 0.000000 0.000000
# 3 -0.000997 -0.001807 0.009021 0.000000 0.000000 0.000000
# 4 0.000000 0.000000 0.000000 0.061422 0.000000 0.000000
# 5 0.000000 0.000000 0.000000 0.000000 0.035260 0.000000
# 6 0.000000 0.000000 0.000000 0.000000 0.000000 0.028902
#
#
# Mechanical properties :
#
#
# Convention : Reuss Voigt Hill
#
# Bulk Modulus (GPa) = 34.48805 53.82346 44.15575
# Shear Modulus (GPa) = 22.69104 29.96036 26.32570
#
# Velocity S-wave (km/s) = 3.28913 3.77944 3.54278
# Velocity P-wave (km/s) = 5.55584 6.68633 6.14713
#
# Compressibility (1/GPa) = 0.02899555
#
# Stress axis : x y z
#
# Youngs Moduli (GPa) = 26.91897 91.91575 110.85614
#
# Poissons Ratio (x) = 1.03155 0.11055
# Poissons Ratio (y) = 0.30211 0.20027
# Poissons Ratio (z) = 0.02684 0.16605
#
# Static dielectric constant tensor:
#      x y z
#    x 3.444970 0.000000 0.000000 
#    y 0.000000 3.755370 0.000000 
#    z 0.000000 0.000000 4.496960 
# 
# 
# High freq. dielectric constant tensor:
#      x y z
#    x 1.786340 0.000000 0.000000 
#    y 0.000000 1.830360 0.000000 
#    z 0.000000 0.000000 1.837930 
# 
# From -- ./inp_files/17155.got.cif
#   From: 2010.03.12/outbox.cif.g09.slc.cpg/sg53_9_cif.got.tgz:17155.got - 2010.04.16 14:36:59.
