data_PCOD8221517
_publ_section_title
;
Structure prediction by ZEFSAII (Michael W. Deem and Ramdas Pophale) SiO2 
 PCOD8221517
Probable space group: P M N A
;
_chemical_formula_sum "Si O2"
_cell_formula_units_Z 40
_cell_length_a 19.226794
_cell_length_b 10.303559
_cell_length_c 9.130316
_cell_angle_alpha 90.000000
_cell_angle_beta 90.000000
_cell_angle_gamma 90.000000
_cell_volume 1808.755831
_symmetry_space_group_name_H-M "P M N A"
_symmetry_group_IT_number 53
_symmetry_cell_setting 'orthorhombic'
loop_
_space_group_symop_operation_xyz
x,y,z
1/2-x,-y,1/2+z
x,-y,-z
1/2-x,y,1/2-z
-x,-y,-z
1/2+x,y,1/2-z
-x,y,z
1/2+x,-y,1/2+z
loop_
_atom_site_type_symbol
_atom_site_label
_atom_site_fract_x
_atom_site_fract_y
_atom_site_fract_z
Si Si1 0.323135 0.240216 0.358972
Si Si2 0.577718 0.132378 0.559995
Si Si3 0.080302 0.282018 0.664750
Si Si4 0.175487 0.144353 0.438163
Si Si5 0.180496 0.478587 0.822537
O O1 0.380872 0.250369 0.484852
O O2 0.252462 0.206087 0.445892
O O3 0.343384 0.134165 0.234742
O O4 0.321998 0.373402 0.265717
O O5 0.500000 0.137797 0.498674
O O6 0.580852 0.152610 0.733688
O O7 0.613250 0.000000 0.500000
O O8 0.122152 0.241348 0.520323
O O9 0.114868 0.400323 0.756281
O O10 0.000000 0.319558 0.626845
O O11 0.173630 0.000000 0.500000
O O12 0.250000 0.414235 0.750000
O O13 0.182932 0.500000 0.000000
#
# Coordination Sequence:
#
# PCOD8221517 Si02
#       5
#     8   8   8   8   8
#     4  11  23  42  65  98 130 175 230 270 338 395
#     4  10  21  39  63  94 131 171 218 270 329 398
#     4  11  26  43  67 102 135 180 225 271 343 399
#     4  11  24  43  68  98 136 176 224 287 329 401
#     4  12  24  44  70  94 134 175 221 285 325 398
#
# _framework density 22.114647999999999
#
# number of rings (size 3 to 8) (size 9 to 14) (size 15 to 20)
#    0.000    1.000    4.000    3.000    0.000    4.000 
#    0.000    1.000    0.000    0.000    0.000    0.000 
#    0.000    0.000    0.000    0.000    0.000    0.000 
#
# Total GULP energy -495523.175144 kJ/mol
# GULP energy per Si atom -12388.079379 kJ/mol
# Density = 2.206431 g / cm^3
# Si number density = 22.114648 Si / 1000 Ang^3
#
#
#
# Elastic Constant Matrix: (Units=GPa)
#
#
# Indices 1 2 3 4 5 6 
#
# 1 146.2614 45.0254 76.0905 0.0000 0.0000 0.0000
# 2 45.0254 80.7218 20.4476 0.0000 0.0000 0.0000
# 3 76.0905 20.4476 115.4837 0.0000 0.0000 0.0000
# 4 0.0000 0.0000 0.0000 29.1666 0.0000 0.0000
# 5 0.0000 0.0000 0.0000 0.0000 37.9660 0.0000
# 6 0.0000 0.0000 0.0000 0.0000 0.0000 26.9677
#
#
#
# Elastic Compliance Matrix: (Units=1/GPa)
#
#
# Indices 1 2 3 4 5 6 
#
# 1 0.012017 -0.004918 -0.007047 0.000000 0.000000 0.000000
# 2 -0.004918 0.014983 0.000588 0.000000 0.000000 0.000000
# 3 -0.007047 0.000588 0.013198 0.000000 0.000000 0.000000
# 4 0.000000 0.000000 0.000000 0.034286 0.000000 0.000000
# 5 0.000000 0.000000 0.000000 0.000000 0.026339 0.000000
# 6 0.000000 0.000000 0.000000 0.000000 0.000000 0.037081
#
#
# Mechanical properties :
#
#
# Convention : Reuss Voigt Hill
#
# Bulk Modulus (GPa) = 57.32931 69.51043 63.41987
# Shear Modulus (GPa) = 30.03466 32.21362 31.12414
#
# Velocity S-wave (km/s) = 3.68929 3.82077 3.75560
# Velocity P-wave (km/s) = 6.64287 7.13894 6.89537
#
# Compressibility (1/GPa) = 0.01744308
#
# Stress axis : x y z
#
# Youngs Moduli (GPa) = 83.21395 66.74443 75.76621
#
# Poissons Ratio (x) = 0.32824 0.53394
# Poissons Ratio (y) = 0.40924 -0.04451
# Poissons Ratio (z) = 0.58643 -0.03921
#
# Static dielectric constant tensor:
#      x y z
#    x 3.966180 0.000000 0.000000 
#    y 0.000000 4.316010 0.000000 
#    z 0.000000 0.000000 3.992860 
# 
# 
# High freq. dielectric constant tensor:
#      x y z
#    x 1.867460 0.000000 0.000000 
#    y 0.000000 1.870820 0.000000 
#    z 0.000000 0.000000 1.877920 
# 
# From -- ./inp_files/10778.got.cif
#   From: 2010.03.12/outbox.cif.g09.slc.cpg/sg53_6_cif.got.tgz:10778.got - 2010.04.16 14:36:59.
