data_PCOD8221406
_publ_section_title
;
Structure prediction by ZEFSAII (Michael W. Deem and Ramdas Pophale) SiO2 
 PCOD8221406
Probable space group: P M N A
;
_chemical_formula_sum "Si O2"
_cell_formula_units_Z 40
_cell_length_a 8.903364
_cell_length_b 24.718617
_cell_length_c 9.214067
_cell_angle_alpha 90.000000
_cell_angle_beta 90.000000
_cell_angle_gamma 90.000000
_cell_volume 2027.821221
_symmetry_space_group_name_H-M "P M N A"
_symmetry_group_IT_number 53
_symmetry_cell_setting 'orthorhombic'
loop_
_space_group_symop_operation_xyz
x,y,z
1/2-x,-y,1/2+z
x,-y,-z
1/2-x,y,1/2-z
-x,-y,-z
1/2+x,y,1/2-z
-x,y,z
1/2+x,-y,1/2+z
loop_
_atom_site_type_symbol
_atom_site_label
_atom_site_fract_x
_atom_site_fract_y
_atom_site_fract_z
Si Si1 0.825787 0.448356 0.598872
Si Si2 0.176192 0.050172 0.406112
Si Si3 0.177099 0.153361 0.596262
Si Si4 0.673911 0.364589 0.399292
Si Si5 0.825574 0.761799 0.900104
O O1 0.797182 0.500000 0.500000
O O2 0.750000 0.462157 0.750000
O O3 0.749582 0.395387 0.532052
O O4 0.000000 0.435791 0.621366
O O5 0.250000 0.050171 0.250000
O O6 0.219210 0.105099 0.487882
O O7 0.000000 0.044330 0.383457
O O8 0.238661 0.000000 0.500000
O O9 0.250000 0.139866 0.750000
O O10 0.246695 0.208399 0.533686
O O11 0.000000 0.160476 0.615594
O O12 0.750000 0.383366 0.250000
O O13 0.500000 0.379962 0.389468
O O14 0.699263 0.301422 0.427302
O O15 0.750000 0.780478 0.750000
O O16 0.000000 0.777368 0.892802
#
# Coordination Sequence:
#
# PCOD8221406 Si02
#       5
#     8   8   8   8   8
#     4  11  24  40  60  86 116 151 190 234 284 338
#     4  10  22  39  59  85 115 148 188 233 283 339
#     4  11  23  38  58  84 115 152 193 237 286 339
#     4  10  21  38  61  87 116 151 190 234 284 338
#     4  10  21  38  60  86 116 151 191 235 284 338
#
# _framework density 19.725605000000002
#
# number of rings (size 3 to 8) (size 9 to 14) (size 15 to 20)
#    0.000    1.600    0.000    4.200    0.000   10.000 
#    0.000    0.000    0.000    0.000    0.000    0.000 
#    0.000    0.000    0.000    0.000    0.000    0.000 
#
# Total GULP energy -496292.611282 kJ/mol
# GULP energy per Si atom -12407.315282 kJ/mol
# Density = 1.968071 g / cm^3
# Si number density = 19.725605 Si / 1000 Ang^3
#
#
#
# Elastic Constant Matrix: (Units=GPa)
#
#
# Indices 1 2 3 4 5 6 
#
# 1 130.2629 65.2631 85.5213 0.0000 0.0000 0.0000
# 2 65.2631 81.4453 59.2287 0.0000 0.0000 0.0000
# 3 85.5213 59.2287 162.2574 0.0000 0.0000 0.0000
# 4 0.0000 0.0000 0.0000 32.1196 0.0000 0.0000
# 5 0.0000 0.0000 0.0000 0.0000 43.8751 0.0000
# 6 0.0000 0.0000 0.0000 0.0000 0.0000 18.2796
#
#
#
# Elastic Compliance Matrix: (Units=1/GPa)
#
#
# Indices 1 2 3 4 5 6 
#
# 1 0.015195 -0.008647 -0.004852 0.000000 0.000000 0.000000
# 2 -0.008647 0.021636 -0.003340 0.000000 0.000000 0.000000
# 3 -0.004852 -0.003340 0.009940 0.000000 0.000000 0.000000
# 4 0.000000 0.000000 0.000000 0.031134 0.000000 0.000000
# 5 0.000000 0.000000 0.000000 0.000000 0.022792 0.000000
# 6 0.000000 0.000000 0.000000 0.000000 0.000000 0.054706
#
#
# Mechanical properties :
#
#
# Convention : Reuss Voigt Hill
#
# Bulk Modulus (GPa) = 76.38451 88.22131 82.30291
# Shear Modulus (GPa) = 25.84713 29.78504 27.81609
#
# Velocity S-wave (km/s) = 3.62378 3.89005 3.75927
# Velocity P-wave (km/s) = 7.50444 8.06213 7.78828
#
# Compressibility (1/GPa) = 0.01309166
#
# Stress axis : x y z
#
# Youngs Moduli (GPa) = 65.81255 46.21875 100.60526
#
# Poissons Ratio (x) = 0.39965 0.48816
# Poissons Ratio (y) = 0.56908 0.33605
# Poissons Ratio (z) = 0.31934 0.15438
#
# Static dielectric constant tensor:
#      x y z
#    x 3.707470 0.000000 0.000000 
#    y 0.000000 3.640690 0.000000 
#    z 0.000000 0.000000 3.626980 
# 
# 
# High freq. dielectric constant tensor:
#      x y z
#    x 1.781170 0.000000 0.000000 
#    y 0.000000 1.778880 0.000000 
#    z 0.000000 0.000000 1.776490 
# 
# From -- ./inp_files/6248.got.cif
#   From: 2010.03.12/outbox.cif.g09.slc.cpg/sg53_4_cif.got.tgz:6248.got - 2010.04.16 14:36:59.
