data_PCOD8221576
_publ_section_title
;
Structure prediction by ZEFSAII (Michael W. Deem and Ramdas Pophale) SiO2 
 PCOD8221576
Probable space group: P M N A
;
_chemical_formula_sum "Si O2"
_cell_formula_units_Z 48
_cell_length_a 32.433909
_cell_length_b 8.333528
_cell_length_c 8.860874
_cell_angle_alpha 90.000000
_cell_angle_beta 90.000000
_cell_angle_gamma 90.000000
_cell_volume 2394.995787
_symmetry_space_group_name_H-M "P M N A"
_symmetry_group_IT_number 53
_symmetry_cell_setting 'orthorhombic'
loop_
_space_group_symop_operation_xyz
x,y,z
1/2-x,-y,1/2+z
x,-y,-z
1/2-x,y,1/2-z
-x,-y,-z
1/2+x,y,1/2-z
-x,y,z
1/2+x,-y,1/2+z
loop_
_atom_site_type_symbol
_atom_site_label
_atom_site_fract_x
_atom_site_fract_y
_atom_site_fract_z
Si Si1 0.708410 0.572909 0.838824
Si Si2 0.146855 0.175252 0.435460
Si Si3 0.500000 0.121349 0.766185
Si Si4 0.580028 0.683455 0.750848
Si Si5 0.080091 0.827852 0.062627
Si Si6 0.866712 0.627835 0.270781
Si Si7 0.500000 0.230592 0.100365
O O1 0.750000 0.601585 0.750000
O O2 0.687279 0.747663 0.858562
O O3 0.678719 0.449523 0.746368
O O4 0.719659 0.500000 0.000000
O O5 0.109874 0.172910 0.312864
O O6 0.131110 0.291925 0.566309
O O7 0.157066 0.000000 0.500000
O O8 0.459205 0.163910 0.672345
O O9 0.500000 0.935067 0.807032
O O10 0.500000 0.218928 0.920565
O O11 0.568351 0.714809 0.577480
O O12 0.600235 0.511632 0.766138
O O13 0.539711 0.670361 0.852114
O O14 0.121019 0.758031 0.144427
O O15 0.092819 0.000000 0.000000
#
# Coordination Sequence:
#
# PCOD8221576 Si02
#       7
#     8   8   4   8   8   8   4
#     4   9  20  40  66  91 124 159 197 246 303 366
#     4  10  21  40  64  92 121 160 204 249 300 369
#     4  11  24  38  57  86 125 164 207 256 309 358
#     4  11  22  37  61  87 122 159 207 255 304 355
#     4  12  22  38  59  88 125 161 205 255 305 358
#     4  10  23  41  61  91 120 161 204 246 309 369
#     4  11  23  39  60  86 118 170 210 253 304 357
#
# _framework density 20.041789000000001
#
# number of rings (size 3 to 8) (size 9 to 14) (size 15 to 20)
#    0.000    1.500    1.667    4.750    2.333    3.333 
#    0.000    7.500    0.000    5.000    0.000    0.000 
#    0.000    0.000    0.000    0.000    0.000    0.000 
#
# Total GULP energy -595238.097913 kJ/mol
# GULP energy per Si atom -12400.793707 kJ/mol
# Density = 1.999617 g / cm^3
# Si number density = 20.041789 Si / 1000 Ang^3
#
#
#
# Elastic Constant Matrix: (Units=GPa)
#
#
# Indices 1 2 3 4 5 6 
#
# 1 151.8033 62.6057 78.0009 0.0000 0.0000 0.0000
# 2 62.6057 105.8665 51.0345 0.0000 0.0000 0.0000
# 3 78.0009 51.0345 125.0475 0.0000 0.0000 0.0000
# 4 0.0000 0.0000 0.0000 29.1493 0.0000 0.0000
# 5 0.0000 0.0000 0.0000 0.0000 45.8270 0.0000
# 6 0.0000 0.0000 0.0000 0.0000 0.0000 19.1719
#
#
#
# Elastic Compliance Matrix: (Units=1/GPa)
#
#
# Indices 1 2 3 4 5 6 
#
# 1 0.010868 -0.003933 -0.005174 0.000000 0.000000 0.000000
# 2 -0.003933 0.013182 -0.002927 0.000000 0.000000 0.000000
# 3 -0.005174 -0.002927 0.012419 0.000000 0.000000 0.000000
# 4 0.000000 0.000000 0.000000 0.034306 0.000000 0.000000
# 5 0.000000 0.000000 0.000000 0.000000 0.021821 0.000000
# 6 0.000000 0.000000 0.000000 0.000000 0.000000 0.052160
#
#
# Mechanical properties :
#
#
# Convention : Reuss Voigt Hill
#
# Bulk Modulus (GPa) = 80.63258 85.11105 82.87181
# Shear Modulus (GPa) = 28.90879 31.56806 30.23842
#
# Velocity S-wave (km/s) = 3.80205 3.97307 3.88850
# Velocity P-wave (km/s) = 7.71969 7.97534 7.84856
#
# Compressibility (1/GPa) = 0.01240194
#
# Stress axis : x y z
#
# Youngs Moduli (GPa) = 92.01356 75.85817 80.52199
#
# Poissons Ratio (x) = 0.29833 0.41663
# Poissons Ratio (y) = 0.36186 0.23569
# Poissons Ratio (z) = 0.47609 0.22203
#
# Static dielectric constant tensor:
#      x y z
#    x 3.571730 0.000000 0.000000 
#    y 0.000000 3.743800 0.000000 
#    z 0.000000 0.000000 3.912690 
# 
# 
# High freq. dielectric constant tensor:
#      x y z
#    x 1.771400 0.000000 0.000000 
#    y 0.000000 1.782790 0.000000 
#    z 0.000000 0.000000 1.795320 
# 
# From -- ./inp_files/13100.got.cif
#   From: 2010.03.12/outbox.cif.g09.slc.cpg/sg53_7_cif.got.tgz:13100.got - 2010.04.16 14:36:59.
