data_PCOD8221147
_publ_section_title
;
Structure prediction by ZEFSAII (Michael W. Deem and Ramdas Pophale) SiO2 
 PCOD8221147
Probable space group: P M N A
;
_chemical_formula_sum "Si O2"
_cell_formula_units_Z 44
_cell_length_a 14.711552
_cell_length_b 14.357039
_cell_length_c 10.827483
_cell_angle_alpha 90.000000
_cell_angle_beta 90.000000
_cell_angle_gamma 90.000000
_cell_volume 2286.919522
_symmetry_space_group_name_H-M "P M N A"
_symmetry_group_IT_number 53
_symmetry_cell_setting 'orthorhombic'
loop_
_space_group_symop_operation_xyz
x,y,z
1/2-x,-y,1/2+z
x,-y,-z
1/2-x,y,1/2-z
-x,-y,-z
1/2+x,y,1/2-z
-x,y,z
1/2+x,-y,1/2+z
loop_
_atom_site_type_symbol
_atom_site_label
_atom_site_fract_x
_atom_site_fract_y
_atom_site_fract_z
Si Si1 0.249107 0.579108 0.603604
Si Si2 0.104071 0.902586 0.430573
Si Si3 0.897506 0.728435 0.598807
Si Si4 0.750000 0.031696 0.750000
Si Si5 0.101071 0.273272 0.118095
Si Si6 0.401296 0.072100 0.393621
O O1 0.255929 0.500000 0.500000
O O2 0.250000 0.546111 0.750000
O O3 0.159417 0.636284 0.569190
O O4 0.333508 0.645719 0.574460
O O5 0.131035 0.818273 0.520293
O O6 0.182651 0.901153 0.327033
O O7 0.000000 0.890541 0.379133
O O8 0.111993 0.000000 0.500000
O O9 0.881812 0.755873 0.740197
O O10 0.000000 0.699456 0.569401
O O11 0.684995 0.960044 0.681459
O O12 0.118294 0.174984 0.048306
O O13 0.000000 0.312062 0.095403
O O14 0.500000 0.077096 0.320150
O O15 0.416430 0.000000 0.500000
#
# Coordination Sequence:
#
# PCOD8221147 Si02
#       6
#     8   8   8   4   8   8
#     4  10  22  39  62  88 114 143 191 247 301 355
#     4  10  21  36  54  82 117 153 194 236 280 340
#     4   9  19  37  60  83 110 148 193 235 280 342
#     4  12  22  30  54  82 116 156 190 232 282 328
#     4   9  19  36  60  83 110 150 192 235 282 342
#     4  10  22  36  51  79 117 152 189 229 276 335
#
# _framework density 19.239854999999999
#
# number of rings (size 3 to 8) (size 9 to 14) (size 15 to 20)
#    0.000    2.182    0.000    2.182    8.909    3.636 
#    1.636    0.000    0.000    0.000    0.000    0.000 
#    0.000    0.000    0.000    0.000    0.000    0.000 
#
# Total GULP energy -545101.658862 kJ/mol
# GULP energy per Si atom -12388.674065 kJ/mol
# Density = 1.919606 g / cm^3
# Si number density = 19.239855 Si / 1000 Ang^3
#
#
#
# Elastic Constant Matrix: (Units=GPa)
#
#
# Indices 1 2 3 4 5 6 
#
# 1 139.4862 64.6312 48.5615 0.0000 0.0000 0.0000
# 2 64.6312 143.7195 63.8808 0.0000 0.0000 0.0000
# 3 48.5615 63.8808 66.2851 0.0000 0.0000 0.0000
# 4 0.0000 0.0000 0.0000 36.9755 0.0000 0.0000
# 5 0.0000 0.0000 0.0000 0.0000 47.2186 0.0000
# 6 0.0000 0.0000 0.0000 0.0000 0.0000 37.5048
#
#
#
# Elastic Compliance Matrix: (Units=1/GPa)
#
#
# Indices 1 2 3 4 5 6 
#
# 1 0.009996 -0.002170 -0.005232 0.000000 0.000000 0.000000
# 2 -0.002170 0.012643 -0.010595 0.000000 0.000000 0.000000
# 3 -0.005232 -0.010595 0.029130 0.000000 0.000000 0.000000
# 4 0.000000 0.000000 0.000000 0.027045 0.000000 0.000000
# 5 0.000000 0.000000 0.000000 0.000000 0.021178 0.000000
# 6 0.000000 0.000000 0.000000 0.000000 0.000000 0.026663
#
#
# Mechanical properties :
#
#
# Convention : Reuss Voigt Hill
#
# Bulk Modulus (GPa) = 63.38919 78.18198 70.78558
# Shear Modulus (GPa) = 29.77827 35.83426 32.80627
#
# Velocity S-wave (km/s) = 3.93840 4.32035 4.13379
# Velocity P-wave (km/s) = 7.32800 8.10006 7.72368
#
# Compressibility (1/GPa) = 0.01577556
#
# Stress axis : x y z
#
# Youngs Moduli (GPa) = 100.03920 79.09594 34.32857
#
# Poissons Ratio (x) = 0.17160 0.17962
# Poissons Ratio (y) = 0.21704 0.36371
# Poissons Ratio (z) = 0.52345 0.83801
#
# Static dielectric constant tensor:
#      x y z
#    x -2.579570 0.000000 0.000000 
#    y 0.000000 3.417620 0.000000 
#    z 0.000000 0.000000 3.329780 
# 
# 
# High freq. dielectric constant tensor:
#      x y z
#    x 1.780130 0.000000 0.000000 
#    y 0.000000 1.735900 0.000000 
#    z 0.000000 0.000000 1.714780 
# 
# From -- ./inp_files/15890.got.cif
#   From: 2010.03.12/outbox.cif.g09.slc.cpg/sg53_8_cif.got.tgz:15890.got - 2010.04.16 14:36:59.
