data_PCOD8221798
_publ_section_title
;
Structure prediction by ZEFSAII (Michael W. Deem and Ramdas Pophale) SiO2 
 PCOD8221798
Probable space group: P M N A
;
_chemical_formula_sum "Si O2"
_cell_formula_units_Z 56
_cell_length_a 16.831678
_cell_length_b 11.490747
_cell_length_c 14.164042
_cell_angle_alpha 90.000000
_cell_angle_beta 90.000000
_cell_angle_gamma 90.000000
_cell_volume 2739.446875
_symmetry_space_group_name_H-M "P M N A"
_symmetry_group_IT_number 53
_symmetry_cell_setting 'orthorhombic'
loop_
_space_group_symop_operation_xyz
x,y,z
1/2-x,-y,1/2+z
x,-y,-z
1/2-x,y,1/2-z
-x,-y,-z
1/2+x,y,1/2-z
-x,y,z
1/2+x,-y,1/2+z
loop_
_atom_site_type_symbol
_atom_site_label
_atom_site_fract_x
_atom_site_fract_y
_atom_site_fract_z
Si Si1 0.684448 0.819111 0.536893
Si Si2 0.088419 0.408254 0.081322
Si Si3 0.824854 0.829075 0.180814
Si Si4 0.907709 0.541402 0.600213
Si Si5 0.157034 0.576754 0.232532
Si Si6 0.185494 0.237331 0.324980
Si Si7 0.092959 0.939142 0.806316
O O1 0.645333 0.692621 0.545578
O O2 0.698766 0.852377 0.428079
O O3 0.770433 0.822832 0.586779
O O4 0.626550 0.909527 0.589644
O O5 0.128769 0.468739 0.170252
O O6 0.000000 0.361322 0.109303
O O7 0.078697 0.500000 0.000000
O O8 0.750000 0.837130 0.250000
O O9 0.865162 0.701742 0.187868
O O10 0.887247 0.926193 0.214805
O O11 0.872885 0.500000 0.500000
O O12 0.890213 0.433457 0.669346
O O13 0.864956 0.656264 0.636834
O O14 0.000000 0.570046 0.592477
O O15 0.250000 0.566530 0.250000
O O16 0.250000 0.284852 0.250000
O O17 0.130537 0.142283 0.274128
O O18 0.000000 0.919409 0.805087
#
# Coordination Sequence:
#
# PCOD8221798 Si02
#       7
#     8   8   8   8   8   8   8
#     4  11  22  40  67  95 122 161 212 254 309 363
#     4  11  22  37  59  92 131 162 193 245 312 373
#     4  11  25  41  62  93 123 166 208 258 309 362
#     4  11  24  39  61  91 125 163 203 252 307 367
#     4  11  23  39  61  90 125 163 206 251 306 369
#     4  10  22  41  67  92 121 163 205 258 304 369
#     4  11  24  43  66  92 124 160 206 258 314 371
#
# _framework density 20.442081999999999
#
# number of rings (size 3 to 8) (size 9 to 14) (size 15 to 20)
#    0.000    1.143    1.429    6.000    4.000    4.000 
#    0.000    0.000    0.000    0.857    0.000    0.000 
#    0.000    0.000    0.000    0.000    0.000    0.000 
#
# Total GULP energy -694461.368090 kJ/mol
# GULP energy per Si atom -12401.095859 kJ/mol
# Density = 2.039556 g / cm^3
# Si number density = 20.442082 Si / 1000 Ang^3
#
#
#
# Elastic Constant Matrix: (Units=GPa)
#
#
# Indices 1 2 3 4 5 6 
#
# 1 112.2526 43.9304 58.2791 0.0000 0.0000 0.0000
# 2 43.9304 92.4052 45.2478 0.0000 0.0000 0.0000
# 3 58.2791 45.2478 141.8493 0.0000 0.0000 0.0000
# 4 0.0000 0.0000 0.0000 28.9297 0.0000 0.0000
# 5 0.0000 0.0000 0.0000 0.0000 25.0349 0.0000
# 6 0.0000 0.0000 0.0000 0.0000 0.0000 16.4409
#
#
#
# Elastic Compliance Matrix: (Units=1/GPa)
#
#
# Indices 1 2 3 4 5 6 
#
# 1 0.012489 -0.004059 -0.003836 0.000000 0.000000 0.000000
# 2 -0.004059 0.014144 -0.002844 0.000000 0.000000 0.000000
# 3 -0.003836 -0.002844 0.009533 0.000000 0.000000 0.000000
# 4 0.000000 0.000000 0.000000 0.034567 0.000000 0.000000
# 5 0.000000 0.000000 0.000000 0.000000 0.039944 0.000000
# 6 0.000000 0.000000 0.000000 0.000000 0.000000 0.060824
#
#
# Mechanical properties :
#
#
# Convention : Reuss Voigt Hill
#
# Bulk Modulus (GPa) = 68.08543 71.26908 69.67726
# Shear Modulus (GPa) = 25.26848 27.35109 26.30978
#
# Velocity S-wave (km/s) = 3.51964 3.66181 3.59143
# Velocity P-wave (km/s) = 7.06371 7.26760 7.16638
#
# Compressibility (1/GPa) = 0.01468743
#
# Stress axis : x y z
#
# Youngs Moduli (GPa) = 80.07313 70.70047 104.89697
#
# Poissons Ratio (x) = 0.28695 0.40242
# Poissons Ratio (y) = 0.32499 0.29835
# Poissons Ratio (z) = 0.30718 0.20109
#
# Static dielectric constant tensor:
#      x y z
#    x 3.846130 0.000000 0.000000 
#    y 0.000000 3.883170 0.000000 
#    z 0.000000 0.000000 3.919080 
# 
# 
# High freq. dielectric constant tensor:
#      x y z
#    x 1.796340 0.000000 0.000000 
#    y 0.000000 1.807130 0.000000 
#    z 0.000000 0.000000 1.808340 
# 
# From -- ./inp_files/22829.got.cif
#   From: 2010.03.12/outbox.cif.g09.slc.cpg/sg53_12_cif.got.tgz:22829.got - 2010.04.16 14:36:59.
