data_PCOD8221464
_publ_section_title
;
Structure prediction by ZEFSAII (Michael W. Deem and Ramdas Pophale) SiO2 
 PCOD8221464
Probable space group: P M N A
;
_chemical_formula_sum "Si O2"
_cell_formula_units_Z 32
_cell_length_a 12.723248
_cell_length_b 13.318411
_cell_length_c 8.651712
_cell_angle_alpha 90.000000
_cell_angle_beta 90.000000
_cell_angle_gamma 90.000000
_cell_volume 1466.062413
_symmetry_space_group_name_H-M "P M N A"
_symmetry_group_IT_number 53
_symmetry_cell_setting 'orthorhombic'
loop_
_space_group_symop_operation_xyz
x,y,z
1/2-x,-y,1/2+z
x,-y,-z
1/2-x,y,1/2-z
-x,-y,-z
1/2+x,y,1/2-z
-x,y,z
1/2+x,-y,1/2+z
loop_
_atom_site_type_symbol
_atom_site_label
_atom_site_fract_x
_atom_site_fract_y
_atom_site_fract_z
Si Si1 0.328653 0.757368 0.624750
Si Si2 0.000000 0.880312 0.346401
Si Si3 0.500000 0.392539 0.411661
Si Si4 0.000000 0.891607 0.715303
Si Si5 0.500000 0.386866 0.041422
Si Si6 0.324298 0.740805 0.122868
O O1 0.250000 0.708392 0.750000
O O2 0.396052 0.668958 0.541555
O O3 0.397859 0.845362 0.702005
O O4 0.252831 0.801930 0.492609
O O5 0.896159 0.822862 0.288611
O O6 0.000000 0.868341 0.533441
O O7 0.000000 0.988721 0.268433
O O8 0.500000 0.500000 0.500000
O O9 0.500000 0.383831 0.225721
O O10 0.500000 0.500000 0.000000
O O11 0.395261 0.338313 0.970102
O O12 0.250000 0.685988 0.250000
#
# Coordination Sequence:
#
# PCOD8221464 Si02
#       6
#     8   4   4   4   4   8
#     4  11  20  43  67  93 132 184 220 271 340 401
#     4  10  21  42  62 102 136 170 226 285 340 394
#     4  11  25  41  67 102 131 171 231 278 333 418
#     4  10  21  38  70  96 135 175 224 284 339 402
#     4  11  25  45  63  96 141 172 218 287 346 395
#     4  11  24  43  68  94 140 181 221 280 341 402
#
# _framework density 21.827172999999998
#
# number of rings (size 3 to 8) (size 9 to 14) (size 15 to 20)
#    0.000    1.250    5.000    1.500    3.500    5.000 
#    0.000    1.250    0.000    0.000    0.000    0.000 
#    0.000    0.000    0.000    0.000    0.000    0.000 
#
# Total GULP energy -396431.624145 kJ/mol
# GULP energy per Si atom -12388.488255 kJ/mol
# Density = 2.177749 g / cm^3
# Si number density = 21.827173 Si / 1000 Ang^3
#
#
#
# Elastic Constant Matrix: (Units=GPa)
#
#
# Indices 1 2 3 4 5 6 
#
# 1 171.4344 74.5265 64.1224 0.0000 0.0000 0.0000
# 2 74.5265 155.8914 35.4822 0.0000 0.0000 0.0000
# 3 64.1224 35.4822 89.8491 0.0000 0.0000 0.0000
# 4 0.0000 0.0000 0.0000 39.7432 0.0000 0.0000
# 5 0.0000 0.0000 0.0000 0.0000 37.7077 0.0000
# 6 0.0000 0.0000 0.0000 0.0000 0.0000 9.5305
#
#
#
# Elastic Compliance Matrix: (Units=1/GPa)
#
#
# Indices 1 2 3 4 5 6 
#
# 1 0.009207 -0.003193 -0.005310 0.000000 0.000000 0.000000
# 2 -0.003193 0.008156 -0.000942 0.000000 0.000000 0.000000
# 3 -0.005310 -0.000942 0.015291 0.000000 0.000000 0.000000
# 4 0.000000 0.000000 0.000000 0.025162 0.000000 0.000000
# 5 0.000000 0.000000 0.000000 0.000000 0.026520 0.000000
# 6 0.000000 0.000000 0.000000 0.000000 0.000000 0.104926
#
#
# Mechanical properties :
#
#
# Convention : Reuss Voigt Hill
#
# Bulk Modulus (GPa) = 72.65200 85.04859 78.85030
# Shear Modulus (GPa) = 23.50284 33.59920 28.55102
#
# Velocity S-wave (km/s) = 3.28498 3.92768 3.62062
# Velocity P-wave (km/s) = 6.90981 7.72127 7.32678
#
# Compressibility (1/GPa) = 0.01376425
#
# Stress axis : x y z
#
# Youngs Moduli (GPa) = 108.60825 122.61454 65.39655
#
# Poissons Ratio (x) = 0.39153 0.34726
# Poissons Ratio (y) = 0.34680 0.06160
# Poissons Ratio (z) = 0.57671 0.11549
#
# Static dielectric constant tensor:
#      x y z
#    x 4.356820 0.000000 0.000000 
#    y 0.000000 3.710350 0.000000 
#    z 0.000000 0.000000 4.022940 
# 
# 
# High freq. dielectric constant tensor:
#      x y z
#    x 1.888790 0.000000 0.000000 
#    y 0.000000 1.822840 0.000000 
#    z 0.000000 0.000000 1.866030 
# 
# From -- ./inp_files/7354.got.cif
#   From: 2010.03.12/outbox.cif.g09.slc.cpg/sg53_4_cif.got.tgz:7354.got - 2010.04.16 14:36:59.
