data_PCOD8221685
_publ_section_title
;
Structure prediction by ZEFSAII (Michael W. Deem and Ramdas Pophale) SiO2 
 PCOD8221685
Probable space group: P M N A
;
_chemical_formula_sum "Si O2"
_cell_formula_units_Z 56
_cell_length_a 9.041116
_cell_length_b 18.815682
_cell_length_c 17.007964
_cell_angle_alpha 90.000000
_cell_angle_beta 90.000000
_cell_angle_gamma 90.000000
_cell_volume 2893.305775
_symmetry_space_group_name_H-M "P M N A"
_symmetry_group_IT_number 53
_symmetry_cell_setting 'orthorhombic'
loop_
_space_group_symop_operation_xyz
x,y,z
1/2-x,-y,1/2+z
x,-y,-z
1/2-x,y,1/2-z
-x,-y,-z
1/2+x,y,1/2-z
-x,y,z
1/2+x,-y,1/2+z
loop_
_atom_site_type_symbol
_atom_site_label
_atom_site_fract_x
_atom_site_fract_y
_atom_site_fract_z
Si Si1 0.675273 0.851902 0.330725
Si Si2 0.327723 0.468287 0.416969
Si Si3 0.169692 0.416589 0.674064
Si Si4 0.831502 0.786386 0.571103
Si Si5 0.666940 0.274168 0.902720
Si Si6 0.673119 0.920463 0.023084
Si Si7 0.672657 0.325361 0.331863
O O1 0.750000 0.877804 0.250000
O O2 0.500000 0.857900 0.323641
O O3 0.720910 0.770687 0.348956
O O4 0.732550 0.902389 0.400264
O O5 0.268369 0.500000 0.500000
O O6 0.500000 0.485155 0.409692
O O7 0.242745 0.509509 0.349009
O O8 0.295180 0.385062 0.399386
O O9 0.250000 0.385256 0.750000
O O10 0.193624 0.357875 0.606701
O O11 0.000000 0.431053 0.693154
O O12 0.806716 0.740156 0.493531
O O13 0.786220 0.867787 0.549794
O O14 0.730160 0.751566 0.638342
O O15 0.000000 0.783032 0.600915
O O16 0.500000 0.252761 0.877302
O O17 0.500000 0.910884 0.043380
O O18 0.714181 0.000000 0.000000
O O19 0.750000 0.346253 0.250000
O O20 0.500000 0.318815 0.315126
#
# Coordination Sequence:
#
# PCOD8221685 Si02
#       7
#     8   8   8   8   8   8   8
#     4  11  21  33  53  81 113 148 186 226 269 323
#     4  10  22  39  57  78 105 138 180 231 285 337
#     4  11  22  34  51  76 106 140 177 219 268 321
#     4   9  18  35  59  84 109 138 176 220 267 324
#     4   9  19  35  54  79 110 143 179 219 268 326
#     4   9  19  38  62  86 115 148 180 221 276 334
#     4  11  23  38  57  80 109 147 190 236 284 335
#
# _framework density 19.355024
#
# number of rings (size 3 to 8) (size 9 to 14) (size 15 to 20)
#    0.000    2.000    0.000    4.714    0.000    7.429 
#    0.000    0.714    0.000    0.000    0.000    0.000 
#    0.000    0.000    0.000    0.000    0.000    0.000 
#
# Total GULP energy -694342.981832 kJ/mol
# GULP energy per Si atom -12398.981818 kJ/mol
# Density = 1.931097 g / cm^3
# Si number density = 19.355024 Si / 1000 Ang^3
#
#
#
# Elastic Constant Matrix: (Units=GPa)
#
#
# Indices 1 2 3 4 5 6 
#
# 1 99.7822 47.7266 48.0739 0.0000 0.0000 0.0000
# 2 47.7266 115.9439 39.7066 0.0000 0.0000 0.0000
# 3 48.0739 39.7066 82.3104 0.0000 0.0000 0.0000
# 4 0.0000 0.0000 0.0000 18.0723 0.0000 0.0000
# 5 0.0000 0.0000 0.0000 0.0000 33.6674 0.0000
# 6 0.0000 0.0000 0.0000 0.0000 0.0000 25.0969
#
#
#
# Elastic Compliance Matrix: (Units=1/GPa)
#
#
# Indices 1 2 3 4 5 6 
#
# 1 0.015271 -0.003871 -0.007052 0.000000 0.000000 0.000000
# 2 -0.003871 0.011313 -0.003196 0.000000 0.000000 0.000000
# 3 -0.007052 -0.003196 0.017810 0.000000 0.000000 0.000000
# 4 0.000000 0.000000 0.000000 0.055333 0.000000 0.000000
# 5 0.000000 0.000000 0.000000 0.000000 0.029702 0.000000
# 6 0.000000 0.000000 0.000000 0.000000 0.000000 0.039846
#
#
# Mechanical properties :
#
#
# Convention : Reuss Voigt Hill
#
# Bulk Modulus (GPa) = 61.89978 63.22786 62.56382
# Shear Modulus (GPa) = 24.64295 26.20261 25.42278
#
# Velocity S-wave (km/s) = 3.57207 3.68338 3.62815
# Velocity P-wave (km/s) = 7.00454 7.12938 7.06724
#
# Compressibility (1/GPa) = 0.01615515
#
# Stress axis : x y z
#
# Youngs Moduli (GPa) = 65.48468 88.39382 56.14938
#
# Poissons Ratio (x) = 0.34218 0.39594
# Poissons Ratio (y) = 0.25350 0.17948
# Poissons Ratio (z) = 0.46177 0.28255
#
# Static dielectric constant tensor:
#      x y z
#    x 3.484460 0.000000 0.000000 
#    y 0.000000 3.512860 0.000000 
#    z 0.000000 0.000000 3.465720 
# 
# 
# High freq. dielectric constant tensor:
#      x y z
#    x 1.752480 0.000000 0.000000 
#    y 0.000000 1.747020 0.000000 
#    z 0.000000 0.000000 1.746970 
# 
# From -- ./inp_files/20548.got.cif
#   From: 2010.03.12/outbox.cif.g09.slc.cpg/sg53_11_cif.got.tgz:20548.got - 2010.04.16 14:36:59.
