data_PCOD8221266
_publ_section_title
;
Structure prediction by ZEFSAII (Michael W. Deem and Ramdas Pophale) SiO2 
 PCOD8221266
Probable space group: P M N A
;
_chemical_formula_sum "Si O2"
_cell_formula_units_Z 56
_cell_length_a 16.845817
_cell_length_b 31.595224
_cell_length_c 5.107014
_cell_angle_alpha 90.000000
_cell_angle_beta 90.000000
_cell_angle_gamma 90.000000
_cell_volume 2718.194727
_symmetry_space_group_name_H-M "P M N A"
_symmetry_group_IT_number 53
_symmetry_cell_setting 'orthorhombic'
loop_
_space_group_symop_operation_xyz
x,y,z
1/2-x,-y,1/2+z
x,-y,-z
1/2-x,y,1/2-z
-x,-y,-z
1/2+x,y,1/2-z
-x,y,z
1/2+x,-y,1/2+z
loop_
_atom_site_type_symbol
_atom_site_label
_atom_site_fract_x
_atom_site_fract_y
_atom_site_fract_z
Si Si1 0.906870 0.679113 0.934923
Si Si2 0.094346 0.902700 0.499894
Si Si3 0.339930 0.768637 0.657610
Si Si4 0.407338 0.809833 0.149066
Si Si5 0.408158 0.373677 0.925159
Si Si6 0.094726 0.952294 0.999971
Si Si7 0.196864 0.452411 0.500755
O O1 0.856642 0.721857 0.950022
O O2 0.888753 0.657908 0.659200
O O3 0.000000 0.689365 0.975675
O O4 0.874497 0.647782 0.161088
O O5 0.123919 0.854712 0.462003
O O6 0.129097 0.924167 0.761650
O O7 0.000000 0.902843 0.509585
O O8 0.126259 0.930746 0.262121
O O9 0.250000 0.774542 0.750000
O O10 0.358973 0.799645 0.414216
O O11 0.394583 0.776662 0.912824
O O12 0.500000 0.810718 0.225686
O O13 0.500000 0.381900 0.889323
O O14 0.374385 0.419653 0.987288
O O15 0.000000 0.953103 0.985493
O O16 0.128217 0.000000 0.000000
O O17 0.161425 0.500000 0.500000
O O18 0.250000 0.444749 0.750000
O O19 0.250000 0.443498 0.250000
#
# Coordination Sequence:
#
# PCOD8221266 Si02
#       7
#     8   8   8   8   8   8   8
#     4  10  21  38  59  84 114 148 187 231 288 350
#     4   9  17  28  45  71 101 141 188 223 268 338
#     4  12  25  40  59  87 117 148 194 248 297 347
#     4  11  22  39  61  82 113 157 198 238 290 353
#     4  10  21  37  59  85 112 145 187 234 280 335
#     4   9  15  24  40  67 106 143 174 220 280 332
#     4  10  21  37  57  83 116 153 190 229 277 333
#
# _framework density 20.601908000000002
#
# number of rings (size 3 to 8) (size 9 to 14) (size 15 to 20)
#    0.000    1.857    0.000    4.714    0.000    7.143 
#    0.000    0.000    0.000    5.143    0.000    0.000 
#    0.000   32.000    0.000    0.000    0.000    0.000 
#
# Total GULP energy -694471.580253 kJ/mol
# GULP energy per Si atom -12401.278219 kJ/mol
# Density = 2.055502 g / cm^3
# Si number density = 20.601908 Si / 1000 Ang^3
#
#
#
# Elastic Constant Matrix: (Units=GPa)
#
#
# Indices 1 2 3 4 5 6 
#
# 1 39.4024 42.8690 29.3467 0.0000 0.0000 0.0000
# 2 42.8690 128.1817 33.9026 0.0000 0.0000 0.0000
# 3 29.3467 33.9026 131.8969 0.0000 0.0000 0.0000
# 4 0.0000 0.0000 0.0000 31.2437 0.0000 0.0000
# 5 0.0000 0.0000 0.0000 0.0000 22.7328 0.0000
# 6 0.0000 0.0000 0.0000 0.0000 0.0000 8.7836
#
#
#
# Elastic Compliance Matrix: (Units=1/GPa)
#
#
# Indices 1 2 3 4 5 6 
#
# 1 0.044589 -0.013185 -0.006532 0.000000 0.000000 0.000000
# 2 -0.013185 0.012269 -0.000220 0.000000 0.000000 0.000000
# 3 -0.006532 -0.000220 0.009092 0.000000 0.000000 0.000000
# 4 0.000000 0.000000 0.000000 0.032006 0.000000 0.000000
# 5 0.000000 0.000000 0.000000 0.000000 0.043989 0.000000
# 6 0.000000 0.000000 0.000000 0.000000 0.000000 0.113848
#
#
# Mechanical properties :
#
#
# Convention : Reuss Voigt Hill
#
# Bulk Modulus (GPa) = 38.34923 56.85753 47.60338
# Shear Modulus (GPa) = 16.42801 25.44287 20.93544
#
# Velocity S-wave (km/s) = 2.82689 3.51804 3.19123
# Velocity P-wave (km/s) = 5.41386 6.64531 6.06095
#
# Compressibility (1/GPa) = 0.02607614
#
# Stress axis : x y z
#
# Youngs Moduli (GPa) = 22.42721 81.50567 109.99177
#
# Poissons Ratio (x) = 1.07462 0.71846
# Poissons Ratio (y) = 0.29569 0.02421
# Poissons Ratio (z) = 0.14649 0.01794
#
# Static dielectric constant tensor:
#      x y z
#    x 3.265470 0.000000 0.000000 
#    y 0.000000 3.784440 0.000000 
#    z 0.000000 0.000000 4.084670 
# 
# 
# High freq. dielectric constant tensor:
#      x y z
#    x 1.761320 0.000000 0.000000 
#    y 0.000000 1.818980 0.000000 
#    z 0.000000 0.000000 1.829320 
# 
# From -- ./inp_files/1475.got.cif
#   From: 2010.03.12/outbox.cif.g09.slc.cpg/sg53_1_cif.got.tgz:1475.got - 2010.04.16 14:36:59.
