data_PCOD8221044
_publ_section_title
;
Structure prediction by ZEFSAII (Michael W. Deem and Ramdas Pophale) SiO2 
 PCOD8221044
Probable space group: P M N A
;
_chemical_formula_sum "Si O2"
_cell_formula_units_Z 64
_cell_length_a 16.838344
_cell_length_b 14.462579
_cell_length_c 12.269588
_cell_angle_alpha 90.000000
_cell_angle_beta 90.000000
_cell_angle_gamma 90.000000
_cell_volume 2987.962219
_symmetry_space_group_name_H-M "P M N A"
_symmetry_group_IT_number 53
_symmetry_cell_setting 'orthorhombic'
loop_
_space_group_symop_operation_xyz
x,y,z
1/2-x,-y,1/2+z
x,-y,-z
1/2-x,y,1/2-z
-x,-y,-z
1/2+x,y,1/2-z
-x,y,z
1/2+x,-y,1/2+z
loop_
_atom_site_type_symbol
_atom_site_label
_atom_site_fract_x
_atom_site_fract_y
_atom_site_fract_z
Si Si1 0.910275 0.291328 0.012892
Si Si2 0.589833 0.184246 0.704777
Si Si3 0.906967 0.012906 0.124303
Si Si4 0.590492 0.496470 0.216288
Si Si5 0.810063 0.561975 0.092266
Si Si6 0.160052 0.801235 0.785353
Si Si7 0.591033 0.690463 0.904021
Si Si8 0.659667 0.323911 0.870127
O O1 0.853493 0.266510 0.112786
O O2 0.000000 0.298267 0.056885
O O3 0.902621 0.214214 0.920364
O O4 0.885546 0.388910 0.962430
O O5 0.500000 0.200684 0.746955
O O6 0.648763 0.240640 0.783777
O O7 0.610888 0.075840 0.700733
O O8 0.859971 0.094742 0.182070
O O9 0.000000 0.037448 0.121878
O O10 0.876697 0.000000 0.000000
O O11 0.500000 0.485592 0.258448
O O12 0.654448 0.496836 0.313677
O O13 0.614510 0.410978 0.140204
O O14 0.597630 0.593161 0.151919
O O15 0.749425 0.637372 0.140609
O O16 0.766740 0.500000 0.000000
O O17 0.250000 0.792489 0.750000
O O18 0.105075 0.769208 0.685573
O O19 0.500000 0.693109 0.940344
O O20 0.645009 0.714012 0.008681
#
# Coordination Sequence:
#
# PCOD8221044 Si02
#       8
#     8   8   8   8   8   8   8   8
#     4  11  22  41  70  98 128 174 226 281 334 388
#     4  10  21  40  71 103 128 168 230 285 330 390
#     4  10  20  42  75 102 126 165 219 276 333 396
#     4  11  23  40  63  92 126 173 233 280 325 397
#     4  12  25  39  60  97 138 175 221 284 347 391
#     4  12  25  43  63 100 141 169 212 271 340 408
#     4  11  24  42  66  90 128 184 227 268 323 399
#     4  12  24  42  63  95 136 179 223 270 337 406
#
# _framework density 21.419281999999999
#
# number of rings (size 3 to 8) (size 9 to 14) (size 15 to 20)
#    0.000    0.875    2.500    5.625    0.000    4.000 
#    2.250    0.625    0.000    2.250    0.000    0.000 
#    0.000    0.000    0.000    0.000    0.000    0.000 
#
# Total GULP energy -793828.532925 kJ/mol
# GULP energy per Si atom -12403.570827 kJ/mol
# Density = 2.137053 g / cm^3
# Si number density = 21.419282 Si / 1000 Ang^3
#
#
#
# Elastic Constant Matrix: (Units=GPa)
#
#
# Indices 1 2 3 4 5 6 
#
# 1 103.1942 26.9427 48.3940 0.0000 0.0000 0.0000
# 2 26.9427 76.7530 37.0679 0.0000 0.0000 0.0000
# 3 48.3940 37.0679 123.5343 0.0000 0.0000 0.0000
# 4 0.0000 0.0000 0.0000 34.7799 0.0000 0.0000
# 5 0.0000 0.0000 0.0000 0.0000 32.2100 0.0000
# 6 0.0000 0.0000 0.0000 0.0000 0.0000 25.9792
#
#
#
# Elastic Compliance Matrix: (Units=1/GPa)
#
#
# Indices 1 2 3 4 5 6 
#
# 1 0.012212 -0.002311 -0.004091 0.000000 0.000000 0.000000
# 2 -0.002311 0.015674 -0.003798 0.000000 0.000000 0.000000
# 3 -0.004091 -0.003798 0.010837 0.000000 0.000000 0.000000
# 4 0.000000 0.000000 0.000000 0.028752 0.000000 0.000000
# 5 0.000000 0.000000 0.000000 0.000000 0.031046 0.000000
# 6 0.000000 0.000000 0.000000 0.000000 0.000000 0.038492
#
#
# Mechanical properties :
#
#
# Convention : Reuss Voigt Hill
#
# Bulk Modulus (GPa) = 54.57288 58.69895 56.63592
# Shear Modulus (GPa) = 30.57697 31.33228 30.95462
#
# Velocity S-wave (km/s) = 3.78238 3.82882 3.80567
# Velocity P-wave (km/s) = 6.67899 6.85643 6.76829
#
# Compressibility (1/GPa) = 0.01832412
#
# Stress axis : x y z
#
# Youngs Moduli (GPa) = 81.88508 63.79863 92.27699
#
# Poissons Ratio (x) = 0.14746 0.37746
# Poissons Ratio (y) = 0.18927 0.35045
# Poissons Ratio (z) = 0.33495 0.24229
#
# Static dielectric constant tensor:
#      x y z
#    x 3.821420 0.000000 0.000000 
#    y 0.000000 3.839380 0.000000 
#    z 0.000000 0.000000 3.937390 
# 
# 
# High freq. dielectric constant tensor:
#      x y z
#    x 1.836520 0.000000 0.000000 
#    y 0.000000 1.834010 0.000000 
#    z 0.000000 0.000000 1.848190 
# 
# From -- ./inp_files/17089.got.cif
#   From: 2010.03.12/outbox.cif.g09.slc.cpg/sg53_9_cif.got.tgz:17089.got - 2010.04.16 14:36:59.
