data_PCOD8221441
_publ_section_title
;
Structure prediction by ZEFSAII (Michael W. Deem and Ramdas Pophale) SiO2 
 PCOD8221441
Probable space group: P M N A
;
_chemical_formula_sum "Si O2"
_cell_formula_units_Z 48
_cell_length_a 8.658473
_cell_length_b 15.004615
_cell_length_c 19.007779
_cell_angle_alpha 90.000000
_cell_angle_beta 90.000000
_cell_angle_gamma 90.000000
_cell_volume 2469.434648
_symmetry_space_group_name_H-M "P M N A"
_symmetry_group_IT_number 53
_symmetry_cell_setting 'orthorhombic'
loop_
_space_group_symop_operation_xyz
x,y,z
1/2-x,-y,1/2+z
x,-y,-z
1/2-x,y,1/2-z
-x,-y,-z
1/2+x,y,1/2-z
-x,y,z
1/2+x,-y,1/2+z
loop_
_atom_site_type_symbol
_atom_site_label
_atom_site_fract_x
_atom_site_fract_y
_atom_site_fract_z
Si Si1 0.818504 0.131813 0.673734
Si Si2 0.318023 0.527993 0.077587
Si Si3 0.682786 0.377922 0.327273
Si Si4 0.817460 0.719511 0.077686
Si Si5 0.679888 0.967748 0.925332
Si Si6 0.817731 0.780816 0.925118
O O1 0.750000 0.117004 0.750000
O O2 0.727980 0.212933 0.638763
O O3 0.000000 0.153116 0.675583
O O4 0.782567 0.041518 0.632273
O O5 0.500000 0.516158 0.084895
O O6 0.236075 0.468094 0.135724
O O7 0.270222 0.628434 0.093456
O O8 0.260030 0.500000 0.000000
O O9 0.750000 0.371612 0.250000
O O10 0.500000 0.377442 0.323059
O O11 0.746063 0.293742 0.371716
O O12 0.000000 0.702608 0.077263
O O13 0.757618 0.758429 0.003414
O O14 0.500000 0.948822 0.933823
O O15 0.757915 0.876539 0.900378
O O16 0.749579 0.000000 0.000000
O O17 0.000000 0.781898 0.924129
#
# Coordination Sequence:
#
# PCOD8221441 Si02
#       6
#     8   8   8   8   8   8
#     4  11  24  42  62  90 126 162 203 254 310 365
#     4  11  23  39  64  95 124 161 206 252 304 366
#     4  11  24  43  63  91 128 164 204 253 309 363
#     4  11  22  39  64  93 123 161 205 253 305 363
#     4  10  21  38  62  90 121 159 204 252 301 357
#     4  10  22  38  62  92 123 160 204 251 303 361
#
# _framework density 19.437646000000001
#
# number of rings (size 3 to 8) (size 9 to 14) (size 15 to 20)
#    0.000    1.333    3.333    2.000    0.000    5.667 
#    0.000    6.667    0.000    0.000    0.000    0.000 
#    0.000    0.000    0.000    0.000    0.000    0.000 
#
# Total GULP energy -595499.767021 kJ/mol
# GULP energy per Si atom -12406.245146 kJ/mol
# Density = 1.939341 g / cm^3
# Si number density = 19.437646 Si / 1000 Ang^3
#
#
#
# Elastic Constant Matrix: (Units=GPa)
#
#
# Indices 1 2 3 4 5 6 
#
# 1 45.8462 20.9840 30.8699 0.0000 0.0000 0.0000
# 2 20.9840 130.5744 50.6970 0.0000 0.0000 0.0000
# 3 30.8699 50.6970 145.0014 0.0000 0.0000 0.0000
# 4 0.0000 0.0000 0.0000 8.0186 0.0000 0.0000
# 5 0.0000 0.0000 0.0000 0.0000 -15.5209 0.0000
# 6 0.0000 0.0000 0.0000 0.0000 0.0000 37.5104
#
#
#
# Elastic Compliance Matrix: (Units=1/GPa)
#
#
# Indices 1 2 3 4 5 6 
#
# 1 0.026073 -0.002355 -0.004728 0.000000 0.000000 0.000000
# 2 -0.002355 0.009074 -0.002671 0.000000 0.000000 0.000000
# 3 -0.004728 -0.002671 0.008837 0.000000 0.000000 0.000000
# 4 0.000000 0.000000 0.000000 0.124710 0.000000 0.000000
# 5 0.000000 0.000000 0.000000 0.000000 -0.064429 0.000000
# 6 0.000000 0.000000 0.000000 0.000000 0.000000 0.026659
#
#
# Mechanical properties :
#
#
# Convention : Reuss Voigt Hill
#
# Bulk Modulus (GPa) = 40.85443 58.50263 49.67853
# Shear Modulus (GPa) = 31.52780 20.59301 26.06040
#
# Velocity S-wave (km/s) = 4.03177 3.25843 3.66555
# Velocity P-wave (km/s) = 6.53738 6.65729 6.59761
#
# Compressibility (1/GPa) = 0.02447715
#
# Stress axis : x y z
#
# Youngs Moduli (GPa) = 38.35388 110.20479 113.16161
#
# Poissons Ratio (x) = 0.25948 0.53498
# Poissons Ratio (y) = 0.09031 0.30229
# Poissons Ratio (z) = 0.18132 0.29439
#
# Static dielectric constant tensor:
#      x y z
#    x 3.522250 0.000000 0.000000 
#    y 0.000000 3.666570 0.000000 
#    z 0.000000 0.000000 3.637510 
# 
# 
# High freq. dielectric constant tensor:
#      x y z
#    x 1.759570 0.000000 0.000000 
#    y 0.000000 1.772060 0.000000 
#    z 0.000000 0.000000 1.759480 
# 
# From -- ./inp_files/26238.got.cif
#   From: 2010.03.12/outbox.cif.g09.slc.cpg/sg53_14_cif.got.tgz:26238.got - 2010.04.16 14:36:59.
