data_PCOD8221479
_publ_section_title
;
Structure prediction by ZEFSAII (Michael W. Deem and Ramdas Pophale) SiO2 
 PCOD8221479
Probable space group: P M N A
;
_chemical_formula_sum "Si O2"
_cell_formula_units_Z 48
_cell_length_a 27.913819
_cell_length_b 8.857244
_cell_length_c 9.441085
_cell_angle_alpha 90.000000
_cell_angle_beta 90.000000
_cell_angle_gamma 90.000000
_cell_volume 2334.209190
_symmetry_space_group_name_H-M "P M N A"
_symmetry_group_IT_number 53
_symmetry_cell_setting 'orthorhombic'
loop_
_space_group_symop_operation_xyz
x,y,z
1/2-x,-y,1/2+z
x,-y,-z
1/2-x,y,1/2-z
-x,-y,-z
1/2+x,y,1/2-z
-x,y,z
1/2+x,-y,1/2+z
loop_
_atom_site_type_symbol
_atom_site_label
_atom_site_fract_x
_atom_site_fract_y
_atom_site_fract_z
Si Si1 0.402674 0.542671 0.161258
Si Si2 0.445314 0.805244 0.326716
Si Si3 0.594375 0.639693 0.585107
Si Si4 0.367831 0.950316 0.646692
Si Si5 0.207482 0.929310 0.350748
Si Si6 0.707048 0.425884 0.853533
O O1 0.419970 0.711952 0.198697
O O2 0.429493 0.428702 0.271246
O O3 0.345878 0.519243 0.193086
O O4 0.415928 0.500000 0.000000
O O5 0.500000 0.835905 0.285645
O O6 0.443401 0.713349 0.475634
O O7 0.419552 0.966743 0.345338
O O8 0.620252 0.500000 0.500000
O O9 0.630272 0.769220 0.639033
O O10 0.341762 0.000000 0.500000
O O11 0.340402 0.999995 0.786432
O O12 0.250000 0.978825 0.250000
O O13 0.203105 0.752177 0.368584
O O14 0.218200 0.000000 0.500000
O O15 0.750000 0.474876 0.750000
O O16 0.721883 0.500000 0.000000
#
# Coordination Sequence:
#
# PCOD8221479 Si02
#       6
#     8   8   8   8   8   8
#     4  10  21  39  60  91 123 162 203 252 307 363
#     4  10  21  40  63  89 122 159 204 256 311 370
#     4   9  21  37  60  89 118 160 203 248 301 365
#     4  10  21  39  62  91 122 163 201 257 309 360
#     4  11  24  42  63  92 126 162 205 249 303 365
#     4  10  23  41  61  92 125 164 203 250 299 362
#
# _framework density 20.56371
#
# number of rings (size 3 to 8) (size 9 to 14) (size 15 to 20)
#    0.000    2.000    1.667    0.500    4.667    9.000 
#    3.000    0.000    0.000    3.500    0.000    0.000 
#    0.000    0.000    0.000    0.000    0.000    0.000 
#
# Total GULP energy -594831.897511 kJ/mol
# GULP energy per Si atom -12392.331198 kJ/mol
# Density = 2.051691 g / cm^3
# Si number density = 20.563710 Si / 1000 Ang^3
#
#
#
# Elastic Constant Matrix: (Units=GPa)
#
#
# Indices 1 2 3 4 5 6 
#
# 1 93.7274 30.6023 39.7705 0.0000 0.0000 0.0000
# 2 30.6023 124.3912 57.6542 0.0000 0.0000 0.0000
# 3 39.7705 57.6542 148.4839 0.0000 0.0000 0.0000
# 4 0.0000 0.0000 0.0000 35.1927 0.0000 0.0000
# 5 0.0000 0.0000 0.0000 0.0000 21.6718 0.0000
# 6 0.0000 0.0000 0.0000 0.0000 0.0000 5.5983
#
#
#
# Elastic Compliance Matrix: (Units=1/GPa)
#
#
# Indices 1 2 3 4 5 6 
#
# 1 0.012373 -0.001839 -0.002600 0.000000 0.000000 0.000000
# 2 -0.001839 0.010077 -0.003420 0.000000 0.000000 0.000000
# 3 -0.002600 -0.003420 0.008759 0.000000 0.000000 0.000000
# 4 0.000000 0.000000 0.000000 0.028415 0.000000 0.000000
# 5 0.000000 0.000000 0.000000 0.000000 0.046143 0.000000
# 6 0.000000 0.000000 0.000000 0.000000 0.000000 0.178627
#
#
# Mechanical properties :
#
#
# Convention : Reuss Voigt Hill
#
# Bulk Modulus (GPa) = 64.55460 69.18406 66.86933
# Shear Modulus (GPa) = 16.37868 28.39758 22.38813
#
# Velocity S-wave (km/s) = 2.82527 3.72015 3.30316
# Velocity P-wave (km/s) = 6.48872 7.22285 6.86560
#
# Compressibility (1/GPa) = 0.01549076
#
# Stress axis : x y z
#
# Youngs Moduli (GPa) = 80.82199 99.23836 114.16672
#
# Poissons Ratio (x) = 0.18249 0.29683
# Poissons Ratio (y) = 0.14862 0.39047
# Poissons Ratio (z) = 0.21014 0.33941
#
# Static dielectric constant tensor:
#      x y z
#    x 3.393250 0.000000 0.000000 
#    y 0.000000 3.854510 0.000000 
#    z 0.000000 0.000000 3.872490 
# 
# 
# High freq. dielectric constant tensor:
#      x y z
#    x 1.771220 0.000000 0.000000 
#    y 0.000000 1.814400 0.000000 
#    z 0.000000 0.000000 1.813340 
# 
# From -- ./inp_files/13026.got.cif
#   From: 2010.03.12/outbox.cif.g09.slc.cpg/sg53_7_cif.got.tgz:13026.got - 2010.04.16 14:36:59.
