data_PCOD8221972
_publ_section_title
;
Structure prediction by ZEFSAII (Michael W. Deem and Ramdas Pophale) SiO2 
 PCOD8221972
Probable space group: P M N A
;
_chemical_formula_sum "Si O2"
_cell_formula_units_Z 48
_cell_length_a 16.066375
_cell_length_b 9.441958
_cell_length_c 15.421411
_cell_angle_alpha 90.000000
_cell_angle_beta 90.000000
_cell_angle_gamma 90.000000
_cell_volume 2339.397791
_symmetry_space_group_name_H-M "P M N A"
_symmetry_group_IT_number 53
_symmetry_cell_setting 'orthorhombic'
loop_
_space_group_symop_operation_xyz
x,y,z
1/2-x,-y,1/2+z
x,-y,-z
1/2-x,y,1/2-z
-x,-y,-z
1/2+x,y,1/2-z
-x,y,z
1/2+x,-y,1/2+z
loop_
_atom_site_type_symbol
_atom_site_label
_atom_site_fract_x
_atom_site_fract_y
_atom_site_fract_z
Si Si1 0.406060 0.655413 0.462643
Si Si2 0.186590 0.010296 0.595137
Si Si3 0.595189 0.209546 0.206784
Si Si4 0.749402 0.294114 0.653382
Si Si5 0.820658 0.785714 0.890017
Si Si6 0.324591 0.567981 0.908561
O O1 0.388117 0.500000 0.500000
O O2 0.500000 0.668046 0.426692
O O3 0.343645 0.687884 0.383930
O O4 0.395355 0.769351 0.541049
O O5 0.197394 0.177641 0.603025
O O6 0.146595 0.000000 0.500000
O O7 0.125071 0.938247 0.664602
O O8 0.278307 0.939325 0.602910
O O9 0.500000 0.193573 0.234424
O O10 0.649583 0.242476 0.292046
O O11 0.604285 0.339234 0.138715
O O12 0.750000 0.235627 0.750000
O O13 0.799250 0.440750 0.654129
O O14 0.754101 0.669595 0.922813
O O15 0.354387 0.500000 0.000000
#
# Coordination Sequence:
#
# PCOD8221972 Si02
#       6
#     8   8   8   8   8   8
#     4  11  22  38  64  98 131 160 197 259 323 365
#     4  11  22  41  67  86 122 167 216 252 308 379
#     4  11  25  41  63  94 126 166 215 266 310 366
#     4  12  21  38  60  93 124 164 206 251 305 382
#     4  11  19  42  64  94 121 167 212 252 305 384
#     4  11  20  39  65  90 122 164 215 254 300 378
#
# _framework density 20.5181
#
# number of rings (size 3 to 8) (size 9 to 14) (size 15 to 20)
#    0.000    0.833    5.000    5.500    0.000    0.667 
#    0.000    5.833    0.000    0.000    0.000    0.000 
#    0.000    0.000    0.000    0.000    0.000    0.000 
#
# Total GULP energy -595154.920773 kJ/mol
# GULP energy per Si atom -12399.060849 kJ/mol
# Density = 2.047140 g / cm^3
# Si number density = 20.518100 Si / 1000 Ang^3
#
#
#
# Elastic Constant Matrix: (Units=GPa)
#
#
# Indices 1 2 3 4 5 6 
#
# 1 80.0572 23.6416 26.7378 0.0000 0.0000 0.0000
# 2 23.6416 87.2842 2.3177 0.0000 0.0000 0.0000
# 3 26.7378 2.3177 110.1402 0.0000 0.0000 0.0000
# 4 0.0000 0.0000 0.0000 33.3701 0.0000 0.0000
# 5 0.0000 0.0000 0.0000 0.0000 26.1741 0.0000
# 6 0.0000 0.0000 0.0000 0.0000 0.0000 16.6902
#
#
#
# Elastic Compliance Matrix: (Units=1/GPa)
#
#
# Indices 1 2 3 4 5 6 
#
# 1 0.014823 -0.003922 -0.003516 0.000000 0.000000 0.000000
# 2 -0.003922 0.012501 0.000689 0.000000 0.000000 0.000000
# 3 -0.003516 0.000689 0.009918 0.000000 0.000000 0.000000
# 4 0.000000 0.000000 0.000000 0.029967 0.000000 0.000000
# 5 0.000000 0.000000 0.000000 0.000000 0.038206 0.000000
# 6 0.000000 0.000000 0.000000 0.000000 0.000000 0.059916
#
#
# Mechanical properties :
#
#
# Convention : Reuss Voigt Hill
#
# Bulk Modulus (GPa) = 42.11391 42.54175 42.32783
# Shear Modulus (GPa) = 26.77471 30.23250 28.50361
#
# Velocity S-wave (km/s) = 3.61630 3.84273 3.73123
# Velocity P-wave (km/s) = 6.16495 6.36141 6.26395
#
# Compressibility (1/GPa) = 0.02374512
#
# Stress axis : x y z
#
# Youngs Moduli (GPa) = 67.46049 79.99520 100.82268
#
# Poissons Ratio (x) = 0.31372 0.35450
# Poissons Ratio (y) = 0.26456 -0.06946
# Poissons Ratio (z) = 0.23719 -0.05512
#
# Static dielectric constant tensor:
#      x y z
#    x 3.480120 0.000000 0.000000 
#    y 0.000000 3.809510 0.000000 
#    z 0.000000 0.000000 3.844310 
# 
# 
# High freq. dielectric constant tensor:
#      x y z
#    x 1.770180 0.000000 0.000000 
#    y 0.000000 1.809440 0.000000 
#    z 0.000000 0.000000 1.814590 
# 
# From -- ./inp_files/23664.got.cif
#   From: 2010.03.12/outbox.cif.g09.slc.cpg/sg53_12_cif.got.tgz:23664.got - 2010.04.16 14:36:59.
