data_PCOD8221045
_publ_section_title
;
Structure prediction by ZEFSAII (Michael W. Deem and Ramdas Pophale) SiO2 
 PCOD8221045
Probable space group: P M N A
;
_chemical_formula_sum "Si O2"
_cell_formula_units_Z 36
_cell_length_a 14.791633
_cell_length_b 8.301878
_cell_length_c 14.120570
_cell_angle_alpha 90.000000
_cell_angle_beta 90.000000
_cell_angle_gamma 90.000000
_cell_volume 1733.982451
_symmetry_space_group_name_H-M "P M N A"
_symmetry_group_IT_number 53
_symmetry_cell_setting 'orthorhombic'
loop_
_space_group_symop_operation_xyz
x,y,z
1/2-x,-y,1/2+z
x,-y,-z
1/2-x,y,1/2-z
-x,-y,-z
1/2+x,y,1/2-z
-x,y,z
1/2+x,-y,1/2+z
loop_
_atom_site_type_symbol
_atom_site_label
_atom_site_fract_x
_atom_site_fract_y
_atom_site_fract_z
Si Si1 0.250000 0.053072 0.750000
Si Si2 0.600956 0.594793 0.908505
Si Si3 0.744709 0.134084 0.067913
Si Si4 0.601983 0.672296 0.461801
Si Si5 0.651830 0.357106 0.752409
O O1 0.215139 0.945130 0.836840
O O2 0.168540 0.171317 0.712475
O O3 0.500000 0.664767 0.922982
O O4 0.670005 0.740733 0.895030
O O5 0.593699 0.467329 0.822216
O O6 0.635644 0.500000 0.000000
O O7 0.827979 0.203523 0.007291
O O8 0.698627 0.000000 0.000000
O O9 0.630058 0.500000 0.500000
O O10 0.500000 0.721238 0.491762
O O11 0.605706 0.658260 0.349031
O O12 0.750000 0.444664 0.750000
#
# Coordination Sequence:
#
# PCOD8221045 Si02
#       5
#     4   8   8   8   8
#     4  10  24  38  66  94 128 180 208 272 340 408
#     4  11  24  41  67  96 126 174 228 274 323 392
#     4  12  23  44  64  97 135 171 218 269 344 400
#     4  11  24  41  66  98 132 175 224 277 330 401
#     4  10  20  43  65  93 128 177 220 267 329 397
#
# _framework density 20.761457
#
# number of rings (size 3 to 8) (size 9 to 14) (size 15 to 20)
#    0.667    0.444    2.222    5.333    4.667    0.889 
#    0.000    2.222    0.000    0.000    0.000    0.000 
#    0.000    0.000    0.000    0.000    0.000    0.000 
#
# Total GULP energy -446108.675621 kJ/mol
# GULP energy per Si atom -12391.907656 kJ/mol
# Density = 2.071420 g / cm^3
# Si number density = 20.761457 Si / 1000 Ang^3
#
#
#
# Elastic Constant Matrix: (Units=GPa)
#
#
# Indices 1 2 3 4 5 6 
#
# 1 83.4580 45.7750 19.4072 0.0000 0.0000 0.0000
# 2 45.7750 122.6928 64.2991 0.0000 0.0000 0.0000
# 3 19.4072 64.2991 136.1899 0.0000 0.0000 0.0000
# 4 0.0000 0.0000 0.0000 46.2762 0.0000 0.0000
# 5 0.0000 0.0000 0.0000 0.0000 263.7666 0.0000
# 6 0.0000 0.0000 0.0000 0.0000 0.0000 18.3715
#
#
#
# Elastic Compliance Matrix: (Units=1/GPa)
#
#
# Indices 1 2 3 4 5 6 
#
# 1 0.015111 -0.005992 0.000676 0.000000 0.000000 0.000000
# 2 -0.005992 0.013206 -0.005381 0.000000 0.000000 0.000000
# 3 0.000676 -0.005381 0.009787 0.000000 0.000000 0.000000
# 4 0.000000 0.000000 0.000000 0.021609 0.000000 0.000000
# 5 0.000000 0.000000 0.000000 0.000000 0.003791 0.000000
# 6 0.000000 0.000000 0.000000 0.000000 0.000000 0.054432
#
#
# Mechanical properties :
#
#
# Convention : Reuss Voigt Hill
#
# Bulk Modulus (GPa) = 59.84605 66.81148 63.32876
# Shear Modulus (GPa) = 34.50611 79.87346 57.18979
#
# Velocity S-wave (km/s) = 4.08122 6.20931 5.25413
# Velocity P-wave (km/s) = 7.14819 9.14646 8.20836
#
# Compressibility (1/GPa) = 0.01670954
#
# Stress axis : x y z
#
# Youngs Moduli (GPa) = 66.17511 75.72335 102.17662
#
# Poissons Ratio (x) = 0.45373 -0.06903
# Poissons Ratio (y) = 0.39651 0.54982
# Poissons Ratio (z) = -0.04470 0.40747
#
# Static dielectric constant tensor:
#      x y z
#    x 3.527390 0.000000 0.000000 
#    y 0.000000 3.814970 0.000000 
#    z 0.000000 0.000000 3.707890 
# 
# 
# High freq. dielectric constant tensor:
#      x y z
#    x 1.796090 0.000000 0.000000 
#    y 0.000000 1.813400 0.000000 
#    z 0.000000 0.000000 1.822950 
# 
# From -- ./inp_files/22318.got.cif
#   From: 2010.03.12/outbox.cif.g09.slc.cpg/sg53_12_cif.got.tgz:22318.got - 2010.04.16 14:36:59.
