data_PCOD8221850
_publ_section_title
;
Structure prediction by ZEFSAII (Michael W. Deem and Ramdas Pophale) SiO2 
 PCOD8221850
Probable space group: P M N A
;
_chemical_formula_sum "Si O2"
_cell_formula_units_Z 48
_cell_length_a 30.990609
_cell_length_b 7.597923
_cell_length_c 9.941005
_cell_angle_alpha 90.000000
_cell_angle_beta 90.000000
_cell_angle_gamma 90.000000
_cell_volume 2340.751395
_symmetry_space_group_name_H-M "P M N A"
_symmetry_group_IT_number 53
_symmetry_cell_setting 'orthorhombic'
loop_
_space_group_symop_operation_xyz
x,y,z
1/2-x,-y,1/2+z
x,-y,-z
1/2-x,y,1/2-z
-x,-y,-z
1/2+x,y,1/2-z
-x,y,z
1/2+x,-y,1/2+z
loop_
_atom_site_type_symbol
_atom_site_label
_atom_site_fract_x
_atom_site_fract_y
_atom_site_fract_z
Si Si1 0.884718 0.274795 0.728359
Si Si2 0.450388 0.013317 0.157658
Si Si3 0.348654 0.791689 0.508218
Si Si4 0.897457 0.324599 0.255443
Si Si5 0.833625 0.698754 0.523245
Si Si6 0.243551 0.168026 0.093546
O O1 0.905303 0.469970 0.709278
O O2 0.852930 0.206106 0.608972
O O3 0.923103 0.133217 0.739423
O O4 0.854805 0.284859 0.859791
O O5 0.500000 0.974568 0.189767
O O6 0.439798 0.210942 0.208608
O O7 0.440501 0.000000 0.000000
O O8 0.385499 0.704714 0.600046
O O9 0.301883 0.733930 0.567444
O O10 0.353858 0.000000 0.500000
O O11 0.858447 0.238227 0.342982
O O12 0.845913 0.500000 0.500000
O O13 0.782623 0.713311 0.541456
O O14 0.250000 0.118710 0.250000
O O15 0.244318 0.000000 0.000000
#
# Coordination Sequence:
#
# PCOD8221850 Si02
#       6
#     8   8   8   8   8   8
#     4  11  24  41  67  97 128 170 216 262 323 388
#     4  11  24  42  70 100 129 165 208 270 331 390
#     4  11  23  40  64  94 130 174 216 263 320 375
#     4  11  22  43  66  95 129 169 213 263 320 387
#     4  10  23  40  62  87 124 172 213 263 311 372
#     4  11  25  39  60  92 127 169 220 265 311 370
#
# _framework density 20.506236000000001
#
# number of rings (size 3 to 8) (size 9 to 14) (size 15 to 20)
#    0.000    1.167    5.000    0.500    7.000    2.000 
#    0.000    3.333    0.000    2.000    0.000    0.000 
#    0.000    0.000    0.000    0.000    0.000    0.000 
#
# Total GULP energy -595125.516847 kJ/mol
# GULP energy per Si atom -12398.448268 kJ/mol
# Density = 2.045956 g / cm^3
# Si number density = 20.506236 Si / 1000 Ang^3
#
#
#
# Elastic Constant Matrix: (Units=GPa)
#
#
# Indices 1 2 3 4 5 6 
#
# 1 100.9375 27.7748 43.5453 0.0000 0.0000 0.0000
# 2 27.7748 85.2093 16.1609 0.0000 0.0000 0.0000
# 3 43.5453 16.1609 126.7290 0.0000 0.0000 0.0000
# 4 0.0000 0.0000 0.0000 27.6022 0.0000 0.0000
# 5 0.0000 0.0000 0.0000 0.0000 18.8266 0.0000
# 6 0.0000 0.0000 0.0000 0.0000 0.0000 17.8492
#
#
#
# Elastic Compliance Matrix: (Units=1/GPa)
#
#
# Indices 1 2 3 4 5 6 
#
# 1 0.012494 -0.003339 -0.003867 0.000000 0.000000 0.000000
# 2 -0.003339 0.012919 -0.000500 0.000000 0.000000 0.000000
# 3 -0.003867 -0.000500 0.009283 0.000000 0.000000 0.000000
# 4 0.000000 0.000000 0.000000 0.036229 0.000000 0.000000
# 5 0.000000 0.000000 0.000000 0.000000 0.053116 0.000000
# 6 0.000000 0.000000 0.000000 0.000000 0.000000 0.056025
#
#
# Mechanical properties :
#
#
# Convention : Reuss Voigt Hill
#
# Bulk Modulus (GPa) = 51.85736 54.20418 53.03077
# Shear Modulus (GPa) = 24.76370 27.88192 26.32281
#
# Velocity S-wave (km/s) = 3.47885 3.69138 3.58669
# Velocity P-wave (km/s) = 6.44050 6.68273 6.56273
#
# Compressibility (1/GPa) = 0.01928367
#
# Stress axis : x y z
#
# Youngs Moduli (GPa) = 80.03610 77.40481 107.71811
#
# Poissons Ratio (x) = 0.25847 0.41658
# Poissons Ratio (y) = 0.26725 0.05387
# Poissons Ratio (z) = 0.30953 0.03871
#
# Static dielectric constant tensor:
#      x y z
#    x 3.796860 0.000000 0.000000 
#    y 0.000000 3.572390 0.000000 
#    z 0.000000 0.000000 3.921800 
# 
# 
# High freq. dielectric constant tensor:
#      x y z
#    x 1.785530 0.000000 0.000000 
#    y 0.000000 1.797990 0.000000 
#    z 0.000000 0.000000 1.813180 
# 
# From -- ./inp_files/13054.got.cif
#   From: 2010.03.12/outbox.cif.g09.slc.cpg/sg53_7_cif.got.tgz:13054.got - 2010.04.16 14:36:59.
