data_PCOD8221800
_publ_section_title
;
Structure prediction by ZEFSAII (Michael W. Deem and Ramdas Pophale) SiO2 
 PCOD8221800
Probable space group: P M N A
;
_chemical_formula_sum "Si O2"
_cell_formula_units_Z 56
_cell_length_a 20.411861
_cell_length_b 14.831367
_cell_length_c 8.774404
_cell_angle_alpha 90.000000
_cell_angle_beta 90.000000
_cell_angle_gamma 90.000000
_cell_volume 2656.326229
_symmetry_space_group_name_H-M "P M N A"
_symmetry_group_IT_number 53
_symmetry_cell_setting 'orthorhombic'
loop_
_space_group_symop_operation_xyz
x,y,z
1/2-x,-y,1/2+z
x,-y,-z
1/2-x,y,1/2-z
-x,-y,-z
1/2+x,y,1/2-z
-x,y,z
1/2+x,-y,1/2+z
loop_
_atom_site_type_symbol
_atom_site_label
_atom_site_fract_x
_atom_site_fract_y
_atom_site_fract_z
Si Si1 0.178761 0.404138 0.929752
Si Si2 0.329621 0.404740 0.928094
Si Si3 0.073057 0.081113 0.892172
Si Si4 0.874173 0.231041 0.078706
Si Si5 0.379108 0.094049 0.933088
Si Si6 0.574503 0.736393 0.915162
Si Si7 0.239505 0.090027 0.075592
O O1 0.254394 0.380410 0.966337
O O2 0.161750 0.407557 0.752510
O O3 0.159634 0.500000 0.000000
O O4 0.133476 0.329706 0.008053
O O5 0.348516 0.500000 0.000000
O O6 0.379030 0.333729 0.999859
O O7 0.122230 0.087952 0.749875
O O8 0.000000 0.061948 0.831196
O O9 0.071706 0.174791 0.985971
O O10 0.096892 0.000000 0.000000
O O11 0.895698 0.241091 0.251666
O O12 0.807114 0.175612 0.060418
O O13 0.427865 0.172233 0.986941
O O14 0.306542 0.116813 0.991519
O O15 0.404945 0.000000 0.000000
O O16 0.500000 0.699388 0.901962
O O17 0.250000 0.065517 0.250000
O O18 0.209194 0.000000 0.000000
#
# Coordination Sequence:
#
# PCOD8221800 Si02
#       7
#     8   8   8   8   8   8   8
#     4  10  22  41  69 100 131 167 208 273 344 408
#     4  10  22  43  68  98 130 165 215 271 336 402
#     4  11  25  43  63  91 130 177 226 274 323 388
#     4  12  24  40  66  93 132 170 220 270 337 392
#     4  11  24  41  64  90 127 169 214 269 329 393
#     4  12  25  42  66  95 130 177 226 269 319 392
#     4  11  25  42  63  97 133 170 214 276 341 394
#
# _framework density 21.081748999999999
#
# number of rings (size 3 to 8) (size 9 to 14) (size 15 to 20)
#    0.000    1.000    1.429    4.714    6.000    4.857 
#    0.000    0.714    0.000    3.000    0.000    0.000 
#    0.000    0.000    0.000    0.000    0.000    0.000 
#
# Total GULP energy -694584.491749 kJ/mol
# GULP energy per Si atom -12403.294496 kJ/mol
# Density = 2.103377 g / cm^3
# Si number density = 21.081749 Si / 1000 Ang^3
#
#
#
# Elastic Constant Matrix: (Units=GPa)
#
#
# Indices 1 2 3 4 5 6 
#
# 1 99.2960 42.3293 51.9876 0.0000 0.0000 0.0000
# 2 42.3293 151.8546 62.7396 0.0000 0.0000 0.0000
# 3 51.9876 62.7396 158.1075 0.0000 0.0000 0.0000
# 4 0.0000 0.0000 0.0000 44.3357 0.0000 0.0000
# 5 0.0000 0.0000 0.0000 0.0000 22.8978 0.0000
# 6 0.0000 0.0000 0.0000 0.0000 0.0000 25.0304
#
#
#
# Elastic Compliance Matrix: (Units=1/GPa)
#
#
# Indices 1 2 3 4 5 6 
#
# 1 0.012740 -0.002178 -0.003325 0.000000 0.000000 0.000000
# 2 -0.002178 0.008249 -0.002557 0.000000 0.000000 0.000000
# 3 -0.003325 -0.002557 0.008433 0.000000 0.000000 0.000000
# 4 0.000000 0.000000 0.000000 0.022555 0.000000 0.000000
# 5 0.000000 0.000000 0.000000 0.000000 0.043672 0.000000
# 6 0.000000 0.000000 0.000000 0.000000 0.000000 0.039951
#
#
# Mechanical properties :
#
#
# Convention : Reuss Voigt Hill
#
# Bulk Modulus (GPa) = 75.17599 80.37456 77.77527
# Shear Modulus (GPa) = 32.01963 35.26622 33.64292
#
# Velocity S-wave (km/s) = 3.90145 4.09446 3.99912
# Velocity P-wave (km/s) = 7.48544 7.78208 7.63520
#
# Compressibility (1/GPa) = 0.01330212
#
# Stress axis : x y z
#
# Youngs Moduli (GPa) = 78.49289 121.23022 118.58370
#
# Poissons Ratio (x) = 0.26398 0.39429
# Poissons Ratio (y) = 0.17092 0.30325
# Poissons Ratio (z) = 0.26099 0.31002
#
# Static dielectric constant tensor:
#      x y z
#    x 3.700020 0.000000 0.000000 
#    y 0.000000 3.891340 0.000000 
#    z 0.000000 0.000000 3.739850 
# 
# 
# High freq. dielectric constant tensor:
#      x y z
#    x 1.822170 0.000000 0.000000 
#    y 0.000000 1.829730 0.000000 
#    z 0.000000 0.000000 1.844060 
# 
# From -- ./inp_files/11091.got.cif
#   From: 2010.03.12/outbox.cif.g09.slc.cpg/sg53_6_cif.got.tgz:11091.got - 2010.04.16 14:36:59.
