data_PCOD8221349
_publ_section_title
;
Structure prediction by ZEFSAII (Michael W. Deem and Ramdas Pophale) SiO2 
 PCOD8221349
Probable space group: P M N A
;
_chemical_formula_sum "Si O2"
_cell_formula_units_Z 44
_cell_length_a 17.147155
_cell_length_b 13.707758
_cell_length_c 9.394533
_cell_angle_alpha 90.000000
_cell_angle_beta 90.000000
_cell_angle_gamma 90.000000
_cell_volume 2208.176067
_symmetry_space_group_name_H-M "P M N A"
_symmetry_group_IT_number 53
_symmetry_cell_setting 'orthorhombic'
loop_
_space_group_symop_operation_xyz
x,y,z
1/2-x,-y,1/2+z
x,-y,-z
1/2-x,y,1/2-z
-x,-y,-z
1/2+x,y,1/2-z
-x,y,z
1/2+x,-y,1/2+z
loop_
_atom_site_type_symbol
_atom_site_label
_atom_site_fract_x
_atom_site_fract_y
_atom_site_fract_z
Si Si1 0.632279 0.100457 0.425854
Si Si2 0.128724 0.388299 0.495180
Si Si3 0.776263 0.223469 0.411365
Si Si4 0.409912 0.911624 0.891004
Si Si5 0.000000 0.623754 0.275513
Si Si6 0.500000 0.398763 0.235612
Si Si7 0.500000 0.747493 0.507801
O O1 0.715302 0.145555 0.475306
O O2 0.628229 0.067015 0.261969
O O3 0.574043 0.184906 0.469818
O O4 0.612813 0.000000 0.500000
O O5 0.154767 0.500000 0.500000
O O6 0.211094 0.328133 0.487606
O O7 0.077077 0.371508 0.353455
O O8 0.077830 0.358494 0.632192
O O9 0.750000 0.242195 0.250000
O O10 0.862743 0.181703 0.443916
O O11 0.500000 0.882846 0.874468
O O12 0.398494 0.000000 0.000000
O O13 0.000000 0.512505 0.221436
O O14 0.000000 0.701602 0.148708
O O15 0.500000 0.339222 0.380294
#
# Coordination Sequence:
#
# PCOD8221349 Si02
#       7
#     8   8   8   8   4   4   4
#     4  11  24  41  57  83 125 163 198 249 307 355
#     4   9  19  38  62  90 121 155 202 257 306 358
#     4  10  21  38  62  89 117 159 196 245 304 364
#     4  10  21  37  61  89 113 151 207 250 289 357
#     4   9  21  36  60  95 123 155 202 257 307 354
#     4   9  17  36  64  88 121 155 200 259 301 363
#     4  12  22  38  61  87 120 168 213 244 306 373
#
# _framework density 19.925948000000002
#
# number of rings (size 3 to 8) (size 9 to 14) (size 15 to 20)
#    0.000    2.000    0.909    4.364    2.545    1.455 
#    0.000    8.182    0.000    0.000    0.000    0.000 
#    0.000    0.000    0.000    0.000    0.000    0.000 
#
# Total GULP energy -545225.754151 kJ/mol
# GULP energy per Si atom -12391.494413 kJ/mol
# Density = 1.988060 g / cm^3
# Si number density = 19.925948 Si / 1000 Ang^3
#
#
#
# Elastic Constant Matrix: (Units=GPa)
#
#
# Indices 1 2 3 4 5 6 
#
# 1 99.3763 54.5477 27.6757 0.0000 0.0000 0.0000
# 2 54.5477 111.6286 56.2658 0.0000 0.0000 0.0000
# 3 27.6757 56.2658 92.2502 0.0000 0.0000 0.0000
# 4 0.0000 0.0000 0.0000 39.1688 0.0000 0.0000
# 5 0.0000 0.0000 0.0000 0.0000 16.9237 0.0000
# 6 0.0000 0.0000 0.0000 0.0000 0.0000 50.1849
#
#
#
# Elastic Compliance Matrix: (Units=1/GPa)
#
#
# Indices 1 2 3 4 5 6 
#
# 1 0.013751 -0.006700 -0.000039 0.000000 0.000000 0.000000
# 2 -0.006700 0.016199 -0.007870 0.000000 0.000000 0.000000
# 3 -0.000039 -0.007870 0.015652 0.000000 0.000000 0.000000
# 4 0.000000 0.000000 0.000000 0.025531 0.000000 0.000000
# 5 0.000000 0.000000 0.000000 0.000000 0.059089 0.000000
# 6 0.000000 0.000000 0.000000 0.000000 0.000000 0.019926
#
#
# Mechanical properties :
#
#
# Convention : Reuss Voigt Hill
#
# Bulk Modulus (GPa) = 61.03491 64.47039 62.75265
# Shear Modulus (GPa) = 27.05220 32.23987 29.64603
#
# Velocity S-wave (km/s) = 3.68861 4.02678 3.86140
# Velocity P-wave (km/s) = 6.98845 7.35154 7.17230
#
# Compressibility (1/GPa) = 0.01638407
#
# Stress axis : x y z
#
# Youngs Moduli (GPa) = 72.72087 61.73143 63.88929
#
# Poissons Ratio (x) = 0.41360 0.00249
# Poissons Ratio (y) = 0.48722 0.50283
# Poissons Ratio (z) = 0.00284 0.48584
#
# Static dielectric constant tensor:
#      x y z
#    x 3.695860 0.000000 0.000000 
#    y 0.000000 3.842750 0.000000 
#    z 0.000000 0.000000 3.504160 
# 
# 
# High freq. dielectric constant tensor:
#      x y z
#    x 1.773920 0.000000 0.000000 
#    y 0.000000 1.794040 0.000000 
#    z 0.000000 0.000000 1.760830 
# 
# From -- ./inp_files/9874.got.cif
#   From: 2010.03.12/outbox.cif.g09.slc.cpg/sg53_5_cif.got.tgz:9874.got - 2010.04.16 14:36:59.
