data_PCOD8221287
_publ_section_title
;
Structure prediction by ZEFSAII (Michael W. Deem and Ramdas Pophale) SiO2 
 PCOD8221287
Probable space group: P M N A
;
_chemical_formula_sum "Si O2"
_cell_formula_units_Z 48
_cell_length_a 8.664743
_cell_length_b 9.932158
_cell_length_c 29.234854
_cell_angle_alpha 90.000000
_cell_angle_beta 90.000000
_cell_angle_gamma 90.000000
_cell_volume 2515.939739
_symmetry_space_group_name_H-M "P M N A"
_symmetry_group_IT_number 53
_symmetry_cell_setting 'orthorhombic'
loop_
_space_group_symop_operation_xyz
x,y,z
1/2-x,-y,1/2+z
x,-y,-z
1/2-x,y,1/2-z
-x,-y,-z
1/2+x,y,1/2-z
-x,y,z
1/2+x,-y,1/2+z
loop_
_atom_site_type_symbol
_atom_site_label
_atom_site_fract_x
_atom_site_fract_y
_atom_site_fract_z
Si Si1 0.682977 0.010041 0.128224
Si Si2 0.681490 0.515557 0.299024
Si Si3 0.682413 0.636250 0.024220
Si Si4 0.682325 0.209938 0.298953
Si Si5 0.317101 0.713963 0.378807
Si Si6 0.683238 0.114004 0.032536
O O1 0.500000 0.996001 0.127884
O O2 0.737510 0.101294 0.169350
O O3 0.745954 0.086758 0.083230
O O4 0.751342 0.861112 0.131075
O O5 0.750000 0.557760 0.250000
O O6 0.500000 0.527276 0.293936
O O7 0.728581 0.362757 0.312759
O O8 0.743359 0.614916 0.338580
O O9 0.500000 0.645211 0.032521
O O10 0.762071 0.654461 0.072992
O O11 0.733991 0.500000 0.000000
O O12 0.741946 0.745829 0.987816
O O13 0.750000 0.176332 0.250000
O O14 0.500000 0.189066 0.299727
O O15 0.500000 0.721110 0.378914
O O16 0.500000 0.108908 0.032758
O O17 0.752717 0.000000 0.000000
#
# Coordination Sequence:
#
# PCOD8221287 Si02
#       6
#     8   8   8   8   8   8
#     4  11  22  37  60  87 116 153 194 238 287 339
#     4   9  21  40  61  84 114 149 188 235 286 342
#     4  10  21  37  58  84 113 150 196 241 285 343
#     4  10  21  40  62  87 116 147 188 235 287 345
#     4  11  23  39  57  84 121 155 191 240 292 344
#     4   9  17  34  56  80 113 148 188 236 280 330
#
# _framework density 19.078358000000001
#
# number of rings (size 3 to 8) (size 9 to 14) (size 15 to 20)
#    0.000    2.000    1.667    1.500    2.333    3.000 
#    0.000    4.167    0.000    0.000    0.000    0.000 
#    0.000    0.000    0.000    0.000    0.000    0.000 
#
# Total GULP energy -595143.088099 kJ/mol
# GULP energy per Si atom -12398.814335 kJ/mol
# Density = 1.903494 g / cm^3
# Si number density = 19.078358 Si / 1000 Ang^3
#
#
#
# Elastic Constant Matrix: (Units=GPa)
#
#
# Indices 1 2 3 4 5 6 
#
# 1 41.5448 40.2438 35.4554 0.0000 0.0000 0.0000
# 2 40.2438 180.7905 115.8981 0.0000 0.0000 0.0000
# 3 35.4554 115.8981 163.8433 0.0000 0.0000 0.0000
# 4 0.0000 0.0000 0.0000 45.9873 0.0000 0.0000
# 5 0.0000 0.0000 0.0000 0.0000 30.6457 0.0000
# 6 0.0000 0.0000 0.0000 0.0000 0.0000 17.9308
#
#
#
# Elastic Compliance Matrix: (Units=1/GPa)
#
#
# Indices 1 2 3 4 5 6 
#
# 1 0.031701 -0.004865 -0.003419 0.000000 0.000000 0.000000
# 2 -0.004865 0.010867 -0.006634 0.000000 0.000000 0.000000
# 3 -0.003419 -0.006634 0.011536 0.000000 0.000000 0.000000
# 4 0.000000 0.000000 0.000000 0.021745 0.000000 0.000000
# 5 0.000000 0.000000 0.000000 0.000000 0.032631 0.000000
# 6 0.000000 0.000000 0.000000 0.000000 0.000000 0.055770
#
#
# Mechanical properties :
#
#
# Convention : Reuss Voigt Hill
#
# Bulk Modulus (GPa) = 41.20653 85.48590 63.34622
# Shear Modulus (GPa) = 24.73098 31.88484 28.30791
#
# Velocity S-wave (km/s) = 3.60430 4.09254 3.85615
# Velocity P-wave (km/s) = 6.24234 8.19981 7.28710
#
# Compressibility (1/GPa) = 0.02426800
#
# Stress axis : x y z
#
# Youngs Moduli (GPa) = 31.54520 92.01922 86.68372
#
# Poissons Ratio (x) = 0.44767 0.29634
# Poissons Ratio (y) = 0.15347 0.57510
# Poissons Ratio (z) = 0.10784 0.61050
#
# Static dielectric constant tensor:
#      x y z
#    x 3.333360 0.000000 0.000000 
#    y 0.000000 3.654690 0.000000 
#    z 0.000000 0.000000 3.675620 
# 
# 
# High freq. dielectric constant tensor:
#      x y z
#    x 1.727930 0.000000 0.000000 
#    y 0.000000 1.755230 0.000000 
#    z 0.000000 0.000000 1.754140 
# 
# From -- ./inp_files/37754.got.cif
#   From: 2010.03.12/outbox.cif.g09.slc.cpg/sg53_19_cif.got.tgz:37754.got - 2010.04.16 14:36:59.
