data_PCOD8221250
_publ_section_title
;
Structure prediction by ZEFSAII (Michael W. Deem and Ramdas Pophale) SiO2 
 PCOD8221250
Probable space group: P M N A
;
_chemical_formula_sum "Si O2"
_cell_formula_units_Z 48
_cell_length_a 8.925238
_cell_length_b 15.390058
_cell_length_c 17.766538
_cell_angle_alpha 90.000000
_cell_angle_beta 90.000000
_cell_angle_gamma 90.000000
_cell_volume 2440.410425
_symmetry_space_group_name_H-M "P M N A"
_symmetry_group_IT_number 53
_symmetry_cell_setting 'orthorhombic'
loop_
_space_group_symop_operation_xyz
x,y,z
1/2-x,-y,1/2+z
x,-y,-z
1/2-x,y,1/2-z
-x,-y,-z
1/2+x,y,1/2-z
-x,y,z
1/2+x,-y,1/2+z
loop_
_atom_site_type_symbol
_atom_site_label
_atom_site_fract_x
_atom_site_fract_y
_atom_site_fract_z
Si Si1 0.827223 0.836673 0.086168
Si Si2 0.825390 0.183050 0.088716
Si Si3 0.822696 0.339412 0.330396
Si Si4 0.322882 0.680509 0.169000
Si Si5 0.824792 0.009885 0.170720
Si Si6 0.677888 0.509760 0.084027
O O1 0.722762 0.768576 0.128257
O O2 0.000000 0.814838 0.104299
O O3 0.783242 0.932276 0.114308
O O4 0.794338 0.834728 0.998200
O O5 0.727377 0.264878 0.112573
O O6 0.767284 0.099791 0.135062
O O7 0.000000 0.201533 0.104274
O O8 0.750000 0.322957 0.250000
O O9 0.765334 0.430743 0.364020
O O10 0.000000 0.337326 0.321585
O O11 0.250000 0.674270 0.250000
O O12 0.500000 0.677925 0.178632
O O13 0.263864 0.599527 0.119540
O O14 0.750000 0.991662 0.250000
O O15 0.000000 0.014990 0.184168
O O16 0.500000 0.508672 0.079676
O O17 0.745435 0.500000 0.000000
#
# Coordination Sequence:
#
# PCOD8221250 Si02
#       6
#     8   8   8   8   8   8
#     4  10  21  38  59  83 112 146 185 229 277 329
#     4  10  21  38  59  83 112 146 185 229 277 329
#     4  11  22  37  58  83 113 148 186 228 275 328
#     4  11  22  37  58  83 113 148 186 228 275 328
#     4  10  21  37  57  81 111 148 185 224 274 328
#     4   9  19  36  57  81 110 145 184 227 276 328
#
# _framework density 19.668821999999999
#
# number of rings (size 3 to 8) (size 9 to 14) (size 15 to 20)
#    0.000    1.833    0.000    4.000    0.000    8.000 
#    0.000    2.500    0.000    9.000    0.000    0.000 
#    0.000    0.000    0.000    0.000    0.000    0.000 
#
# Total GULP energy -595425.023261 kJ/mol
# GULP energy per Si atom -12404.687985 kJ/mol
# Density = 1.962405 g / cm^3
# Si number density = 19.668822 Si / 1000 Ang^3
#
#
#
# Elastic Constant Matrix: (Units=GPa)
#
#
# Indices 1 2 3 4 5 6 
#
# 1 50.7584 28.9029 28.9040 0.0000 0.0000 0.0000
# 2 28.9029 77.1022 10.0810 0.0000 0.0000 0.0000
# 3 28.9040 10.0810 103.6452 0.0000 0.0000 0.0000
# 4 0.0000 0.0000 0.0000 38.6857 0.0000 0.0000
# 5 0.0000 0.0000 0.0000 0.0000 -13.5146 0.0000
# 6 0.0000 0.0000 0.0000 0.0000 0.0000 26.1186
#
#
#
# Elastic Compliance Matrix: (Units=1/GPa)
#
#
# Indices 1 2 3 4 5 6 
#
# 1 0.029626 -0.010154 -0.007274 0.000000 0.000000 0.000000
# 2 -0.010154 0.016617 0.001216 0.000000 0.000000 0.000000
# 3 -0.007274 0.001216 0.011559 0.000000 0.000000 0.000000
# 4 0.000000 0.000000 0.000000 0.025849 0.000000 0.000000
# 5 0.000000 0.000000 0.000000 0.000000 -0.073994 0.000000
# 6 0.000000 0.000000 0.000000 0.000000 0.000000 0.038287
#
#
# Mechanical properties :
#
#
# Convention : Reuss Voigt Hill
#
# Bulk Modulus (GPa) = 39.40817 40.80906 40.10861
# Shear Modulus (GPa) = 56.28825 21.16580 38.72702
#
# Velocity S-wave (km/s) = 5.35538 3.28397 4.44210
# Velocity P-wave (km/s) = 7.63672 5.93063 6.83710
#
# Compressibility (1/GPa) = 0.02537545
#
# Stress axis : x y z
#
# Youngs Moduli (GPa) = 33.75467 60.17783 86.51538
#
# Poissons Ratio (x) = 0.61107 0.62932
# Poissons Ratio (y) = 0.34276 -0.10516
# Poissons Ratio (z) = 0.24554 -0.07315
#
# Static dielectric constant tensor:
#      x y z
#    x 3.424990 0.000000 0.000000 
#    y 0.000000 4.020060 0.000000 
#    z 0.000000 0.000000 3.767610 
# 
# 
# High freq. dielectric constant tensor:
#      x y z
#    x 1.746280 0.000000 0.000000 
#    y 0.000000 1.784390 0.000000 
#    z 0.000000 0.000000 1.784870 
# 
# From -- ./inp_files/26235.got.cif
#   From: 2010.03.12/outbox.cif.g09.slc.cpg/sg53_14_cif.got.tgz:26235.got - 2010.04.16 14:36:59.
