data_PCOD8221038
_publ_section_title
;
Structure prediction by ZEFSAII (Michael W. Deem and Ramdas Pophale) SiO2 
 PCOD8221038
Probable space group: P M N A
;
_chemical_formula_sum "Si O2"
_cell_formula_units_Z 48
_cell_length_a 8.806322
_cell_length_b 14.703303
_cell_length_c 19.216944
_cell_angle_alpha 90.000000
_cell_angle_beta 90.000000
_cell_angle_gamma 90.000000
_cell_volume 2488.248740
_symmetry_space_group_name_H-M "P M N A"
_symmetry_group_IT_number 53
_symmetry_cell_setting 'orthorhombic'
loop_
_space_group_symop_operation_xyz
x,y,z
1/2-x,-y,1/2+z
x,-y,-z
1/2-x,y,1/2-z
-x,-y,-z
1/2+x,y,1/2-z
-x,y,z
1/2+x,-y,1/2+z
loop_
_atom_site_type_symbol
_atom_site_label
_atom_site_fract_x
_atom_site_fract_y
_atom_site_fract_z
Si Si1 0.174854 0.530345 0.576816
Si Si2 0.178867 0.391012 0.824681
Si Si3 0.820161 0.774582 0.406863
Si Si4 0.825370 0.740780 0.564770
Si Si5 0.320452 0.928210 0.322503
Si Si6 0.677105 0.136567 0.321234
O O1 0.222534 0.500000 0.500000
O O2 0.283804 0.479832 0.630303
O O3 0.200892 0.637051 0.586549
O O4 0.000000 0.502591 0.590807
O O5 0.250000 0.407193 0.750000
O O6 0.249278 0.301566 0.858149
O O7 0.000000 0.378305 0.818362
O O8 0.771201 0.755363 0.485867
O O9 0.753275 0.872080 0.385408
O O10 0.000000 0.773206 0.397926
O O11 0.726067 0.803873 0.613714
O O12 0.000000 0.768992 0.573199
O O13 0.250000 0.893119 0.250000
O O14 0.500000 0.913317 0.320742
O O15 0.274187 0.032663 0.335349
O O16 0.750000 0.173540 0.250000
O O17 0.500000 0.145106 0.311071
#
# Coordination Sequence:
#
# PCOD8221038 Si02
#       6
#     8   8   8   8   8   8
#     4  10  20  41  65  86 118 157 197 243 296 354
#     4  12  25  40  61  90 122 158 201 248 296 354
#     4  11  22  39  61  88 121 159 197 242 298 358
#     4  10  22  39  63  89 118 157 197 241 297 355
#     4  10  21  38  59  86 118 158 199 246 299 350
#     4  10  22  40  62  86 119 156 199 249 297 351
#
# _framework density 19.290676000000001
#
# number of rings (size 3 to 8) (size 9 to 14) (size 15 to 20)
#    0.000    1.500    1.667    3.500    0.000    5.667 
#    0.000    3.333    0.000    0.000    0.000    0.000 
#    0.000    0.000    0.000    0.000    0.000    0.000 
#
# Total GULP energy -595495.523690 kJ/mol
# GULP energy per Si atom -12406.156744 kJ/mol
# Density = 1.924677 g / cm^3
# Si number density = 19.290676 Si / 1000 Ang^3
#
#
#
# Elastic Constant Matrix: (Units=GPa)
#
#
# Indices 1 2 3 4 5 6 
#
# 1 90.7752 38.7373 47.4526 0.0000 0.0000 0.0000
# 2 38.7373 87.3390 49.5020 0.0000 0.0000 0.0000
# 3 47.4526 49.5020 109.2669 0.0000 0.0000 0.0000
# 4 0.0000 0.0000 0.0000 35.4840 0.0000 0.0000
# 5 0.0000 0.0000 0.0000 0.0000 37.1294 0.0000
# 6 0.0000 0.0000 0.0000 0.0000 0.0000 37.0081
#
#
#
# Elastic Compliance Matrix: (Units=1/GPa)
#
#
# Indices 1 2 3 4 5 6 
#
# 1 0.015246 -0.004049 -0.004787 0.000000 0.000000 0.000000
# 2 -0.004049 0.016481 -0.005708 0.000000 0.000000 0.000000
# 3 -0.004787 -0.005708 0.013817 0.000000 0.000000 0.000000
# 4 0.000000 0.000000 0.000000 0.028182 0.000000 0.000000
# 5 0.000000 0.000000 0.000000 0.000000 0.026933 0.000000
# 6 0.000000 0.000000 0.000000 0.000000 0.000000 0.027021
#
#
# Mechanical properties :
#
#
# Convention : Reuss Voigt Hill
#
# Bulk Modulus (GPa) = 60.76811 62.08498 61.42655
# Shear Modulus (GPa) = 30.81616 32.03691 31.42654
#
# Velocity S-wave (km/s) = 4.00116 4.07965 4.04060
# Velocity P-wave (km/s) = 7.27430 7.37870 7.32668
#
# Compressibility (1/GPa) = 0.01645600
#
# Stress axis : x y z
#
# Youngs Moduli (GPa) = 65.58892 60.67713 72.37656
#
# Poissons Ratio (x) = 0.24569 0.34646
# Poissons Ratio (y) = 0.26558 0.41312
# Poissons Ratio (z) = 0.31396 0.34634
#
# Static dielectric constant tensor:
#      x y z
#    x 3.554970 0.000000 0.000000 
#    y 0.000000 3.610080 0.000000 
#    z 0.000000 0.000000 3.642280 
# 
# 
# High freq. dielectric constant tensor:
#      x y z
#    x 1.756720 0.000000 0.000000 
#    y 0.000000 1.759080 0.000000 
#    z 0.000000 0.000000 1.756430 
# 
# From -- ./inp_files/26152.got.cif
#   From: 2010.03.12/outbox.cif.g09.slc.cpg/sg53_14_cif.got.tgz:26152.got - 2010.04.16 14:36:59.
