data_PCOD8221123
_publ_section_title
;
Structure prediction by ZEFSAII (Michael W. Deem and Ramdas Pophale) SiO2 
 PCOD8221123
Probable space group: P M N A
;
_chemical_formula_sum "Si O2"
_cell_formula_units_Z 40
_cell_length_a 8.750032
_cell_length_b 25.988435
_cell_length_c 9.175157
_cell_angle_alpha 90.000000
_cell_angle_beta 90.000000
_cell_angle_gamma 90.000000
_cell_volume 2086.427379
_symmetry_space_group_name_H-M "P M N A"
_symmetry_group_IT_number 53
_symmetry_cell_setting 'orthorhombic'
loop_
_space_group_symop_operation_xyz
x,y,z
1/2-x,-y,1/2+z
x,-y,-z
1/2-x,y,1/2-z
-x,-y,-z
1/2+x,y,1/2-z
-x,y,z
1/2+x,-y,1/2+z
loop_
_atom_site_type_symbol
_atom_site_label
_atom_site_fract_x
_atom_site_fract_y
_atom_site_fract_z
Si Si1 0.319337 0.858726 0.911009
Si Si2 0.176816 0.050848 0.905968
Si Si3 0.680755 0.548887 0.407756
Si Si4 0.678935 0.756657 0.591899
Si Si5 0.178502 0.356058 0.092067
O O1 0.250000 0.866100 0.750000
O O2 0.500000 0.859226 0.897644
O O3 0.262955 0.804829 0.985520
O O4 0.266258 0.903565 0.016337
O O5 0.250000 0.040053 0.750000
O O6 0.000000 0.066034 0.888788
O O7 0.197696 0.000000 0.000000
O O8 0.736449 0.500000 0.500000
O O9 0.750000 0.544036 0.250000
O O10 0.500000 0.550501 0.394240
O O11 0.744590 0.600773 0.483754
O O12 0.750000 0.752957 0.750000
O O13 0.500000 0.768941 0.600737
O O14 0.710787 0.700548 0.520212
O O15 0.250000 0.362845 0.250000
O O16 0.000000 0.364147 0.115238
#
# Coordination Sequence:
#
# PCOD8221123 Si02
#       5
#     8   8   8   8   8
#     4  11  21  35  57  84 114 147 185 226 270 319
#     4  11  24  41  61  85 113 145 182 224 271 323
#     4  10  21  36  53  76 105 136 174 218 265 318
#     4   9  16  29  50  76 107 140 178 221 265 314
#     4   9  18  32  52  78 106 138 176 220 265 314
#
# _framework density 19.171527999999999
#
# number of rings (size 3 to 8) (size 9 to 14) (size 15 to 20)
#    0.000    2.000    0.000    5.400    0.000    5.200 
#    0.000    1.000    0.000    2.400    0.000    0.000 
#    0.000    0.000    0.000    0.000    0.000    0.000 
#
# Total GULP energy -495839.322144 kJ/mol
# GULP energy per Si atom -12395.983054 kJ/mol
# Density = 1.912789 g / cm^3
# Si number density = 19.171528 Si / 1000 Ang^3
#
#
#
# Elastic Constant Matrix: (Units=GPa)
#
#
# Indices 1 2 3 4 5 6 
#
# 1 112.4272 65.8495 46.0631 0.0000 0.0000 0.0000
# 2 65.8495 159.2721 60.2320 0.0000 0.0000 0.0000
# 3 46.0631 60.2320 104.0610 0.0000 0.0000 0.0000
# 4 0.0000 0.0000 0.0000 67.0327 0.0000 0.0000
# 5 0.0000 0.0000 0.0000 0.0000 27.3573 0.0000
# 6 0.0000 0.0000 0.0000 0.0000 0.0000 -18.2649
#
#
#
# Elastic Compliance Matrix: (Units=1/GPa)
#
#
# Indices 1 2 3 4 5 6 
#
# 1 0.012548 -0.003953 -0.003267 0.000000 0.000000 0.000000
# 2 -0.003953 0.009283 -0.003624 0.000000 0.000000 0.000000
# 3 -0.003267 -0.003624 0.013153 0.000000 0.000000 0.000000
# 4 0.000000 0.000000 0.000000 0.014918 0.000000 0.000000
# 5 0.000000 0.000000 0.000000 0.000000 0.036553 0.000000
# 6 0.000000 0.000000 0.000000 0.000000 0.000000 -0.054750
#
#
# Mechanical properties :
#
#
# Convention : Reuss Voigt Hill
#
# Bulk Modulus (GPa) = 75.19524 80.00550 77.60037
# Shear Modulus (GPa) = 86.46879 28.79938 57.63409
#
# Velocity S-wave (km/s) = 6.72314 3.88002 5.48886
# Velocity P-wave (km/s) = 9.97873 7.86732 8.98526
#
# Compressibility (1/GPa) = 0.01329871
#
# Stress axis : x y z
#
# Youngs Moduli (GPa) = 79.69352 107.72365 76.02757
#
# Poissons Ratio (x) = 0.42578 0.24836
# Poissons Ratio (y) = 0.31499 0.27549
# Poissons Ratio (z) = 0.26033 0.39034
#
# Static dielectric constant tensor:
#      x y z
#    x 3.595750 0.000000 0.000000 
#    y 0.000000 4.475540 0.000000 
#    z 0.000000 0.000000 3.231410 
# 
# 
# High freq. dielectric constant tensor:
#      x y z
#    x 1.752580 0.000000 0.000000 
#    y 0.000000 1.774900 0.000000 
#    z 0.000000 0.000000 1.714250 
# 
# From -- ./inp_files/6452.got.cif
#   From: 2010.03.12/outbox.cif.g09.slc.cpg/sg53_4_cif.got.tgz:6452.got - 2010.04.16 14:36:59.
