data_PCOD8221233
_publ_section_title
;
Structure prediction by ZEFSAII (Michael W. Deem and Ramdas Pophale) SiO2 
 PCOD8221233
Probable space group: P M N A
;
_chemical_formula_sum "Si O2"
_cell_formula_units_Z 64
_cell_length_a 14.605912
_cell_length_b 8.964442
_cell_length_c 24.193992
_cell_angle_alpha 90.000000
_cell_angle_beta 90.000000
_cell_angle_gamma 90.000000
_cell_volume 3167.812543
_symmetry_space_group_name_H-M "P M N A"
_symmetry_group_IT_number 53
_symmetry_cell_setting 'orthorhombic'
loop_
_space_group_symop_operation_xyz
x,y,z
1/2-x,-y,1/2+z
x,-y,-z
1/2-x,y,1/2-z
-x,-y,-z
1/2+x,y,1/2-z
-x,y,z
1/2+x,-y,1/2+z
loop_
_atom_site_type_symbol
_atom_site_label
_atom_site_fract_x
_atom_site_fract_y
_atom_site_fract_z
Si Si1 0.261258 0.072823 0.057120
Si Si2 0.897970 0.927122 0.651335
Si Si3 0.738742 0.572823 0.942880
Si Si4 0.393293 0.922938 0.381092
Si Si5 0.108603 0.415428 0.227893
Si Si6 0.108603 0.084572 0.227893
Si Si7 0.606707 0.422938 0.618908
Si Si8 0.602030 0.572878 0.848665
O O1 0.261146 0.250000 0.051598
O O2 0.331272 0.012815 0.103719
O O3 0.159833 0.016425 0.072486
O O4 0.293249 0.000000 0.000000
O O5 0.857336 0.973243 0.711840
O O6 0.000000 0.994214 0.641928
O O7 0.903631 0.750000 0.649171
O O8 0.840167 0.516425 0.927514
O O9 0.668728 0.512815 0.896281
O O10 0.706751 0.500000 0.000000
O O11 0.500000 0.958085 0.389337
O O12 0.359827 0.972883 0.320146
O O13 0.370989 0.750000 0.388548
O O14 0.140173 0.527117 0.179854
O O15 0.142664 0.473243 0.288160
O O16 0.000000 0.405626 0.231647
O O17 0.148333 0.250000 0.214526
O O18 0.000000 0.094374 0.231647
O O19 0.500000 0.458085 0.610663
O O20 0.500000 0.505786 0.858072
#
# Coordination Sequence:
#
# PCOD8221233 Si02
#       8
#     8   8   8   8   8   8   8   8
#     4  11  23  38  56  78 106 141 183 226 264 310
#     4   8  16  33  57  83 110 141 176 214 259 314
#     4  11  23  38  56  78 106 141 183 226 264 310
#     4  10  21  37  56  79 109 142 175 217 269 320
#     4   8  14  29  55  83 108 136 173 214 258 314
#     4   8  14  29  55  83 108 136 173 214 258 314
#     4  10  21  37  56  79 109 142 175 217 269 320
#     4   8  16  33  57  83 110 141 176 214 259 314
#
# _framework density 20.203215
#
# number of rings (size 3 to 8) (size 9 to 14) (size 15 to 20)
#    0.000    2.750    0.000    3.000    0.000    3.500 
#    0.000    7.500    0.000    5.250    0.000    0.000 
#    0.000    0.000    0.000    0.000    0.000    0.000 
#
# Total GULP energy -793461.842012 kJ/mol
# GULP energy per Si atom -12397.841281 kJ/mol
# Density = 2.015723 g / cm^3
# Si number density = 20.203215 Si / 1000 Ang^3
#
#
#
# Elastic Constant Matrix: (Units=GPa)
#
#
# Indices 1 2 3 4 5 6 
#
# 1 41.7767 17.5724 13.8843 0.0000 0.0000 0.0000
# 2 17.5724 61.7975 21.5780 0.0000 0.0000 0.0000
# 3 13.8843 21.5780 95.2961 0.0000 0.0000 0.0000
# 4 0.0000 0.0000 0.0000 35.6494 0.0000 0.0000
# 5 0.0000 0.0000 0.0000 0.0000 33.2099 0.0000
# 6 0.0000 0.0000 0.0000 0.0000 0.0000 15.7499
#
#
#
# Elastic Compliance Matrix: (Units=1/GPa)
#
#
# Indices 1 2 3 4 5 6 
#
# 1 0.027704 -0.007024 -0.002446 0.000000 0.000000 0.000000
# 2 -0.007024 0.019352 -0.003359 0.000000 0.000000 0.000000
# 3 -0.002446 -0.003359 0.011610 0.000000 0.000000 0.000000
# 4 0.000000 0.000000 0.000000 0.028051 0.000000 0.000000
# 5 0.000000 0.000000 0.000000 0.000000 0.030112 0.000000
# 6 0.000000 0.000000 0.000000 0.000000 0.000000 0.063493
#
#
# Mechanical properties :
#
#
# Convention : Reuss Voigt Hill
#
# Bulk Modulus (GPa) = 30.29395 33.88218 32.08806
# Shear Modulus (GPa) = 23.04348 26.64421 24.84385
#
# Velocity S-wave (km/s) = 3.38092 3.63548 3.51051
# Velocity P-wave (km/s) = 5.50163 5.86766 5.68759
#
# Compressibility (1/GPa) = 0.03300989
#
# Stress axis : x y z
#
# Youngs Moduli (GPa) = 36.09584 51.67475 86.12933
#
# Poissons Ratio (x) = 0.36295 0.21067
# Poissons Ratio (y) = 0.25353 0.28927
# Poissons Ratio (z) = 0.08829 0.17355
#
# Static dielectric constant tensor:
#      x y z
#    x 3.692460 0.000000 0.000000 
#    y 0.000000 3.362000 0.000000 
#    z 0.000000 0.000000 3.931770 
# 
# 
# High freq. dielectric constant tensor:
#      x y z
#    x 1.783540 0.000000 0.000000 
#    y 0.000000 1.756360 0.000000 
#    z 0.000000 0.000000 1.794960 
# 
# From -- ./inp_files/34196.got.cif
#   From: 2010.03.12/outbox.cif.g09.slc.cpg/sg53_18_cif.got.tgz:34196.got - 2010.04.16 14:36:59.
