data_PCOD8221578
_publ_section_title
;
Structure prediction by ZEFSAII (Michael W. Deem and Ramdas Pophale) SiO2 
 PCOD8221578
Probable space group: P M N A
;
_chemical_formula_sum "Si O2"
_cell_formula_units_Z 48
_cell_length_a 10.147723
_cell_length_b 31.250934
_cell_length_c 7.560967
_cell_angle_alpha 90.000000
_cell_angle_beta 90.000000
_cell_angle_gamma 90.000000
_cell_volume 2397.777873
_symmetry_space_group_name_H-M "P M N A"
_symmetry_group_IT_number 53
_symmetry_cell_setting 'orthorhombic'
loop_
_space_group_symop_operation_xyz
x,y,z
1/2-x,-y,1/2+z
x,-y,-z
1/2-x,y,1/2-z
-x,-y,-z
1/2+x,y,1/2-z
-x,y,z
1/2+x,-y,1/2+z
loop_
_atom_site_type_symbol
_atom_site_label
_atom_site_fract_x
_atom_site_fract_y
_atom_site_fract_z
Si Si1 0.264777 0.632091 0.050101
Si Si2 0.154581 0.137063 0.578272
Si Si3 0.652375 0.455345 0.090213
Si Si4 0.000000 0.750239 0.754598
Si Si5 0.857037 0.042711 0.607122
Si Si6 0.000000 0.327354 0.976548
Si Si7 0.500000 0.688465 0.052910
Si Si8 0.750000 0.807419 0.750000
O O1 0.250000 0.644961 0.250000
O O2 0.122723 0.642314 0.966473
O O3 0.374407 0.663681 0.971698
O O4 0.314016 0.583224 0.041337
O O5 0.250000 0.143088 0.750000
O O6 0.159700 0.087992 0.505612
O O7 0.213587 0.164832 0.420736
O O8 0.000000 0.149458 0.620017
O O9 0.750000 0.448231 0.250000
O O10 0.500000 0.454468 0.150859
O O11 0.687183 0.500000 0.000000
O O12 0.000000 0.734397 0.547322
O O13 0.127143 0.778041 0.797895
O O14 0.000000 0.712858 0.897397
O O15 0.750000 0.040203 0.750000
O O16 0.000000 0.042198 0.698675
O O17 0.837202 0.000000 0.500000
O O18 0.000000 0.310981 0.769330
#
# Coordination Sequence:
#
# PCOD8221578 Si02
#       8
#     8   8   8   4   8   4   4   4
#     4  10  21  40  64  93 126 168 203 256 320 374
#     4  10  23  43  67  94 132 178 225 271 334 403
#     4  11  25  42  62  92 129 168 209 255 304 372
#     4  12  26  42  66  96 128 168 224 276 332 398
#     4   9  19  36  58  91 127 166 214 268 322 385
#     4  10  24  40  67  97 125 167 215 266 331 388
#     4  10  22  42  63  91 131 163 213 272 319 386
#     4  12  26  44  64  98 132 176 218 282 340 402
#
# _framework density 20.018533000000001
#
# number of rings (size 3 to 8) (size 9 to 14) (size 15 to 20)
#    0.000    1.667    1.667    1.500    5.833    2.000 
#    0.000    0.000    0.000    0.000    0.000    0.000 
#    0.000    0.000    0.000    0.000    0.000    0.000 
#
# Total GULP energy -594654.199482 kJ/mol
# GULP energy per Si atom -12388.629156 kJ/mol
# Density = 1.997297 g / cm^3
# Si number density = 20.018533 Si / 1000 Ang^3
#
#
#
# Elastic Constant Matrix: (Units=GPa)
#
#
# Indices 1 2 3 4 5 6 
#
# 1 171.1102 64.8680 41.7396 0.0000 0.0000 0.0000
# 2 64.8680 129.8504 38.3369 0.0000 0.0000 0.0000
# 3 41.7396 38.3369 65.8250 0.0000 0.0000 0.0000
# 4 0.0000 0.0000 0.0000 34.6611 0.0000 0.0000
# 5 0.0000 0.0000 0.0000 0.0000 24.9849 0.0000
# 6 0.0000 0.0000 0.0000 0.0000 0.0000 41.5630
#
#
#
# Elastic Compliance Matrix: (Units=1/GPa)
#
#
# Indices 1 2 3 4 5 6 
#
# 1 0.007731 -0.002916 -0.003204 0.000000 0.000000 0.000000
# 2 -0.002916 0.010400 -0.004208 0.000000 0.000000 0.000000
# 3 -0.003204 -0.004208 0.019674 0.000000 0.000000 0.000000
# 4 0.000000 0.000000 0.000000 0.028851 0.000000 0.000000
# 5 0.000000 0.000000 0.000000 0.000000 0.040024 0.000000
# 6 0.000000 0.000000 0.000000 0.000000 0.000000 0.024060
#
#
# Mechanical properties :
#
#
# Convention : Reuss Voigt Hill
#
# Bulk Modulus (GPa) = 58.31125 72.96385 65.63755
# Shear Modulus (GPa) = 31.82408 35.03122 33.42765
#
# Velocity S-wave (km/s) = 3.99147 4.18777 4.09079
# Velocity P-wave (km/s) = 7.10171 7.74018 7.42781
#
# Compressibility (1/GPa) = 0.01714935
#
# Stress axis : x y z
#
# Youngs Moduli (GPa) = 129.34413 96.14993 50.82795
#
# Poissons Ratio (x) = 0.28040 0.16285
# Poissons Ratio (y) = 0.37721 0.21389
# Poissons Ratio (z) = 0.41441 0.40460
#
# Static dielectric constant tensor:
#      x y z
#    x 4.706190 0.000000 0.000000 
#    y 0.000000 3.514290 0.000000 
#    z 0.000000 0.000000 3.545600 
# 
# 
# High freq. dielectric constant tensor:
#      x y z
#    x 1.811130 0.000000 0.000000 
#    y 0.000000 1.794950 0.000000 
#    z 0.000000 0.000000 1.760220 
# 
# From -- ./inp_files/6880.got.cif
#   From: 2010.03.12/outbox.cif.g09.slc.cpg/sg53_4_cif.got.tgz:6880.got - 2010.04.16 14:36:59.
