data_PCOD8221602
_publ_section_title
;
Structure prediction by ZEFSAII (Michael W. Deem and Ramdas Pophale) SiO2 
 PCOD8221602
Probable space group: P M N A
;
_chemical_formula_sum "Si O2"
_cell_formula_units_Z 64
_cell_length_a 8.532722
_cell_length_b 11.896441
_cell_length_c 30.845532
_cell_angle_alpha 90.000000
_cell_angle_beta 90.000000
_cell_angle_gamma 90.000000
_cell_volume 3131.099843
_symmetry_space_group_name_H-M "P M N A"
_symmetry_group_IT_number 53
_symmetry_cell_setting 'orthorhombic'
loop_
_space_group_symop_operation_xyz
x,y,z
1/2-x,-y,1/2+z
x,-y,-z
1/2-x,y,1/2-z
-x,-y,-z
1/2+x,y,1/2-z
-x,y,z
1/2+x,-y,1/2+z
loop_
_atom_site_type_symbol
_atom_site_label
_atom_site_fract_x
_atom_site_fract_y
_atom_site_fract_z
Si Si1 0.680119 0.497179 0.582083
Si Si2 0.314147 0.124285 0.623727
Si Si3 0.315792 0.867275 0.623420
Si Si4 0.817417 0.260409 0.958711
Si Si5 0.680464 0.489066 0.825078
Si Si6 0.684869 0.263176 0.203692
Si Si7 0.818445 0.280798 0.451547
Si Si8 0.817271 0.737269 0.204633
O O1 0.500000 0.497740 0.597640
O O2 0.714886 0.390050 0.552452
O O3 0.790036 0.494811 0.623820
O O4 0.715500 0.607318 0.554127
O O5 0.500000 0.136187 0.624726
O O6 0.251101 0.182617 0.579959
O O7 0.243130 0.189992 0.665301
O O8 0.259631 0.995939 0.625154
O O9 0.500000 0.856702 0.614109
O O10 0.275477 0.811033 0.668851
O O11 0.220678 0.809214 0.585118
O O12 0.000000 0.237066 0.966969
O O13 0.722591 0.227894 0.001854
O O14 0.500000 0.460345 0.816740
O O15 0.728010 0.607008 0.803843
O O16 0.783195 0.394153 0.802140
O O17 0.750000 0.224812 0.250000
O O18 0.500000 0.241809 0.199973
O O19 0.000000 0.312616 0.448520
O O20 0.750000 0.781290 0.250000
O O21 0.000000 0.756715 0.206113
#
# Coordination Sequence:
#
# PCOD8221602 Si02
#       8
#     8   8   8   8   8   8   8   8
#     4  11  21  37  65  93 122 161 201 246 303 366
#     4   9  21  42  65  89 118 157 208 260 306 358
#     4  11  23  42  67  89 117 161 210 257 307 361
#     4  10  21  41  65  91 121 159 204 249 303 367
#     4  11  22  37  61  93 128 161 197 246 305 364
#     4  11  24  41  62  91 126 161 201 251 303 362
#     4  12  25  40  59  91 130 162 200 251 304 364
#     4  11  22  40  63  92 126 161 203 251 302 363
#
# _framework density 20.440102
#
# number of rings (size 3 to 8) (size 9 to 14) (size 15 to 20)
#    0.000    1.250    2.500    3.750    0.000    6.000 
#    0.000    7.500    0.000    0.000    0.000    0.000 
#    0.000    0.000    0.000    0.000    0.000    0.000 
#
# Total GULP energy -793999.353825 kJ/mol
# GULP energy per Si atom -12406.239904 kJ/mol
# Density = 2.039358 g / cm^3
# Si number density = 20.440102 Si / 1000 Ang^3
#
#
#
# Elastic Constant Matrix: (Units=GPa)
#
#
# Indices 1 2 3 4 5 6 
#
# 1 47.6150 24.4942 21.3249 0.0000 0.0000 0.0000
# 2 24.4942 120.7501 52.1127 0.0000 0.0000 0.0000
# 3 21.3249 52.1127 161.5395 0.0000 0.0000 0.0000
# 4 0.0000 0.0000 0.0000 185.2176 0.0000 0.0000
# 5 0.0000 0.0000 0.0000 0.0000 35.9813 0.0000
# 6 0.0000 0.0000 0.0000 0.0000 0.0000 11.8050
#
#
#
# Elastic Compliance Matrix: (Units=1/GPa)
#
#
# Indices 1 2 3 4 5 6 
#
# 1 0.023915 -0.004053 -0.001850 0.000000 0.000000 0.000000
# 2 -0.004053 0.010308 -0.002790 0.000000 0.000000 0.000000
# 3 -0.001850 -0.002790 0.007335 0.000000 0.000000 0.000000
# 4 0.000000 0.000000 0.000000 0.005399 0.000000 0.000000
# 5 0.000000 0.000000 0.000000 0.000000 0.027792 0.000000
# 6 0.000000 0.000000 0.000000 0.000000 0.000000 0.084710
#
#
# Mechanical properties :
#
#
# Convention : Reuss Voigt Hill
#
# Bulk Modulus (GPa) = 41.37001 58.41868 49.89434
# Shear Modulus (GPa) = 27.04142 62.06564 44.55353
#
# Velocity S-wave (km/s) = 3.64120 5.51639 4.67380
# Velocity P-wave (km/s) = 6.16128 8.31965 7.32045
#
# Compressibility (1/GPa) = 0.02417210
#
# Stress axis : x y z
#
# Youngs Moduli (GPa) = 41.81470 97.01263 136.33722
#
# Poissons Ratio (x) = 0.39319 0.25216
# Poissons Ratio (y) = 0.16947 0.38042
# Poissons Ratio (z) = 0.07734 0.27070
#
# Static dielectric constant tensor:
#      x y z
#    x 3.542740 0.000000 0.000000 
#    y 0.000000 3.729060 0.000000 
#    z 0.000000 0.000000 3.879180 
# 
# 
# High freq. dielectric constant tensor:
#      x y z
#    x 1.789520 0.000000 0.000000 
#    y 0.000000 1.795130 0.000000 
#    z 0.000000 0.000000 1.815640 
# 
# From -- ./inp_files/38281.got.cif
#   From: 2010.03.12/outbox.cif.g09.slc.cpg/sg53_20_cif.got.tgz:38281.got - 2010.04.16 14:36:59.
