data_PCOD8221425
_publ_section_title
;
Structure prediction by ZEFSAII (Michael W. Deem and Ramdas Pophale) SiO2 
 PCOD8221425
Probable space group: P M N A
;
_chemical_formula_sum "Si O2"
_cell_formula_units_Z 48
_cell_length_a 8.897163
_cell_length_b 29.667853
_cell_length_c 9.106429
_cell_angle_alpha 90.000000
_cell_angle_beta 90.000000
_cell_angle_gamma 90.000000
_cell_volume 2403.730485
_symmetry_space_group_name_H-M "P M N A"
_symmetry_group_IT_number 53
_symmetry_cell_setting 'orthorhombic'
loop_
_space_group_symop_operation_xyz
x,y,z
1/2-x,-y,1/2+z
x,-y,-z
1/2-x,y,1/2-z
-x,-y,-z
1/2+x,y,1/2-z
-x,y,z
1/2+x,-y,1/2+z
loop_
_atom_site_type_symbol
_atom_site_label
_atom_site_fract_x
_atom_site_fract_y
_atom_site_fract_z
Si Si1 0.674751 0.790575 0.902823
Si Si2 0.825164 0.121943 0.591875
Si Si3 0.826631 0.543380 0.598786
Si Si4 0.825962 0.955508 0.905440
Si Si5 0.325729 0.385630 0.598797
Si Si6 0.825304 0.280713 0.902252
O O1 0.750000 0.804992 0.750000
O O2 0.500000 0.781637 0.875049
O O3 0.702109 0.829342 0.021866
O O4 0.750297 0.745118 0.962420
O O5 0.750000 0.120323 0.750000
O O6 0.752183 0.085763 0.485417
O O7 0.000000 0.110693 0.609734
O O8 0.801982 0.500000 0.500000
O O9 0.750000 0.530793 0.750000
O O10 0.747895 0.587384 0.533490
O O11 0.000000 0.555052 0.622437
O O12 0.750000 0.964237 0.750000
O O13 0.000000 0.943748 0.881955
O O14 0.803151 0.000000 0.000000
O O15 0.250000 0.400977 0.750000
O O16 0.500000 0.397593 0.610204
O O17 0.297770 0.333195 0.567645
O O18 0.750000 0.265472 0.750000
O O19 0.000000 0.268457 0.892547
#
# Coordination Sequence:
#
# PCOD8221425 Si02
#       6
#     8   8   8   8   8   8
#     4  11  24  40  60  87 119 156 197 243 294 348
#     4  11  24  41  63  90 120 156 198 244 295 351
#     4  11  24  40  60  86 116 152 193 238 289 345
#     4  11  24  41  63  91 123 159 199 244 294 349
#     4  10  21  38  61  88 118 153 193 238 289 345
#     4  10  21  38  61  88 118 154 195 239 289 346
#
# _framework density 19.968961
#
# number of rings (size 3 to 8) (size 9 to 14) (size 15 to 20)
#    0.000    1.333    0.000    5.000    0.000   13.333 
#    0.000    0.000    0.000    0.000    0.000    0.000 
#    0.000    0.000    0.000    0.000    0.000    0.000 
#
# Total GULP energy -595571.138540 kJ/mol
# GULP energy per Si atom -12407.732053 kJ/mol
# Density = 1.992351 g / cm^3
# Si number density = 19.968961 Si / 1000 Ang^3
#
#
#
# Elastic Constant Matrix: (Units=GPa)
#
#
# Indices 1 2 3 4 5 6 
#
# 1 166.4722 69.6205 84.6149 0.0000 0.0000 0.0000
# 2 69.6205 75.8482 40.9281 0.0000 0.0000 0.0000
# 3 84.6149 40.9281 136.1284 0.0000 0.0000 0.0000
# 4 0.0000 0.0000 0.0000 32.7529 0.0000 0.0000
# 5 0.0000 0.0000 0.0000 0.0000 43.5189 0.0000
# 6 0.0000 0.0000 0.0000 0.0000 0.0000 34.5406
#
#
#
# Elastic Compliance Matrix: (Units=1/GPa)
#
#
# Indices 1 2 3 4 5 6 
#
# 1 0.012025 -0.008361 -0.004961 0.000000 0.000000 0.000000
# 2 -0.008361 0.021551 -0.001282 0.000000 0.000000 0.000000
# 3 -0.004961 -0.001282 0.010815 0.000000 0.000000 0.000000
# 4 0.000000 0.000000 0.000000 0.030532 0.000000 0.000000
# 5 0.000000 0.000000 0.000000 0.000000 0.022979 0.000000
# 6 0.000000 0.000000 0.000000 0.000000 0.000000 0.028951
#
#
# Mechanical properties :
#
#
# Convention : Reuss Voigt Hill
#
# Bulk Modulus (GPa) = 65.86466 85.41953 75.64209
# Shear Modulus (GPa) = 31.03247 34.38150 32.70698
#
# Velocity S-wave (km/s) = 3.94640 4.15390 4.05148
# Velocity P-wave (km/s) = 7.33625 8.11637 7.73615
#
# Compressibility (1/GPa) = 0.01518265
#
# Stress axis : x y z
#
# Youngs Moduli (GPa) = 83.15916 46.40241 92.46308
#
# Poissons Ratio (x) = 0.38797 0.45869
# Poissons Ratio (y) = 0.69528 0.11857
# Poissons Ratio (z) = 0.41254 0.05951
#
# Static dielectric constant tensor:
#      x y z
#    x 3.884770 0.000000 0.000000 
#    y 0.000000 3.677450 0.000000 
#    z 0.000000 0.000000 3.606360 
# 
# 
# High freq. dielectric constant tensor:
#      x y z
#    x 1.799620 0.000000 0.000000 
#    y 0.000000 1.788830 0.000000 
#    z 0.000000 0.000000 1.789170 
# 
# From -- ./inp_files/6680.got.cif
#   From: 2010.03.12/outbox.cif.g09.slc.cpg/sg53_4_cif.got.tgz:6680.got - 2010.04.16 14:36:59.
