data_PCOD8221804
_publ_section_title
;
Structure prediction by ZEFSAII (Michael W. Deem and Ramdas Pophale) SiO2 
 PCOD8221804
Probable space group: P M N A
;
_chemical_formula_sum "Si O2"
_cell_formula_units_Z 64
_cell_length_a 14.977121
_cell_length_b 11.744093
_cell_length_c 17.760006
_cell_angle_alpha 90.000000
_cell_angle_beta 90.000000
_cell_angle_gamma 90.000000
_cell_volume 3123.855441
_symmetry_space_group_name_H-M "P M N A"
_symmetry_group_IT_number 53
_symmetry_cell_setting 'orthorhombic'
loop_
_space_group_symop_operation_xyz
x,y,z
1/2-x,-y,1/2+z
x,-y,-z
1/2-x,y,1/2-z
-x,-y,-z
1/2+x,y,1/2-z
-x,y,z
1/2+x,-y,1/2+z
loop_
_atom_site_type_symbol
_atom_site_label
_atom_site_fract_x
_atom_site_fract_y
_atom_site_fract_z
Si Si1 0.835904 0.406459 0.299903
Si Si2 0.398003 0.110396 0.552674
Si Si3 0.100546 0.597791 0.196172
Si Si4 0.283126 0.782132 0.031542
Si Si5 0.152724 0.849900 0.221629
Si Si6 0.898749 0.203471 0.387315
Si Si7 0.097856 0.055260 0.630125
Si Si8 0.742717 0.454831 0.580910
O O1 0.750000 0.378633 0.250000
O O2 0.897481 0.501244 0.260375
O O3 0.887320 0.288647 0.316223
O O4 0.809749 0.457970 0.380268
O O5 0.500000 0.158674 0.547480
O O6 0.323273 0.196077 0.519673
O O7 0.373562 0.092208 0.641449
O O8 0.390972 0.000000 0.500000
O O9 0.150272 0.713066 0.220229
O O10 0.148755 0.549165 0.123218
O O11 0.000000 0.628517 0.174889
O O12 0.328466 0.884449 0.077963
O O13 0.292098 0.667304 0.079702
O O14 0.330016 0.762978 0.952301
O O15 0.250000 0.889425 0.250000
O O16 0.086977 0.893256 0.286531
O O17 0.000000 0.213030 0.417316
O O18 0.875612 0.076432 0.360927
O O19 0.000000 0.067955 0.591447
O O20 0.717661 0.500000 0.500000
#
# Coordination Sequence:
#
# PCOD8221804 Si02
#       8
#     8   8   8   8   8   8   8   8
#     4  10  22  42  64  89 124 171 216 267 327 392
#     4  11  24  42  65  96 133 171 216 274 333 393
#     4  11  22  39  66  93 125 164 214 276 325 382
#     4  12  22  41  67  93 128 172 211 263 325 390
#     4  12  22  40  65  96 127 168 217 267 330 388
#     4  11  24  42  64  93 133 174 214 263 325 397
#     4  11  23  39  63  96 130 165 212 264 319 391
#     4  11  22  40  63  90 123 163 214 265 324 386
#
# _framework density 20.487501999999999
#
# number of rings (size 3 to 8) (size 9 to 14) (size 15 to 20)
#    0.000    0.875    3.750    4.875    0.000    1.750 
#    0.000    2.500    0.000    0.000    0.000    0.000 
#    0.000    0.000    0.000    0.000    0.000    0.000 
#
# Total GULP energy -793443.818881 kJ/mol
# GULP energy per Si atom -12397.559670 kJ/mol
# Density = 2.044087 g / cm^3
# Si number density = 20.487502 Si / 1000 Ang^3
#
#
#
# Elastic Constant Matrix: (Units=GPa)
#
#
# Indices 1 2 3 4 5 6 
#
# 1 114.8246 35.9129 29.9905 0.0000 0.0000 0.0000
# 2 35.9129 117.8488 56.6146 0.0000 0.0000 0.0000
# 3 29.9905 56.6146 102.0526 0.0000 0.0000 0.0000
# 4 0.0000 0.0000 0.0000 37.6911 0.0000 0.0000
# 5 0.0000 0.0000 0.0000 0.0000 22.3124 0.0000
# 6 0.0000 0.0000 0.0000 0.0000 0.0000 88.3543
#
#
#
# Elastic Compliance Matrix: (Units=1/GPa)
#
#
# Indices 1 2 3 4 5 6 
#
# 1 0.009832 -0.002192 -0.001673 0.000000 0.000000 0.000000
# 2 -0.002192 0.012057 -0.006045 0.000000 0.000000 0.000000
# 3 -0.001673 -0.006045 0.013644 0.000000 0.000000 0.000000
# 4 0.000000 0.000000 0.000000 0.026531 0.000000 0.000000
# 5 0.000000 0.000000 0.000000 0.000000 0.044818 0.000000
# 6 0.000000 0.000000 0.000000 0.000000 0.000000 0.011318
#
#
# Mechanical properties :
#
#
# Convention : Reuss Voigt Hill
#
# Bulk Modulus (GPa) = 63.64248 64.41802 64.03025
# Shear Modulus (GPa) = 34.90202 43.81875 39.36039
#
# Velocity S-wave (km/s) = 4.13192 4.62974 4.38789
# Velocity P-wave (km/s) = 7.34133 7.75178 7.54935
#
# Compressibility (1/GPa) = 0.01571278
#
# Stress axis : x y z
#
# Youngs Moduli (GPa) = 101.71304 82.93653 73.29299
#
# Poissons Ratio (x) = 0.18182 0.12262
# Poissons Ratio (y) = 0.22299 0.44303
# Poissons Ratio (z) = 0.17017 0.50133
#
# Static dielectric constant tensor:
#      x y z
#    x 3.800110 0.000000 0.000000 
#    y 0.000000 3.754280 0.000000 
#    z 0.000000 0.000000 3.787310 
# 
# 
# High freq. dielectric constant tensor:
#      x y z
#    x 1.807660 0.000000 0.000000 
#    y 0.000000 1.801030 0.000000 
#    z 0.000000 0.000000 1.801460 
# 
# From -- ./inp_files/28568.got.cif
#   From: 2010.03.12/outbox.cif.g09.slc.cpg/sg53_15_cif.got.tgz:28568.got - 2010.04.16 14:36:59.
