data_PCOD8221663
_publ_section_title
;
Structure prediction by ZEFSAII (Michael W. Deem and Ramdas Pophale) SiO2 
 PCOD8221663
Probable space group: P M N A
;
_chemical_formula_sum "Si O2"
_cell_formula_units_Z 32
_cell_length_a 10.582090
_cell_length_b 9.645947
_cell_length_c 14.346160
_cell_angle_alpha 90.000000
_cell_angle_beta 90.000000
_cell_angle_gamma 90.000000
_cell_volume 1464.373943
_symmetry_space_group_name_H-M "P M N A"
_symmetry_group_IT_number 53
_symmetry_cell_setting 'orthorhombic'
loop_
_space_group_symop_operation_xyz
x,y,z
1/2-x,-y,1/2+z
x,-y,-z
1/2-x,y,1/2-z
-x,-y,-z
1/2+x,y,1/2-z
-x,y,z
1/2+x,-y,1/2+z
loop_
_atom_site_type_symbol
_atom_site_label
_atom_site_fract_x
_atom_site_fract_y
_atom_site_fract_z
Si Si1 0.000000 0.747892 0.756452
Si Si2 0.500000 0.477827 0.112547
Si Si3 0.750000 0.070395 0.250000
Si Si4 0.142805 0.100370 0.586099
Si Si5 0.000000 0.512255 0.111122
Si Si6 0.741939 0.604355 0.086430
O O1 0.125979 0.837718 0.767727
O O2 0.000000 0.679312 0.652144
O O3 0.000000 0.635910 0.838821
O O4 0.626400 0.551626 0.152190
O O5 0.500000 0.500000 0.000000
O O6 0.771165 0.969536 0.336307
O O7 0.211548 0.240797 0.552784
O O8 0.000000 0.130189 0.622259
O O9 0.136260 0.000000 0.500000
O O10 0.874662 0.597564 0.142033
O O11 0.000000 0.500000 0.000000
O O12 0.752061 0.500000 0.000000
#
# Coordination Sequence:
#
# PCOD8221663 Si02
#       6
#     4   4   4   8   4   8
#     4  12  26  44  72 106 146 194 238 306 374 440
#     4  10  22  37  72 102 133 177 247 299 354 425
#     4  12  28  46  72 106 150 192 248 296 382 446
#     4  11  26  46  76 106 147 194 247 304 366 448
#     4  10  24  41  66 102 147 179 235 297 370 431
#     4  10  22  42  71 100 138 178 239 295 361 419
#
# _framework density 21.852342
#
# number of rings (size 3 to 8) (size 9 to 14) (size 15 to 20)
#    0.000    1.250    2.500    1.500   14.000    3.000 
#    0.000    1.250    0.000    0.000    0.000    0.000 
#    0.000    0.000    0.000    0.000    0.000    0.000 
#
# Total GULP energy -396571.864261 kJ/mol
# GULP energy per Si atom -12392.870758 kJ/mol
# Density = 2.180261 g / cm^3
# Si number density = 21.852342 Si / 1000 Ang^3
#
#
#
# Elastic Constant Matrix: (Units=GPa)
#
#
# Indices 1 2 3 4 5 6 
#
# 1 243.4135 86.3824 28.3412 0.0000 0.0000 0.0000
# 2 86.3824 173.1324 44.3186 0.0000 0.0000 0.0000
# 3 28.3412 44.3186 95.1631 0.0000 0.0000 0.0000
# 4 0.0000 0.0000 0.0000 44.8541 0.0000 0.0000
# 5 0.0000 0.0000 0.0000 0.0000 13.6716 0.0000
# 6 0.0000 0.0000 0.0000 0.0000 0.0000 45.4256
#
#
#
# Elastic Compliance Matrix: (Units=1/GPa)
#
#
# Indices 1 2 3 4 5 6 
#
# 1 0.005004 -0.002401 -0.000372 0.000000 0.000000 0.000000
# 2 -0.002401 0.007710 -0.002876 0.000000 0.000000 0.000000
# 3 -0.000372 -0.002876 0.011958 0.000000 0.000000 0.000000
# 4 0.000000 0.000000 0.000000 0.022294 0.000000 0.000000
# 5 0.000000 0.000000 0.000000 0.000000 0.073144 0.000000
# 6 0.000000 0.000000 0.000000 0.000000 0.000000 0.022014
#
#
# Mechanical properties :
#
#
# Convention : Reuss Voigt Hill
#
# Bulk Modulus (GPa) = 74.76885 92.19926 83.48405
# Shear Modulus (GPa) = 31.66951 44.30140 37.98545
#
# Velocity S-wave (km/s) = 3.81103 4.50745 4.17379
# Velocity P-wave (km/s) = 7.32496 8.32904 7.84309
#
# Compressibility (1/GPa) = 0.01337455
#
# Stress axis : x y z
#
# Youngs Moduli (GPa) = 199.85117 129.69935 83.62468
#
# Poissons Ratio (x) = 0.31146 0.03110
# Poissons Ratio (y) = 0.47991 0.24047
# Poissons Ratio (z) = 0.07432 0.37295
#
# Static dielectric constant tensor:
#      x y z
#    x 6.251430 0.000000 0.000000 
#    y 0.000000 3.982290 0.000000 
#    z 0.000000 0.000000 3.788870 
# 
# 
# High freq. dielectric constant tensor:
#      x y z
#    x 1.894610 0.000000 0.000000 
#    y 0.000000 1.861420 0.000000 
#    z 0.000000 0.000000 1.837790 
# 
# From -- ./inp_files/21406.got.cif
#   From: 2010.03.12/outbox.cif.g09.slc.cpg/sg53_11_cif.got.tgz:21406.got - 2010.04.16 14:36:59.
