data_PCOD8221991
_publ_section_title
;
Structure prediction by ZEFSAII (Michael W. Deem and Ramdas Pophale) SiO2 
 PCOD8221991
Probable space group: P M N A
;
_chemical_formula_sum "Si O2"
_cell_formula_units_Z 32
_cell_length_a 15.046545
_cell_length_b 9.850747
_cell_length_c 9.673402
_cell_angle_alpha 90.000000
_cell_angle_beta 90.000000
_cell_angle_gamma 90.000000
_cell_volume 1433.788820
_symmetry_space_group_name_H-M "P M N A"
_symmetry_group_IT_number 53
_symmetry_cell_setting 'orthorhombic'
loop_
_space_group_symop_operation_xyz
x,y,z
1/2-x,-y,1/2+z
x,-y,-z
1/2-x,y,1/2-z
-x,-y,-z
1/2+x,y,1/2-z
-x,y,z
1/2+x,-y,1/2+z
loop_
_atom_site_type_symbol
_atom_site_label
_atom_site_fract_x
_atom_site_fract_y
_atom_site_fract_z
Si Si1 0.900176 0.844801 0.491023
Si Si2 0.399343 0.814910 0.578451
Si Si3 0.241074 0.627628 0.593488
Si Si4 0.148219 0.072358 0.785385
O O1 0.834980 0.740551 0.567366
O O2 0.904619 0.832493 0.323701
O O3 0.000000 0.827502 0.551333
O O4 0.862121 0.000000 0.500000
O O5 0.500000 0.766040 0.596730
O O6 0.338079 0.684178 0.561261
O O7 0.385539 0.892737 0.436113
O O8 0.372713 0.908528 0.713631
O O9 0.216964 0.500000 0.500000
O O10 0.250000 0.577668 0.750000
O O11 0.250000 0.099749 0.750000
#
# Coordination Sequence:
#
# PCOD8221991 Si02
#       4
#     8   8   8   8
#     4  11  23  43  73 105 138 177 232 299 364 423
#     4  11  23  41  68 104 143 182 232 290 351 420
#     4  12  29  48  69 101 142 192 240 292 354 424
#     4  11  20  37  70 108 141 176 221 290 355 418
#
# _framework density 22.318487999999999
#
# number of rings (size 3 to 8) (size 9 to 14) (size 15 to 20)
#    0.000    0.750    2.500    6.750    3.500    4.000 
#    0.000    0.000    0.000    0.000    0.000    0.000 
#    0.000    0.000    0.000    0.000    0.000    0.000 
#
# Total GULP energy -396502.288539 kJ/mol
# GULP energy per Si atom -12390.696517 kJ/mol
# Density = 2.226769 g / cm^3
# Si number density = 22.318488 Si / 1000 Ang^3
#
#
#
# Elastic Constant Matrix: (Units=GPa)
#
#
# Indices 1 2 3 4 5 6 
#
# 1 150.0777 52.1069 21.4775 0.0000 0.0000 0.0000
# 2 52.1069 112.6917 41.6530 0.0000 0.0000 0.0000
# 3 21.4775 41.6530 98.5063 0.0000 0.0000 0.0000
# 4 0.0000 0.0000 0.0000 32.6900 0.0000 0.0000
# 5 0.0000 0.0000 0.0000 0.0000 23.5163 0.0000
# 6 0.0000 0.0000 0.0000 0.0000 0.0000 25.3259
#
#
#
# Elastic Compliance Matrix: (Units=1/GPa)
#
#
# Indices 1 2 3 4 5 6 
#
# 1 0.007941 -0.003594 -0.000212 0.000000 0.000000 0.000000
# 2 -0.003594 0.012144 -0.004351 0.000000 0.000000 0.000000
# 3 -0.000212 -0.004351 0.012038 0.000000 0.000000 0.000000
# 4 0.000000 0.000000 0.000000 0.030590 0.000000 0.000000
# 5 0.000000 0.000000 0.000000 0.000000 0.042524 0.000000
# 6 0.000000 0.000000 0.000000 0.000000 0.000000 0.039485
#
#
# Mechanical properties :
#
#
# Convention : Reuss Voigt Hill
#
# Bulk Modulus (GPa) = 63.25517 65.75005 64.50261
# Shear Modulus (GPa) = 30.06512 32.70898 31.38705
#
# Velocity S-wave (km/s) = 3.67426 3.83241 3.75417
# Velocity P-wave (km/s) = 6.81204 7.00764 6.91053
#
# Compressibility (1/GPa) = 0.01580899
#
# Stress axis : x y z
#
# Youngs Moduli (GPa) = 125.92505 82.34687 83.07149
#
# Poissons Ratio (x) = 0.29592 0.01760
# Poissons Ratio (y) = 0.45252 0.36148
# Poissons Ratio (z) = 0.02668 0.35833
#
# Static dielectric constant tensor:
#      x y z
#    x 4.107330 0.000000 0.000000 
#    y 0.000000 3.704580 0.000000 
#    z 0.000000 0.000000 4.610050 
# 
# 
# High freq. dielectric constant tensor:
#      x y z
#    x 1.886520 0.000000 0.000000 
#    y 0.000000 1.835710 0.000000 
#    z 0.000000 0.000000 1.911410 
# 
# From -- ./inp_files/9543.got.cif
#   From: 2010.03.12/outbox.cif.g09.slc.cpg/sg53_5_cif.got.tgz:9543.got - 2010.04.16 14:36:59.
