data_PCOD8221265
_publ_section_title
;
Structure prediction by ZEFSAII (Michael W. Deem and Ramdas Pophale) SiO2 
 PCOD8221265
Probable space group: P M N A
;
_chemical_formula_sum "Si O2"
_cell_formula_units_Z 64
_cell_length_a 8.899843
_cell_length_b 18.485218
_cell_length_c 20.194081
_cell_angle_alpha 90.000000
_cell_angle_beta 90.000000
_cell_angle_gamma 90.000000
_cell_volume 3322.240101
_symmetry_space_group_name_H-M "P M N A"
_symmetry_group_IT_number 53
_symmetry_cell_setting 'orthorhombic'
loop_
_space_group_symop_operation_xyz
x,y,z
1/2-x,-y,1/2+z
x,-y,-z
1/2-x,y,1/2-z
-x,-y,-z
1/2+x,y,1/2-z
-x,y,z
1/2+x,-y,1/2+z
loop_
_atom_site_type_symbol
_atom_site_label
_atom_site_fract_x
_atom_site_fract_y
_atom_site_fract_z
Si Si1 0.176255 0.203308 0.063561
Si Si2 0.167904 0.984772 0.186208
Si Si3 0.178031 0.433337 0.407427
Si Si4 0.176536 0.687254 0.820845
Si Si5 0.324478 0.744583 0.067598
Si Si6 0.334235 0.814775 0.313432
Si Si7 0.174846 0.586453 0.445048
Si Si8 0.823740 0.047527 0.436777
O O1 0.215299 0.244821 0.131632
O O2 0.234047 0.121847 0.065807
O O3 0.000000 0.202611 0.049524
O O4 0.256804 0.245205 0.004622
O O5 0.250000 0.019310 0.250000
O O6 0.152731 0.899780 0.195394
O O7 0.000000 0.018482 0.177963
O O8 0.274949 0.999834 0.124950
O O9 0.261295 0.387188 0.351536
O O10 0.227959 0.518308 0.400442
O O11 0.239868 0.410844 0.480140
O O12 0.000000 0.421395 0.398270
O O13 0.250000 0.703035 0.750000
O O14 0.000000 0.678525 0.811115
O O15 0.500000 0.760939 0.063546
O O16 0.254016 0.799387 0.119458
O O17 0.289418 0.662272 0.091125
O O18 0.250000 0.780579 0.250000
O O19 0.500000 0.780005 0.317275
O O20 0.000000 0.575035 0.456725
O O21 0.000000 0.064282 0.435187
O O22 0.778523 0.000000 0.500000
#
# Coordination Sequence:
#
# PCOD8221265 Si02
#       8
#     8   8   8   8   8   8   8   8
#     4  11  24  40  58  84 117 152 195 241 291 349
#     4  10  21  38  60  82 109 146 188 233 284 344
#     4   9  16  34  59  83 112 147 189 233 281 339
#     4  11  24  40  59  85 117 156 200 246 296 347
#     4  11  20  34  58  87 117 151 190 235 287 343
#     4  10  21  37  57  83 114 150 189 232 284 343
#     4   8  16  30  56  87 113 146 186 229 281 339
#     4  11  24  40  60  87 117 150 190 239 293 348
#
# _framework density 19.264111
#
# number of rings (size 3 to 8) (size 9 to 14) (size 15 to 20)
#    0.000    1.875    1.250    3.750    0.000    6.500 
#    0.000    4.375    0.000    0.000    0.000    0.000 
#    0.000    0.000    0.000    0.000    0.000    0.000 
#
# Total GULP energy -793468.535069 kJ/mol
# GULP energy per Si atom -12397.945860 kJ/mol
# Density = 1.922027 g / cm^3
# Si number density = 19.264111 Si / 1000 Ang^3
#
#
#
# Elastic Constant Matrix: (Units=GPa)
#
#
# Indices 1 2 3 4 5 6 
#
# 1 105.9044 43.7404 59.4734 0.0000 0.0000 0.0000
# 2 43.7404 67.7445 42.0538 0.0000 0.0000 0.0000
# 3 59.4734 42.0538 124.3194 0.0000 0.0000 0.0000
# 4 0.0000 0.0000 0.0000 25.2444 0.0000 0.0000
# 5 0.0000 0.0000 0.0000 0.0000 31.6161 0.0000
# 6 0.0000 0.0000 0.0000 0.0000 0.0000 10.4007
#
#
#
# Elastic Compliance Matrix: (Units=1/GPa)
#
#
# Indices 1 2 3 4 5 6 
#
# 1 0.014919 -0.006585 -0.004910 0.000000 0.000000 0.000000
# 2 -0.006585 0.021592 -0.004154 0.000000 0.000000 0.000000
# 3 -0.004910 -0.004154 0.011798 0.000000 0.000000 0.000000
# 4 0.000000 0.000000 0.000000 0.039613 0.000000 0.000000
# 5 0.000000 0.000000 0.000000 0.000000 0.031629 0.000000
# 6 0.000000 0.000000 0.000000 0.000000 0.000000 0.096147
#
#
# Mechanical properties :
#
#
# Convention : Reuss Voigt Hill
#
# Bulk Modulus (GPa) = 58.78308 65.38928 62.08618
# Shear Modulus (GPa) = 19.78899 23.63230 21.71064
#
# Velocity S-wave (km/s) = 3.20855 3.50630 3.36072
# Velocity P-wave (km/s) = 6.65634 7.09996 6.88173
#
# Compressibility (1/GPa) = 0.01701170
#
# Stress axis : x y z
#
# Youngs Moduli (GPa) = 67.02641 46.31442 84.76287
#
# Poissons Ratio (x) = 0.30499 0.41617
# Poissons Ratio (y) = 0.44138 0.35206
# Poissons Ratio (z) = 0.32909 0.19237
#
# Static dielectric constant tensor:
#      x y z
#    x 3.620380 0.000000 0.000000 
#    y 0.000000 3.674030 0.000000 
#    z 0.000000 0.000000 3.503670 
# 
# 
# High freq. dielectric constant tensor:
#      x y z
#    x 1.750850 0.000000 0.000000 
#    y 0.000000 1.749940 0.000000 
#    z 0.000000 0.000000 1.743140 
# 
# From -- ./inp_files/31178.got.cif
#   From: 2010.03.12/outbox.cif.g09.slc.cpg/sg53_16_cif.got.tgz:31178.got - 2010.04.16 14:36:59.
