data_PCOD8221845
_publ_section_title
;
Structure prediction by ZEFSAII (Michael W. Deem and Ramdas Pophale) SiO2 
 PCOD8221845
Probable space group: P M N A
;
_chemical_formula_sum "Si O2"
_cell_formula_units_Z 64
_cell_length_a 15.333994
_cell_length_b 8.787962
_cell_length_c 23.972837
_cell_angle_alpha 90.000000
_cell_angle_beta 90.000000
_cell_angle_gamma 90.000000
_cell_volume 3230.449020
_symmetry_space_group_name_H-M "P M N A"
_symmetry_group_IT_number 53
_symmetry_cell_setting 'orthorhombic'
loop_
_space_group_symop_operation_xyz
x,y,z
1/2-x,-y,1/2+z
x,-y,-z
1/2-x,y,1/2-z
-x,-y,-z
1/2+x,y,1/2-z
-x,y,z
1/2+x,-y,1/2+z
loop_
_atom_site_type_symbol
_atom_site_label
_atom_site_fract_x
_atom_site_fract_y
_atom_site_fract_z
Si Si1 0.249453 0.930991 0.940138
Si Si2 0.903045 0.928012 0.638241
Si Si3 0.756153 0.570364 0.939348
Si Si4 0.398030 0.929963 0.370075
Si Si5 0.848172 0.447359 0.246710
Si Si6 0.100904 0.111822 0.238792
Si Si7 0.598446 0.420455 0.633553
Si Si8 0.594902 0.567092 0.868011
O O1 0.249100 0.750382 0.944156
O O2 0.328213 0.995540 0.901539
O O3 0.156082 0.984201 0.917500
O O4 0.266928 0.000000 0.000000
O O5 0.880573 0.971794 0.702247
O O6 0.000000 0.989766 0.621757
O O7 0.901715 0.747612 0.633220
O O8 0.840225 0.527478 0.903217
O O9 0.669772 0.503702 0.908953
O O10 0.764157 0.500000 0.000000
O O11 0.500000 0.956704 0.382235
O O12 0.371389 0.996645 0.309832
O O13 0.372471 0.753794 0.372384
O O14 0.750000 0.506936 0.250000
O O15 0.898624 0.534960 0.198245
O O16 0.893490 0.490807 0.304880
O O17 0.845190 0.267290 0.233135
O O18 0.000000 0.159066 0.235018
O O19 0.500000 0.443033 0.611741
O O20 0.500000 0.510637 0.889578
#
# Coordination Sequence:
#
# PCOD8221845 Si02
#       8
#     8   8   8   8   8   8   8   8
#     4  11  23  39  59  85 113 152 195 243 290 341
#     4   8  17  34  57  85 115 151 191 230 279 342
#     4  11  23  40  62  86 115 149 201 247 290 350
#     4  10  23  40  59  85 119 154 190 237 291 345
#     4  11  19  33  59  92 120 153 194 235 283 344
#     4   9  18  34  58  88 117 150 192 233 281 347
#     4  11  23  41  60  85 121 156 192 240 295 347
#     4   9  18  35  58  85 119 155 191 235 284 343
#
# _framework density 19.811487
#
# number of rings (size 3 to 8) (size 9 to 14) (size 15 to 20)
#    0.000    2.000    1.250    3.375    3.500    2.500 
#    2.250    0.000    0.000    3.750    0.000    0.000 
#    0.000    0.000    0.000    0.000    0.000    0.000 
#
# Total GULP energy -793652.104167 kJ/mol
# GULP energy per Si atom -12400.814128 kJ/mol
# Density = 1.976640 g / cm^3
# Si number density = 19.811487 Si / 1000 Ang^3
#
#
#
# Elastic Constant Matrix: (Units=GPa)
#
#
# Indices 1 2 3 4 5 6 
#
# 1 106.7649 26.9966 43.4515 0.0000 0.0000 0.0000
# 2 26.9966 57.6117 25.0968 0.0000 0.0000 0.0000
# 3 43.4515 25.0968 110.0360 0.0000 0.0000 0.0000
# 4 0.0000 0.0000 0.0000 30.1804 0.0000 0.0000
# 5 0.0000 0.0000 0.0000 0.0000 23.6953 0.0000
# 6 0.0000 0.0000 0.0000 0.0000 0.0000 16.0018
#
#
#
# Elastic Compliance Matrix: (Units=1/GPa)
#
#
# Indices 1 2 3 4 5 6 
#
# 1 0.011908 -0.003921 -0.003808 0.000000 0.000000 0.000000
# 2 -0.003921 0.020564 -0.003142 0.000000 0.000000 0.000000
# 3 -0.003808 -0.003142 0.011308 0.000000 0.000000 0.000000
# 4 0.000000 0.000000 0.000000 0.033134 0.000000 0.000000
# 5 0.000000 0.000000 0.000000 0.000000 0.042202 0.000000
# 6 0.000000 0.000000 0.000000 0.000000 0.000000 0.062493
#
#
# Mechanical properties :
#
#
# Convention : Reuss Voigt Hill
#
# Bulk Modulus (GPa) = 45.37602 51.72250 48.54926
# Shear Modulus (GPa) = 23.73088 25.90003 24.81545
#
# Velocity S-wave (km/s) = 3.46473 3.61962 3.54302
# Velocity P-wave (km/s) = 6.24175 6.60552 6.42621
#
# Compressibility (1/GPa) = 0.02203807
#
# Stress axis : x y z
#
# Youngs Moduli (GPa) = 83.98020 48.62960 88.43191
#
# Poissons Ratio (x) = 0.19068 0.33673
# Poissons Ratio (y) = 0.32929 0.27783
# Poissons Ratio (z) = 0.31978 0.15278
#
# Static dielectric constant tensor:
#      x y z
#    x 3.835270 0.000000 0.000000 
#    y 0.000000 3.314450 0.000000 
#    z 0.000000 0.000000 3.673340 
# 
# 
# High freq. dielectric constant tensor:
#      x y z
#    x 1.787160 0.000000 0.000000 
#    y 0.000000 1.743470 0.000000 
#    z 0.000000 0.000000 1.772280 
# 
# From -- ./inp_files/35356.got.cif
#   From: 2010.03.12/outbox.cif.g09.slc.cpg/sg53_18_cif.got.tgz:35356.got - 2010.04.16 14:36:59.
