data_PCOD8221369
_publ_section_title
;
Structure prediction by ZEFSAII (Michael W. Deem and Ramdas Pophale) SiO2 
 PCOD8221369
Probable space group: P M N A
;
_chemical_formula_sum "Si O2"
_cell_formula_units_Z 56
_cell_length_a 9.125361
_cell_length_b 14.633816
_cell_length_c 22.177430
_cell_angle_alpha 90.000000
_cell_angle_beta 90.000000
_cell_angle_gamma 90.000000
_cell_volume 2961.548583
_symmetry_space_group_name_H-M "P M N A"
_symmetry_group_IT_number 53
_symmetry_cell_setting 'orthorhombic'
loop_
_space_group_symop_operation_xyz
x,y,z
1/2-x,-y,1/2+z
x,-y,-z
1/2-x,y,1/2-z
-x,-y,-z
1/2+x,y,1/2-z
-x,y,z
1/2+x,-y,1/2+z
loop_
_atom_site_type_symbol
_atom_site_label
_atom_site_fract_x
_atom_site_fract_y
_atom_site_fract_z
Si Si1 0.330851 0.187861 0.189314
Si Si2 0.669410 0.119047 0.555508
Si Si3 0.830169 0.419140 0.690616
Si Si4 0.167110 0.614785 0.641634
Si Si5 0.669520 0.912882 0.581757
Si Si6 0.173370 0.707175 0.418096
Si Si7 0.828007 0.398996 0.019749
O O1 0.250000 0.155148 0.250000
O O2 0.500000 0.160514 0.195122
O O3 0.311202 0.296749 0.183054
O O4 0.267277 0.137729 0.130874
O O5 0.500000 0.146184 0.561990
O O6 0.713966 0.120574 0.484981
O O7 0.768781 0.190259 0.592716
O O8 0.698443 0.021020 0.585478
O O9 0.750000 0.384031 0.750000
O O10 0.794823 0.525575 0.680564
O O11 0.771220 0.359123 0.634978
O O12 0.000000 0.401008 0.700193
O O13 0.282109 0.619598 0.587825
O O14 0.000000 0.608472 0.616859
O O15 0.500000 0.890457 0.594532
O O16 0.243020 0.673905 0.480110
O O17 0.000000 0.706400 0.423799
O O18 0.000000 0.383146 0.012555
O O19 0.780116 0.500000 0.000000
#
# Coordination Sequence:
#
# PCOD8221369 Si02
#       7
#     8   8   8   8   8   8   8
#     4  11  23  37  57  84 114 151 193 235 282 336
#     4   9  19  37  62  88 113 144 182 227 283 341
#     4  10  22  38  55  75 105 146 188 227 270 321
#     4  10  21  38  57  80 112 149 186 228 282 334
#     4   9  19  38  61  85 115 147 180 227 285 339
#     4  11  22  36  56  82 114 149 183 228 279 327
#     4  11  22  34  53  83 113 147 188 229 275 328
#
# _framework density 18.909025
#
# number of rings (size 3 to 8) (size 9 to 14) (size 15 to 20)
#    0.000    1.857    1.429    3.429    0.000    6.857 
#    0.000    2.143    0.000    1.714    0.000    0.000 
#    0.000    0.000    0.000    0.000    0.000    0.000 
#
# Total GULP energy -694602.998829 kJ/mol
# GULP energy per Si atom -12403.624979 kJ/mol
# Density = 1.886599 g / cm^3
# Si number density = 18.909025 Si / 1000 Ang^3
#
#
#
# Elastic Constant Matrix: (Units=GPa)
#
#
# Indices 1 2 3 4 5 6 
#
# 1 77.1331 41.3864 41.0591 0.0000 0.0000 0.0000
# 2 41.3864 94.3924 25.5656 0.0000 0.0000 0.0000
# 3 41.0591 25.5656 76.7858 0.0000 0.0000 0.0000
# 4 0.0000 0.0000 0.0000 21.0683 0.0000 0.0000
# 5 0.0000 0.0000 0.0000 0.0000 33.4127 0.0000
# 6 0.0000 0.0000 0.0000 0.0000 0.0000 36.0818
#
#
#
# Elastic Compliance Matrix: (Units=1/GPa)
#
#
# Indices 1 2 3 4 5 6 
#
# 1 0.021629 -0.006980 -0.009242 0.000000 0.000000 0.000000
# 2 -0.006980 0.013897 -0.000894 0.000000 0.000000 0.000000
# 3 -0.009242 -0.000894 0.018263 0.000000 0.000000 0.000000
# 4 0.000000 0.000000 0.000000 0.047465 0.000000 0.000000
# 5 0.000000 0.000000 0.000000 0.000000 0.029929 0.000000
# 6 0.000000 0.000000 0.000000 0.000000 0.000000 0.027715
#
#
# Mechanical properties :
#
#
# Convention : Reuss Voigt Hill
#
# Bulk Modulus (GPa) = 51.13454 51.59262 51.36358
# Shear Modulus (GPa) = 25.04399 27.46593 26.25496
#
# Velocity S-wave (km/s) = 3.64324 3.81534 3.73028
# Velocity P-wave (km/s) = 6.69318 6.83762 6.76579
#
# Compressibility (1/GPa) = 0.01955625
#
# Stress axis : x y z
#
# Youngs Moduli (GPa) = 46.23325 71.95867 54.75638
#
# Poissons Ratio (x) = 0.50230 0.50604
# Poissons Ratio (y) = 0.32273 0.04897
# Poissons Ratio (z) = 0.42727 0.06436
#
# Static dielectric constant tensor:
#      x y z
#    x 3.405820 0.000000 0.000000 
#    y 0.000000 3.583430 0.000000 
#    z 0.000000 0.000000 3.277130 
# 
# 
# High freq. dielectric constant tensor:
#      x y z
#    x 1.735810 0.000000 0.000000 
#    y 0.000000 1.740250 0.000000 
#    z 0.000000 0.000000 1.724640 
# 
# From -- ./inp_files/30799.got.cif
#   From: 2010.03.12/outbox.cif.g09.slc.cpg/sg53_16_cif.got.tgz:30799.got - 2010.04.16 14:36:59.
