data_PCOD8221221
_publ_section_title
;
Structure prediction by ZEFSAII (Michael W. Deem and Ramdas Pophale) SiO2 
 PCOD8221221
Probable space group: P M N A
;
_chemical_formula_sum "Si O2"
_cell_formula_units_Z 40
_cell_length_a 9.011219
_cell_length_b 9.301827
_cell_length_c 25.797448
_cell_angle_alpha 90.000000
_cell_angle_beta 90.000000
_cell_angle_gamma 90.000000
_cell_volume 2162.362734
_symmetry_space_group_name_H-M "P M N A"
_symmetry_group_IT_number 53
_symmetry_cell_setting 'orthorhombic'
loop_
_space_group_symop_operation_xyz
x,y,z
1/2-x,-y,1/2+z
x,-y,-z
1/2-x,y,1/2-z
-x,-y,-z
1/2+x,y,1/2-z
-x,y,z
1/2+x,-y,1/2+z
loop_
_atom_site_type_symbol
_atom_site_label
_atom_site_fract_x
_atom_site_fract_y
_atom_site_fract_z
Si Si1 0.824151 0.661270 0.905670
Si Si2 0.824995 0.637937 0.410837
Si Si3 0.166036 0.325894 0.299715
Si Si4 0.829237 0.833139 0.507508
Si Si5 0.662247 0.333737 0.798320
O O1 0.759622 0.508651 0.924409
O O2 0.757673 0.712748 0.851038
O O3 0.779336 0.779145 0.947864
O O4 0.000000 0.650051 0.900806
O O5 0.788247 0.754818 0.453960
O O6 0.768550 0.700506 0.355137
O O7 0.000000 0.601588 0.406941
O O8 0.250000 0.258296 0.250000
O O9 0.155310 0.495725 0.292524
O O10 0.000000 0.260507 0.303658
O O11 0.000000 0.801912 0.522830
O O12 0.799219 0.000000 0.500000
O O13 0.750000 0.264807 0.750000
O O14 0.500000 0.264471 0.794914
#
# Coordination Sequence:
#
# PCOD8221221 Si02
#       5
#     8   8   8   8   8
#     4  11  21  32  50  77 106 135 168 207 252 303
#     4   9  18  33  52  74 100 129 166 211 255 301
#     4   9  16  28  47  73 104 134 165 204 249 295
#     4  10  21  37  55  72  94 131 175 217 263 310
#     4   8  14  24  41  67  97 125 152 190 239 289
#
# _framework density 18.498283000000001
#
# number of rings (size 3 to 8) (size 9 to 14) (size 15 to 20)
#    0.000    2.600    0.000    4.200    0.000    8.400 
#    0.000    0.000    0.000    1.200    0.000    2.800 
#    0.000    0.000    0.000    0.000    0.000    0.000 
#
# Total GULP energy -495883.940894 kJ/mol
# GULP energy per Si atom -12397.098522 kJ/mol
# Density = 1.845618 g / cm^3
# Si number density = 18.498283 Si / 1000 Ang^3
#
#
#
# Elastic Constant Matrix: (Units=GPa)
#
#
# Indices 1 2 3 4 5 6 
#
# 1 112.2398 35.7107 67.2655 0.0000 0.0000 0.0000
# 2 35.7107 56.7924 52.8340 0.0000 0.0000 0.0000
# 3 67.2655 52.8340 154.9203 0.0000 0.0000 0.0000
# 4 0.0000 0.0000 0.0000 1.3977 0.0000 0.0000
# 5 0.0000 0.0000 0.0000 0.0000 36.3172 0.0000
# 6 0.0000 0.0000 0.0000 0.0000 0.0000 9.7195
#
#
#
# Elastic Compliance Matrix: (Units=1/GPa)
#
#
# Indices 1 2 3 4 5 6 
#
# 1 0.012686 -0.004178 -0.004083 0.000000 0.000000 0.000000
# 2 -0.004178 0.027167 -0.007451 0.000000 0.000000 0.000000
# 3 -0.004083 -0.007451 0.010769 0.000000 0.000000 0.000000
# 4 0.000000 0.000000 0.000000 0.715480 0.000000 0.000000
# 5 0.000000 0.000000 0.000000 0.000000 0.027535 0.000000
# 6 0.000000 0.000000 0.000000 0.000000 0.000000 0.102886
#
#
# Mechanical properties :
#
#
# Convention : Reuss Voigt Hill
#
# Bulk Modulus (GPa) = 52.09134 70.61922 61.35528
# Shear Modulus (GPa) = 5.35134 20.69636 13.02385
#
# Velocity S-wave (km/s) = 1.70269 3.34851 2.65629
# Velocity P-wave (km/s) = 5.66452 7.29445 6.53054
#
# Compressibility (1/GPa) = 0.01919705
#
# Stress axis : x y z
#
# Youngs Moduli (GPa) = 78.82739 36.80987 92.86045
#
# Poissons Ratio (x) = 0.15380 0.37917
# Poissons Ratio (y) = 0.32936 0.69188
# Poissons Ratio (z) = 0.32187 0.27426
#
# Static dielectric constant tensor:
#      x y z
#    x 3.498510 0.000000 0.000000 
#    y 0.000000 2.859320 0.000000 
#    z 0.000000 0.000000 3.765690 
# 
# 
# High freq. dielectric constant tensor:
#      x y z
#    x 1.714000 0.000000 0.000000 
#    y 0.000000 1.658140 0.000000 
#    z 0.000000 0.000000 1.740410 
# 
# From -- ./inp_files/33619.got.cif
#   From: 2010.03.12/outbox.cif.g09.slc.cpg/sg53_17_cif.got.tgz:33619.got - 2010.04.16 14:36:59.
