data_PCOD8221734
_publ_section_title
;
Structure prediction by ZEFSAII (Michael W. Deem and Ramdas Pophale) SiO2 
 PCOD8221734
Probable space group: P M N A
;
_chemical_formula_sum "Si O2"
_cell_formula_units_Z 64
_cell_length_a 18.269211
_cell_length_b 27.717370
_cell_length_c 6.712807
_cell_angle_alpha 90.000000
_cell_angle_beta 90.000000
_cell_angle_gamma 90.000000
_cell_volume 3399.194160
_symmetry_space_group_name_H-M "P M N A"
_symmetry_group_IT_number 53
_symmetry_cell_setting 'orthorhombic'
loop_
_space_group_symop_operation_xyz
x,y,z
1/2-x,-y,1/2+z
x,-y,-z
1/2-x,y,1/2-z
-x,-y,-z
1/2+x,y,1/2-z
-x,y,z
1/2+x,-y,1/2+z
loop_
_atom_site_type_symbol
_atom_site_label
_atom_site_fract_x
_atom_site_fract_y
_atom_site_fract_z
Si Si1 0.416230 0.202098 0.466333
Si Si2 0.171968 0.628586 0.200882
Si Si3 0.585406 0.690043 0.593344
Si Si4 0.336054 0.867030 0.257669
Si Si5 0.084190 0.944788 0.985659
Si Si6 0.322389 0.452752 0.380328
Si Si7 0.413590 0.390373 0.097881
Si Si8 0.918703 0.122372 0.363168
O O1 0.500000 0.203870 0.540835
O O2 0.389608 0.254417 0.389971
O O3 0.368045 0.182446 0.649854
O O4 0.406799 0.167085 0.281753
O O5 0.250000 0.652901 0.250000
O O6 0.129419 0.607341 0.390856
O O7 0.122200 0.669207 0.103701
O O8 0.193162 0.586798 0.047094
O O9 0.500000 0.685195 0.556446
O O10 0.606784 0.660223 0.792061
O O11 0.250000 0.863763 0.250000
O O12 0.362883 0.913888 0.375760
O O13 0.359158 0.873328 0.031365
O O14 0.000000 0.937611 0.056636
O O15 0.092670 0.927411 0.757801
O O16 0.108798 0.000000 0.000000
O O17 0.347955 0.500000 0.500000
O O18 0.250000 0.462682 0.250000
O O19 0.387797 0.435074 0.235621
O O20 0.500000 0.395384 0.059751
O O21 0.000000 0.123617 0.456759
#
# Coordination Sequence:
#
# PCOD8221734 Si02
#       8
#     8   8   8   8   8   8   8   8
#     4   9  19  37  58  81 110 149 195 236 274 334
#     4  11  21  37  59  85 118 156 195 235 291 347
#     4   9  20  37  58  84 115 150 192 240 288 338
#     4  11  22  35  52  83 117 148 180 229 292 345
#     4   9  19  37  57  79 106 142 193 242 277 330
#     4  11  23  39  63  88 116 156 199 240 288 352
#     4  10  22  40  60  87 120 153 194 247 297 343
#     4   9  18  35  59  79 103 144 188 232 277 328
#
# _framework density 18.827991999999998
#
# number of rings (size 3 to 8) (size 9 to 14) (size 15 to 20)
#    0.000    2.125    1.250    2.625    0.000    4.750 
#    2.250    6.250    0.000    0.000    0.000    0.000 
#    0.000    0.000    0.000    0.000    0.000    0.000 
#
# Total GULP energy -793592.794440 kJ/mol
# GULP energy per Si atom -12399.887413 kJ/mol
# Density = 1.878514 g / cm^3
# Si number density = 18.827992 Si / 1000 Ang^3
#
#
#
# Elastic Constant Matrix: (Units=GPa)
#
#
# Indices 1 2 3 4 5 6 
#
# 1 97.9963 30.3361 53.1204 0.0000 0.0000 0.0000
# 2 30.3361 102.5279 29.7348 0.0000 0.0000 0.0000
# 3 53.1204 29.7348 102.5808 0.0000 0.0000 0.0000
# 4 0.0000 0.0000 0.0000 12.2679 0.0000 0.0000
# 5 0.0000 0.0000 0.0000 0.0000 19.7072 0.0000
# 6 0.0000 0.0000 0.0000 0.0000 0.0000 21.9867
#
#
#
# Elastic Compliance Matrix: (Units=1/GPa)
#
#
# Indices 1 2 3 4 5 6 
#
# 1 0.014682 -0.002335 -0.006926 0.000000 0.000000 0.000000
# 2 -0.002335 0.011020 -0.001985 0.000000 0.000000 0.000000
# 3 -0.006926 -0.001985 0.013910 0.000000 0.000000 0.000000
# 4 0.000000 0.000000 0.000000 0.081513 0.000000 0.000000
# 5 0.000000 0.000000 0.000000 0.000000 0.050743 0.000000
# 6 0.000000 0.000000 0.000000 0.000000 0.000000 0.045482
#
#
# Mechanical properties :
#
#
# Convention : Reuss Voigt Hill
#
# Bulk Modulus (GPa) = 58.41252 58.83195 58.62224
# Shear Modulus (GPa) = 20.36252 23.45329 21.90791
#
# Velocity S-wave (km/s) = 3.29219 3.53322 3.41483
# Velocity P-wave (km/s) = 6.74855 6.92530 6.83750
#
# Compressibility (1/GPa) = 0.01711962
#
# Stress axis : x y z
#
# Youngs Moduli (GPa) = 68.11228 90.74304 71.88958
#
# Poissons Ratio (x) = 0.21193 0.49789
# Poissons Ratio (y) = 0.15907 0.14270
# Poissons Ratio (z) = 0.47173 0.18012
#
# Static dielectric constant tensor:
#      x y z
#    x 3.416300 0.000000 0.000000 
#    y 0.000000 3.621740 0.000000 
#    z 0.000000 0.000000 3.507650 
# 
# 
# High freq. dielectric constant tensor:
#      x y z
#    x 1.727470 0.000000 0.000000 
#    y 0.000000 1.729410 0.000000 
#    z 0.000000 0.000000 1.736140 
# 
# From -- ./inp_files/3112.got.cif
#   From: 2010.03.12/outbox.cif.g09.slc.cpg/sg53_2_cif.got.tgz:3112.got - 2010.04.16 14:36:59.
