data_PCOD8221777
_publ_section_title
;
Structure prediction by ZEFSAII (Michael W. Deem and Ramdas Pophale) SiO2 
 PCOD8221777
Probable space group: P M N A
;
_chemical_formula_sum "Si O2"
_cell_formula_units_Z 40
_cell_length_a 26.564724
_cell_length_b 5.123078
_cell_length_c 14.742252
_cell_angle_alpha 90.000000
_cell_angle_beta 90.000000
_cell_angle_gamma 90.000000
_cell_volume 2006.319558
_symmetry_space_group_name_H-M "P M N A"
_symmetry_group_IT_number 53
_symmetry_cell_setting 'orthorhombic'
loop_
_space_group_symop_operation_xyz
x,y,z
1/2-x,-y,1/2+z
x,-y,-z
1/2-x,y,1/2-z
-x,-y,-z
1/2+x,y,1/2-z
-x,y,z
1/2+x,-y,1/2+z
loop_
_atom_site_type_symbol
_atom_site_label
_atom_site_fract_x
_atom_site_fract_y
_atom_site_fract_z
Si Si1 0.695232 0.903317 0.902206
Si Si2 0.747263 0.585193 0.352520
Si Si3 0.635720 0.450759 0.604131
Si Si4 0.106902 0.261047 0.271185
Si Si5 0.057766 0.757403 0.226776
O O1 0.719503 0.153427 0.853924
O O2 0.733502 0.658364 0.914186
O O3 0.648863 0.795256 0.845125
O O4 0.676504 0.000000 0.000000
O O5 0.750000 0.478890 0.250000
O O6 0.691598 0.666156 0.384615
O O7 0.623875 0.500000 0.500000
O O8 0.631509 0.707248 0.669815
O O9 0.592825 0.246656 0.636580
O O10 0.077047 0.528672 0.295033
O O11 0.065538 0.033629 0.274760
O O12 0.000000 0.715852 0.199481
#
# Coordination Sequence:
#
# PCOD8221777 Si02
#       5
#     8   8   8   8   8
#     4  12  24  40  63  93 126 167 207 251 306 374
#     4  12  23  40  61  91 132 166 205 247 306 371
#     4  10  23  39  60  90 123 160 204 251 303 368
#     4  10  22  41  61  88 117 163 200 253 306 366
#     4  10  22  41  63  87 119 159 204 257 319 366
#
# _framework density 19.937004999999999
#
# number of rings (size 3 to 8) (size 9 to 14) (size 15 to 20)
#    1.200    0.000    2.000    5.400    2.800    1.200 
#    0.000    1.000    0.000    3.600    0.000    0.000 
#    0.000    0.000    0.000    0.000    0.000    0.000 
#
# Total GULP energy -495721.060456 kJ/mol
# GULP energy per Si atom -12393.026511 kJ/mol
# Density = 1.989163 g / cm^3
# Si number density = 19.937005 Si / 1000 Ang^3
#
#
#
# Elastic Constant Matrix: (Units=GPa)
#
#
# Indices 1 2 3 4 5 6 
#
# 1 117.5529 23.2987 38.2042 0.0000 0.0000 0.0000
# 2 23.2987 112.4260 25.7183 0.0000 0.0000 0.0000
# 3 38.2042 25.7183 88.2098 0.0000 0.0000 0.0000
# 4 0.0000 0.0000 0.0000 22.7828 0.0000 0.0000
# 5 0.0000 0.0000 0.0000 0.0000 13.2376 0.0000
# 6 0.0000 0.0000 0.0000 0.0000 0.0000 25.6967
#
#
#
# Elastic Compliance Matrix: (Units=1/GPa)
#
#
# Indices 1 2 3 4 5 6 
#
# 1 0.010040 -0.001164 -0.004009 0.000000 0.000000 0.000000
# 2 -0.001164 0.009665 -0.002314 0.000000 0.000000 0.000000
# 3 -0.004009 -0.002314 0.013748 0.000000 0.000000 0.000000
# 4 0.000000 0.000000 0.000000 0.043893 0.000000 0.000000
# 5 0.000000 0.000000 0.000000 0.000000 0.075542 0.000000
# 6 0.000000 0.000000 0.000000 0.000000 0.000000 0.038916
#
#
# Mechanical properties :
#
#
# Convention : Reuss Voigt Hill
#
# Bulk Modulus (GPa) = 54.11385 54.73679 54.42532
# Shear Modulus (GPa) = 23.48105 27.74126 25.61115
#
# Velocity S-wave (km/s) = 3.43558 3.73426 3.58803
# Velocity P-wave (km/s) = 6.55278 6.79024 6.67257
#
# Compressibility (1/GPa) = 0.01847956
#
# Stress axis : x y z
#
# Youngs Moduli (GPa) = 99.59727 103.46367 72.73916
#
# Poissons Ratio (x) = 0.12039 0.29163
# Poissons Ratio (y) = 0.11589 0.16832
# Poissons Ratio (z) = 0.39932 0.23942
#
# Static dielectric constant tensor:
#      x y z
#    x 3.490100 0.000000 0.000000 
#    y 0.000000 3.747660 0.000000 
#    z 0.000000 0.000000 3.378130 
# 
# 
# High freq. dielectric constant tensor:
#      x y z
#    x 1.770320 0.000000 0.000000 
#    y 0.000000 1.788130 0.000000 
#    z 0.000000 0.000000 1.754040 
# 
# From -- ./inp_files/24541.got.cif
#   From: 2010.03.12/outbox.cif.g09.slc.cpg/sg53_13_cif.got.tgz:24541.got - 2010.04.16 14:36:59.
