data_PCOD8221380
_publ_section_title
;
Structure prediction by ZEFSAII (Michael W. Deem and Ramdas Pophale) SiO2 
 PCOD8221380
Probable space group: P M N A
;
_chemical_formula_sum "Si O2"
_cell_formula_units_Z 56
_cell_length_a 14.462959
_cell_length_b 23.738046
_cell_length_c 8.819450
_cell_angle_alpha 90.000000
_cell_angle_beta 90.000000
_cell_angle_gamma 90.000000
_cell_volume 3027.914618
_symmetry_space_group_name_H-M "P M N A"
_symmetry_group_IT_number 53
_symmetry_cell_setting 'orthorhombic'
loop_
_space_group_symop_operation_xyz
x,y,z
1/2-x,-y,1/2+z
x,-y,-z
1/2-x,y,1/2-z
-x,-y,-z
1/2+x,y,1/2-z
-x,y,z
1/2+x,-y,1/2+z
loop_
_atom_site_type_symbol
_atom_site_label
_atom_site_fract_x
_atom_site_fract_y
_atom_site_fract_z
Si Si1 0.107589 0.941867 0.926207
Si Si2 0.103036 0.649769 0.570645
Si Si3 0.250000 0.561108 0.929983
Si Si4 0.896964 0.350231 0.070645
Si Si5 0.750000 0.741390 0.928310
Si Si6 0.750000 0.861725 0.428624
Si Si7 0.392411 0.058133 0.073793
O O1 0.132449 0.943928 0.750000
O O2 0.000000 0.932336 0.956006
O O3 0.158609 0.889911 0.003267
O O4 0.142032 0.000000 0.000000
O O5 0.158952 0.594821 0.513030
O O6 0.096045 0.646645 0.750000
O O7 0.158639 0.706130 0.526242
O O8 0.000000 0.650855 0.498080
O O9 0.250000 0.556555 0.750000
O O10 0.158952 0.594821 0.986969
O O11 0.250000 0.500000 0.000000
O O12 0.841361 0.293870 0.026243
O O13 0.000000 0.349145 0.998081
O O14 0.750000 0.756299 0.750000
O O15 0.750000 0.796693 0.028617
O O16 0.750000 0.869044 0.250000
O O17 0.841391 0.889911 0.496733
O O18 0.500000 0.067664 0.043994
O O19 0.357968 0.000000 0.000000
#
# Coordination Sequence:
#
# PCOD8221380 Si02
#       7
#     8   8   8   8   8   8   8
#     4  10  21  38  59  81 106 137 175 218 262 311
#     4   8  15  30  51  71  94 128 167 207 251 297
#     4   9  17  29  47  73 102 129 161 200 242 295
#     4   8  15  30  51  71  94 128 167 207 251 297
#     4   9  18  33  52  73  94 123 172 220 253 295
#     4  12  24  36  53  78 111 144 172 210 262 320
#     4  10  21  38  59  81 106 137 175 218 262 311
#
# _framework density 18.494578000000001
#
# number of rings (size 3 to 8) (size 9 to 14) (size 15 to 20)
#    0.000    2.571    0.000    4.286    0.000    3.429 
#    0.000    5.714    0.000    1.714    0.000    0.000 
#    0.000    0.000    0.000    0.000    0.000    0.000 
#
# Total GULP energy -694334.549708 kJ/mol
# GULP energy per Si atom -12398.831245 kJ/mol
# Density = 1.845248 g / cm^3
# Si number density = 18.494578 Si / 1000 Ang^3
#
#
#
# Elastic Constant Matrix: (Units=GPa)
#
#
# Indices 1 2 3 4 5 6 
#
# 1 152.9967 76.1059 38.8908 0.0000 0.0000 0.0000
# 2 76.1059 153.2059 47.4320 0.0000 0.0000 0.0000
# 3 38.8908 47.4320 78.0001 0.0000 0.0000 0.0000
# 4 0.0000 0.0000 0.0000 36.2152 0.0000 0.0000
# 5 0.0000 0.0000 0.0000 0.0000 16.9374 0.0000
# 6 0.0000 0.0000 0.0000 0.0000 0.0000 41.3600
#
#
#
# Elastic Compliance Matrix: (Units=1/GPa)
#
#
# Indices 1 2 3 4 5 6 
#
# 1 0.008970 -0.003784 -0.002172 0.000000 0.000000 0.000000
# 2 -0.003784 0.009637 -0.003974 0.000000 0.000000 0.000000
# 3 -0.002172 -0.003974 0.016320 0.000000 0.000000 0.000000
# 4 0.000000 0.000000 0.000000 0.027613 0.000000 0.000000
# 5 0.000000 0.000000 0.000000 0.000000 0.059041 0.000000
# 6 0.000000 0.000000 0.000000 0.000000 0.000000 0.024178
#
#
# Mechanical properties :
#
#
# Convention : Reuss Voigt Hill
#
# Bulk Modulus (GPa) = 66.36245 78.78444 72.57344
# Shear Modulus (GPa) = 29.30152 33.68747 31.49449
#
# Velocity S-wave (km/s) = 3.98468 4.27251 4.13110
# Velocity P-wave (km/s) = 7.55846 8.18720 7.87910
#
# Compressibility (1/GPa) = 0.01506876
#
# Stress axis : x y z
#
# Youngs Moduli (GPa) = 111.47961 103.76700 61.27552
#
# Poissons Ratio (x) = 0.39262 0.13307
# Poissons Ratio (y) = 0.42180 0.24349
# Poissons Ratio (z) = 0.24210 0.41234
#
# Static dielectric constant tensor:
#      x y z
#    x 3.960720 0.000000 0.000000 
#    y 0.000000 3.425790 0.000000 
#    z 0.000000 0.000000 2.983520 
# 
# 
# High freq. dielectric constant tensor:
#      x y z
#    x 1.730570 0.000000 0.000000 
#    y 0.000000 1.718770 0.000000 
#    z 0.000000 0.000000 1.690590 
# 
# From -- ./inp_files/8842.got.cif
#   From: 2010.03.12/outbox.cif.g09.slc.cpg/sg53_5_cif.got.tgz:8842.got - 2010.04.16 14:36:59.
