data_PCOD8221706
_publ_section_title
;
Structure prediction by ZEFSAII (Michael W. Deem and Ramdas Pophale) SiO2 
 PCOD8221706
Probable space group: P M N A
;
_chemical_formula_sum "Si O2"
_cell_formula_units_Z 48
_cell_length_a 8.664835
_cell_length_b 30.831388
_cell_length_c 9.100786
_cell_angle_alpha 90.000000
_cell_angle_beta 90.000000
_cell_angle_gamma 90.000000
_cell_volume 2431.264877
_symmetry_space_group_name_H-M "P M N A"
_symmetry_group_IT_number 53
_symmetry_cell_setting 'orthorhombic'
loop_
_space_group_symop_operation_xyz
x,y,z
1/2-x,-y,1/2+z
x,-y,-z
1/2-x,y,1/2-z
-x,-y,-z
1/2+x,y,1/2-z
-x,y,z
1/2+x,-y,1/2+z
loop_
_atom_site_type_symbol
_atom_site_label
_atom_site_fract_x
_atom_site_fract_y
_atom_site_fract_z
Si Si1 0.682935 0.874004 0.589627
Si Si2 0.181051 0.364772 0.907591
Si Si3 0.817263 0.282910 0.089018
Si Si4 0.817529 0.539332 0.093500
Si Si5 0.816733 0.795105 0.410932
Si Si6 0.318371 0.041056 0.589295
O O1 0.750000 0.881751 0.750000
O O2 0.500000 0.867050 0.596475
O O3 0.762208 0.832265 0.520559
O O4 0.730585 0.915351 0.493548
O O5 0.250000 0.352109 0.750000
O O6 0.235294 0.412721 0.961510
O O7 0.000000 0.363637 0.883940
O O8 0.231000 0.330735 0.032773
O O9 0.750000 0.274883 0.250000
O O10 0.000000 0.276241 0.094211
O O11 0.744782 0.250134 0.972492
O O12 0.750000 0.530572 0.250000
O O13 0.000000 0.536543 0.097694
O O14 0.746592 0.500000 0.000000
O O15 0.750000 0.804005 0.250000
O O16 0.000000 0.794229 0.402101
O O17 0.250000 0.041797 0.750000
O O18 0.500000 0.037036 0.603611
O O19 0.251144 0.000000 0.500000
#
# Coordination Sequence:
#
# PCOD8221706 Si02
#       6
#     8   8   8   8   8   8
#     4  11  23  40  62  89 121 156 195 238 287 339
#     4   9  19  35  55  78 106 142 182 225 273 328
#     4  11  23  39  58  83 114 147 186 231 282 335
#     4   9  18  33  52  76 107 141 179 223 271 325
#     4  12  25  42  63  87 116 150 190 234 283 338
#     4  10  22  39  60  88 120 155 196 240 287 340
#
# _framework density 19.742808
#
# number of rings (size 3 to 8) (size 9 to 14) (size 15 to 20)
#    0.000    1.667    0.000    4.500    0.000    6.667 
#    0.000    0.000    0.000    0.000    0.000    0.000 
#    0.000    0.000    0.000    0.000    0.000    0.000 
#
# Total GULP energy -595247.543058 kJ/mol
# GULP energy per Si atom -12400.990480 kJ/mol
# Density = 1.969787 g / cm^3
# Si number density = 19.742808 Si / 1000 Ang^3
#
#
#
# Elastic Constant Matrix: (Units=GPa)
#
#
# Indices 1 2 3 4 5 6 
#
# 1 70.2733 43.3730 38.3882 0.0000 0.0000 0.0000
# 2 43.3730 135.7131 62.4555 0.0000 0.0000 0.0000
# 3 38.3882 62.4555 127.3762 0.0000 0.0000 0.0000
# 4 0.0000 0.0000 0.0000 48.3533 0.0000 0.0000
# 5 0.0000 0.0000 0.0000 0.0000 36.6690 0.0000
# 6 0.0000 0.0000 0.0000 0.0000 0.0000 -6.9925
#
#
#
# Elastic Compliance Matrix: (Units=1/GPa)
#
#
# Indices 1 2 3 4 5 6 
#
# 1 0.018879 -0.004410 -0.003527 0.000000 0.000000 0.000000
# 2 -0.004410 0.010546 -0.003842 0.000000 0.000000 0.000000
# 3 -0.003527 -0.003842 0.010797 0.000000 0.000000 0.000000
# 4 0.000000 0.000000 0.000000 0.020681 0.000000 0.000000
# 5 0.000000 0.000000 0.000000 0.000000 0.027271 0.000000
# 6 0.000000 0.000000 0.000000 0.000000 0.000000 -0.143010
#
#
# Mechanical properties :
#
#
# Convention : Reuss Voigt Hill
#
# Bulk Modulus (GPa) = 60.01009 69.08841 64.54925
# Shear Modulus (GPa) = -194.38834 28.21569 -83.08633
#
# Velocity S-wave (km/s) = -9.93348 3.78453 -6.49428
# Velocity P-wave (km/s) = 10.05502 7.35983 4.84440
#
# Compressibility (1/GPa) = 0.01666386
#
# Stress axis : x y z
#
# Youngs Moduli (GPa) = 52.96872 94.82260 92.61422
#
# Poissons Ratio (x) = 0.41821 0.32667
# Poissons Ratio (y) = 0.23361 0.35580
# Poissons Ratio (z) = 0.18683 0.36429
#
# Static dielectric constant tensor:
#      x y z
#    x 3.618720 0.000000 0.000000 
#    y 0.000000 4.169670 0.000000 
#    z 0.000000 0.000000 3.875620 
# 
# 
# High freq. dielectric constant tensor:
#      x y z
#    x 1.770250 0.000000 0.000000 
#    y 0.000000 1.792150 0.000000 
#    z 0.000000 0.000000 1.775420 
# 
# From -- ./inp_files/6565.got.cif
#   From: 2010.03.12/outbox.cif.g09.slc.cpg/sg53_4_cif.got.tgz:6565.got - 2010.04.16 14:36:59.
