data_PCOD8221143
_publ_section_title
;
Structure prediction by ZEFSAII (Michael W. Deem and Ramdas Pophale) SiO2 
 PCOD8221143
Probable space group: P M N A
;
_chemical_formula_sum "Si O2"
_cell_formula_units_Z 48
_cell_length_a 8.976753
_cell_length_b 9.751822
_cell_length_c 30.058039
_cell_angle_alpha 90.000000
_cell_angle_beta 90.000000
_cell_angle_gamma 90.000000
_cell_volume 2631.271638
_symmetry_space_group_name_H-M "P M N A"
_symmetry_group_IT_number 53
_symmetry_cell_setting 'orthorhombic'
loop_
_space_group_symop_operation_xyz
x,y,z
1/2-x,-y,1/2+z
x,-y,-z
1/2-x,y,1/2-z
-x,-y,-z
1/2+x,y,1/2-z
-x,y,z
1/2+x,-y,1/2+z
loop_
_atom_site_type_symbol
_atom_site_label
_atom_site_fract_x
_atom_site_fract_y
_atom_site_fract_z
Si Si1 0.669138 0.600321 0.364865
Si Si2 0.675427 0.101413 0.204439
Si Si3 0.672243 0.381616 0.533757
Si Si4 0.826399 0.917300 0.131160
Si Si5 0.672648 0.896029 0.039607
Si Si6 0.173726 0.584150 0.705027
O O1 0.500000 0.563798 0.351952
O O2 0.700276 0.565278 0.416295
O O3 0.701871 0.759798 0.355561
O O4 0.778965 0.508610 0.336162
O O5 0.750000 0.049791 0.250000
O O6 0.500000 0.080728 0.208603
O O7 0.719299 0.259077 0.195146
O O8 0.736237 0.012450 0.164280
O O9 0.719505 0.500000 0.500000
O O10 0.500000 0.338156 0.527971
O O11 0.774913 0.252329 0.522791
O O12 0.767856 0.945903 0.081674
O O13 0.000000 0.954715 0.132946
O O14 0.500000 0.890083 0.053189
O O15 0.702869 0.000000 0.000000
O O16 0.250000 0.530257 0.750000
O O17 0.000000 0.568900 0.712266
#
# Coordination Sequence:
#
# PCOD8221143 Si02
#       6
#     8   8   8   8   8   8
#     4   9  19  35  54  78 107 137 174 217 259 308
#     4  10  21  37  56  80 109 140 177 219 263 314
#     4   9  19  36  56  79 107 140 179 219 260 312
#     4  10  21  37  57  80 106 140 180 220 265 316
#     4  10  21  36  54  79 110 141 176 220 267 316
#     4  10  21  36  55  78 105 138 175 215 261 312
#
# _framework density 18.242128999999998
#
# number of rings (size 3 to 8) (size 9 to 14) (size 15 to 20)
#    0.000    2.333    0.000    3.000    0.000    9.000 
#    0.000    3.333    0.000    0.000    0.000    0.000 
#    0.000    0.000    0.000    0.000    0.000    0.000 
#
# Total GULP energy -595390.724960 kJ/mol
# GULP energy per Si atom -12403.973437 kJ/mol
# Density = 1.820061 g / cm^3
# Si number density = 18.242129 Si / 1000 Ang^3
#
#
#
# Elastic Constant Matrix: (Units=GPa)
#
#
# Indices 1 2 3 4 5 6 
#
# 1 79.2761 44.3244 49.7409 0.0000 0.0000 0.0000
# 2 44.3244 79.8711 68.9506 0.0000 0.0000 0.0000
# 3 49.7409 68.9506 105.5223 0.0000 0.0000 0.0000
# 4 0.0000 0.0000 0.0000 34.3637 0.0000 0.0000
# 5 0.0000 0.0000 0.0000 0.0000 36.4372 0.0000
# 6 0.0000 0.0000 0.0000 0.0000 0.0000 32.7013
#
#
#
# Elastic Compliance Matrix: (Units=1/GPa)
#
#
# Indices 1 2 3 4 5 6 
#
# 1 0.019300 -0.006553 -0.004815 0.000000 0.000000 0.000000
# 2 -0.006553 0.030947 -0.017132 0.000000 0.000000 0.000000
# 3 -0.004815 -0.017132 0.022941 0.000000 0.000000 0.000000
# 4 0.000000 0.000000 0.000000 0.029100 0.000000 0.000000
# 5 0.000000 0.000000 0.000000 0.000000 0.027444 0.000000
# 6 0.000000 0.000000 0.000000 0.000000 0.000000 0.030580
#
#
# Mechanical properties :
#
#
# Convention : Reuss Voigt Hill
#
# Bulk Modulus (GPa) = 61.78304 65.63348 63.70826
# Shear Modulus (GPa) = 22.45087 27.47735 24.96411
#
# Velocity S-wave (km/s) = 3.51196 3.88526 3.70332
# Velocity P-wave (km/s) = 7.09838 7.49561 7.29970
#
# Compressibility (1/GPa) = 0.01618567
#
# Stress axis : x y z
#
# Youngs Moduli (GPa) = 51.81477 32.31370 43.59014
#
# Poissons Ratio (x) = 0.21176 0.20990
# Poissons Ratio (y) = 0.33956 0.74679
# Poissons Ratio (z) = 0.24950 0.55360
#
# Static dielectric constant tensor:
#      x y z
#    x 3.440760 0.000000 0.000000 
#    y 0.000000 3.338100 0.000000 
#    z 0.000000 0.000000 3.361540 
# 
# 
# High freq. dielectric constant tensor:
#      x y z
#    x 1.717850 0.000000 0.000000 
#    y 0.000000 1.703120 0.000000 
#    z 0.000000 0.000000 1.712540 
# 
# From -- ./inp_files/37737.got.cif
#   From: 2010.03.12/outbox.cif.g09.slc.cpg/sg53_19_cif.got.tgz:37737.got - 2010.04.16 14:36:59.
