data_PCOD8221403
_publ_section_title
;
Structure prediction by ZEFSAII (Michael W. Deem and Ramdas Pophale) SiO2 
 PCOD8221403
Probable space group: P M N A
;
_chemical_formula_sum "Si O2"
_cell_formula_units_Z 48
_cell_length_a 8.380649
_cell_length_b 14.961608
_cell_length_c 20.479748
_cell_angle_alpha 90.000000
_cell_angle_beta 90.000000
_cell_angle_gamma 90.000000
_cell_volume 2567.914338
_symmetry_space_group_name_H-M "P M N A"
_symmetry_group_IT_number 53
_symmetry_cell_setting 'orthorhombic'
loop_
_space_group_symop_operation_xyz
x,y,z
1/2-x,-y,1/2+z
x,-y,-z
1/2-x,y,1/2-z
-x,-y,-z
1/2+x,y,1/2-z
-x,y,z
1/2+x,-y,1/2+z
loop_
_atom_site_type_symbol
_atom_site_label
_atom_site_fract_x
_atom_site_fract_y
_atom_site_fract_z
Si Si1 0.311746 0.881679 0.182347
Si Si2 0.685471 0.311389 0.655982
Si Si3 0.185555 0.573173 0.948262
Si Si4 0.815848 0.727620 0.478919
Si Si5 0.187645 0.915735 0.043119
Si Si6 0.314973 0.497813 0.817087
O O1 0.250000 0.927165 0.250000
O O2 0.500000 0.888850 0.178047
O O3 0.256155 0.779378 0.184657
O O4 0.239007 0.930271 0.118577
O O5 0.500000 0.321402 0.673897
O O6 0.705735 0.312764 0.578069
O O7 0.785368 0.391800 0.686778
O O8 0.215135 0.540345 0.875433
O O9 0.000000 0.590274 0.959085
O O10 0.250690 0.500000 0.000000
O O11 0.278871 0.667075 0.957896
O O12 0.773284 0.831099 0.490341
O O13 0.000000 0.720718 0.458634
O O14 0.000000 0.899569 0.041073
O O15 0.240127 0.000000 0.000000
O O16 0.250000 0.541156 0.750000
O O17 0.500000 0.519135 0.826630
#
# Coordination Sequence:
#
# PCOD8221403 Si02
#       6
#     8   8   8   8   8   8
#     4  11  21  34  53  79 112 147 182 224 275 335
#     4  11  20  33  51  76 110 146 184 224 273 330
#     4  11  22  37  58  81 110 148 190 232 274 325
#     4  11  21  34  56  84 112 145 185 230 278 330
#     4  10  21  38  60  85 114 147 185 230 281 335
#     4  12  24  37  53  76 109 147 190 234 282 332
#
# _framework density 18.692214
#
# number of rings (size 3 to 8) (size 9 to 14) (size 15 to 20)
#    0.000    1.000    1.667    9.500    0.000    2.000 
#    0.000    0.000    0.000    1.000    0.000    2.333 
#    0.000    0.000    0.000    0.000    0.000    0.000 
#
# Total GULP energy -595344.247336 kJ/mol
# GULP energy per Si atom -12403.005153 kJ/mol
# Density = 1.864967 g / cm^3
# Si number density = 18.692214 Si / 1000 Ang^3
#
#
#
# Elastic Constant Matrix: (Units=GPa)
#
#
# Indices 1 2 3 4 5 6 
#
# 1 86.7504 27.9653 15.5406 0.0000 0.0000 0.0000
# 2 27.9653 77.5292 55.3226 0.0000 0.0000 0.0000
# 3 15.5406 55.3226 128.3083 0.0000 0.0000 0.0000
# 4 0.0000 0.0000 0.0000 5.6609 0.0000 0.0000
# 5 0.0000 0.0000 0.0000 0.0000 31.6600 0.0000
# 6 0.0000 0.0000 0.0000 0.0000 0.0000 25.3285
#
#
#
# Elastic Compliance Matrix: (Units=1/GPa)
#
#
# Indices 1 2 3 4 5 6 
#
# 1 0.013082 -0.005182 0.000650 0.000000 0.000000 0.000000
# 2 -0.005182 0.020684 -0.008290 0.000000 0.000000 0.000000
# 3 0.000650 -0.008290 0.011290 0.000000 0.000000 0.000000
# 4 0.000000 0.000000 0.000000 0.176650 0.000000 0.000000
# 5 0.000000 0.000000 0.000000 0.000000 0.031586 0.000000
# 6 0.000000 0.000000 0.000000 0.000000 0.000000 0.039481
#
#
# Mechanical properties :
#
#
# Convention : Reuss Voigt Hill
#
# Bulk Modulus (GPa) = 51.52244 54.47166 52.99705
# Shear Modulus (GPa) = 15.38997 25.44717 20.41857
#
# Velocity S-wave (km/s) = 2.87250 3.69369 3.30867
# Velocity P-wave (km/s) = 6.21491 6.88446 6.55823
#
# Compressibility (1/GPa) = 0.01940902
#
# Stress axis : x y z
#
# Youngs Moduli (GPa) = 76.44369 48.34769 88.57749
#
# Poissons Ratio (x) = 0.25056 -0.05759
# Poissons Ratio (y) = 0.39617 0.73434
# Poissons Ratio (z) = -0.04970 0.40082
#
# Static dielectric constant tensor:
#      x y z
#    x 3.455210 0.000000 0.000000 
#    y 0.000000 3.290500 0.000000 
#    z 0.000000 0.000000 3.603160 
# 
# 
# High freq. dielectric constant tensor:
#      x y z
#    x 1.744970 0.000000 0.000000 
#    y 0.000000 1.688140 0.000000 
#    z 0.000000 0.000000 1.728790 
# 
# From -- ./inp_files/26429.got.cif
#   From: 2010.03.12/outbox.cif.g09.slc.cpg/sg53_14_cif.got.tgz:26429.got - 2010.04.16 14:36:59.
