data_PCOD8221949
_publ_section_title
;
Structure prediction by ZEFSAII (Michael W. Deem and Ramdas Pophale) SiO2 
 PCOD8221949
Probable space group: P M N A
;
_chemical_formula_sum "Si O2"
_cell_formula_units_Z 56
_cell_length_a 13.431141
_cell_length_b 9.649982
_cell_length_c 17.352322
_cell_angle_alpha 90.000000
_cell_angle_beta 90.000000
_cell_angle_gamma 90.000000
_cell_volume 2249.039120
_symmetry_space_group_name_H-M "P M N A"
_symmetry_group_IT_number 53
_symmetry_cell_setting 'orthorhombic'
loop_
_space_group_symop_operation_xyz
x,y,z
1/2-x,-y,1/2+z
x,-y,-z
1/2-x,y,1/2-z
-x,-y,-z
1/2+x,y,1/2-z
-x,y,z
1/2+x,-y,1/2+z
loop_
_atom_site_type_symbol
_atom_site_label
_atom_site_fract_x
_atom_site_fract_y
_atom_site_fract_z
Si Si1 0.748959 0.585979 0.413756
Si Si2 0.117688 0.026572 0.377837
Si Si3 0.612233 0.373111 0.364185
Si Si4 0.608238 0.409289 0.773827
Si Si5 0.119080 0.088975 0.208610
Si Si6 0.383567 0.219778 0.986247
Si Si7 0.112834 0.804484 0.149297
O O1 0.685926 0.442982 0.429277
O O2 0.803789 0.561838 0.332475
O O3 0.829264 0.629685 0.479014
O O4 0.675529 0.717478 0.411550
O O5 0.166232 0.064566 0.294506
O O6 0.157335 0.139651 0.439087
O O7 0.000000 0.042101 0.372373
O O8 0.140859 0.870906 0.408824
O O9 0.500000 0.354502 0.397484
O O10 0.611466 0.480499 0.294500
O O11 0.656414 0.229075 0.332318
O O12 0.500000 0.418854 0.815609
O O13 0.619916 0.257459 0.736014
O O14 0.000000 0.091842 0.217433
O O15 0.152455 0.962447 0.153446
O O16 0.500000 0.247976 0.994044
O O17 0.000000 0.800980 0.119149
#
# Coordination Sequence:
#
# PCOD8221949 Si02
#       7
#     8   8   8   8   8   8   8
#     4  11  18  28  45  71 104 136 167 208 257 309
#     4   8  15  29  49  74 103 137 177 221 269 312
#     4   9  18  30  44  66  99 134 167 207 259 314
#     4   9  17  29  42  60  92 131 165 198 239 294
#     4   9  16  29  49  71  99 135 170 208 258 314
#     4   9  17  29  48  76 108 141 179 219 257 310
#     4   9  17  28  45  71 100 129 164 205 254 311
#
# _framework density 24.899524
#
# number of rings (size 3 to 8) (size 9 to 14) (size 15 to 20)
#    0.000    2.857    0.000    5.143    0.000    2.286 
#    0.000    5.714    0.000    0.857    0.000   19.000 
#    0.000   18.286    0.000   46.857    0.000    1.429 
#
# Total GULP energy -694113.199000 kJ/mol
# GULP energy per Si atom -12394.878554 kJ/mol
# Density = 2.484285 g / cm^3
# Si number density = 24.899524 Si / 1000 Ang^3
#
#
#
# Elastic Constant Matrix: (Units=GPa)
#
#
# Indices 1 2 3 4 5 6 
#
# 1 73.3106 43.9482 14.7369 0.0000 0.0000 0.0000
# 2 43.9482 151.9117 33.4905 0.0000 0.0000 0.0000
# 3 14.7369 33.4905 49.0380 0.0000 0.0000 0.0000
# 4 0.0000 0.0000 0.0000 28.5011 0.0000 0.0000
# 5 0.0000 0.0000 0.0000 0.0000 22.2055 0.0000
# 6 0.0000 0.0000 0.0000 0.0000 0.0000 33.9572
#
#
#
# Elastic Compliance Matrix: (Units=1/GPa)
#
#
# Indices 1 2 3 4 5 6 
#
# 1 0.016671 -0.004378 -0.002020 0.000000 0.000000 0.000000
# 2 -0.004378 0.008899 -0.004762 0.000000 0.000000 0.000000
# 3 -0.002020 -0.004762 0.024252 0.000000 0.000000 0.000000
# 4 0.000000 0.000000 0.000000 0.035086 0.000000 0.000000
# 5 0.000000 0.000000 0.000000 0.000000 0.045034 0.000000
# 6 0.000000 0.000000 0.000000 0.000000 0.000000 0.029449
#
#
# Mechanical properties :
#
#
# Convention : Reuss Voigt Hill
#
# Bulk Modulus (GPa) = 36.36114 50.95684 43.65899
# Shear Modulus (GPa) = 26.19476 29.07174 27.63325
#
# Velocity S-wave (km/s) = 3.24700 3.42067 3.33497
# Velocity P-wave (km/s) = 5.35651 6.00922 5.69223
#
# Compressibility (1/GPa) = 0.02750189
#
# Stress axis : x y z
#
# Youngs Moduli (GPa) = 59.98463 112.37170 41.23416
#
# Poissons Ratio (x) = 0.49191 0.08331
# Poissons Ratio (y) = 0.26258 0.19636
# Poissons Ratio (z) = 0.12119 0.53512
#
# Static dielectric constant tensor:
#      x y z
#    x 4.845000 0.000000 0.000000 
#    y 0.000000 4.584010 0.000000 
#    z 0.000000 0.000000 4.160710 
# 
# 
# High freq. dielectric constant tensor:
#      x y z
#    x 2.007270 0.000000 0.000000 
#    y 0.000000 1.991640 0.000000 
#    z 0.000000 0.000000 1.954800 
# 
# From -- ./inp_files/32417.got.cif
#   From: 2010.03.12/outbox.cif.g09.slc.cpg/sg53_17_cif.got.tgz:32417.got - 2010.04.16 14:36:59.
