data_PCOD8221510
_publ_section_title
;
Structure prediction by ZEFSAII (Michael W. Deem and Ramdas Pophale) SiO2 
 PCOD8221510
Probable space group: P M N A
;
_chemical_formula_sum "Si O2"
_cell_formula_units_Z 56
_cell_length_a 14.115780
_cell_length_b 12.800219
_cell_length_c 14.630702
_cell_angle_alpha 90.000000
_cell_angle_beta 90.000000
_cell_angle_gamma 90.000000
_cell_volume 2643.549493
_symmetry_space_group_name_H-M "P M N A"
_symmetry_group_IT_number 53
_symmetry_cell_setting 'orthorhombic'
loop_
_space_group_symop_operation_xyz
x,y,z
1/2-x,-y,1/2+z
x,-y,-z
1/2-x,y,1/2-z
-x,-y,-z
1/2+x,y,1/2-z
-x,y,z
1/2+x,-y,1/2+z
loop_
_atom_site_type_symbol
_atom_site_label
_atom_site_fract_x
_atom_site_fract_y
_atom_site_fract_z
Si Si1 0.762422 0.120431 0.142070
Si Si2 0.608245 0.494984 0.714246
Si Si3 0.396530 0.120998 0.999443
Si Si4 0.743709 0.114859 0.642712
Si Si5 0.389068 0.311167 0.402257
Si Si6 0.299539 0.671408 0.411778
Si Si7 0.105836 0.573729 0.413751
O O1 0.750000 0.127800 0.250000
O O2 0.667615 0.154513 0.087138
O O3 0.845735 0.197248 0.113410
O O4 0.791018 0.001284 0.113518
O O5 0.500000 0.474345 0.686085
O O6 0.640722 0.608568 0.677883
O O7 0.669883 0.402854 0.670660
O O8 0.623463 0.495258 0.822884
O O9 0.500000 0.178289 0.004649
O O10 0.344458 0.142659 0.903339
O O11 0.417021 0.000000 0.000000
O O12 0.750000 0.122459 0.750000
O O13 0.673214 0.207420 0.609633
O O14 0.500000 0.294818 0.407382
O O15 0.352111 0.362784 0.496071
O O16 0.185003 0.663493 0.423123
O O17 0.116881 0.500000 0.500000
O O18 0.000000 0.623774 0.410692
#
# Coordination Sequence:
#
# PCOD8221510 Si02
#       7
#     8   8   8   8   8   8   8
#     4  10  22  41  64  92 127 165 214 267 319 373
#     4  10  22  41  63  88 121 160 209 257 306 376
#     4   9  18  37  64  89 121 164 210 258 315 378
#     4  10  21  39  63  91 130 166 209 264 316 378
#     4  11  24  42  64  91 124 167 212 258 314 375
#     4  12  22  38  64  90 124 165 205 251 311 378
#     4  10  22  39  60  91 127 161 202 258 316 371
#
# _framework density 21.18364
#
# number of rings (size 3 to 8) (size 9 to 14) (size 15 to 20)
#    0.000    1.714    1.429    3.000    0.000    4.571 
#    0.000    5.714    0.000    0.000    0.000    0.000 
#    0.000    0.000    0.000    0.000    0.000    0.000 
#
# Total GULP energy -694109.150376 kJ/mol
# GULP energy per Si atom -12394.806257 kJ/mol
# Density = 2.113543 g / cm^3
# Si number density = 21.183640 Si / 1000 Ang^3
#
#
#
# Elastic Constant Matrix: (Units=GPa)
#
#
# Indices 1 2 3 4 5 6 
#
# 1 114.9394 56.3148 56.0962 0.0000 0.0000 0.0000
# 2 56.3148 128.3767 45.7700 0.0000 0.0000 0.0000
# 3 56.0962 45.7700 163.1590 0.0000 0.0000 0.0000
# 4 0.0000 0.0000 0.0000 37.9230 0.0000 0.0000
# 5 0.0000 0.0000 0.0000 0.0000 27.8805 0.0000
# 6 0.0000 0.0000 0.0000 0.0000 0.0000 27.3487
#
#
#
# Elastic Compliance Matrix: (Units=1/GPa)
#
#
# Indices 1 2 3 4 5 6 
#
# 1 0.012285 -0.004315 -0.003013 0.000000 0.000000 0.000000
# 2 -0.004315 0.010171 -0.001370 0.000000 0.000000 0.000000
# 3 -0.003013 -0.001370 0.007549 0.000000 0.000000 0.000000
# 4 0.000000 0.000000 0.000000 0.026369 0.000000 0.000000
# 5 0.000000 0.000000 0.000000 0.000000 0.035867 0.000000
# 6 0.000000 0.000000 0.000000 0.000000 0.000000 0.036565
#
#
# Mechanical properties :
#
#
# Convention : Reuss Voigt Hill
#
# Bulk Modulus (GPa) = 79.30580 80.31521 79.81051
# Shear Modulus (GPa) = 33.24369 35.18339 34.21354
#
# Velocity S-wave (km/s) = 3.96575 4.07981 4.02318
# Velocity P-wave (km/s) = 7.64775 7.75817 7.70316
#
# Compressibility (1/GPa) = 0.01260942
#
# Stress axis : x y z
#
# Youngs Moduli (GPa) = 81.40098 98.32264 132.46368
#
# Poissons Ratio (x) = 0.42423 0.39916
# Poissons Ratio (y) = 0.35122 0.18143
# Poissons Ratio (z) = 0.24529 0.13467
#
# Static dielectric constant tensor:
#      x y z
#    x 4.104620 0.000000 0.000000 
#    y 0.000000 3.956280 0.000000 
#    z 0.000000 0.000000 3.899500 
# 
# 
# High freq. dielectric constant tensor:
#      x y z
#    x 1.819040 0.000000 0.000000 
#    y 0.000000 1.834090 0.000000 
#    z 0.000000 0.000000 1.844190 
# 
# From -- ./inp_files/22800.got.cif
#   From: 2010.03.12/outbox.cif.g09.slc.cpg/sg53_12_cif.got.tgz:22800.got - 2010.04.16 14:36:59.
