data_PCOD8221068
_publ_section_title
;
Structure prediction by ZEFSAII (Michael W. Deem and Ramdas Pophale) SiO2 
 PCOD8221068
Probable space group: P M N A
;
_chemical_formula_sum "Si O2"
_cell_formula_units_Z 40
_cell_length_a 26.864937
_cell_length_b 8.400175
_cell_length_c 9.794313
_cell_angle_alpha 90.000000
_cell_angle_beta 90.000000
_cell_angle_gamma 90.000000
_cell_volume 2210.284301
_symmetry_space_group_name_H-M "P M N A"
_symmetry_group_IT_number 53
_symmetry_cell_setting 'orthorhombic'
loop_
_space_group_symop_operation_xyz
x,y,z
1/2-x,-y,1/2+z
x,-y,-z
1/2-x,y,1/2-z
-x,-y,-z
1/2+x,y,1/2-z
-x,y,z
1/2+x,-y,1/2+z
loop_
_atom_site_type_symbol
_atom_site_label
_atom_site_fract_x
_atom_site_fract_y
_atom_site_fract_z
Si Si1 0.632310 0.674460 0.539887
Si Si2 0.293140 0.926933 0.643098
Si Si3 0.386909 0.888208 0.286904
Si Si4 0.942007 0.784615 0.762278
Si Si5 0.054655 0.816617 0.462731
O O1 0.651216 0.500000 0.500000
O O2 0.678920 0.763126 0.608469
O O3 0.608748 0.771836 0.414684
O O4 0.587552 0.656151 0.648121
O O5 0.250000 0.888716 0.750000
O O6 0.272906 0.000000 0.500000
O O7 0.330189 0.049711 0.719729
O O8 0.402790 0.789200 0.151361
O O9 0.423749 0.037981 0.302949
O O10 0.930484 0.733497 0.605397
O O11 0.000000 0.775027 0.794596
O O12 0.000000 0.756825 0.411230
O O13 0.049985 0.000000 0.500000
#
# Coordination Sequence:
#
# PCOD8221068 Si02
#       5
#     8   8   8   8   8
#     4  10  21  35  48  70 106 137 163 196 242 300
#     4   9  19  35  56  77  93 117 159 209 253 296
#     4   9  17  31  52  74  97 125 162 209 249 290
#     4   9  17  30  50  75 100 132 174 211 242 280
#     4   8  14  26  47  74  99 124 161 206 245 280
#
# _framework density 18.09722
#
# number of rings (size 3 to 8) (size 9 to 14) (size 15 to 20)
#    0.000    3.000    0.000    3.600    0.000    6.800 
#    0.000    5.000    0.000    2.400    0.000    0.000 
#    0.000    0.000    0.000    0.000    0.000    0.000 
#
# Total GULP energy -495703.499279 kJ/mol
# GULP energy per Si atom -12392.587482 kJ/mol
# Density = 1.805603 g / cm^3
# Si number density = 18.097220 Si / 1000 Ang^3
#
#
#
# Elastic Constant Matrix: (Units=GPa)
#
#
# Indices 1 2 3 4 5 6 
#
# 1 106.8878 33.1666 88.4101 0.0000 0.0000 0.0000
# 2 33.1666 51.5557 41.1442 0.0000 0.0000 0.0000
# 3 88.4101 41.1442 141.9309 0.0000 0.0000 0.0000
# 4 0.0000 0.0000 0.0000 9.1297 0.0000 0.0000
# 5 0.0000 0.0000 0.0000 0.0000 35.1235 0.0000
# 6 0.0000 0.0000 0.0000 0.0000 0.0000 6.4655
#
#
#
# Elastic Compliance Matrix: (Units=1/GPa)
#
#
# Indices 1 2 3 4 5 6 
#
# 1 0.019848 -0.003775 -0.011269 0.000000 0.000000 0.000000
# 2 -0.003775 0.025952 -0.005172 0.000000 0.000000 0.000000
# 3 -0.011269 -0.005172 0.015565 0.000000 0.000000 0.000000
# 4 0.000000 0.000000 0.000000 0.109532 0.000000 0.000000
# 5 0.000000 0.000000 0.000000 0.000000 0.028471 0.000000
# 6 0.000000 0.000000 0.000000 0.000000 0.000000 0.154667
#
#
# Mechanical properties :
#
#
# Convention : Reuss Voigt Hill
#
# Bulk Modulus (GPa) = 47.77163 69.53515 58.65339
# Shear Modulus (GPa) = 12.45500 19.32064 15.88782
#
# Velocity S-wave (km/s) = 2.62625 3.27096 2.96618
# Velocity P-wave (km/s) = 5.97083 7.26444 6.64917
#
# Compressibility (1/GPa) = 0.02093293
#
# Stress axis : x y z
#
# Youngs Moduli (GPa) = 50.38260 38.53203 64.24836
#
# Poissons Ratio (x) = 0.14547 0.72403
# Poissons Ratio (y) = 0.19020 0.33227
# Poissons Ratio (z) = 0.56777 0.19928
#
# Static dielectric constant tensor:
#      x y z
#    x 3.215290 0.000000 0.000000 
#    y 0.000000 2.963610 0.000000 
#    z 0.000000 0.000000 4.030110 
# 
# 
# High freq. dielectric constant tensor:
#      x y z
#    x 1.687110 0.000000 0.000000 
#    y 0.000000 1.658200 0.000000 
#    z 0.000000 0.000000 1.715590 
# 
# From -- ./inp_files/12243.got.cif
#   From: 2010.03.12/outbox.cif.g09.slc.cpg/sg53_7_cif.got.tgz:12243.got - 2010.04.16 14:36:59.
