data_PCOD8221755
_publ_section_title
;
Structure prediction by ZEFSAII (Michael W. Deem and Ramdas Pophale) SiO2 
 PCOD8221755
Probable space group: P M N A
;
_chemical_formula_sum "Si O2"
_cell_formula_units_Z 56
_cell_length_a 17.698573
_cell_length_b 9.881690
_cell_length_c 15.708996
_cell_angle_alpha 90.000000
_cell_angle_beta 90.000000
_cell_angle_gamma 90.000000
_cell_volume 2747.374772
_symmetry_space_group_name_H-M "P M N A"
_symmetry_group_IT_number 53
_symmetry_cell_setting 'orthorhombic'
loop_
_space_group_symop_operation_xyz
x,y,z
1/2-x,-y,1/2+z
x,-y,-z
1/2-x,y,1/2-z
-x,-y,-z
1/2+x,y,1/2-z
-x,y,z
1/2+x,-y,1/2+z
loop_
_atom_site_type_symbol
_atom_site_label
_atom_site_fract_x
_atom_site_fract_y
_atom_site_fract_z
Si Si1 0.810879 0.151157 0.503561
Si Si2 0.411954 0.522942 0.245544
Si Si3 0.086055 0.272183 0.370672
Si Si4 0.855234 0.885718 0.936551
Si Si5 0.087641 0.410123 0.075085
Si Si6 0.324464 0.789747 0.196652
Si Si7 0.088449 0.038008 0.241254
O O1 0.864127 0.256587 0.454844
O O2 0.731248 0.146195 0.455989
O O3 0.801298 0.208589 0.598072
O O4 0.846689 0.000000 0.500000
O O5 0.500000 0.565666 0.253684
O O6 0.401207 0.419561 0.168213
O O7 0.380590 0.454468 0.332693
O O8 0.358969 0.648204 0.225198
O O9 0.110075 0.162324 0.301129
O O10 0.000000 0.250328 0.398612
O O11 0.901777 0.747676 0.944455
O O12 0.861742 0.947245 0.842975
O O13 0.888176 0.000000 0.000000
O O14 0.000000 0.441983 0.077267
O O15 0.125905 0.500000 0.000000
O O16 0.250000 0.823061 0.250000
O O17 0.389120 0.900482 0.212070
O O18 0.000000 0.037637 0.218033
#
# Coordination Sequence:
#
# PCOD8221755 Si02
#       7
#     8   8   8   8   8   8   8
#     4  11  24  43  63  96 135 170 212 275 334 389
#     4  10  23  45  66  93 130 171 221 274 331 393
#     4  10  22  43  70  95 124 170 220 269 331 396
#     4  11  24  41  65  97 132 170 217 270 324 398
#     4  10  22  40  63  91 130 171 210 265 328 389
#     4  12  26  43  65  96 134 175 219 267 331 397
#     4  11  23  42  70  98 128 172 221 272 329 391
#
# _framework density 20.383092999999999
#
# number of rings (size 3 to 8) (size 9 to 14) (size 15 to 20)
#    0.000    1.286    2.857    2.571    4.000    4.286 
#    0.000    1.429    0.000    0.000    0.000    0.000 
#    0.000    0.000    0.000    0.000    0.000    0.000 
#
# Total GULP energy -694601.008692 kJ/mol
# GULP energy per Si atom -12403.589441 kJ/mol
# Density = 2.033670 g / cm^3
# Si number density = 20.383093 Si / 1000 Ang^3
#
#
#
# Elastic Constant Matrix: (Units=GPa)
#
#
# Indices 1 2 3 4 5 6 
#
# 1 57.1751 23.6408 54.9319 0.0000 0.0000 0.0000
# 2 23.6408 77.3493 8.9854 0.0000 0.0000 0.0000
# 3 54.9319 8.9854 123.0966 0.0000 0.0000 0.0000
# 4 0.0000 0.0000 0.0000 29.4762 0.0000 0.0000
# 5 0.0000 0.0000 0.0000 0.0000 33.1719 0.0000
# 6 0.0000 0.0000 0.0000 0.0000 0.0000 30.9955
#
#
#
# Elastic Compliance Matrix: (Units=1/GPa)
#
#
# Indices 1 2 3 4 5 6 
#
# 1 0.036184 -0.009262 -0.015471 0.000000 0.000000 0.000000
# 2 -0.009262 0.015410 0.003008 0.000000 0.000000 0.000000
# 3 -0.015471 0.003008 0.014808 0.000000 0.000000 0.000000
# 4 0.000000 0.000000 0.000000 0.033926 0.000000 0.000000
# 5 0.000000 0.000000 0.000000 0.000000 0.030146 0.000000
# 6 0.000000 0.000000 0.000000 0.000000 0.000000 0.032263
#
#
# Mechanical properties :
#
#
# Convention : Reuss Voigt Hill
#
# Bulk Modulus (GPa) = 43.56848 48.08192 45.82520
# Shear Modulus (GPa) = 23.38246 30.06625 26.72435
#
# Velocity S-wave (km/s) = 3.39063 3.84482 3.62485
# Velocity P-wave (km/s) = 6.06216 6.58411 6.32852
#
# Compressibility (1/GPa) = 0.02295237
#
# Stress axis : x y z
#
# Youngs Moduli (GPa) = 27.63679 64.89434 67.53102
#
# Poissons Ratio (x) = 0.60104 1.04477
# Poissons Ratio (y) = 0.25597 -0.20315
# Poissons Ratio (z) = 0.42757 -0.19522
#
# Static dielectric constant tensor:
#      x y z
#    x 3.589570 0.000000 0.000000 
#    y 0.000000 3.813140 0.000000 
#    z 0.000000 0.000000 3.897430 
# 
# 
# High freq. dielectric constant tensor:
#      x y z
#    x 1.786060 0.000000 0.000000 
#    y 0.000000 1.804190 0.000000 
#    z 0.000000 0.000000 1.808670 
# 
# From -- ./inp_files/24364.got.cif
#   From: 2010.03.12/outbox.cif.g09.slc.cpg/sg53_13_cif.got.tgz:24364.got - 2010.04.16 14:36:59.
