data_PCOD8221113
_publ_section_title
;
Structure prediction by ZEFSAII (Michael W. Deem and Ramdas Pophale) SiO2 
 PCOD8221113
Probable space group: P M N A
;
_chemical_formula_sum "Si O2"
_cell_formula_units_Z 32
_cell_length_a 32.940914
_cell_length_b 5.436066
_cell_length_c 8.192308
_cell_angle_alpha 90.000000
_cell_angle_beta 90.000000
_cell_angle_gamma 90.000000
_cell_volume 1466.988259
_symmetry_space_group_name_H-M "P M N A"
_symmetry_group_IT_number 53
_symmetry_cell_setting 'orthorhombic'
loop_
_space_group_symop_operation_xyz
x,y,z
1/2-x,-y,1/2+z
x,-y,-z
1/2-x,y,1/2-z
-x,-y,-z
1/2+x,y,1/2-z
-x,y,z
1/2+x,-y,1/2+z
loop_
_atom_site_type_symbol
_atom_site_label
_atom_site_fract_x
_atom_site_fract_y
_atom_site_fract_z
Si Si1 0.786092 0.000000 0.000000
Si Si2 0.085435 0.521569 0.689582
Si Si3 0.453405 0.019829 0.806964
Si Si4 0.250000 0.343799 0.750000
Si Si5 0.827661 0.387376 0.178176
O O1 0.756208 0.804071 0.082026
O O2 0.815335 0.104215 0.143833
O O3 0.075092 0.500000 0.500000
O O4 0.070818 0.258767 0.765793
O O5 0.132814 0.572705 0.713992
O O6 0.062407 0.759325 0.767507
O O7 0.500000 0.055629 0.757469
O O8 0.447284 0.000000 0.000000
O O9 0.209679 0.501647 0.720411
O O10 0.834588 0.500000 0.000000
#
# Coordination Sequence:
#
# PCOD8221113 Si02
#       5
#     4   8   8   4   8
#     4  10  22  40  62  82 115 164 195 254 304 354
#     4  10  21  35  60  91 117 154 199 248 296 355
#     4   9  18  35  58  88 120 151 193 248 304 353
#     4  10  22  40  60  86 114 158 202 244 302 360
#     4  10  23  39  57  85 118 159 195 241 299 355
#
# _framework density 21.813399
#
# number of rings (size 3 to 8) (size 9 to 14) (size 15 to 20)
#    0.000    2.250    0.000    1.500    7.000    8.000 
#    2.250    0.000    0.000    4.500    0.000    0.000 
#    0.000    0.000    0.000    0.000    0.000    0.000 
#
# Total GULP energy -396532.137831 kJ/mol
# GULP energy per Si atom -12391.629307 kJ/mol
# Density = 2.176375 g / cm^3
# Si number density = 21.813399 Si / 1000 Ang^3
#
#
#
# Elastic Constant Matrix: (Units=GPa)
#
#
# Indices 1 2 3 4 5 6 
#
# 1 159.5611 87.6537 7.4020 0.0000 0.0000 0.0000
# 2 87.6537 190.9832 17.2843 0.0000 0.0000 0.0000
# 3 7.4020 17.2843 15.7239 0.0000 0.0000 0.0000
# 4 0.0000 0.0000 0.0000 10.1559 0.0000 0.0000
# 5 0.0000 0.0000 0.0000 0.0000 24.9760 0.0000
# 6 0.0000 0.0000 0.0000 0.0000 0.0000 20.4260
#
#
#
# Elastic Compliance Matrix: (Units=1/GPa)
#
#
# Indices 1 2 3 4 5 6 
#
# 1 0.008381 -0.003875 0.000314 0.000000 0.000000 0.000000
# 2 -0.003875 0.007606 -0.006537 0.000000 0.000000 0.000000
# 3 0.000314 -0.006537 0.070635 0.000000 0.000000 0.000000
# 4 0.000000 0.000000 0.000000 0.098465 0.000000 0.000000
# 5 0.000000 0.000000 0.000000 0.000000 0.040039 0.000000
# 6 0.000000 0.000000 0.000000 0.000000 0.000000 0.048957
#
#
# Mechanical properties :
#
#
# Convention : Reuss Voigt Hill
#
# Bulk Modulus (GPa) = 15.05411 65.66091 40.35751
# Shear Modulus (GPa) = 15.80172 28.04011 21.92092
#
# Velocity S-wave (km/s) = 2.69440 3.58921 3.17350
# Velocity P-wave (km/s) = 4.07382 6.88063 5.65416
#
# Compressibility (1/GPa) = 0.06642706
#
# Stress axis : x y z
#
# Youngs Moduli (GPa) = 119.31159 131.47168 14.15730
#
# Poissons Ratio (x) = 0.50948 -0.00445
# Poissons Ratio (y) = 0.46235 0.09254
# Poissons Ratio (z) = -0.03749 0.85940
#
# Static dielectric constant tensor:
#      x y z
#    x 3.848260 0.000000 0.000000 
#    y 0.000000 4.632980 0.000000 
#    z 0.000000 0.000000 3.384910 
# 
# 
# High freq. dielectric constant tensor:
#      x y z
#    x 1.857320 0.000000 0.000000 
#    y 0.000000 1.879630 0.000000 
#    z 0.000000 0.000000 1.811430 
# 
# From -- ./inp_files/12699.got.cif
#   From: 2010.03.12/outbox.cif.g09.slc.cpg/sg53_7_cif.got.tgz:12699.got - 2010.04.16 14:36:59.
