data_PCOD8221916
_publ_section_title
;
Structure prediction by ZEFSAII (Michael W. Deem and Ramdas Pophale) SiO2 
 PCOD8221916
Probable space group: P M N A
;
_chemical_formula_sum "Si O2"
_cell_formula_units_Z 28
_cell_length_a 21.578227
_cell_length_b 4.883534
_cell_length_c 11.673928
_cell_angle_alpha 90.000000
_cell_angle_beta 90.000000
_cell_angle_gamma 90.000000
_cell_volume 1230.175246
_symmetry_space_group_name_H-M "P M N A"
_symmetry_group_IT_number 53
_symmetry_cell_setting 'orthorhombic'
loop_
_space_group_symop_operation_xyz
x,y,z
1/2-x,-y,1/2+z
x,-y,-z
1/2-x,y,1/2-z
-x,-y,-z
1/2+x,y,1/2-z
-x,y,z
1/2+x,-y,1/2+z
loop_
_atom_site_type_symbol
_atom_site_label
_atom_site_fract_x
_atom_site_fract_y
_atom_site_fract_z
Si Si1 0.427685 0.354948 0.225097
Si Si2 0.250000 0.997443 0.750000
Si Si3 0.866479 0.145981 0.621749
Si Si4 0.157732 0.258718 0.077399
O O1 0.500000 0.413266 0.227338
O O2 0.413127 0.041857 0.194322
O O3 0.400043 0.390978 0.352722
O O4 0.396554 0.551778 0.127936
O O5 0.299017 0.180228 0.820169
O O6 0.286530 0.806975 0.662360
O O7 0.859347 0.000000 0.500000
O O8 0.184802 0.500000 0.000000
O O9 0.137192 0.000000 0.000000
#
# Coordination Sequence:
#
# PCOD8221916 Si02
#       4
#     8   4   8   8
#     4  11  25  43  63  93 128 164 213 261 307 375
#     4  10  24  42  64  94 128 158 208 260 310 378
#     4  11  24  41  66  94 125 167 207 258 319 372
#     4  11  24  41  65  94 126 167 209 259 320 377
#
# _framework density 22.760985000000002
#
# number of rings (size 3 to 8) (size 9 to 14) (size 15 to 20)
#    0.000    1.143    0.000    6.000    0.000   19.429 
#    0.000    0.000    0.000    0.000    0.000    0.000 
#    0.000    0.000    0.000    0.000    0.000    0.000 
#
# Total GULP energy -347149.226065 kJ/mol
# GULP energy per Si atom -12398.186645 kJ/mol
# Density = 2.270918 g / cm^3
# Si number density = 22.760985 Si / 1000 Ang^3
#
#
#
# Elastic Constant Matrix: (Units=GPa)
#
#
# Indices 1 2 3 4 5 6 
#
# 1 173.4361 23.5527 43.4375 0.0000 0.0000 0.0000
# 2 23.5527 86.7965 12.2542 0.0000 0.0000 0.0000
# 3 43.4375 12.2542 108.5385 0.0000 0.0000 0.0000
# 4 0.0000 0.0000 0.0000 23.7248 0.0000 0.0000
# 5 0.0000 0.0000 0.0000 0.0000 13.7678 0.0000
# 6 0.0000 0.0000 0.0000 0.0000 0.0000 20.3756
#
#
#
# Elastic Compliance Matrix: (Units=1/GPa)
#
#
# Indices 1 2 3 4 5 6 
#
# 1 0.006580 -0.001437 -0.002471 0.000000 0.000000 0.000000
# 2 -0.001437 0.012021 -0.000782 0.000000 0.000000 0.000000
# 3 -0.002471 -0.000782 0.010291 0.000000 0.000000 0.000000
# 4 0.000000 0.000000 0.000000 0.042150 0.000000 0.000000
# 5 0.000000 0.000000 0.000000 0.000000 0.072633 0.000000
# 6 0.000000 0.000000 0.000000 0.000000 0.000000 0.049078
#
#
# Mechanical properties :
#
#
# Convention : Reuss Voigt Hill
#
# Bulk Modulus (GPa) = 51.25078 58.58444 54.91761
# Shear Modulus (GPa) = 23.96504 30.87542 27.42023
#
# Velocity S-wave (km/s) = 3.24836 3.68707 3.47465
# Velocity P-wave (km/s) = 6.05268 6.62728 6.34649
#
# Compressibility (1/GPa) = 0.01951190
#
# Stress axis : x y z
#
# Youngs Moduli (GPa) = 151.98067 83.18447 97.17630
#
# Poissons Ratio (x) = 0.11950 0.24013
# Poissons Ratio (y) = 0.21833 0.07602
# Poissons Ratio (z) = 0.37555 0.06508
#
# Static dielectric constant tensor:
#      x y z
#    x 4.030000 0.000000 0.000000 
#    y 0.000000 4.134420 0.000000 
#    z 0.000000 0.000000 4.547900 
# 
# 
# High freq. dielectric constant tensor:
#      x y z
#    x 1.889710 0.000000 0.000000 
#    y 0.000000 1.903520 0.000000 
#    z 0.000000 0.000000 1.910260 
# 
# From -- ./inp_files/17301.got.cif
#   From: 2010.03.12/outbox.cif.g09.slc.cpg/sg53_9_cif.got.tgz:17301.got - 2010.04.16 14:36:59.
