data_PCOD8221673
_publ_section_title
;
Structure prediction by ZEFSAII (Michael W. Deem and Ramdas Pophale) SiO2 
 PCOD8221673
Probable space group: P M N A
;
_chemical_formula_sum "Si O2"
_cell_formula_units_Z 56
_cell_length_a 16.962611
_cell_length_b 12.528396
_cell_length_c 13.155705
_cell_angle_alpha 90.000000
_cell_angle_beta 90.000000
_cell_angle_gamma 90.000000
_cell_volume 2795.775542
_symmetry_space_group_name_H-M "P M N A"
_symmetry_group_IT_number 53
_symmetry_cell_setting 'orthorhombic'
loop_
_space_group_symop_operation_xyz
x,y,z
1/2-x,-y,1/2+z
x,-y,-z
1/2-x,y,1/2-z
-x,-y,-z
1/2+x,y,1/2-z
-x,y,z
1/2+x,-y,1/2+z
loop_
_atom_site_type_symbol
_atom_site_label
_atom_site_fract_x
_atom_site_fract_y
_atom_site_fract_z
Si Si1 0.588391 0.664494 0.254208
Si Si2 0.683461 0.747988 0.666900
Si Si3 0.185596 0.188409 0.472703
Si Si4 0.408665 0.088862 0.201367
Si Si5 0.911657 0.384153 0.518631
Si Si6 0.907830 0.466969 0.114614
Si Si7 0.831583 0.873971 0.294312
O O1 0.500000 0.689560 0.293971
O O2 0.586164 0.637330 0.136894
O O3 0.623886 0.564552 0.315923
O O4 0.642786 0.768550 0.268311
O O5 0.750000 0.722935 0.750000
O O6 0.724409 0.796034 0.565209
O O7 0.622482 0.836032 0.708121
O O8 0.638185 0.639906 0.641516
O O9 0.139894 0.104842 0.402252
O O10 0.142083 0.301518 0.458409
O O11 0.180978 0.148000 0.586936
O O12 0.500000 0.113022 0.183171
O O13 0.396930 0.964105 0.227437
O O14 0.874371 0.500000 0.500000
O O15 0.000000 0.378001 0.472488
O O16 0.000000 0.446586 0.135087
O O17 0.890536 0.500000 0.000000
O O18 0.750000 0.917208 0.250000
#
# Coordination Sequence:
#
# PCOD8221673 Si02
#       7
#     8   8   8   8   8   8   8
#     4   9  20  37  57  85 118 155 201 245 291 351
#     4  10  23  40  60  92 124 157 199 254 306 365
#     4  10  22  38  59  92 122 158 199 245 305 365
#     4  11  23  41  66  89 117 157 204 256 304 361
#     4   9  18  32  54  86 122 156 193 241 296 354
#     4  10  22  40  63  86 118 164 208 249 292 359
#     4  11  23  39  62  90 123 160 196 248 308 361
#
# _framework density 20.030221000000001
#
# number of rings (size 3 to 8) (size 9 to 14) (size 15 to 20)
#    0.000    2.000    0.000    3.000    6.000    3.429 
#    0.000    0.000    0.000    0.857    0.000    0.000 
#    0.000    0.000    0.000    0.000    0.000    0.000 
#
# Total GULP energy -694500.711975 kJ/mol
# GULP energy per Si atom -12401.798428 kJ/mol
# Density = 1.998463 g / cm^3
# Si number density = 20.030221 Si / 1000 Ang^3
#
#
#
# Elastic Constant Matrix: (Units=GPa)
#
#
# Indices 1 2 3 4 5 6 
#
# 1 86.4800 49.4444 32.5753 0.0000 0.0000 0.0000
# 2 49.4444 138.4008 38.0784 0.0000 0.0000 0.0000
# 3 32.5753 38.0784 51.0930 0.0000 0.0000 0.0000
# 4 0.0000 0.0000 0.0000 26.4622 0.0000 0.0000
# 5 0.0000 0.0000 0.0000 0.0000 23.5206 0.0000
# 6 0.0000 0.0000 0.0000 0.0000 0.0000 36.3653
#
#
#
# Elastic Compliance Matrix: (Units=1/GPa)
#
#
# Indices 1 2 3 4 5 6 
#
# 1 0.016679 -0.003815 -0.007791 0.000000 0.000000 0.000000
# 2 -0.003815 0.009962 -0.004992 0.000000 0.000000 0.000000
# 3 -0.007791 -0.004992 0.028260 0.000000 0.000000 0.000000
# 4 0.000000 0.000000 0.000000 0.037790 0.000000 0.000000
# 5 0.000000 0.000000 0.000000 0.000000 0.042516 0.000000
# 6 0.000000 0.000000 0.000000 0.000000 0.000000 0.027499
#
#
# Mechanical properties :
#
#
# Convention : Reuss Voigt Hill
#
# Bulk Modulus (GPa) = 46.07232 57.35221 51.71226
# Shear Modulus (GPa) = 24.61406 27.66134 26.13770
#
# Velocity S-wave (km/s) = 3.50929 3.72019 3.61628
# Velocity P-wave (km/s) = 6.28264 6.86644 6.58102
#
# Compressibility (1/GPa) = 0.02170501
#
# Stress axis : x y z
#
# Youngs Moduli (GPa) = 59.95424 100.38321 35.38623
#
# Poissons Ratio (x) = 0.38299 0.27569
# Poissons Ratio (y) = 0.22874 0.17664
# Poissons Ratio (z) = 0.46709 0.50109
#
# Static dielectric constant tensor:
#      x y z
#    x 3.691250 0.000000 0.000000 
#    y 0.000000 3.842380 0.000000 
#    z 0.000000 0.000000 3.551140 
# 
# 
# High freq. dielectric constant tensor:
#      x y z
#    x 1.777060 0.000000 0.000000 
#    y 0.000000 1.795230 0.000000 
#    z 0.000000 0.000000 1.774280 
# 
# From -- ./inp_files/22825.got.cif
#   From: 2010.03.12/outbox.cif.g09.slc.cpg/sg53_12_cif.got.tgz:22825.got - 2010.04.16 14:36:59.
