data_PCOD8221527
_publ_section_title
;
Structure prediction by ZEFSAII (Michael W. Deem and Ramdas Pophale) SiO2 
 PCOD8221527
Probable space group: P M N A
;
_chemical_formula_sum "Si O2"
_cell_formula_units_Z 56
_cell_length_a 21.698589
_cell_length_b 13.279306
_cell_length_c 9.771262
_cell_angle_alpha 90.000000
_cell_angle_beta 90.000000
_cell_angle_gamma 90.000000
_cell_volume 2815.512960
_symmetry_space_group_name_H-M "P M N A"
_symmetry_group_IT_number 53
_symmetry_cell_setting 'orthorhombic'
loop_
_space_group_symop_operation_xyz
x,y,z
1/2-x,-y,1/2+z
x,-y,-z
1/2-x,y,1/2-z
-x,-y,-z
1/2+x,y,1/2-z
-x,y,z
1/2+x,-y,1/2+z
loop_
_atom_site_type_symbol
_atom_site_label
_atom_site_fract_x
_atom_site_fract_y
_atom_site_fract_z
Si Si1 0.070376 0.911069 0.903378
Si Si2 0.137561 0.289408 0.487237
Si Si3 0.387347 0.699301 0.543628
Si Si4 0.429758 0.091481 0.094301
Si Si5 0.571400 0.349387 0.751809
Si Si6 0.744442 0.397615 0.414185
Si Si7 0.931431 0.425066 0.285740
O O1 0.073371 0.949779 0.748084
O O2 0.000000 0.880948 0.942593
O O3 0.116273 0.816858 0.919099
O O4 0.094762 0.000000 0.000000
O O5 0.116924 0.184488 0.420776
O O6 0.115225 0.289295 0.643815
O O7 0.210206 0.308973 0.468173
O O8 0.108581 0.384151 0.409364
O O9 0.418455 0.695399 0.396632
O O10 0.321978 0.645554 0.549968
O O11 0.431390 0.645026 0.652511
O O12 0.500000 0.125267 0.057356
O O13 0.407476 0.000000 0.000000
O O14 0.500000 0.336773 0.794412
O O15 0.593232 0.464971 0.746936
O O16 0.755984 0.500000 0.500000
O O17 0.750000 0.416787 0.250000
O O18 0.000000 0.431163 0.343328
#
# Coordination Sequence:
#
# PCOD8221527 Si02
#       7
#     8   8   8   8   8   8   8
#     4  10  21  39  64  93 125 163 210 268 332 390
#     4  12  24  40  63  90 130 170 214 264 320 378
#     4  12  24  40  63  90 130 170 214 264 320 378
#     4  10  21  39  64  93 125 163 210 268 332 390
#     4  11  24  37  60  96 129 163 209 266 326 394
#     4  12  26  44  67  92 128 179 226 263 309 379
#     4  11  20  37  60  88 123 163 205 260 328 386
#
# _framework density 19.889804000000002
#
# number of rings (size 3 to 8) (size 9 to 14) (size 15 to 20)
#    0.000    0.857    2.857    5.143    4.000    2.286 
#    0.000    0.714    0.000    0.000    0.000    0.000 
#    0.000    0.000    0.000    0.000    0.000    0.000 
#
# Total GULP energy -694553.161364 kJ/mol
# GULP energy per Si atom -12402.735024 kJ/mol
# Density = 1.984453 g / cm^3
# Si number density = 19.889804 Si / 1000 Ang^3
#
#
#
# Elastic Constant Matrix: (Units=GPa)
#
#
# Indices 1 2 3 4 5 6 
#
# 1 66.2079 28.7897 -1.3447 0.0000 0.0000 0.0000
# 2 28.7897 101.5442 29.4268 0.0000 0.0000 0.0000
# 3 -1.3447 29.4268 86.3497 0.0000 0.0000 0.0000
# 4 0.0000 0.0000 0.0000 38.0361 0.0000 0.0000
# 5 0.0000 0.0000 0.0000 0.0000 24.7189 0.0000
# 6 0.0000 0.0000 0.0000 0.0000 0.0000 27.5337
#
#
#
# Elastic Compliance Matrix: (Units=1/GPa)
#
#
# Indices 1 2 3 4 5 6 
#
# 1 0.017593 -0.005623 0.002190 0.000000 0.000000 0.000000
# 2 -0.005623 0.012724 -0.004424 0.000000 0.000000 0.000000
# 3 0.002190 -0.004424 0.013122 0.000000 0.000000 0.000000
# 4 0.000000 0.000000 0.000000 0.026291 0.000000 0.000000
# 5 0.000000 0.000000 0.000000 0.000000 0.040455 0.000000
# 6 0.000000 0.000000 0.000000 0.000000 0.000000 0.036319
#
#
# Mechanical properties :
#
#
# Convention : Reuss Voigt Hill
#
# Bulk Modulus (GPa) = 36.06565 40.87170 38.46867
# Shear Modulus (GPa) = 29.16132 31.20639 30.18385
#
# Velocity S-wave (km/s) = 3.83318 3.96531 3.89981
# Velocity P-wave (km/s) = 6.14517 6.44660 6.29769
#
# Compressibility (1/GPa) = 0.02772722
#
# Stress axis : x y z
#
# Youngs Moduli (GPa) = 56.83953 78.59127 76.20508
#
# Poissons Ratio (x) = 0.44190 -0.16690
# Poissons Ratio (y) = 0.31959 0.33711
# Poissons Ratio (z) = -0.12449 0.34767
#
# Static dielectric constant tensor:
#      x y z
#    x 2.483210 0.000000 0.000000 
#    y 0.000000 3.514310 0.000000 
#    z 0.000000 0.000000 3.840540 
# 
# 
# High freq. dielectric constant tensor:
#      x y z
#    x 1.758660 0.000000 0.000000 
#    y 0.000000 1.768080 0.000000 
#    z 0.000000 0.000000 1.793190 
# 
# From -- ./inp_files/11067.got.cif
#   From: 2010.03.12/outbox.cif.g09.slc.cpg/sg53_6_cif.got.tgz:11067.got - 2010.04.16 14:36:59.
