data_PCOD8221373
_publ_section_title
;
Structure prediction by ZEFSAII (Michael W. Deem and Ramdas Pophale) SiO2 
 PCOD8221373
Probable space group: P M N A
;
_chemical_formula_sum "Si O2"
_cell_formula_units_Z 40
_cell_length_a 8.586062
_cell_length_b 9.561825
_cell_length_c 25.354431
_cell_angle_alpha 90.000000
_cell_angle_beta 90.000000
_cell_angle_gamma 90.000000
_cell_volume 2081.558783
_symmetry_space_group_name_H-M "P M N A"
_symmetry_group_IT_number 53
_symmetry_cell_setting 'orthorhombic'
loop_
_space_group_symop_operation_xyz
x,y,z
1/2-x,-y,1/2+z
x,-y,-z
1/2-x,y,1/2-z
-x,-y,-z
1/2+x,y,1/2-z
-x,y,z
1/2+x,-y,1/2+z
loop_
_atom_site_type_symbol
_atom_site_label
_atom_site_fract_x
_atom_site_fract_y
_atom_site_fract_z
Si Si1 0.820464 0.960047 0.113559
Si Si2 0.819003 0.528120 0.118090
Si Si3 0.822065 0.257498 0.973563
Si Si4 0.820656 0.753153 0.585060
Si Si5 0.817739 0.752701 0.307238
O O1 0.782346 0.122415 0.108632
O O2 0.000000 0.937999 0.129730
O O3 0.788600 0.886639 0.057258
O O4 0.714498 0.890735 0.158324
O O5 0.786032 0.612435 0.064420
O O6 0.722055 0.385710 0.117148
O O7 0.765710 0.617633 0.168139
O O8 0.000000 0.492834 0.123882
O O9 0.000000 0.262730 0.993764
O O10 0.709615 0.268247 0.023185
O O11 0.000000 0.789627 0.593844
O O12 0.750000 0.780776 0.250000
O O13 0.000000 0.723955 0.304551
#
# Coordination Sequence:
#
# PCOD8221373 Si02
#       5
#     8   8   8   8   8
#     4  10  21  38  58  81 111 149 190 229 274 327
#     4  10  21  38  58  81 111 149 190 229 274 327
#     4   9  19  35  55  78 109 152 194 227 269 328
#     4  12  23  33  51  83 119 151 185 230 279 324
#     4  11  22  40  64  87 110 139 180 227 277 332
#
# _framework density 19.216367000000002
#
# number of rings (size 3 to 8) (size 9 to 14) (size 15 to 20)
#    0.000    1.600    0.000    7.200    0.000    9.600 
#    0.000    1.000    0.000    0.000    0.000    0.000 
#    0.000    0.000    0.000    0.000    0.000    0.000 
#
# Total GULP energy -496249.711210 kJ/mol
# GULP energy per Si atom -12406.242780 kJ/mol
# Density = 1.917263 g / cm^3
# Si number density = 19.216367 Si / 1000 Ang^3
#
#
#
# Elastic Constant Matrix: (Units=GPa)
#
#
# Indices 1 2 3 4 5 6 
#
# 1 75.0796 9.0046 17.5395 0.0000 0.0000 0.0000
# 2 9.0046 105.5911 17.7691 0.0000 0.0000 0.0000
# 3 17.5395 17.7691 72.7295 0.0000 0.0000 0.0000
# 4 0.0000 0.0000 0.0000 -66.8552 0.0000 0.0000
# 5 0.0000 0.0000 0.0000 0.0000 32.0451 0.0000
# 6 0.0000 0.0000 0.0000 0.0000 0.0000 31.7708
#
#
#
# Elastic Compliance Matrix: (Units=1/GPa)
#
#
# Indices 1 2 3 4 5 6 
#
# 1 0.014158 -0.000660 -0.003253 0.000000 0.000000 0.000000
# 2 -0.000660 0.009907 -0.002261 0.000000 0.000000 0.000000
# 3 -0.003253 -0.002261 0.015087 0.000000 0.000000 0.000000
# 4 0.000000 0.000000 0.000000 -0.014958 0.000000 0.000000
# 5 0.000000 0.000000 0.000000 0.000000 0.031206 0.000000
# 6 0.000000 0.000000 0.000000 0.000000 0.000000 0.031475
#
#
# Mechanical properties :
#
#
# Convention : Reuss Voigt Hill
#
# Bulk Modulus (GPa) = 37.30893 38.00295 37.65594
# Shear Modulus (GPa) = 46.22801 13.33127 29.77964
#
# Velocity S-wave (km/s) = 4.91007 2.63676 3.94090
# Velocity P-wave (km/s) = 7.18348 5.39345 6.35184
#
# Compressibility (1/GPa) = 0.02680323
#
# Stress axis : x y z
#
# Youngs Moduli (GPa) = 70.62975 100.93549 66.28394
#
# Poissons Ratio (x) = 0.06661 0.21564
# Poissons Ratio (y) = 0.04661 0.14989
# Poissons Ratio (z) = 0.22977 0.22825
#
# Static dielectric constant tensor:
#      x y z
#    x 3.560880 0.000000 0.000000 
#    y 0.000000 3.568950 0.000000 
#    z 0.000000 0.000000 3.185400 
# 
# 
# High freq. dielectric constant tensor:
#      x y z
#    x 1.755920 0.000000 0.000000 
#    y 0.000000 1.754330 0.000000 
#    z 0.000000 0.000000 1.729500 
# 
# From -- ./inp_files/33607.got.cif
#   From: 2010.03.12/outbox.cif.g09.slc.cpg/sg53_17_cif.got.tgz:33607.got - 2010.04.16 14:36:59.
