data_PCOD8221990
_publ_section_title
;
Structure prediction by ZEFSAII (Michael W. Deem and Ramdas Pophale) SiO2 
 PCOD8221990
Probable space group: P M N A
;
_chemical_formula_sum "Si O2"
_cell_formula_units_Z 56
_cell_length_a 21.161699
_cell_length_b 13.977777
_cell_length_c 9.664979
_cell_angle_alpha 90.000000
_cell_angle_beta 90.000000
_cell_angle_gamma 90.000000
_cell_volume 2858.838058
_symmetry_space_group_name_H-M "P M N A"
_symmetry_group_IT_number 53
_symmetry_cell_setting 'orthorhombic'
loop_
_space_group_symop_operation_xyz
x,y,z
1/2-x,-y,1/2+z
x,-y,-z
1/2-x,y,1/2-z
-x,-y,-z
1/2+x,y,1/2-z
-x,y,z
1/2+x,-y,1/2+z
loop_
_atom_site_type_symbol
_atom_site_label
_atom_site_fract_x
_atom_site_fract_y
_atom_site_fract_z
Si Si1 0.424623 0.216799 0.231249
Si Si2 0.248970 0.900660 0.081714
Si Si3 0.144370 0.752176 0.002728
Si Si4 0.428462 0.192399 0.741059
Si Si5 0.347278 0.259165 0.970823
Si Si6 0.074016 0.007440 0.347306
Si Si7 0.241392 0.404201 0.913810
O O1 0.500000 0.236177 0.248348
O O2 0.380020 0.263314 0.347675
O O3 0.407636 0.104181 0.231647
O O4 0.399500 0.263892 0.090940
O O5 0.250000 0.912842 0.250000
O O6 0.308259 0.839290 0.028168
O O7 0.187189 0.844755 0.030517
O O8 0.251175 0.000000 0.000000
O O9 0.079230 0.772826 0.084581
O O10 0.178946 0.657829 0.058141
O O11 0.500000 0.199611 0.791176
O O12 0.386413 0.264783 0.829761
O O13 0.403343 0.083067 0.757643
O O14 0.301758 0.350201 0.977421
O O15 0.000000 0.005784 0.368139
O O16 0.105611 0.000000 0.500000
O O17 0.250000 0.422888 0.750000
O O18 0.233470 0.500000 0.000000
#
# Coordination Sequence:
#
# PCOD8221990 Si02
#       7
#     8   8   8   8   8   8   8
#     4  11  24  38  60  96 135 172 216 258 301 369
#     4  11  25  39  58  87 123 169 214 267 316 362
#     4  11  24  42  61  91 130 161 210 261 322 377
#     4  11  20  36  63  88 125 178 213 251 309 370
#     4  11  22  40  65  90 126 163 213 255 312 378
#     4   9  18  31  50  81 121 175 220 246 278 339
#     4  11  25  47  73  98 120 154 209 267 325 390
#
# _framework density 19.588377999999999
#
# number of rings (size 3 to 8) (size 9 to 14) (size 15 to 20)
#    0.000    1.286    4.286    1.714    8.000    1.143 
#    0.000    2.143    0.000    5.143    0.000    0.000 
#    0.000    0.000    0.000    0.000    0.000    0.000 
#
# Total GULP energy -694079.447117 kJ/mol
# GULP energy per Si atom -12394.275841 kJ/mol
# Density = 1.954379 g / cm^3
# Si number density = 19.588378 Si / 1000 Ang^3
#
#
#
# Elastic Constant Matrix: (Units=GPa)
#
#
# Indices 1 2 3 4 5 6 
#
# 1 85.4695 34.0966 36.6776 0.0000 0.0000 0.0000
# 2 34.0966 99.6021 38.4803 0.0000 0.0000 0.0000
# 3 36.6776 38.4803 104.4458 0.0000 0.0000 0.0000
# 4 0.0000 0.0000 0.0000 26.5574 0.0000 0.0000
# 5 0.0000 0.0000 0.0000 0.0000 39.0367 0.0000
# 6 0.0000 0.0000 0.0000 0.0000 0.0000 16.1711
#
#
#
# Elastic Compliance Matrix: (Units=1/GPa)
#
#
# Indices 1 2 3 4 5 6 
#
# 1 0.014786 -0.003563 -0.003880 0.000000 0.000000 0.000000
# 2 -0.003563 0.012565 -0.003378 0.000000 0.000000 0.000000
# 3 -0.003880 -0.003378 0.012181 0.000000 0.000000 0.000000
# 4 0.000000 0.000000 0.000000 0.037654 0.000000 0.000000
# 5 0.000000 0.000000 0.000000 0.000000 0.025617 0.000000
# 6 0.000000 0.000000 0.000000 0.000000 0.000000 0.061839
#
#
# Mechanical properties :
#
#
# Convention : Reuss Voigt Hill
#
# Bulk Modulus (GPa) = 55.89377 56.44737 56.17057
# Shear Modulus (GPa) = 26.00816 28.37056 27.18936
#
# Velocity S-wave (km/s) = 3.64776 3.80983 3.72968
# Velocity P-wave (km/s) = 6.80718 6.94495 6.87641
#
# Compressibility (1/GPa) = 0.01789108
#
# Stress axis : x y z
#
# Youngs Moduli (GPa) = 67.62994 79.58829 82.09303
#
# Poissons Ratio (x) = 0.28356 0.31850
# Poissons Ratio (y) = 0.24096 0.27731
# Poissons Ratio (z) = 0.26239 0.26885
#
# Static dielectric constant tensor:
#      x y z
#    x 3.668220 0.000000 0.000000 
#    y 0.000000 3.351350 0.000000 
#    z 0.000000 0.000000 3.615550 
# 
# 
# High freq. dielectric constant tensor:
#      x y z
#    x 1.774910 0.000000 0.000000 
#    y 0.000000 1.730290 0.000000 
#    z 0.000000 0.000000 1.770190 
# 
# From -- ./inp_files/11081.got.cif
#   From: 2010.03.12/outbox.cif.g09.slc.cpg/sg53_6_cif.got.tgz:11081.got - 2010.04.16 14:36:59.
