data_PCOD8221166
_publ_section_title
;
Structure prediction by ZEFSAII (Michael W. Deem and Ramdas Pophale) SiO2 
 PCOD8221166
Probable space group: P M N A
;
_chemical_formula_sum "Si O2"
_cell_formula_units_Z 48
_cell_length_a 9.496592
_cell_length_b 29.385743
_cell_length_c 8.969260
_cell_angle_alpha 90.000000
_cell_angle_beta 90.000000
_cell_angle_gamma 90.000000
_cell_volume 2503.001267
_symmetry_space_group_name_H-M "P M N A"
_symmetry_group_IT_number 53
_symmetry_cell_setting 'orthorhombic'
loop_
_space_group_symop_operation_xyz
x,y,z
1/2-x,-y,1/2+z
x,-y,-z
1/2-x,y,1/2-z
-x,-y,-z
1/2+x,y,1/2-z
-x,y,z
1/2+x,-y,1/2+z
loop_
_atom_site_type_symbol
_atom_site_label
_atom_site_fract_x
_atom_site_fract_y
_atom_site_fract_z
Si Si1 0.500000 0.051031 0.067237
Si Si2 0.743691 0.897599 0.429306
Si Si3 0.165423 0.726775 0.598565
Si Si4 0.170102 0.797896 0.096119
Si Si5 0.000000 0.951997 0.925178
Si Si6 0.660434 0.623492 0.896429
Si Si7 0.837464 0.457142 0.603128
O O1 0.500000 0.046364 0.245615
O O2 0.620476 0.083196 0.006929
O O3 0.500000 0.000000 0.000000
O O4 0.750000 0.903099 0.250000
O O5 0.707765 0.846043 0.479712
O O6 0.631789 0.927963 0.508097
O O7 0.250000 0.732062 0.750000
O O8 0.255430 0.756891 0.487488
O O9 0.174213 0.674826 0.542085
O O10 0.000000 0.741799 0.613205
O O11 0.250000 0.798750 0.250000
O O12 0.000000 0.791244 0.110112
O O13 0.000000 0.000000 0.000000
O O14 0.750000 0.615367 0.750000
O O15 0.500000 0.612204 0.852994
O O16 0.713812 0.589170 0.023275
O O17 0.806705 0.500000 0.500000
O O18 0.750000 0.464374 0.750000
O O19 0.000000 0.453691 0.647467
#
# Coordination Sequence:
#
# PCOD8221166 Si02
#       7
#     4   8   8   8   4   8   8
#     4  12  26  42  66  98 126 166 204 252 307 362
#     4  11  24  43  66  91 125 164 205 251 307 368
#     4  10  21  38  61  89 124 162 203 253 305 362
#     4  11  24  42  65  91 122 161 204 251 309 368
#     4  12  24  44  66  92 128 160 206 252 301 366
#     4   9  19  36  57  84 117 156 201 248 301 358
#     4  10  21  36  55  82 116 153 198 249 302 362
#
# _framework density 19.176977000000001
#
# number of rings (size 3 to 8) (size 9 to 14) (size 15 to 20)
#    0.000    1.500    0.833    4.000    4.667    3.667 
#    0.000    1.667    0.000    0.000    0.000    0.000 
#    0.000    0.000    0.000    0.000    0.000    0.000 
#
# Total GULP energy -594784.240885 kJ/mol
# GULP energy per Si atom -12391.338352 kJ/mol
# Density = 1.913333 g / cm^3
# Si number density = 19.176977 Si / 1000 Ang^3
#
#
#
# Elastic Constant Matrix: (Units=GPa)
#
#
# Indices 1 2 3 4 5 6 
#
# 1 154.8131 67.9990 55.2153 0.0000 0.0000 0.0000
# 2 67.9990 120.7017 50.3455 0.0000 0.0000 0.0000
# 3 55.2153 50.3455 98.6822 0.0000 0.0000 0.0000
# 4 0.0000 0.0000 0.0000 191.1579 0.0000 0.0000
# 5 0.0000 0.0000 0.0000 0.0000 38.6847 0.0000
# 6 0.0000 0.0000 0.0000 0.0000 0.0000 -14.4217
#
#
#
# Elastic Compliance Matrix: (Units=1/GPa)
#
#
# Indices 1 2 3 4 5 6 
#
# 1 0.009326 -0.003909 -0.003224 0.000000 0.000000 0.000000
# 2 -0.003909 0.012163 -0.004018 0.000000 0.000000 0.000000
# 3 -0.003224 -0.004018 0.013987 0.000000 0.000000 0.000000
# 4 0.000000 0.000000 0.000000 0.005231 0.000000 0.000000
# 5 0.000000 0.000000 0.000000 0.000000 0.025850 0.000000
# 6 0.000000 0.000000 0.000000 0.000000 0.000000 -0.069340
#
#
# Mechanical properties :
#
#
# Convention : Reuss Voigt Hill
#
# Bulk Modulus (GPa) = 75.90517 80.14627 78.02572
# Shear Modulus (GPa) = 209.09892 56.46000 132.77946
#
# Velocity S-wave (km/s) = 10.45338 5.43189 8.33002
# Velocity P-wave (km/s) = 13.61488 9.01245 11.54533
#
# Compressibility (1/GPa) = 0.01317433
#
# Stress axis : x y z
#
# Youngs Moduli (GPa) = 107.22285 82.21481 71.49368
#
# Poissons Ratio (x) = 0.32142 0.23048
# Poissons Ratio (y) = 0.41918 0.28726
# Poissons Ratio (z) = 0.34567 0.33034
#
# Static dielectric constant tensor:
#      x y z
#    x 3.709930 0.000000 0.000000 
#    y 0.000000 3.896700 0.000000 
#    z 0.000000 0.000000 3.479370 
# 
# 
# High freq. dielectric constant tensor:
#      x y z
#    x 1.765460 0.000000 0.000000 
#    y 0.000000 1.766970 0.000000 
#    z 0.000000 0.000000 1.742530 
# 
# From -- ./inp_files/6801.got.cif
#   From: 2010.03.12/outbox.cif.g09.slc.cpg/sg53_4_cif.got.tgz:6801.got - 2010.04.16 14:36:59.
