data_PCOD8221350
_publ_section_title
;
Structure prediction by ZEFSAII (Michael W. Deem and Ramdas Pophale) SiO2 
 PCOD8221350
Probable space group: P M N A
;
_chemical_formula_sum "Si O2"
_cell_formula_units_Z 48
_cell_length_a 8.891020
_cell_length_b 9.597250
_cell_length_c 27.604195
_cell_angle_alpha 90.000000
_cell_angle_beta 90.000000
_cell_angle_gamma 90.000000
_cell_volume 2355.447787
_symmetry_space_group_name_H-M "P M N A"
_symmetry_group_IT_number 53
_symmetry_cell_setting 'orthorhombic'
loop_
_space_group_symop_operation_xyz
x,y,z
1/2-x,-y,1/2+z
x,-y,-z
1/2-x,y,1/2-z
-x,-y,-z
1/2+x,y,1/2-z
-x,y,z
1/2+x,-y,1/2+z
loop_
_atom_site_type_symbol
_atom_site_label
_atom_site_fract_x
_atom_site_fract_y
_atom_site_fract_z
Si Si1 0.831956 0.778995 0.703054
Si Si2 0.325399 0.596770 0.546056
Si Si3 0.321591 0.964364 0.143989
Si Si4 0.323496 0.102682 0.043524
Si Si5 0.671440 0.484612 0.141513
Si Si6 0.821699 0.720368 0.198269
O O1 0.750000 0.720154 0.750000
O O2 0.767291 0.925544 0.684507
O O3 0.823067 0.674779 0.658166
O O4 0.000000 0.801741 0.720483
O O5 0.298346 0.500000 0.500000
O O6 0.500000 0.612053 0.559009
O O7 0.260114 0.750587 0.537240
O O8 0.243673 0.511806 0.588689
O O9 0.500000 0.937347 0.145500
O O10 0.272217 0.022296 0.091861
O O11 0.232465 0.824149 0.155958
O O12 0.500000 0.136257 0.044761
O O13 0.279636 0.000000 0.000000
O O14 0.500000 0.540723 0.139439
O O15 0.766588 0.569679 0.180945
O O16 0.750000 0.759216 0.250000
O O17 0.000000 0.722696 0.203618
#
# Coordination Sequence:
#
# PCOD8221350 Si02
#       6
#     8   8   8   8   8   8
#     4  10  21  37  61  90 121 155 202 254 308 370
#     4  11  25  43  64  96 133 167 208 261 321 385
#     4  10  21  41  63  92 128 164 212 263 312 377
#     4  10  22  42  68  97 126 166 216 262 317 384
#     4  11  23  43  67  92 124 167 213 264 317 376
#     4  12  26  43  63  94 131 172 217 261 317 378
#
# _framework density 20.378291000000001
#
# number of rings (size 3 to 8) (size 9 to 14) (size 15 to 20)
#    0.000    1.333    1.667    3.500    2.333    7.000 
#    0.000    0.000    0.000    0.000    0.000    0.000 
#    0.000    0.000    0.000    0.000    0.000    0.000 
#
# Total GULP energy -595337.550639 kJ/mol
# GULP energy per Si atom -12402.865638 kJ/mol
# Density = 2.033191 g / cm^3
# Si number density = 20.378291 Si / 1000 Ang^3
#
#
#
# Elastic Constant Matrix: (Units=GPa)
#
#
# Indices 1 2 3 4 5 6 
#
# 1 113.3581 42.3692 56.4168 0.0000 0.0000 0.0000
# 2 42.3692 88.8392 33.8273 0.0000 0.0000 0.0000
# 3 56.4168 33.8273 125.8448 0.0000 0.0000 0.0000
# 4 0.0000 0.0000 0.0000 34.7950 0.0000 0.0000
# 5 0.0000 0.0000 0.0000 0.0000 29.6595 0.0000
# 6 0.0000 0.0000 0.0000 0.0000 0.0000 32.0833
#
#
#
# Elastic Compliance Matrix: (Units=1/GPa)
#
#
# Indices 1 2 3 4 5 6 
#
# 1 0.012693 -0.004330 -0.004526 0.000000 0.000000 0.000000
# 2 -0.004330 0.014017 -0.001827 0.000000 0.000000 0.000000
# 3 -0.004526 -0.001827 0.010466 0.000000 0.000000 0.000000
# 4 0.000000 0.000000 0.000000 0.028740 0.000000 0.000000
# 5 0.000000 0.000000 0.000000 0.000000 0.033716 0.000000
# 6 0.000000 0.000000 0.000000 0.000000 0.000000 0.031169
#
#
# Mechanical properties :
#
#
# Convention : Reuss Voigt Hill
#
# Bulk Modulus (GPa) = 63.24996 65.91875 64.58436
# Shear Modulus (GPa) = 31.75888 32.33615 32.04751
#
# Velocity S-wave (km/s) = 3.95202 3.98778 3.96994
# Velocity P-wave (km/s) = 7.20624 7.32263 7.26467
#
# Compressibility (1/GPa) = 0.01581029
#
# Stress axis : x y z
#
# Youngs Moduli (GPa) = 78.78590 71.34277 95.54333
#
# Poissons Ratio (x) = 0.30891 0.43246
# Poissons Ratio (y) = 0.34113 0.17452
# Poissons Ratio (z) = 0.35661 0.13032
#
# Static dielectric constant tensor:
#      x y z
#    x 3.676160 0.000000 0.000000 
#    y 0.000000 3.648940 0.000000 
#    z 0.000000 0.000000 3.840660 
# 
# 
# High freq. dielectric constant tensor:
#      x y z
#    x 1.792720 0.000000 0.000000 
#    y 0.000000 1.805580 0.000000 
#    z 0.000000 0.000000 1.808310 
# 
# From -- ./inp_files/37716.got.cif
#   From: 2010.03.12/outbox.cif.g09.slc.cpg/sg53_19_cif.got.tgz:37716.got - 2010.04.16 14:36:59.
