data_PCOD8221273
_publ_section_title
;
Structure prediction by ZEFSAII (Michael W. Deem and Ramdas Pophale) SiO2 
 PCOD8221273
Probable space group: P M N A
;
_chemical_formula_sum "Si O2"
_cell_formula_units_Z 40
_cell_length_a 8.692476
_cell_length_b 25.543389
_cell_length_c 8.880865
_cell_angle_alpha 90.000000
_cell_angle_beta 90.000000
_cell_angle_gamma 90.000000
_cell_volume 1971.865488
_symmetry_space_group_name_H-M "P M N A"
_symmetry_group_IT_number 53
_symmetry_cell_setting 'orthorhombic'
loop_
_space_group_symop_operation_xyz
x,y,z
1/2-x,-y,1/2+z
x,-y,-z
1/2-x,y,1/2-z
-x,-y,-z
1/2+x,y,1/2-z
-x,y,z
1/2+x,-y,1/2+z
loop_
_atom_site_type_symbol
_atom_site_label
_atom_site_fract_x
_atom_site_fract_y
_atom_site_fract_z
Si Si1 0.318420 0.145841 0.411849
Si Si2 0.317678 0.448135 0.915407
Si Si3 0.818257 0.758171 0.414468
Si Si4 0.318838 0.345577 0.086105
Si Si5 0.823949 0.947183 0.407737
O O1 0.250000 0.132720 0.250000
O O2 0.500000 0.151704 0.400223
O O3 0.248411 0.199535 0.471661
O O4 0.276434 0.098572 0.520875
O O5 0.250000 0.446129 0.750000
O O6 0.500000 0.447155 0.902139
O O7 0.258840 0.500000 0.000000
O O8 0.255946 0.398798 0.010918
O O9 0.750000 0.766719 0.250000
O O10 0.768548 0.701661 0.477356
O O11 0.000000 0.764568 0.405512
O O12 0.250000 0.337361 0.250000
O O13 0.500000 0.347775 0.104941
O O14 0.750000 0.961089 0.250000
O O15 0.000000 0.928078 0.392257
O O16 0.812830 0.000000 0.500000
#
# Coordination Sequence:
#
# PCOD8221273 Si02
#       5
#     8   8   8   8   8
#     4  12  25  42  64  90 122 158 199 246 297 352
#     4  10  21  37  57  84 116 150 192 239 289 347
#     4  11  23  40  61  87 119 155 198 244 295 352
#     4  10  22  38  58  85 116 152 194 241 292 349
#     4  11  24  42  65  93 125 161 201 245 295 350
#
# _framework density 20.285361000000002
#
# number of rings (size 3 to 8) (size 9 to 14) (size 15 to 20)
#    0.000    1.200    0.000    6.000    0.000    7.600 
#    0.000    0.000    0.000    0.000    0.000    0.000 
#    0.000    0.000    0.000    0.000    0.000    0.000 
#
# Total GULP energy -496253.902497 kJ/mol
# GULP energy per Si atom -12406.347562 kJ/mol
# Density = 2.023919 g / cm^3
# Si number density = 20.285361 Si / 1000 Ang^3
#
#
#
# Elastic Constant Matrix: (Units=GPa)
#
#
# Indices 1 2 3 4 5 6 
#
# 1 77.7456 43.0503 41.3755 0.0000 0.0000 0.0000
# 2 43.0503 110.0429 20.9628 0.0000 0.0000 0.0000
# 3 41.3755 20.9628 121.0146 0.0000 0.0000 0.0000
# 4 0.0000 0.0000 0.0000 176.9161 0.0000 0.0000
# 5 0.0000 0.0000 0.0000 0.0000 38.9963 0.0000
# 6 0.0000 0.0000 0.0000 0.0000 0.0000 57.9004
#
#
#
# Elastic Compliance Matrix: (Units=1/GPa)
#
#
# Indices 1 2 3 4 5 6 
#
# 1 0.019418 -0.006548 -0.005505 0.000000 0.000000 0.000000
# 2 -0.006548 0.011605 0.000228 0.000000 0.000000 0.000000
# 3 -0.005505 0.000228 0.010106 0.000000 0.000000 0.000000
# 4 0.000000 0.000000 0.000000 0.005652 0.000000 0.000000
# 5 0.000000 0.000000 0.000000 0.000000 0.025643 0.000000
# 6 0.000000 0.000000 0.000000 0.000000 0.000000 0.017271
#
#
# Mechanical properties :
#
#
# Convention : Reuss Voigt Hill
#
# Bulk Modulus (GPa) = 57.20575 57.73115 57.46845
# Shear Modulus (GPa) = 41.95624 68.32351 55.13987
#
# Velocity S-wave (km/s) = 4.55279 5.80985 5.21930
# Velocity P-wave (km/s) = 7.47656 8.57479 8.04444
#
# Compressibility (1/GPa) = 0.01748076
#
# Stress axis : x y z
#
# Youngs Moduli (GPa) = 51.49898 86.16613 98.95092
#
# Poissons Ratio (x) = 0.56421 0.54470
# Poissons Ratio (y) = 0.33721 -0.02260
# Poissons Ratio (z) = 0.28349 -0.01968
#
# Static dielectric constant tensor:
#      x y z
#    x 3.745390 0.000000 0.000000 
#    y 0.000000 4.097960 0.000000 
#    z 0.000000 0.000000 122.367860 
# 
# 
# High freq. dielectric constant tensor:
#      x y z
#    x 1.795890 0.000000 0.000000 
#    y 0.000000 1.812840 0.000000 
#    z 0.000000 0.000000 1.810730 
# 
# From -- ./inp_files/6249.got.cif
#   From: 2010.03.12/outbox.cif.g09.slc.cpg/sg53_4_cif.got.tgz:6249.got - 2010.04.16 14:36:59.
