data_PCOD8221457
_publ_section_title
;
Structure prediction by ZEFSAII (Michael W. Deem and Ramdas Pophale) SiO2 
 PCOD8221457
Probable space group: P M N A
;
_chemical_formula_sum "Si O2"
_cell_formula_units_Z 40
_cell_length_a 21.952474
_cell_length_b 17.855258
_cell_length_c 4.980921
_cell_angle_alpha 90.000000
_cell_angle_beta 90.000000
_cell_angle_gamma 90.000000
_cell_volume 1952.357095
_symmetry_space_group_name_H-M "P M N A"
_symmetry_group_IT_number 53
_symmetry_cell_setting 'orthorhombic'
loop_
_space_group_symop_operation_xyz
x,y,z
1/2-x,-y,1/2+z
x,-y,-z
1/2-x,y,1/2-z
-x,-y,-z
1/2+x,y,1/2-z
-x,y,z
1/2+x,-y,1/2+z
loop_
_atom_site_type_symbol
_atom_site_label
_atom_site_fract_x
_atom_site_fract_y
_atom_site_fract_z
Si Si1 0.000000 0.236985 0.246777
Si Si2 0.129746 0.279771 0.157235
Si Si3 0.292378 0.415300 0.496870
Si Si4 0.500000 0.863329 0.257995
Si Si5 0.818427 0.200710 0.670785
Si Si6 0.122113 0.949677 0.248129
O O1 0.938844 0.286846 0.274455
O O2 0.000000 0.167041 0.452090
O O3 0.000000 0.208647 0.944406
O O4 0.150610 0.360681 0.046701
O O5 0.170748 0.243187 0.390645
O O6 0.133843 0.226224 0.898841
O O7 0.318010 0.500000 0.500000
O O8 0.250000 0.402189 0.250000
O O9 0.250000 0.395516 0.750000
O O10 0.441273 0.911823 0.330741
O O11 0.750000 0.221408 0.750000
O O12 0.827589 0.111209 0.656022
O O13 0.107945 0.000000 0.500000
O O14 0.146540 0.000000 0.000000
#
# Coordination Sequence:
#
# PCOD8221457 Si02
#       6
#     4   8   8   4   8   8
#     4  12  22  39  65  88 122 157 200 261 302 356
#     4  12  22  41  63  92 123 160 206 250 301 361
#     4  10  21  38  63  95 128 162 201 249 301 359
#     4  12  22  43  60  88 117 157 208 257 303 364
#     4  12  25  41  63  88 121 162 205 251 308 370
#     4  12  24  40  61  87 116 157 204 259 312 363
#
# _framework density 20.488054000000002
#
# number of rings (size 3 to 8) (size 9 to 14) (size 15 to 20)
#    0.000    0.400    4.000    6.600    0.000    0.800 
#    0.000    0.500    0.000    0.000    0.000    8.400 
#    0.000    0.000    0.000    0.000    0.000    0.000 
#
# Total GULP energy -495980.751087 kJ/mol
# GULP energy per Si atom -12399.518777 kJ/mol
# Density = 2.044142 g / cm^3
# Si number density = 20.488054 Si / 1000 Ang^3
#
#
#
# Elastic Constant Matrix: (Units=GPa)
#
#
# Indices 1 2 3 4 5 6 
#
# 1 83.8565 51.6018 13.6526 0.0000 0.0000 0.0000
# 2 51.6018 123.8443 37.2146 0.0000 0.0000 0.0000
# 3 13.6526 37.2146 113.7821 0.0000 0.0000 0.0000
# 4 0.0000 0.0000 0.0000 35.8863 0.0000 0.0000
# 5 0.0000 0.0000 0.0000 0.0000 32.6650 0.0000
# 6 0.0000 0.0000 0.0000 0.0000 0.0000 28.8780
#
#
#
# Elastic Compliance Matrix: (Units=1/GPa)
#
#
# Indices 1 2 3 4 5 6 
#
# 1 0.016046 -0.006773 0.000290 0.000000 0.000000 0.000000
# 2 -0.006773 0.011814 -0.003051 0.000000 0.000000 0.000000
# 3 0.000290 -0.003051 0.009752 0.000000 0.000000 0.000000
# 4 0.000000 0.000000 0.000000 0.027866 0.000000 0.000000
# 5 0.000000 0.000000 0.000000 0.000000 0.030614 0.000000
# 6 0.000000 0.000000 0.000000 0.000000 0.000000 0.034628
#
#
# Mechanical properties :
#
#
# Convention : Reuss Voigt Hill
#
# Bulk Modulus (GPa) = 53.92911 58.49118 56.21014
# Shear Modulus (GPa) = 32.05783 34.08679 33.07231
#
# Velocity S-wave (km/s) = 3.95993 4.08332 4.02210
# Velocity P-wave (km/s) = 6.87659 7.13038 7.00463
#
# Compressibility (1/GPa) = 0.01854286
#
# Stress axis : x y z
#
# Youngs Moduli (GPa) = 62.32230 84.64889 102.54420
#
# Poissons Ratio (x) = 0.57331 -0.02972
# Poissons Ratio (y) = 0.42209 0.31288
# Poissons Ratio (z) = -0.01807 0.25828
#
# Static dielectric constant tensor:
#      x y z
#    x 3.624200 0.000000 0.000000 
#    y 0.000000 3.854290 0.000000 
#    z 0.000000 0.000000 4.329370 
# 
# 
# High freq. dielectric constant tensor:
#      x y z
#    x 1.791400 0.000000 0.000000 
#    y 0.000000 1.794110 0.000000 
#    z 0.000000 0.000000 1.822200 
# 
# From -- ./inp_files/2906.got.cif
#   From: 2010.03.12/outbox.cif.g09.slc.cpg/sg53_2_cif.got.tgz:2906.got - 2010.04.16 14:36:59.
