data_PCOD8221712
_publ_section_title
;
Structure prediction by ZEFSAII (Michael W. Deem and Ramdas Pophale) SiO2 
 PCOD8221712
Probable space group: P M N A
;
_chemical_formula_sum "Si O2"
_cell_formula_units_Z 64
_cell_length_a 14.450776
_cell_length_b 9.023440
_cell_length_c 23.273264
_cell_angle_alpha 90.000000
_cell_angle_beta 90.000000
_cell_angle_gamma 90.000000
_cell_volume 3034.733788
_symmetry_space_group_name_H-M "P M N A"
_symmetry_group_IT_number 53
_symmetry_cell_setting 'orthorhombic'
loop_
_space_group_symop_operation_xyz
x,y,z
1/2-x,-y,1/2+z
x,-y,-z
1/2-x,y,1/2-z
-x,-y,-z
1/2+x,y,1/2-z
-x,y,z
1/2+x,-y,1/2+z
loop_
_atom_site_type_symbol
_atom_site_label
_atom_site_fract_x
_atom_site_fract_y
_atom_site_fract_z
Si Si1 0.392461 0.896735 0.656676
Si Si2 0.765508 0.902172 0.312504
Si Si3 0.298669 0.319779 0.900566
Si Si4 0.894551 0.628167 0.614208
Si Si5 0.396611 0.166297 0.215947
Si Si6 0.603972 0.685135 0.560214
Si Si7 0.392028 0.829231 0.993415
Si Si8 0.104674 0.346909 0.932733
O O1 0.500000 0.941420 0.645307
O O2 0.382294 0.803306 0.716133
O O3 0.347017 0.797149 0.605071
O O4 0.333340 0.048282 0.660020
O O5 0.750000 0.828762 0.250000
O O6 0.829537 0.788623 0.349182
O O7 0.824215 0.050053 0.307046
O O8 0.327108 0.489155 0.892182
O O9 0.336037 0.269941 0.961905
O O10 0.187691 0.287515 0.893936
O O11 0.882061 0.684062 0.679413
O O12 0.869229 0.760560 0.569308
O O13 0.000000 0.575922 0.602840
O O14 0.500000 0.104587 0.204778
O O15 0.500000 0.684848 0.582742
O O16 0.637491 0.516986 0.561261
O O17 0.610231 0.738080 0.494101
O O18 0.500000 0.816966 0.008066
O O19 0.359545 0.000000 0.000000
O O20 0.000000 0.329716 0.907443
#
# Coordination Sequence:
#
# PCOD8221712 Si02
#       8
#     8   8   8   8   8   8   8   8
#     4   9  18  36  64  86 108 149 200 247 290 340
#     4  10  23  41  56  84 118 155 199 245 291 345
#     4  12  24  36  59  85 119 159 196 234 294 359
#     4  10  22  39  60  91 122 148 191 247 297 350
#     4   9  19  38  63  86 111 149 197 245 297 350
#     4   8  16  33  55  81 109 142 189 237 284 337
#     4  10  22  40  62  89 120 154 194 241 293 354
#     4   9  20  35  52  81 120 155 187 230 289 353
#
# _framework density 21.089165999999999
#
# number of rings (size 3 to 8) (size 9 to 14) (size 15 to 20)
#    0.000    2.375    0.000    2.250    5.250    4.500 
#    2.250    0.000    0.000    2.625    0.000    0.000 
#    0.000    0.000    0.000    0.000    0.000    0.000 
#
# Total GULP energy -792934.461339 kJ/mol
# GULP energy per Si atom -12389.600958 kJ/mol
# Density = 2.104117 g / cm^3
# Si number density = 21.089166 Si / 1000 Ang^3
#
#
#
# Elastic Constant Matrix: (Units=GPa)
#
#
# Indices 1 2 3 4 5 6 
#
# 1 81.8854 29.7832 20.1607 0.0000 0.0000 0.0000
# 2 29.7832 91.6752 41.8328 0.0000 0.0000 0.0000
# 3 20.1607 41.8328 70.7090 0.0000 0.0000 0.0000
# 4 0.0000 0.0000 0.0000 27.0812 0.0000 0.0000
# 5 0.0000 0.0000 0.0000 0.0000 23.7495 0.0000
# 6 0.0000 0.0000 0.0000 0.0000 0.0000 17.0490
#
#
#
# Elastic Compliance Matrix: (Units=1/GPa)
#
#
# Indices 1 2 3 4 5 6 
#
# 1 0.014011 -0.003738 -0.001783 0.000000 0.000000 0.000000
# 2 -0.003738 0.015939 -0.008364 0.000000 0.000000 0.000000
# 3 -0.001783 -0.008364 0.019599 0.000000 0.000000 0.000000
# 4 0.000000 0.000000 0.000000 0.036926 0.000000 0.000000
# 5 0.000000 0.000000 0.000000 0.000000 0.042106 0.000000
# 6 0.000000 0.000000 0.000000 0.000000 0.000000 0.058655
#
#
# Mechanical properties :
#
#
# Convention : Reuss Voigt Hill
#
# Bulk Modulus (GPa) = 45.91713 47.53591 46.72652
# Shear Modulus (GPa) = 22.49555 23.74215 23.11885
#
# Velocity S-wave (km/s) = 3.26956 3.35893 3.31455
# Velocity P-wave (km/s) = 6.00612 6.13454 6.07067
#
# Compressibility (1/GPa) = 0.02177837
#
# Stress axis : x y z
#
# Youngs Moduli (GPa) = 71.37330 62.73856 51.02225
#
# Poissons Ratio (x) = 0.23452 0.09099
# Poissons Ratio (y) = 0.26680 0.42676
# Poissons Ratio (z) = 0.12728 0.52475
#
# Static dielectric constant tensor:
#      x y z
#    x 3.935800 0.000000 0.000000 
#    y 0.000000 3.586970 0.000000 
#    z 0.000000 0.000000 3.965950 
# 
# 
# High freq. dielectric constant tensor:
#      x y z
#    x 1.834380 0.000000 0.000000 
#    y 0.000000 1.803680 0.000000 
#    z 0.000000 0.000000 1.823850 
# 
# From -- ./inp_files/35322.got.cif
#   From: 2010.03.12/outbox.cif.g09.slc.cpg/sg53_18_cif.got.tgz:35322.got - 2010.04.16 14:36:59.
