data_PCOD8221819
_publ_section_title
;
Structure prediction by ZEFSAII (Michael W. Deem and Ramdas Pophale) SiO2 
 PCOD8221819
Probable space group: P M N A
;
_chemical_formula_sum "Si O2"
_cell_formula_units_Z 56
_cell_length_a 19.372348
_cell_length_b 9.124610
_cell_length_c 14.632808
_cell_angle_alpha 90.000000
_cell_angle_beta 90.000000
_cell_angle_gamma 90.000000
_cell_volume 2586.570066
_symmetry_space_group_name_H-M "P M N A"
_symmetry_group_IT_number 53
_symmetry_cell_setting 'orthorhombic'
loop_
_space_group_symop_operation_xyz
x,y,z
1/2-x,-y,1/2+z
x,-y,-z
1/2-x,y,1/2-z
-x,-y,-z
1/2+x,y,1/2-z
-x,y,z
1/2+x,-y,1/2+z
loop_
_atom_site_type_symbol
_atom_site_label
_atom_site_fract_x
_atom_site_fract_y
_atom_site_fract_z
Si Si1 0.756229 0.137286 0.355430
Si Si2 0.577935 0.421199 0.403787
Si Si3 0.125244 0.081177 0.587467
Si Si4 0.787803 0.339320 0.514251
Si Si5 0.188384 0.382847 0.822971
Si Si6 0.892052 0.919561 0.908529
Si Si7 0.073282 0.152925 0.771181
O O1 0.750000 0.183369 0.250000
O O2 0.767267 0.285112 0.413229
O O3 0.689090 0.058841 0.394552
O O4 0.815647 0.019393 0.369037
O O5 0.591188 0.500000 0.500000
O O6 0.500000 0.456011 0.369267
O O7 0.635877 0.479088 0.331917
O O8 0.585482 0.248107 0.413920
O O9 0.154807 0.237911 0.558452
O O10 0.069183 0.111366 0.664294
O O11 0.091660 0.000000 0.500000
O O12 0.819966 0.500000 0.500000
O O13 0.720123 0.345590 0.578291
O O14 0.250000 0.412325 0.750000
O O15 0.141337 0.245898 0.793046
O O16 0.928437 0.999534 0.824453
O O17 0.916189 0.000000 0.000000
O O18 0.000000 0.234625 0.793057
#
# Coordination Sequence:
#
# PCOD8221819 Si02
#       7
#     8   8   8   8   8   8   8
#     4  11  21  38  65  96 133 168 217 277 333 381
#     4  11  25  45  65  96 143 188 227 275 344 412
#     4  10  22  43  64  91 130 171 217 280 333 388
#     4  11  23  39  64  99 132 165 217 273 330 389
#     4  12  24  43  69  99 137 181 227 278 335 405
#     4  12  24  40  67 101 139 180 222 272 332 408
#     4  12  25  43  68  99 134 179 228 278 342 404
#
# _framework density 21.650293000000001
#
# number of rings (size 3 to 8) (size 9 to 14) (size 15 to 20)
#    0.000    0.714    2.857    6.857    0.000    4.857 
#    0.000    0.000    0.000    0.429    0.000    0.000 
#    0.000    0.000    0.000    0.000    0.000    0.000 
#
# Total GULP energy -694325.925331 kJ/mol
# GULP energy per Si atom -12398.677238 kJ/mol
# Density = 2.160102 g / cm^3
# Si number density = 21.650293 Si / 1000 Ang^3
#
#
#
# Elastic Constant Matrix: (Units=GPa)
#
#
# Indices 1 2 3 4 5 6 
#
# 1 106.8389 46.6159 31.8778 0.0000 0.0000 0.0000
# 2 46.6159 148.9424 76.6586 0.0000 0.0000 0.0000
# 3 31.8778 76.6586 148.6981 0.0000 0.0000 0.0000
# 4 0.0000 0.0000 0.0000 27.6303 0.0000 0.0000
# 5 0.0000 0.0000 0.0000 0.0000 51.7892 0.0000
# 6 0.0000 0.0000 0.0000 0.0000 0.0000 37.8729
#
#
#
# Elastic Compliance Matrix: (Units=1/GPa)
#
#
# Indices 1 2 3 4 5 6 
#
# 1 0.010908 -0.003009 -0.000787 0.000000 0.000000 0.000000
# 2 -0.003009 0.009969 -0.004494 0.000000 0.000000 0.000000
# 3 -0.000787 -0.004494 0.009211 0.000000 0.000000 0.000000
# 4 0.000000 0.000000 0.000000 0.036192 0.000000 0.000000
# 5 0.000000 0.000000 0.000000 0.000000 0.019309 0.000000
# 6 0.000000 0.000000 0.000000 0.000000 0.000000 0.026404
#
#
# Mechanical properties :
#
#
# Convention : Reuss Voigt Hill
#
# Bulk Modulus (GPa) = 74.03728 79.42044 76.72886
# Shear Modulus (GPa) = 37.57285 40.08029 38.82657
#
# Velocity S-wave (km/s) = 4.17038 4.30729 4.23939
# Velocity P-wave (km/s) = 7.58028 7.84219 7.71235
#
# Compressibility (1/GPa) = 0.01350671
#
# Stress axis : x y z
#
# Youngs Moduli (GPa) = 91.67985 100.31342 108.56894
#
# Poissons Ratio (x) = 0.30180 0.08548
# Poissons Ratio (y) = 0.27583 0.48793
# Poissons Ratio (z) = 0.07218 0.45083
#
# Static dielectric constant tensor:
#      x y z
#    x 3.893710 0.000000 0.000000 
#    y 0.000000 3.901360 0.000000 
#    z 0.000000 0.000000 4.177180 
# 
# 
# High freq. dielectric constant tensor:
#      x y z
#    x 1.843170 0.000000 0.000000 
#    y 0.000000 1.855930 0.000000 
#    z 0.000000 0.000000 1.856080 
# 
# From -- ./inp_files/24345.got.cif
#   From: 2010.03.12/outbox.cif.g09.slc.cpg/sg53_13_cif.got.tgz:24345.got - 2010.04.16 14:36:59.
