data_PCOD8221852
_publ_section_title
;
Structure prediction by ZEFSAII (Michael W. Deem and Ramdas Pophale) SiO2 
 PCOD8221852
Probable space group: P M N A
;
_chemical_formula_sum "Si O2"
_cell_formula_units_Z 32
_cell_length_a 13.368185
_cell_length_b 5.026604
_cell_length_c 19.064667
_cell_angle_alpha 90.000000
_cell_angle_beta 90.000000
_cell_angle_gamma 90.000000
_cell_volume 1281.080272
_symmetry_space_group_name_H-M "P M N A"
_symmetry_group_IT_number 53
_symmetry_cell_setting 'orthorhombic'
loop_
_space_group_symop_operation_xyz
x,y,z
1/2-x,-y,1/2+z
x,-y,-z
1/2-x,y,1/2-z
-x,-y,-z
1/2+x,y,1/2-z
-x,y,z
1/2+x,-y,1/2+z
loop_
_atom_site_type_symbol
_atom_site_label
_atom_site_fract_x
_atom_site_fract_y
_atom_site_fract_z
Si Si1 0.885976 0.797674 0.560674
Si Si2 0.387862 0.854443 0.198080
Si Si3 0.885010 0.953600 0.854435
Si Si4 0.237332 0.439061 0.880269
O O1 0.813398 0.538329 0.558352
O O2 0.000000 0.701549 0.550304
O O3 0.853964 0.000000 0.500000
O O4 0.869234 0.931123 0.636652
O O5 0.500000 0.736270 0.192913
O O6 0.369337 0.985029 0.272831
O O7 0.308635 0.616644 0.187335
O O8 0.822043 0.167419 0.900632
O O9 0.000000 0.968488 0.877592
O O10 0.846952 0.656638 0.865599
#
# Coordination Sequence:
#
# PCOD8221852 Si02
#       4
#     8   8   8   8
#     4  10  23  43  67 100 139 175 215 266 329 404
#     4  10  23  40  64 101 135 169 212 268 333 398
#     4  11  26  42  65  98 137 172 219 276 328 385
#     4  12  23  42  68  96 133 174 221 264 335 391
#
# _framework density 24.978919999999999
#
# number of rings (size 3 to 8) (size 9 to 14) (size 15 to 20)
#    0.000    1.250    2.500    2.250    7.000    1.000 
#    0.000    3.750    0.000    4.500    0.000    0.000 
#    0.000    0.000    0.000    0.000    0.000    0.000 
#
# Total GULP energy -396707.403282 kJ/mol
# GULP energy per Si atom -12397.106353 kJ/mol
# Density = 2.492207 g / cm^3
# Si number density = 24.978920 Si / 1000 Ang^3
#
#
#
# Elastic Constant Matrix: (Units=GPa)
#
#
# Indices 1 2 3 4 5 6 
#
# 1 143.9716 43.4601 -2.0312 0.0000 0.0000 0.0000
# 2 43.4601 113.6833 2.3436 0.0000 0.0000 0.0000
# 3 -2.0312 2.3436 47.6454 0.0000 0.0000 0.0000
# 4 0.0000 0.0000 0.0000 28.3348 0.0000 0.0000
# 5 0.0000 0.0000 0.0000 0.0000 8.4909 0.0000
# 6 0.0000 0.0000 0.0000 0.0000 0.0000 16.7623
#
#
#
# Elastic Compliance Matrix: (Units=1/GPa)
#
#
# Indices 1 2 3 4 5 6 
#
# 1 0.007863 -0.003016 0.000484 0.000000 0.000000 0.000000
# 2 -0.003016 0.009962 -0.000619 0.000000 0.000000 0.000000
# 3 0.000484 -0.000619 0.021039 0.000000 0.000000 0.000000
# 4 0.000000 0.000000 0.000000 0.035292 0.000000 0.000000
# 5 0.000000 0.000000 0.000000 0.000000 0.117773 0.000000
# 6 0.000000 0.000000 0.000000 0.000000 0.000000 0.059658
#
#
# Mechanical properties :
#
#
# Convention : Reuss Voigt Hill
#
# Bulk Modulus (GPa) = 30.71006 43.64947 37.17976
# Shear Modulus (GPa) = 18.60509 28.15279 23.37894
#
# Velocity S-wave (km/s) = 2.73212 3.36082 3.06264
# Velocity P-wave (km/s) = 4.71951 5.70724 5.23671
#
# Compressibility (1/GPa) = 0.03256262
#
# Stress axis : x y z
#
# Youngs Moduli (GPa) = 127.17719 100.38063 47.52986
#
# Poissons Ratio (x) = 0.30274 -0.02298
# Poissons Ratio (y) = 0.38356 0.02940
# Poissons Ratio (z) = -0.06150 0.06209
#
# Static dielectric constant tensor:
#      x y z
#    x 5.050590 0.000000 0.000000 
#    y 0.000000 4.578660 0.000000 
#    z 0.000000 0.000000 4.287520 
# 
# 
# High freq. dielectric constant tensor:
#      x y z
#    x 2.020560 0.000000 0.000000 
#    y 0.000000 1.996350 0.000000 
#    z 0.000000 0.000000 1.970090 
# 
# From -- ./inp_files/32105.got.cif
#   From: 2010.03.12/outbox.cif.g09.slc.cpg/sg53_17_cif.got.tgz:32105.got - 2010.04.16 14:36:59.
