data_PCOD8221180
_publ_section_title
;
Structure prediction by ZEFSAII (Michael W. Deem and Ramdas Pophale) SiO2 
 PCOD8221180
Probable space group: P M N A
;
_chemical_formula_sum "Si O2"
_cell_formula_units_Z 40
_cell_length_a 8.749868
_cell_length_b 25.695858
_cell_length_c 9.103888
_cell_angle_alpha 90.000000
_cell_angle_beta 90.000000
_cell_angle_gamma 90.000000
_cell_volume 2046.875987
_symmetry_space_group_name_H-M "P M N A"
_symmetry_group_IT_number 53
_symmetry_cell_setting 'orthorhombic'
loop_
_space_group_symop_operation_xyz
x,y,z
1/2-x,-y,1/2+z
x,-y,-z
1/2-x,y,1/2-z
-x,-y,-z
1/2+x,y,1/2-z
-x,y,z
1/2+x,-y,1/2+z
loop_
_atom_site_type_symbol
_atom_site_label
_atom_site_fract_x
_atom_site_fract_y
_atom_site_fract_z
Si Si1 0.819094 0.950485 0.908362
Si Si2 0.178996 0.743054 0.410107
Si Si3 0.319100 0.349687 0.409591
Si Si4 0.319662 0.549491 0.409968
Si Si5 0.178866 0.155499 0.407852
O O1 0.750000 0.958830 0.750000
O O2 0.752021 0.897041 0.975511
O O3 0.000000 0.946082 0.901427
O O4 0.763988 0.000000 0.000000
O O5 0.250000 0.738228 0.250000
O O6 0.254910 0.702236 0.518765
O O7 0.214257 0.799733 0.475198
O O8 0.000000 0.731586 0.399987
O O9 0.250000 0.357555 0.250000
O O10 0.500000 0.345359 0.396743
O O11 0.267115 0.398458 0.507470
O O12 0.256865 0.500000 0.500000
O O13 0.250000 0.549257 0.250000
O O14 0.500000 0.546641 0.394413
O O15 0.250000 0.169833 0.250000
O O16 0.000000 0.147110 0.383783
#
# Coordination Sequence:
#
# PCOD8221180 Si02
#       5
#     8   8   8   8   8
#     4  10  21  36  56  82 111 145 184 227 276 330
#     4  11  24  40  59  85 116 150 189 235 286 338
#     4  11  23  39  61  87 116 152 193 236 285 341
#     4  10  22  39  59  86 118 152 192 237 285 338
#     4  10  21  37  58  82 109 145 186 229 278 332
#
# _framework density 19.541975000000001
#
# number of rings (size 3 to 8) (size 9 to 14) (size 15 to 20)
#    0.000    1.600    0.000    5.400    0.000   10.800 
#    0.000    4.000    0.000    0.000    0.000    0.000 
#    0.000    0.000    0.000    0.000    0.000    0.000 
#
# Total GULP energy -496149.231595 kJ/mol
# GULP energy per Si atom -12403.730790 kJ/mol
# Density = 1.949750 g / cm^3
# Si number density = 19.541975 Si / 1000 Ang^3
#
#
#
# Elastic Constant Matrix: (Units=GPa)
#
#
# Indices 1 2 3 4 5 6 
#
# 1 85.2118 59.9238 48.5654 0.0000 0.0000 0.0000
# 2 59.9238 147.8358 73.9151 0.0000 0.0000 0.0000
# 3 48.5654 73.9151 138.0453 0.0000 0.0000 0.0000
# 4 0.0000 0.0000 0.0000 46.2598 0.0000 0.0000
# 5 0.0000 0.0000 0.0000 0.0000 32.3619 0.0000
# 6 0.0000 0.0000 0.0000 0.0000 0.0000 12.4557
#
#
#
# Elastic Compliance Matrix: (Units=1/GPa)
#
#
# Indices 1 2 3 4 5 6 
#
# 1 0.017392 -0.005449 -0.003201 0.000000 0.000000 0.000000
# 2 -0.005449 0.010945 -0.003943 0.000000 0.000000 0.000000
# 3 -0.003201 -0.003943 0.010481 0.000000 0.000000 0.000000
# 4 0.000000 0.000000 0.000000 0.021617 0.000000 0.000000
# 5 0.000000 0.000000 0.000000 0.000000 0.030901 0.000000
# 6 0.000000 0.000000 0.000000 0.000000 0.000000 0.080285
#
#
# Mechanical properties :
#
#
# Convention : Reuss Voigt Hill
#
# Bulk Modulus (GPa) = 73.35987 81.76684 77.56335
# Shear Modulus (GPa) = 24.83239 30.79471 27.81355
#
# Velocity S-wave (km/s) = 3.56858 3.97397 3.77672
# Velocity P-wave (km/s) = 7.38924 7.93657 7.66779
#
# Compressibility (1/GPa) = 0.01363143
#
# Stress axis : x y z
#
# Youngs Moduli (GPa) = 57.49820 91.36989 95.40765
#
# Poissons Ratio (x) = 0.49790 0.30538
# Poissons Ratio (y) = 0.31332 0.37620
# Poissons Ratio (z) = 0.18404 0.36028
#
# Static dielectric constant tensor:
#      x y z
#    x 3.670360 0.000000 0.000000 
#    y 0.000000 4.031070 0.000000 
#    z 0.000000 0.000000 3.580580 
# 
# 
# High freq. dielectric constant tensor:
#      x y z
#    x 1.772660 0.000000 0.000000 
#    y 0.000000 1.782280 0.000000 
#    z 0.000000 0.000000 1.765600 
# 
# From -- ./inp_files/6302.got.cif
#   From: 2010.03.12/outbox.cif.g09.slc.cpg/sg53_4_cif.got.tgz:6302.got - 2010.04.16 14:36:59.
