data_PCOD8221448
_publ_section_title
;
Structure prediction by ZEFSAII (Michael W. Deem and Ramdas Pophale) SiO2 
 PCOD8221448
Probable space group: P M N A
;
_chemical_formula_sum "Si O2"
_cell_formula_units_Z 64
_cell_length_a 18.613319
_cell_length_b 29.884443
_cell_length_c 5.404447
_cell_angle_alpha 90.000000
_cell_angle_beta 90.000000
_cell_angle_gamma 90.000000
_cell_volume 3006.216460
_symmetry_space_group_name_H-M "P M N A"
_symmetry_group_IT_number 53
_symmetry_cell_setting 'orthorhombic'
loop_
_space_group_symop_operation_xyz
x,y,z
1/2-x,-y,1/2+z
x,-y,-z
1/2-x,y,1/2-z
-x,-y,-z
1/2+x,y,1/2-z
-x,y,z
1/2+x,-y,1/2+z
loop_
_atom_site_type_symbol
_atom_site_label
_atom_site_fract_x
_atom_site_fract_y
_atom_site_fract_z
Si Si1 0.832237 0.472590 0.752535
Si Si2 0.080612 0.703586 0.014571
Si Si3 0.179487 0.332238 0.374932
Si Si4 0.581138 0.387043 0.824675
Si Si5 0.417919 0.119494 0.549899
Si Si6 0.292116 0.052437 0.501429
Si Si7 0.822815 0.246202 0.646460
Si Si8 0.917475 0.174198 0.450164
O O1 0.849748 0.500000 0.500000
O O2 0.750000 0.455381 0.750000
O O3 0.886933 0.431684 0.793027
O O4 0.846350 0.500000 0.000000
O O5 0.127914 0.700345 0.774256
O O6 0.000000 0.716229 0.940540
O O7 0.083760 0.655264 0.145110
O O8 0.111984 0.745569 0.162917
O O9 0.250000 0.352869 0.250000
O O10 0.134145 0.375647 0.450025
O O11 0.205402 0.296127 0.575195
O O12 0.500000 0.395628 0.918324
O O13 0.500000 0.102781 0.558722
O O14 0.368807 0.076255 0.514812
O O15 0.398858 0.144633 0.806699
O O16 0.404679 0.149840 0.309150
O O17 0.250000 0.066456 0.750000
O O18 0.307860 0.000000 0.500000
O O19 0.250000 0.066635 0.250000
O O20 0.750000 0.222589 0.750000
O O21 0.859745 0.214817 0.440869
O O22 0.000000 0.191181 0.467239
#
# Coordination Sequence:
#
# PCOD8221448 Si02
#       8
#     8   8   8   8   8   8   8   8
#     4  10  24  43  66  96 128 166 208 251 306 369
#     4  10  22  40  61  88 122 156 199 253 309 366
#     4  11  23  38  64  92 121 160 206 261 308 369
#     4  10  24  41  63  93 123 160 203 252 311 369
#     4  10  22  41  62  90 123 166 217 262 317 384
#     4  10  21  38  62  93 127 163 206 262 327 388
#     4  11  23  39  57  89 122 160 211 258 310 371
#     4  10  23  40  61  88 125 169 213 263 318 375
#
# _framework density 21.28922
#
# number of rings (size 3 to 8) (size 9 to 14) (size 15 to 20)
#    0.000    1.750    1.250    1.500    5.250    4.250 
#    0.000    0.000    0.000    4.500    0.000    0.000 
#    0.000    0.000    0.000    0.000    0.000    0.000 
#
# Total GULP energy -793156.524677 kJ/mol
# GULP energy per Si atom -12393.070698 kJ/mol
# Density = 2.124076 g / cm^3
# Si number density = 21.289220 Si / 1000 Ang^3
#
#
#
# Elastic Constant Matrix: (Units=GPa)
#
#
# Indices 1 2 3 4 5 6 
#
# 1 153.3491 55.2545 34.4305 0.0000 0.0000 0.0000
# 2 55.2545 72.2310 20.7782 0.0000 0.0000 0.0000
# 3 34.4305 20.7782 113.2731 0.0000 0.0000 0.0000
# 4 0.0000 0.0000 0.0000 23.2343 0.0000 0.0000
# 5 0.0000 0.0000 0.0000 0.0000 28.8764 0.0000
# 6 0.0000 0.0000 0.0000 0.0000 0.0000 40.6347
#
#
#
# Elastic Compliance Matrix: (Units=1/GPa)
#
#
# Indices 1 2 3 4 5 6 
#
# 1 0.009270 -0.006630 -0.001601 0.000000 0.000000 0.000000
# 2 -0.006630 0.019358 -0.001536 0.000000 0.000000 0.000000
# 3 -0.001601 -0.001536 0.009597 0.000000 0.000000 0.000000
# 4 0.000000 0.000000 0.000000 0.043040 0.000000 0.000000
# 5 0.000000 0.000000 0.000000 0.000000 0.034630 0.000000
# 6 0.000000 0.000000 0.000000 0.000000 0.000000 0.024610
#
#
# Mechanical properties :
#
#
# Convention : Reuss Voigt Hill
#
# Bulk Modulus (GPa) = 53.50490 62.19774 57.85132
# Shear Modulus (GPa) = 30.07181 33.77509 31.92345
#
# Velocity S-wave (km/s) = 3.76245 3.98740 3.87656
# Velocity P-wave (km/s) = 6.63790 7.10480 6.87531
#
# Compressibility (1/GPa) = 0.01868988
#
# Stress axis : x y z
#
# Youngs Moduli (GPa) = 107.87908 51.65771 104.20298
#
# Poissons Ratio (x) = 0.34251 0.16687
# Poissons Ratio (y) = 0.71527 0.16002
# Poissons Ratio (z) = 0.17275 0.07933
#
# Static dielectric constant tensor:
#      x y z
#    x 3.978270 0.000000 0.000000 
#    y 0.000000 3.570370 0.000000 
#    z 0.000000 0.000000 3.984000 
# 
# 
# High freq. dielectric constant tensor:
#      x y z
#    x 1.848810 0.000000 0.000000 
#    y 0.000000 1.818930 0.000000 
#    z 0.000000 0.000000 1.841840 
# 
# From -- ./inp_files/2340.got.cif
#   From: 2010.03.12/outbox.cif.g09.slc.cpg/sg53_2_cif.got.tgz:2340.got - 2010.04.16 14:36:59.
