data_PCOD8221543
_publ_section_title
;
Structure prediction by ZEFSAII (Michael W. Deem and Ramdas Pophale) SiO2 
 PCOD8221543
Probable space group: P M N A
;
_chemical_formula_sum "Si O2"
_cell_formula_units_Z 32
_cell_length_a 15.191760
_cell_length_b 6.560442
_cell_length_c 13.245434
_cell_angle_alpha 90.000000
_cell_angle_beta 90.000000
_cell_angle_gamma 90.000000
_cell_volume 1320.101681
_symmetry_space_group_name_H-M "P M N A"
_symmetry_group_IT_number 53
_symmetry_cell_setting 'orthorhombic'
loop_
_space_group_symop_operation_xyz
x,y,z
1/2-x,-y,1/2+z
x,-y,-z
1/2-x,y,1/2-z
-x,-y,-z
1/2+x,y,1/2-z
-x,y,z
1/2+x,-y,1/2+z
loop_
_atom_site_type_symbol
_atom_site_label
_atom_site_fract_x
_atom_site_fract_y
_atom_site_fract_z
Si Si1 0.595934 0.115195 0.346913
Si Si2 0.322761 0.705269 0.320978
Si Si3 0.401428 0.375143 0.168485
Si Si4 0.254286 0.763055 0.975756
O O1 0.500000 0.171739 0.392954
O O2 0.597109 0.160288 0.227211
O O3 0.670721 0.246367 0.401678
O O4 0.608381 0.873154 0.359536
O O5 0.250000 0.814046 0.250000
O O6 0.368102 0.530304 0.255379
O O7 0.270702 0.632254 0.422918
O O8 0.500000 0.437770 0.132491
O O9 0.339299 0.347441 0.072141
O O10 0.276607 0.000000 0.000000
#
# Coordination Sequence:
#
# PCOD8221543 Si02
#       4
#     8   8   8   8
#     4  10  21  39  65  97 131 168 217 273 330 395
#     4  11  23  40  64  91 128 176 219 268 330 396
#     4  11  24  42  66  98 135 175 223 276 332 398
#     4  10  22  42  68  95 131 178 223 275 337 399
#
# _framework density 24.240556999999999
#
# number of rings (size 3 to 8) (size 9 to 14) (size 15 to 20)
#    0.000    1.500    0.000    6.000    0.000   10.000 
#    0.000    6.250    0.000    1.500    0.000    0.000 
#    0.000    0.000    0.000    0.000    0.000    0.000 
#
# Total GULP energy -396613.215820 kJ/mol
# GULP energy per Si atom -12394.162994 kJ/mol
# Density = 2.418538 g / cm^3
# Si number density = 24.240557 Si / 1000 Ang^3
#
#
#
# Elastic Constant Matrix: (Units=GPa)
#
#
# Indices 1 2 3 4 5 6 
#
# 1 210.5697 60.6206 86.9231 0.0000 0.0000 0.0000
# 2 60.6206 61.8127 26.8818 0.0000 0.0000 0.0000
# 3 86.9231 26.8818 120.0564 0.0000 0.0000 0.0000
# 4 0.0000 0.0000 0.0000 38.8194 0.0000 0.0000
# 5 0.0000 0.0000 0.0000 0.0000 32.1164 0.0000
# 6 0.0000 0.0000 0.0000 0.0000 0.0000 31.2917
#
#
#
# Elastic Compliance Matrix: (Units=1/GPa)
#
#
# Indices 1 2 3 4 5 6 
#
# 1 0.008527 -0.006290 -0.004765 0.000000 0.000000 0.000000
# 2 -0.006290 0.022563 -0.000498 0.000000 0.000000 0.000000
# 3 -0.004765 -0.000498 0.011891 0.000000 0.000000 0.000000
# 4 0.000000 0.000000 0.000000 0.025760 0.000000 0.000000
# 5 0.000000 0.000000 0.000000 0.000000 0.031137 0.000000
# 6 0.000000 0.000000 0.000000 0.000000 0.000000 0.031957
#
#
# Mechanical properties :
#
#
# Convention : Reuss Voigt Hill
#
# Bulk Modulus (GPa) = 50.31549 82.36554 66.34051
# Shear Modulus (GPa) = 30.94683 34.97972 32.96328
#
# Velocity S-wave (km/s) = 3.57691 3.80284 3.69160
# Velocity P-wave (km/s) = 6.15311 7.30303 6.75260
#
# Compressibility (1/GPa) = 0.01987460
#
# Stress axis : x y z
#
# Youngs Moduli (GPa) = 117.27453 44.31974 84.09673
#
# Poissons Ratio (x) = 0.27878 0.40074
# Poissons Ratio (y) = 0.73768 0.04187
# Poissons Ratio (z) = 0.55885 0.02207
#
# Static dielectric constant tensor:
#      x y z
#    x 4.417590 0.000000 0.000000 
#    y 0.000000 4.202020 0.000000 
#    z 0.000000 0.000000 4.414470 
# 
# 
# High freq. dielectric constant tensor:
#      x y z
#    x 1.964120 0.000000 0.000000 
#    y 0.000000 1.966480 0.000000 
#    z 0.000000 0.000000 1.965960 
# 
# From -- ./inp_files/15518.got.cif
#   From: 2010.03.12/outbox.cif.g09.slc.cpg/sg53_8_cif.got.tgz:15518.got - 2010.04.16 14:36:59.
