data_PCOD8221029
_publ_section_title
;
Structure prediction by ZEFSAII (Michael W. Deem and Ramdas Pophale) SiO2 
 PCOD8221029
Probable space group: P M N A
;
_chemical_formula_sum "Si O2"
_cell_formula_units_Z 40
_cell_length_a 9.077249
_cell_length_b 9.892250
_cell_length_c 22.523386
_cell_angle_alpha 90.000000
_cell_angle_beta 90.000000
_cell_angle_gamma 90.000000
_cell_volume 2022.474302
_symmetry_space_group_name_H-M "P M N A"
_symmetry_group_IT_number 53
_symmetry_cell_setting 'orthorhombic'
loop_
_space_group_symop_operation_xyz
x,y,z
1/2-x,-y,1/2+z
x,-y,-z
1/2-x,y,1/2-z
-x,-y,-z
1/2+x,y,1/2-z
-x,y,z
1/2+x,-y,1/2+z
loop_
_atom_site_type_symbol
_atom_site_label
_atom_site_fract_x
_atom_site_fract_y
_atom_site_fract_z
Si Si1 0.165729 0.248066 0.882834
Si Si2 0.329083 0.525975 0.187218
Si Si3 0.169124 0.010994 0.192373
Si Si4 0.329077 0.152820 0.488830
Si Si5 0.327894 0.244139 0.127405
O O1 0.278881 0.344458 0.849961
O O2 0.000000 0.298832 0.869398
O O3 0.185412 0.094889 0.860709
O O4 0.195817 0.244521 0.953020
O O5 0.250000 0.515663 0.250000
O O6 0.500000 0.542310 0.200977
O O7 0.294750 0.396499 0.147026
O O8 0.250000 0.950471 0.250000
O O9 0.246166 0.149731 0.174350
O O10 0.000000 0.041074 0.207773
O O11 0.500000 0.150305 0.469175
O O12 0.233719 0.223466 0.438346
O O13 0.274089 0.000000 0.500000
O O14 0.500000 0.210141 0.128119
#
# Coordination Sequence:
#
# PCOD8221029 Si02
#       5
#     8   8   8   8   8
#     4  10  22  40  64  91 121 160 203 249 307 363
#     4  11  25  43  62  88 125 163 206 254 304 364
#     4  11  22  38  60  89 121 156 204 257 305 365
#     4  10  20  40  65  92 125 160 203 254 303 361
#     4  11  24  40  61  91 123 163 206 251 307 361
#
# _framework density 19.777754000000002
#
# number of rings (size 3 to 8) (size 9 to 14) (size 15 to 20)
#    0.000    1.400    2.000    3.000    0.000   10.000 
#    0.000    4.000    0.000    0.000    0.000    0.000 
#    0.000    0.000    0.000    0.000    0.000    0.000 
#
# Total GULP energy -496242.905091 kJ/mol
# GULP energy per Si atom -12406.072627 kJ/mol
# Density = 1.973274 g / cm^3
# Si number density = 19.777754 Si / 1000 Ang^3
#
#
#
# Elastic Constant Matrix: (Units=GPa)
#
#
# Indices 1 2 3 4 5 6 
#
# 1 112.5311 76.3311 55.9607 0.0000 0.0000 0.0000
# 2 76.3311 36.9322 36.1340 0.0000 0.0000 0.0000
# 3 55.9607 36.1340 111.9529 0.0000 0.0000 0.0000
# 4 0.0000 0.0000 0.0000 31.6154 0.0000 0.0000
# 5 0.0000 0.0000 0.0000 0.0000 38.4923 0.0000
# 6 0.0000 0.0000 0.0000 0.0000 0.0000 27.3371
#
#
#
# Elastic Compliance Matrix: (Units=1/GPa)
#
#
# Indices 1 2 3 4 5 6 
#
# 1 -0.020079 0.046299 -0.004907 0.000000 0.000000 0.000000
# 2 0.046299 -0.067188 -0.001457 0.000000 0.000000 0.000000
# 3 -0.004907 -0.001457 0.011856 0.000000 0.000000 0.000000
# 4 0.000000 0.000000 0.000000 0.031630 0.000000 0.000000
# 5 0.000000 0.000000 0.000000 0.000000 0.025979 0.000000
# 6 0.000000 0.000000 0.000000 0.000000 0.000000 0.036580
#
#
# Mechanical properties :
#
#
# Convention : Reuss Voigt Hill
#
# Bulk Modulus (GPa) = 224.30226 66.47420 145.38823
# Shear Modulus (GPa) = -83.88615 25.68832 -29.09892
#
# Velocity S-wave (km/s) = -6.51970 3.60786 -3.83991
# Velocity P-wave (km/s) = 7.54866 7.14417 7.34920
#
# Compressibility (1/GPa) = 0.00445827
#
# Stress axis : x y z
#
# Youngs Moduli (GPa) = -49.80449 -14.88358 84.34840
#
# Poissons Ratio (x) = 0.68910 0.41391
# Poissons Ratio (y) = 2.30591 0.12293
# Poissons Ratio (z) = -0.24440 -0.02169
#
# Static dielectric constant tensor:
#      x y z
#    x 3.669850 0.000000 0.000000 
#    y 0.000000 3.489060 0.000000 
#    z 0.000000 0.000000 3.722230 
# 
# 
# High freq. dielectric constant tensor:
#      x y z
#    x 1.776190 0.000000 0.000000 
#    y 0.000000 1.768360 0.000000 
#    z 0.000000 0.000000 1.787560 
# 
# From -- ./inp_files/33612.got.cif
#   From: 2010.03.12/outbox.cif.g09.slc.cpg/sg53_17_cif.got.tgz:33612.got - 2010.04.16 14:36:59.
