data_PCOD8221588
_publ_section_title
;
Structure prediction by ZEFSAII (Michael W. Deem and Ramdas Pophale) SiO2 
 PCOD8221588
Probable space group: P M N A
;
_chemical_formula_sum "Si O2"
_cell_formula_units_Z 48
_cell_length_a 15.477877
_cell_length_b 15.149388
_cell_length_c 9.816904
_cell_angle_alpha 90.000000
_cell_angle_beta 90.000000
_cell_angle_gamma 90.000000
_cell_volume 2301.871224
_symmetry_space_group_name_H-M "P M N A"
_symmetry_group_IT_number 53
_symmetry_cell_setting 'orthorhombic'
loop_
_space_group_symop_operation_xyz
x,y,z
1/2-x,-y,1/2+z
x,-y,-z
1/2-x,y,1/2-z
-x,-y,-z
1/2+x,y,1/2-z
-x,y,z
1/2+x,-y,1/2+z
loop_
_atom_site_type_symbol
_atom_site_label
_atom_site_fract_x
_atom_site_fract_y
_atom_site_fract_z
Si Si1 0.399516 0.228598 0.511326
Si Si2 0.596975 0.343183 0.767407
Si Si3 0.400207 0.805980 0.031103
Si Si4 0.095907 0.699242 0.733249
Si Si5 0.759761 0.917249 0.091828
Si Si6 0.323940 0.523276 0.846096
O O1 0.500000 0.193910 0.499358
O O2 0.396911 0.310795 0.613480
O O3 0.356228 0.267601 0.371296
O O4 0.336815 0.152966 0.569488
O O5 0.500000 0.360551 0.817046
O O6 0.636587 0.270316 0.869118
O O7 0.644803 0.435458 0.772547
O O8 0.500000 0.831677 0.068718
O O9 0.335609 0.887270 0.044845
O O10 0.393220 0.775653 0.876253
O O11 0.111401 0.605331 0.659885
O O12 0.000000 0.691863 0.789092
O O13 0.750000 0.943342 0.250000
O O14 0.786348 0.000000 0.000000
O O15 0.250000 0.561573 0.750000
O O16 0.297040 0.500000 0.000000
#
# Coordination Sequence:
#
# PCOD8221588 Si02
#       6
#     8   8   8   8   8   8
#     4  10  24  45  70  97 132 174 217 266 328 393
#     4  10  21  40  66  89 123 175 217 260 315 377
#     4  10  22  43  70  97 128 173 220 263 321 388
#     4  10  23  42  66  95 129 176 222 270 321 377
#     4  12  28  45  70 100 131 168 210 271 337 399
#     4  12  27  38  57  94 134 174 222 276 319 371
#
# _framework density 20.852599999999999
#
# number of rings (size 3 to 8) (size 9 to 14) (size 15 to 20)
#    0.000    1.333    3.333    0.500    9.333    1.333 
#    0.000    2.500    0.000    0.000    0.000    0.000 
#    0.000    0.000    0.000    0.000    0.000    0.000 
#
# Total GULP energy -594912.096333 kJ/mol
# GULP energy per Si atom -12394.002007 kJ/mol
# Density = 2.080514 g / cm^3
# Si number density = 20.852600 Si / 1000 Ang^3
#
#
#
# Elastic Constant Matrix: (Units=GPa)
#
#
# Indices 1 2 3 4 5 6 
#
# 1 73.1823 34.5493 28.5603 0.0000 0.0000 0.0000
# 2 34.5493 81.8065 31.1332 0.0000 0.0000 0.0000
# 3 28.5603 31.1332 150.0620 0.0000 0.0000 0.0000
# 4 0.0000 0.0000 0.0000 36.7073 0.0000 0.0000
# 5 0.0000 0.0000 0.0000 0.0000 -8.7918 0.0000
# 6 0.0000 0.0000 0.0000 0.0000 0.0000 15.4059
#
#
#
# Elastic Compliance Matrix: (Units=1/GPa)
#
#
# Indices 1 2 3 4 5 6 
#
# 1 0.017583 -0.006680 -0.001961 0.000000 0.000000 0.000000
# 2 -0.006680 0.015809 -0.002009 0.000000 0.000000 0.000000
# 3 -0.001961 -0.002009 0.007454 0.000000 0.000000 0.000000
# 4 0.000000 0.000000 0.000000 0.027243 0.000000 0.000000
# 5 0.000000 0.000000 0.000000 0.000000 -0.113742 0.000000
# 6 0.000000 0.000000 0.000000 0.000000 0.000000 0.064910
#
#
# Mechanical properties :
#
#
# Convention : Reuss Voigt Hill
#
# Bulk Modulus (GPa) = 51.15522 54.83739 52.99631
# Shear Modulus (GPa) = 106.22258 22.71814 64.47036
#
# Velocity S-wave (km/s) = 7.14495 3.30428 5.56635
# Velocity P-wave (km/s) = 9.62560 6.39628 8.17204
#
# Compressibility (1/GPa) = 0.01954835
#
# Stress axis : x y z
#
# Youngs Moduli (GPa) = 56.87254 63.25330 134.15969
#
# Poissons Ratio (x) = 0.42251 0.26304
# Poissons Ratio (y) = 0.37989 0.26948
# Poissons Ratio (z) = 0.11151 0.12705
#
# Static dielectric constant tensor:
#      x y z
#    x 3.969980 0.000000 0.000000 
#    y 0.000000 3.536120 0.000000 
#    z 0.000000 0.000000 3.909090 
# 
# 
# High freq. dielectric constant tensor:
#      x y z
#    x 1.814720 0.000000 0.000000 
#    y 0.000000 1.799200 0.000000 
#    z 0.000000 0.000000 1.838660 
# 
# From -- ./inp_files/8687.got.cif
#   From: 2010.03.12/outbox.cif.g09.slc.cpg/sg53_5_cif.got.tgz:8687.got - 2010.04.16 14:36:59.
