data_PCOD8221463
_publ_section_title
;
Structure prediction by ZEFSAII (Michael W. Deem and Ramdas Pophale) SiO2 
 PCOD8221463
Probable space group: P M N A
;
_chemical_formula_sum "Si O2"
_cell_formula_units_Z 56
_cell_length_a 13.920680
_cell_length_b 13.643902
_cell_length_c 14.016632
_cell_angle_alpha 90.000000
_cell_angle_beta 90.000000
_cell_angle_gamma 90.000000
_cell_volume 2662.212467
_symmetry_space_group_name_H-M "P M N A"
_symmetry_group_IT_number 53
_symmetry_cell_setting 'orthorhombic'
loop_
_space_group_symop_operation_xyz
x,y,z
1/2-x,-y,1/2+z
x,-y,-z
1/2-x,y,1/2-z
-x,-y,-z
1/2+x,y,1/2-z
-x,y,z
1/2+x,-y,1/2+z
loop_
_atom_site_type_symbol
_atom_site_label
_atom_site_fract_x
_atom_site_fract_y
_atom_site_fract_z
Si Si1 0.389770 0.501180 0.286620
Si Si2 0.394068 0.096334 0.687819
Si Si3 0.105043 0.691677 0.101199
Si Si4 0.886624 0.091923 0.596781
Si Si5 0.245178 0.939723 0.862079
Si Si6 0.212339 0.558147 0.599197
Si Si7 0.229864 0.756205 0.525124
O O1 0.500000 0.465875 0.299118
O O2 0.377593 0.615677 0.313176
O O3 0.358331 0.490804 0.176631
O O4 0.321427 0.440930 0.359045
O O5 0.500000 0.050915 0.694998
O O6 0.393197 0.200438 0.641150
O O7 0.353152 0.109322 0.794115
O O8 0.334415 0.023160 0.620209
O O9 0.000000 0.670748 0.054157
O O10 0.190696 0.687301 0.025762
O O11 0.843693 0.185713 0.542442
O O12 0.000000 0.086621 0.578334
O O13 0.841169 0.981689 0.582511
O O14 0.250000 0.919378 0.750000
O O15 0.217533 0.836322 0.908523
O O16 0.204236 0.500000 0.500000
O O17 0.176616 0.671640 0.586293
#
# Coordination Sequence:
#
# PCOD8221463 Si02
#       7
#     8   8   8   8   8   8   8
#     4  10  24  46  69  93 131 175 216 270 331 395
#     4   9  19  37  61  92 125 161 203 255 314 374
#     4  10  21  38  66  97 123 161 212 262 323 383
#     4  10  22  39  61  89 124 167 211 251 306 380
#     4  10  22  39  60  86 128 170 205 255 313 384
#     4  11  25  43  68  99 130 168 221 279 330 388
#     4  12  24  38  64  95 125 165 212 268 321 375
#
# _framework density 21.035136000000001
#
# number of rings (size 3 to 8) (size 9 to 14) (size 15 to 20)
#    0.000    1.714    2.857    0.429    4.000    3.429 
#    0.000    1.429    0.000    0.000    0.000    0.000 
#    0.000    0.000    0.000    0.000    0.000    0.000 
#
# Total GULP energy -694010.929760 kJ/mol
# GULP energy per Si atom -12393.052317 kJ/mol
# Density = 2.098726 g / cm^3
# Si number density = 21.035136 Si / 1000 Ang^3
#
#
#
# Elastic Constant Matrix: (Units=GPa)
#
#
# Indices 1 2 3 4 5 6 
#
# 1 100.3872 54.9441 40.8123 0.0000 0.0000 0.0000
# 2 54.9441 128.3017 51.8480 0.0000 0.0000 0.0000
# 3 40.8123 51.8480 100.7959 0.0000 0.0000 0.0000
# 4 0.0000 0.0000 0.0000 37.4190 0.0000 0.0000
# 5 0.0000 0.0000 0.0000 0.0000 19.5801 0.0000
# 6 0.0000 0.0000 0.0000 0.0000 0.0000 20.4554
#
#
#
# Elastic Compliance Matrix: (Units=1/GPa)
#
#
# Indices 1 2 3 4 5 6 
#
# 1 0.013789 -0.004606 -0.003214 0.000000 0.000000 0.000000
# 2 -0.004606 0.011378 -0.003988 0.000000 0.000000 0.000000
# 3 -0.003214 -0.003988 0.013274 0.000000 0.000000 0.000000
# 4 0.000000 0.000000 0.000000 0.026724 0.000000 0.000000
# 5 0.000000 0.000000 0.000000 0.000000 0.051072 0.000000
# 6 0.000000 0.000000 0.000000 0.000000 0.000000 0.048887
#
#
# Mechanical properties :
#
#
# Convention : Reuss Voigt Hill
#
# Bulk Modulus (GPa) = 67.45257 69.41039 68.43148
# Shear Modulus (GPa) = 25.81554 27.61626 26.71590
#
# Velocity S-wave (km/s) = 3.50702 3.62728 3.56766
# Velocity P-wave (km/s) = 6.96672 7.11420 7.04085
#
# Compressibility (1/GPa) = 0.01482523
#
# Stress axis : x y z
#
# Youngs Moduli (GPa) = 72.52073 87.88714 75.33801
#
# Poissons Ratio (x) = 0.40484 0.24212
# Poissons Ratio (y) = 0.33406 0.30042
# Poissons Ratio (z) = 0.23307 0.35047
#
# Static dielectric constant tensor:
#      x y z
#    x 4.249400 0.000000 0.000000 
#    y 0.000000 3.870560 0.000000 
#    z 0.000000 0.000000 4.018080 
# 
# 
# High freq. dielectric constant tensor:
#      x y z
#    x 1.817740 0.000000 0.000000 
#    y 0.000000 1.827770 0.000000 
#    z 0.000000 0.000000 1.832310 
# 
# From -- ./inp_files/22936.got.cif
#   From: 2010.03.12/outbox.cif.g09.slc.cpg/sg53_12_cif.got.tgz:22936.got - 2010.04.16 14:36:59.
