data_PCOD8221652
_publ_section_title
;
Structure prediction by ZEFSAII (Michael W. Deem and Ramdas Pophale) SiO2 
 PCOD8221652
Probable space group: P M N A
;
_chemical_formula_sum "Si O2"
_cell_formula_units_Z 64
_cell_length_a 16.814937
_cell_length_b 12.191283
_cell_length_c 15.544471
_cell_angle_alpha 90.000000
_cell_angle_beta 90.000000
_cell_angle_gamma 90.000000
_cell_volume 3186.549024
_symmetry_space_group_name_H-M "P M N A"
_symmetry_group_IT_number 53
_symmetry_cell_setting 'orthorhombic'
loop_
_space_group_symop_operation_xyz
x,y,z
1/2-x,-y,1/2+z
x,-y,-z
1/2-x,y,1/2-z
-x,-y,-z
1/2+x,y,1/2-z
-x,y,z
1/2+x,-y,1/2+z
loop_
_atom_site_type_symbol
_atom_site_label
_atom_site_fract_x
_atom_site_fract_y
_atom_site_fract_z
Si Si1 0.249325 0.882100 0.459507
Si Si2 0.306233 0.761107 0.880882
Si Si3 0.159874 0.568198 0.725452
Si Si4 0.589646 0.653323 0.269118
Si Si5 0.126722 0.267795 0.140387
Si Si6 0.092056 0.245126 0.946131
Si Si7 0.666656 0.867651 0.212076
Si Si8 0.088780 0.911252 0.737246
O O1 0.207008 0.790764 0.519602
O O2 0.338951 0.845825 0.431018
O O3 0.184055 0.896704 0.386158
O O4 0.262317 0.000000 0.500000
O O5 0.346731 0.640730 0.863224
O O6 0.218255 0.762305 0.840746
O O7 0.360254 0.852121 0.836095
O O8 0.250000 0.565099 0.750000
O O9 0.135402 0.442146 0.718156
O O10 0.107104 0.626003 0.800980
O O11 0.500000 0.621724 0.254185
O O12 0.607707 0.663145 0.372194
O O13 0.606382 0.767527 0.221698
O O14 0.080931 0.160718 0.175560
O O15 0.103257 0.294697 0.042045
O O16 0.000000 0.200784 0.936426
O O17 0.750000 0.828977 0.250000
O O18 0.630120 0.973172 0.260043
O O19 0.000000 0.932958 0.701676
#
# Coordination Sequence:
#
# PCOD8221652 Si02
#       8
#     8   8   8   8   8   8   8   8
#     4  11  22  40  65  90 120 162 205 252 305 363
#     4   9  19  39  61  89 117 153 208 252 295 360
#     4   9  19  37  63  87 115 160 208 249 291 351
#     4  11  24  40  59  87 125 161 200 249 309 369
#     4   9  19  37  61  88 124 162 203 249 300 362
#     4  10  22  37  55  91 131 160 196 244 303 374
#     4  12  23  40  60  84 118 165 204 247 302 379
#     4  11  21  34  57  88 120 157 202 257 312 356
#
# _framework density 20.084423999999999
#
# number of rings (size 3 to 8) (size 9 to 14) (size 15 to 20)
#    0.000    1.750    2.500    3.000    1.750    3.250 
#    0.000    3.750    0.000    0.750    0.000    0.000 
#    0.000    0.000    0.000    0.000    0.000    0.000 
#
# Total GULP energy -792929.021646 kJ/mol
# GULP energy per Si atom -12389.515963 kJ/mol
# Density = 2.003871 g / cm^3
# Si number density = 20.084424 Si / 1000 Ang^3
#
#
#
# Elastic Constant Matrix: (Units=GPa)
#
#
# Indices 1 2 3 4 5 6 
#
# 1 65.0831 22.3906 36.7988 0.0000 0.0000 0.0000
# 2 22.3906 131.3745 35.6451 0.0000 0.0000 0.0000
# 3 36.7988 35.6451 56.8830 0.0000 0.0000 0.0000
# 4 0.0000 0.0000 0.0000 23.9903 0.0000 0.0000
# 5 0.0000 0.0000 0.0000 0.0000 21.3117 0.0000
# 6 0.0000 0.0000 0.0000 0.0000 0.0000 9.1060
#
#
#
# Elastic Compliance Matrix: (Units=1/GPa)
#
#
# Indices 1 2 3 4 5 6 
#
# 1 0.024229 0.000149 -0.015767 0.000000 0.000000 0.000000
# 2 0.000149 0.009172 -0.005844 0.000000 0.000000 0.000000
# 3 -0.015767 -0.005844 0.031442 0.000000 0.000000 0.000000
# 4 0.000000 0.000000 0.000000 0.041684 0.000000 0.000000
# 5 0.000000 0.000000 0.000000 0.000000 0.046923 0.000000
# 6 0.000000 0.000000 0.000000 0.000000 0.000000 0.109818
#
#
# Mechanical properties :
#
#
# Convention : Reuss Voigt Hill
#
# Bulk Modulus (GPa) = 45.62419 49.22327 47.42373
# Shear Modulus (GPa) = 15.94905 21.44865 18.69885
#
# Velocity S-wave (km/s) = 2.82104 3.27146 3.05456
# Velocity P-wave (km/s) = 5.77724 6.23148 6.00865
#
# Compressibility (1/GPa) = 0.02191820
#
# Stress axis : x y z
#
# Youngs Moduli (GPa) = 41.27299 109.02709 31.80449
#
# Poissons Ratio (x) = -0.01621 0.50147
# Poissons Ratio (y) = -0.00614 0.18586
# Poissons Ratio (z) = 0.65077 0.63712
#
# Static dielectric constant tensor:
#      x y z
#    x 3.740510 0.000000 0.000000 
#    y 0.000000 3.704250 0.000000 
#    z 0.000000 0.000000 3.755100 
# 
# 
# High freq. dielectric constant tensor:
#      x y z
#    x 1.786910 0.000000 0.000000 
#    y 0.000000 1.775560 0.000000 
#    z 0.000000 0.000000 1.770360 
# 
# From -- ./inp_files/23896.got.cif
#   From: 2010.03.12/outbox.cif.g09.slc.cpg/sg53_12_cif.got.tgz:23896.got - 2010.04.16 14:36:59.
