data_PCOD8221144
_publ_section_title
;
Structure prediction by ZEFSAII (Michael W. Deem and Ramdas Pophale) SiO2 
 PCOD8221144
Probable space group: P M N A
;
_chemical_formula_sum "Si O2"
_cell_formula_units_Z 48
_cell_length_a 17.212164
_cell_length_b 26.395555
_cell_length_c 4.974609
_cell_angle_alpha 90.000000
_cell_angle_beta 90.000000
_cell_angle_gamma 90.000000
_cell_volume 2260.087351
_symmetry_space_group_name_H-M "P M N A"
_symmetry_group_IT_number 53
_symmetry_cell_setting 'orthorhombic'
loop_
_space_group_symop_operation_xyz
x,y,z
1/2-x,-y,1/2+z
x,-y,-z
1/2-x,y,1/2-z
-x,-y,-z
1/2+x,y,1/2-z
-x,y,z
1/2+x,-y,1/2+z
loop_
_atom_site_type_symbol
_atom_site_label
_atom_site_fract_x
_atom_site_fract_y
_atom_site_fract_z
Si Si1 0.658250 0.470023 0.747219
Si Si2 0.087958 0.299927 0.381739
Si Si3 0.912927 0.634123 0.106729
Si Si4 0.590275 0.947802 0.639508
Si Si5 0.337705 0.899893 0.157676
Si Si6 0.301719 0.791515 0.998714
O O1 0.621419 0.500000 0.500000
O O2 0.750000 0.474367 0.750000
O O3 0.637851 0.411224 0.725312
O O4 0.622357 0.500000 0.000000
O O5 0.088940 0.321202 0.679786
O O6 0.141061 0.250782 0.382942
O O7 0.000000 0.285309 0.294216
O O8 0.120551 0.342084 0.170658
O O9 0.000000 0.613702 0.059080
O O10 0.500000 0.949403 0.720572
O O11 0.605663 0.905706 0.412967
O O12 0.618054 0.000000 0.500000
O O13 0.638732 0.936655 0.910811
O O14 0.250000 0.912168 0.250000
O O15 0.349469 0.841252 0.081000
O O16 0.250000 0.809056 0.750000
O O17 0.250000 0.771374 0.250000
#
# Coordination Sequence:
#
# PCOD8221144 Si02
#       6
#     8   8   8   8   8   8
#     4  10  21  36  54  79 111 147 188 234 284 342
#     4  10  22  39  59  86 117 150 192 241 292 350
#     4  10  21  37  57  83 114 147 189 238 286 344
#     4  11  24  42  65  94 128 165 209 259 312 374
#     4  11  23  42  64  92 128 165 208 260 312 371
#     4  11  23  41  62  88 121 157 201 250 300 360
#
# _framework density 21.238118
#
# number of rings (size 3 to 8) (size 9 to 14) (size 15 to 20)
#    0.000    1.500    0.000    5.500    0.000    6.667 
#    0.000    2.500    0.000    0.000    0.000    0.000 
#    0.000    0.000    0.000    0.000    0.000    0.000 
#
# Total GULP energy -595206.072880 kJ/mol
# GULP energy per Si atom -12400.126518 kJ/mol
# Density = 2.118978 g / cm^3
# Si number density = 21.238118 Si / 1000 Ang^3
#
#
#
# Elastic Constant Matrix: (Units=GPa)
#
#
# Indices 1 2 3 4 5 6 
#
# 1 52.8901 45.8601 36.9114 0.0000 0.0000 0.0000
# 2 45.8601 108.1921 37.4451 0.0000 0.0000 0.0000
# 3 36.9114 37.4451 143.1337 0.0000 0.0000 0.0000
# 4 0.0000 0.0000 0.0000 44.8119 0.0000 0.0000
# 5 0.0000 0.0000 0.0000 0.0000 29.3258 0.0000
# 6 0.0000 0.0000 0.0000 0.0000 0.0000 24.1882
#
#
#
# Elastic Compliance Matrix: (Units=1/GPa)
#
#
# Indices 1 2 3 4 5 6 
#
# 1 0.033277 -0.012244 -0.005378 0.000000 0.000000 0.000000
# 2 -0.012244 0.014668 -0.000680 0.000000 0.000000 0.000000
# 3 -0.005378 -0.000680 0.008551 0.000000 0.000000 0.000000
# 4 0.000000 0.000000 0.000000 0.022316 0.000000 0.000000
# 5 0.000000 0.000000 0.000000 0.000000 0.034100 0.000000
# 6 0.000000 0.000000 0.000000 0.000000 0.000000 0.041342
#
#
# Mechanical properties :
#
#
# Convention : Reuss Voigt Hill
#
# Bulk Modulus (GPa) = 50.27105 60.51657 55.39381
# Shear Modulus (GPa) = 25.31786 31.93182 28.62484
#
# Velocity S-wave (km/s) = 3.45642 3.88172 3.67523
# Velocity P-wave (km/s) = 6.29688 6.97471 6.64444
#
# Compressibility (1/GPa) = 0.01989216
#
# Stress axis : x y z
#
# Youngs Moduli (GPa) = 30.05067 68.17558 116.94126
#
# Poissons Ratio (x) = 0.83474 0.62896
# Poissons Ratio (y) = 0.36794 0.07950
# Poissons Ratio (z) = 0.16162 0.04635
#
# Static dielectric constant tensor:
#      x y z
#    x 3.704560 0.000000 0.000000 
#    y 0.000000 3.724320 0.000000 
#    z 0.000000 0.000000 4.171950 
# 
# 
# High freq. dielectric constant tensor:
#      x y z
#    x 1.816200 0.000000 0.000000 
#    y 0.000000 1.831880 0.000000 
#    z 0.000000 0.000000 1.858920 
# 
# From -- ./inp_files/1435.got.cif
#   From: 2010.03.12/outbox.cif.g09.slc.cpg/sg53_1_cif.got.tgz:1435.got - 2010.04.16 14:36:59.
