data_PCOD8221014
_publ_section_title
;
Structure prediction by ZEFSAII (Michael W. Deem and Ramdas Pophale) SiO2 
 PCOD8221014
Probable space group: P M N A
;
_chemical_formula_sum "Si O2"
_cell_formula_units_Z 56
_cell_length_a 9.304454
_cell_length_b 16.064794
_cell_length_c 19.174775
_cell_angle_alpha 90.000000
_cell_angle_beta 90.000000
_cell_angle_gamma 90.000000
_cell_volume 2866.132941
_symmetry_space_group_name_H-M "P M N A"
_symmetry_group_IT_number 53
_symmetry_cell_setting 'orthorhombic'
loop_
_space_group_symop_operation_xyz
x,y,z
1/2-x,-y,1/2+z
x,-y,-z
1/2-x,y,1/2-z
-x,-y,-z
1/2+x,y,1/2-z
-x,y,z
1/2+x,-y,1/2+z
loop_
_atom_site_type_symbol
_atom_site_label
_atom_site_fract_x
_atom_site_fract_y
_atom_site_fract_z
Si Si1 0.830715 0.171343 0.931747
Si Si2 0.161071 0.508803 0.186450
Si Si3 0.333343 0.695516 0.317320
Si Si4 0.666063 0.142333 0.177459
Si Si5 0.832830 0.986756 0.418648
Si Si6 0.168728 0.746857 0.551328
Si Si7 0.835563 0.578804 0.955765
O O1 0.794046 0.250236 0.883998
O O2 0.766522 0.089920 0.893881
O O3 0.000000 0.160733 0.945131
O O4 0.747735 0.184305 0.004383
O O5 0.250000 0.471037 0.250000
O O6 0.215092 0.600983 0.164508
O O7 0.174314 0.444085 0.124624
O O8 0.000000 0.516625 0.213530
O O9 0.250000 0.729365 0.250000
O O10 0.500000 0.702361 0.299551
O O11 0.750000 0.146236 0.250000
O O12 0.500000 0.134874 0.197314
O O13 0.694309 0.226161 0.131889
O O14 0.713038 0.064522 0.129355
O O15 0.000000 0.965342 0.407818
O O16 0.798790 0.000000 0.500000
O O17 0.234019 0.657210 0.532802
O O18 0.000000 0.747059 0.533537
O O19 0.000000 0.600975 0.977984
O O20 0.780052 0.500000 0.000000
#
# Coordination Sequence:
#
# PCOD8221014 Si02
#       7
#     8   8   8   8   8   8   8
#     4  11  22  36  59  89 118 150 195 241 287 347
#     4   9  18  34  55  76 106 147 186 228 284 343
#     4   9  19  35  54  80 114 150 188 234 286 342
#     4  10  23  42  63  87 119 158 198 246 298 352
#     4  10  20  40  63  83 116 155 192 237 293 348
#     4  11  23  40  60  85 117 156 198 242 296 352
#     4  10  21  38  59  84 116 151 192 245 299 347
#
# _framework density 19.538520999999999
#
# number of rings (size 3 to 8) (size 9 to 14) (size 15 to 20)
#    0.000    2.000    1.429    1.714    0.000    7.429 
#    0.000    8.571    0.000    0.000    0.000    0.000 
#    0.000    0.000    0.000    0.000    0.000    0.000 
#
# Total GULP energy -694400.708902 kJ/mol
# GULP energy per Si atom -12400.012659 kJ/mol
# Density = 1.949405 g / cm^3
# Si number density = 19.538521 Si / 1000 Ang^3
#
#
#
# Elastic Constant Matrix: (Units=GPa)
#
#
# Indices 1 2 3 4 5 6 
#
# 1 79.7364 47.7316 41.7622 0.0000 0.0000 0.0000
# 2 47.7316 93.4590 25.7148 0.0000 0.0000 0.0000
# 3 41.7622 25.7148 83.1705 0.0000 0.0000 0.0000
# 4 0.0000 0.0000 0.0000 23.4700 0.0000 0.0000
# 5 0.0000 0.0000 0.0000 0.0000 33.5447 0.0000
# 6 0.0000 0.0000 0.0000 0.0000 0.0000 -2.2324
#
#
#
# Elastic Compliance Matrix: (Units=1/GPa)
#
#
# Indices 1 2 3 4 5 6 
#
# 1 0.022428 -0.009133 -0.008438 0.000000 0.000000 0.000000
# 2 -0.009133 0.015414 -0.000180 0.000000 0.000000 0.000000
# 3 -0.008438 -0.000180 0.016316 0.000000 0.000000 0.000000
# 4 0.000000 0.000000 0.000000 0.042608 0.000000 0.000000
# 5 0.000000 0.000000 0.000000 0.000000 0.029811 0.000000
# 6 0.000000 0.000000 0.000000 0.000000 0.000000 -0.447952
#
#
# Mechanical properties :
#
#
# Convention : Reuss Voigt Hill
#
# Bulk Modulus (GPa) = 53.60071 54.08701 53.84386
# Shear Modulus (GPa) = -17.87910 20.36695 1.24392
#
# Velocity S-wave (km/s) = -3.02829 3.23212 0.79877
# Velocity P-wave (km/s) = 3.90711 6.45532 5.33557
#
# Compressibility (1/GPa) = 0.01865647
#
# Stress axis : x y z
#
# Youngs Moduli (GPa) = 44.58788 64.87775 61.28961
#
# Poissons Ratio (x) = 0.59250 0.51715
# Poissons Ratio (y) = 0.40720 0.01102
# Poissons Ratio (z) = 0.37623 0.01167
#
# Static dielectric constant tensor:
#      x y z
#    x 3.508210 0.000000 0.000000 
#    y 0.000000 3.632890 0.000000 
#    z 0.000000 0.000000 3.528050 
# 
# 
# High freq. dielectric constant tensor:
#      x y z
#    x 1.756550 0.000000 0.000000 
#    y 0.000000 1.764440 0.000000 
#    z 0.000000 0.000000 1.758730 
# 
# From -- ./inp_files/30765.got.cif
#   From: 2010.03.12/outbox.cif.g09.slc.cpg/sg53_16_cif.got.tgz:30765.got - 2010.04.16 14:36:59.
