data_PCOD8221978
_publ_section_title
;
Structure prediction by ZEFSAII (Michael W. Deem and Ramdas Pophale) SiO2 
 PCOD8221978
Probable space group: P M N A
;
_chemical_formula_sum "Si O2"
_cell_formula_units_Z 40
_cell_length_a 7.971876
_cell_length_b 15.238275
_cell_length_c 19.224996
_cell_angle_alpha 90.000000
_cell_angle_beta 90.000000
_cell_angle_gamma 90.000000
_cell_volume 2335.407119
_symmetry_space_group_name_H-M "P M N A"
_symmetry_group_IT_number 53
_symmetry_cell_setting 'orthorhombic'
loop_
_space_group_symop_operation_xyz
x,y,z
1/2-x,-y,1/2+z
x,-y,-z
1/2-x,y,1/2-z
-x,-y,-z
1/2+x,y,1/2-z
-x,y,z
1/2+x,-y,1/2+z
loop_
_atom_site_type_symbol
_atom_site_label
_atom_site_fract_x
_atom_site_fract_y
_atom_site_fract_z
Si Si1 0.813758 0.729954 0.976120
Si Si2 0.192080 0.839701 0.322681
Si Si3 0.500000 0.439617 0.896226
Si Si4 0.681897 0.659027 0.371371
Si Si5 0.000000 0.629393 0.553173
Si Si6 0.303191 0.085729 0.538494
O O1 0.667859 0.685944 0.929147
O O2 0.000000 0.726375 0.940409
O O3 0.822803 0.675973 0.046865
O O4 0.759355 0.829977 0.991498
O O5 0.250000 0.884014 0.250000
O O6 0.297461 0.750890 0.331937
O O7 0.220991 0.907791 0.385360
O O8 0.000000 0.812395 0.320903
O O9 0.666648 0.408142 0.854681
O O10 0.500000 0.544563 0.897843
O O11 0.500000 0.397332 0.972537
O O12 0.500000 0.619311 0.348817
O O13 0.500000 0.077805 0.550284
O O14 0.230344 0.000000 0.500000
#
# Coordination Sequence:
#
# PCOD8221978 Si02
#       6
#     8   8   4   8   4   8
#     4   8  15  26  40  59  86 120 154 186 231 283
#     4  11  20  31  47  69  96 129 165 200 243 297
#     4   9  16  26  38  60  84 118 149 186 225 267
#     4   9  16  28  42  59  86 119 153 186 229 279
#     4   9  16  24  39  58  86 116 153 186 223 270
#     4   9  18  32  48  68  96 131 166 204 253 302
#
# _framework density 17.127634
#
# number of rings (size 3 to 8) (size 9 to 14) (size 15 to 20)
#    0.000    2.800    1.000    3.000    4.200    1.200 
#    0.000    4.000    0.000    0.000    0.000    0.000 
#    0.000    1.600    2.800    0.000    0.400    0.000 
#
# Total GULP energy -495745.610974 kJ/mol
# GULP energy per Si atom -12393.640274 kJ/mol
# Density = 1.708865 g / cm^3
# Si number density = 17.127634 Si / 1000 Ang^3
#
#
#
# Elastic Constant Matrix: (Units=GPa)
#
#
# Indices 1 2 3 4 5 6 
#
# 1 138.0412 58.7110 29.6691 0.0000 0.0000 0.0000
# 2 58.7110 97.2883 34.9029 0.0000 0.0000 0.0000
# 3 29.6691 34.9029 48.9858 0.0000 0.0000 0.0000
# 4 0.0000 0.0000 0.0000 8.9057 0.0000 0.0000
# 5 0.0000 0.0000 0.0000 0.0000 11.3838 0.0000
# 6 0.0000 0.0000 0.0000 0.0000 0.0000 23.5272
#
#
#
# Elastic Compliance Matrix: (Units=1/GPa)
#
#
# Indices 1 2 3 4 5 6 
#
# 1 0.009942 -0.005158 -0.002347 0.000000 0.000000 0.000000
# 2 -0.005158 0.016484 -0.008621 0.000000 0.000000 0.000000
# 3 -0.002347 -0.008621 0.027978 0.000000 0.000000 0.000000
# 4 0.000000 0.000000 0.000000 0.112288 0.000000 0.000000
# 5 0.000000 0.000000 0.000000 0.000000 0.087844 0.000000
# 6 0.000000 0.000000 0.000000 0.000000 0.000000 0.042504
#
#
# Mechanical properties :
#
#
# Convention : Reuss Voigt Hill
#
# Bulk Modulus (GPa) = 45.14055 58.98680 52.06367
# Shear Modulus (GPa) = 14.85105 19.49884 17.17494
#
# Velocity S-wave (km/s) = 2.94782 3.37774 3.17008
# Velocity P-wave (km/s) = 6.16432 7.05170 6.62289
#
# Compressibility (1/GPa) = 0.02215303
#
# Stress axis : x y z
#
# Youngs Moduli (GPa) = 100.57948 60.66312 35.74229
#
# Poissons Ratio (x) = 0.31291 0.08387
# Poissons Ratio (y) = 0.51880 0.30814
# Poissons Ratio (z) = 0.23601 0.52299
#
# Static dielectric constant tensor:
#      x y z
#    x 3.627580 0.000000 0.000000 
#    y 0.000000 3.110520 0.000000 
#    z 0.000000 0.000000 2.804570 
# 
# 
# High freq. dielectric constant tensor:
#      x y z
#    x 1.686010 0.000000 0.000000 
#    y 0.000000 1.632610 0.000000 
#    z 0.000000 0.000000 1.596710 
# 
# From -- ./inp_files/30401.got.cif
#   From: 2010.03.12/outbox.cif.g09.slc.cpg/sg53_16_cif.got.tgz:30401.got - 2010.04.16 14:36:59.
