data_PCOD8221040
_publ_section_title
;
Structure prediction by ZEFSAII (Michael W. Deem and Ramdas Pophale) SiO2 
 PCOD8221040
Probable space group: P M N A
;
_chemical_formula_sum "Si O2"
_cell_formula_units_Z 40
_cell_length_a 8.722255
_cell_length_b 12.380892
_cell_length_c 18.026772
_cell_angle_alpha 90.000000
_cell_angle_beta 90.000000
_cell_angle_gamma 90.000000
_cell_volume 1946.698438
_symmetry_space_group_name_H-M "P M N A"
_symmetry_group_IT_number 53
_symmetry_cell_setting 'orthorhombic'
loop_
_space_group_symop_operation_xyz
x,y,z
1/2-x,-y,1/2+z
x,-y,-z
1/2-x,y,1/2-z
-x,-y,-z
1/2+x,y,1/2-z
-x,y,z
1/2+x,-y,1/2+z
loop_
_atom_site_type_symbol
_atom_site_label
_atom_site_fract_x
_atom_site_fract_y
_atom_site_fract_z
Si Si1 0.323865 0.711791 0.911578
Si Si2 0.819466 0.856244 0.170829
Si Si3 0.180264 0.524909 0.829441
Si Si4 0.819250 0.040225 0.419737
Si Si5 0.677671 0.665291 0.080634
O O1 0.500000 0.700338 0.886718
O O2 0.219649 0.647045 0.853295
O O3 0.271750 0.835845 0.909508
O O4 0.299784 0.662841 0.992782
O O5 0.750000 0.826550 0.250000
O O6 0.766807 0.767737 0.111975
O O7 0.000000 0.855057 0.177797
O O8 0.764196 0.973767 0.144629
O O9 0.250000 0.497238 0.750000
O O10 0.254415 0.445448 0.889132
O O11 0.000000 0.506998 0.826398
O O12 0.000000 0.022025 0.412290
O O13 0.762121 0.000000 0.500000
O O14 0.500000 0.676196 0.102390
#
# Coordination Sequence:
#
# PCOD8221040 Si02
#       5
#     8   8   8   8   8
#     4  10  22  41  68  95 125 166 209 255 312 379
#     4  12  25  40  62  94 130 168 212 262 317 372
#     4  12  26  43  63  91 128 167 211 262 316 374
#     4  10  20  41  67  93 125 166 209 253 311 374
#     4  11  22  42  68  94 126 165 209 258 318 379
#
# _framework density 20.547609000000001
#
# number of rings (size 3 to 8) (size 9 to 14) (size 15 to 20)
#    0.000    1.000    2.000    5.400    0.000    6.000 
#    0.000    0.000    0.000    0.000    0.000    0.000 
#    0.000    0.000    0.000    0.000    0.000    0.000 
#
# Total GULP energy -496314.069071 kJ/mol
# GULP energy per Si atom -12407.851727 kJ/mol
# Density = 2.050084 g / cm^3
# Si number density = 20.547609 Si / 1000 Ang^3
#
#
#
# Elastic Constant Matrix: (Units=GPa)
#
#
# Indices 1 2 3 4 5 6 
#
# 1 88.8311 27.9929 24.0379 0.0000 0.0000 0.0000
# 2 27.9929 108.5416 13.9466 0.0000 0.0000 0.0000
# 3 24.0379 13.9466 45.1217 0.0000 0.0000 0.0000
# 4 0.0000 0.0000 0.0000 25.8009 0.0000 0.0000
# 5 0.0000 0.0000 0.0000 0.0000 31.8021 0.0000
# 6 0.0000 0.0000 0.0000 0.0000 0.0000 37.5416
#
#
#
# Elastic Compliance Matrix: (Units=1/GPa)
#
#
# Indices 1 2 3 4 5 6 
#
# 1 0.013895 -0.002741 -0.006555 0.000000 0.000000 0.000000
# 2 -0.002741 0.010135 -0.001672 0.000000 0.000000 0.000000
# 3 -0.006555 -0.001672 0.026171 0.000000 0.000000 0.000000
# 4 0.000000 0.000000 0.000000 0.038758 0.000000 0.000000
# 5 0.000000 0.000000 0.000000 0.000000 0.031444 0.000000
# 6 0.000000 0.000000 0.000000 0.000000 0.000000 0.026637
#
#
# Mechanical properties :
#
#
# Convention : Reuss Voigt Hill
#
# Bulk Modulus (GPa) = 35.38059 41.60546 38.49302
# Shear Modulus (GPa) = 28.02701 30.79674 29.41188
#
# Velocity S-wave (km/s) = 3.69725 3.87563 3.78749
# Velocity P-wave (km/s) = 5.95671 6.34978 6.15638
#
# Compressibility (1/GPa) = 0.02826408
#
# Stress axis : x y z
#
# Youngs Moduli (GPa) = 71.96858 98.66907 38.20991
#
# Poissons Ratio (x) = 0.27048 0.25047
# Poissons Ratio (y) = 0.19728 0.06390
# Poissons Ratio (z) = 0.47176 0.16500
#
# Static dielectric constant tensor:
#      x y z
#    x 3.710330 0.000000 0.000000 
#    y 0.000000 3.844620 0.000000 
#    z 0.000000 0.000000 3.706870 
# 
# 
# High freq. dielectric constant tensor:
#      x y z
#    x 1.803010 0.000000 0.000000 
#    y 0.000000 1.818940 0.000000 
#    z 0.000000 0.000000 1.807460 
# 
# From -- ./inp_files/25814.got.cif
#   From: 2010.03.12/outbox.cif.g09.slc.cpg/sg53_13_cif.got.tgz:25814.got - 2010.04.16 14:36:59.
