data_PCOD8221228
_publ_section_title
;
Structure prediction by ZEFSAII (Michael W. Deem and Ramdas Pophale) SiO2 
 PCOD8221228
Probable space group: P M N A
;
_chemical_formula_sum "Si O2"
_cell_formula_units_Z 56
_cell_length_a 8.883687
_cell_length_b 21.307698
_cell_length_c 15.063016
_cell_angle_alpha 90.000000
_cell_angle_beta 90.000000
_cell_angle_gamma 90.000000
_cell_volume 2851.292152
_symmetry_space_group_name_H-M "P M N A"
_symmetry_group_IT_number 53
_symmetry_cell_setting 'orthorhombic'
loop_
_space_group_symop_operation_xyz
x,y,z
1/2-x,-y,1/2+z
x,-y,-z
1/2-x,y,1/2-z
-x,-y,-z
1/2+x,y,1/2-z
-x,y,z
1/2+x,-y,1/2+z
loop_
_atom_site_type_symbol
_atom_site_label
_atom_site_fract_x
_atom_site_fract_y
_atom_site_fract_z
Si Si1 0.822931 0.714425 0.990406
Si Si2 0.324437 0.510878 0.154975
Si Si3 0.822417 0.844719 0.514953
Si Si4 0.675841 0.650055 0.153740
Si Si5 0.177945 0.611386 0.847012
Si Si6 0.177302 0.055594 0.340177
Si Si7 0.676982 0.914054 0.160164
O O1 0.767716 0.782481 0.959925
O O2 0.745278 0.697917 0.083646
O O3 0.000000 0.713462 0.005620
O O4 0.774793 0.667649 0.911754
O O5 0.250000 0.513154 0.250000
O O6 0.500000 0.495161 0.161622
O O7 0.297510 0.579762 0.113368
O O8 0.242060 0.452654 0.106059
O O9 0.769880 0.899274 0.581258
O O10 0.773699 0.867325 0.417463
O O11 0.000000 0.831853 0.521538
O O12 0.750000 0.659146 0.250000
O O13 0.500000 0.664087 0.164970
O O14 0.250000 0.622833 0.750000
O O15 0.000000 0.605954 0.836157
O O16 0.250000 0.081038 0.250000
O O17 0.000000 0.057247 0.329234
O O18 0.233284 0.984820 0.361076
O O19 0.750000 0.888014 0.250000
O O20 0.500000 0.914253 0.172231
#
# Coordination Sequence:
#
# PCOD8221228 Si02
#       7
#     8   8   8   8   8   8   8
#     4  11  25  40  54  78 111 148 190 229 269 323
#     4   9  17  31  55  84 109 136 174 222 276 330
#     4  10  21  37  56  77 107 147 184 220 266 321
#     4  10  21  38  60  84 111 143 180 225 276 328
#     4  10  21  37  57  80 108 143 182 228 278 327
#     4   9  18  34  57  84 111 139 175 220 269 322
#     4   9  18  34  57  84 110 138 175 218 267 321
#
# _framework density 19.640218999999998
#
# number of rings (size 3 to 8) (size 9 to 14) (size 15 to 20)
#    0.000    2.286    0.000    3.000    0.000    8.571 
#    0.000    7.143    0.000    4.286    0.000    0.000 
#    0.000    0.000    0.000    0.000    0.000    0.000 
#
# Total GULP energy -694278.431310 kJ/mol
# GULP energy per Si atom -12397.829131 kJ/mol
# Density = 1.959552 g / cm^3
# Si number density = 19.640219 Si / 1000 Ang^3
#
#
#
# Elastic Constant Matrix: (Units=GPa)
#
#
# Indices 1 2 3 4 5 6 
#
# 1 61.7268 20.3747 21.4627 0.0000 0.0000 0.0000
# 2 20.3747 66.7678 13.3139 0.0000 0.0000 0.0000
# 3 21.4627 13.3139 66.1296 0.0000 0.0000 0.0000
# 4 0.0000 0.0000 0.0000 16.7443 0.0000 0.0000
# 5 0.0000 0.0000 0.0000 0.0000 26.1111 0.0000
# 6 0.0000 0.0000 0.0000 0.0000 0.0000 32.4613
#
#
#
# Elastic Compliance Matrix: (Units=1/GPa)
#
#
# Indices 1 2 3 4 5 6 
#
# 1 0.019708 -0.004937 -0.005403 0.000000 0.000000 0.000000
# 2 -0.004937 0.016840 -0.001788 0.000000 0.000000 0.000000
# 3 -0.005403 -0.001788 0.017235 0.000000 0.000000 0.000000
# 4 0.000000 0.000000 0.000000 0.059722 0.000000 0.000000
# 5 0.000000 0.000000 0.000000 0.000000 0.038298 0.000000
# 6 0.000000 0.000000 0.000000 0.000000 0.000000 0.030806
#
#
# Mechanical properties :
#
#
# Convention : Reuss Voigt Hill
#
# Bulk Modulus (GPa) = 33.86516 33.88076 33.87296
# Shear Modulus (GPa) = 23.07253 24.36153 23.71703
#
# Velocity S-wave (km/s) = 3.43119 3.52574 3.47879
# Velocity P-wave (km/s) = 5.74262 5.81916 5.78101
#
# Compressibility (1/GPa) = 0.02952888
#
# Stress axis : x y z
#
# Youngs Moduli (GPa) = 50.73956 59.38102 58.02058
#
# Poissons Ratio (x) = 0.29316 0.31346
# Poissons Ratio (y) = 0.25050 0.10375
# Poissons Ratio (z) = 0.27412 0.10618
#
# Static dielectric constant tensor:
#      x y z
#    x 3.569480 0.000000 0.000000 
#    y 0.000000 3.940770 0.000000 
#    z 0.000000 0.000000 3.486290 
# 
# 
# High freq. dielectric constant tensor:
#      x y z
#    x 1.765250 0.000000 0.000000 
#    y 0.000000 1.770980 0.000000 
#    z 0.000000 0.000000 1.758500 
# 
# From -- ./inp_files/20621.got.cif
#   From: 2010.03.12/outbox.cif.g09.slc.cpg/sg53_11_cif.got.tgz:20621.got - 2010.04.16 14:36:59.
