data_PCOD8221149
_publ_section_title
;
Structure prediction by ZEFSAII (Michael W. Deem and Ramdas Pophale) SiO2 
 PCOD8221149
Probable space group: P M N A
;
_chemical_formula_sum "Si O2"
_cell_formula_units_Z 64
_cell_length_a 8.923445
_cell_length_b 19.021144
_cell_length_c 18.802546
_cell_angle_alpha 90.000000
_cell_angle_beta 90.000000
_cell_angle_gamma 90.000000
_cell_volume 3191.433831
_symmetry_space_group_name_H-M "P M N A"
_symmetry_group_IT_number 53
_symmetry_cell_setting 'orthorhombic'
loop_
_space_group_symop_operation_xyz
x,y,z
1/2-x,-y,1/2+z
x,-y,-z
1/2-x,y,1/2-z
-x,-y,-z
1/2+x,y,1/2-z
-x,y,z
1/2+x,-y,1/2+z
loop_
_atom_site_type_symbol
_atom_site_label
_atom_site_fract_x
_atom_site_fract_y
_atom_site_fract_z
Si Si1 0.327271 0.782053 0.677182
Si Si2 0.325612 0.919005 0.587888
Si Si3 0.673514 0.863995 0.043427
Si Si4 0.174653 0.284199 0.947867
Si Si5 0.825608 0.353773 0.096045
Si Si6 0.826177 0.040408 0.675606
Si Si7 0.824006 0.367107 0.676780
Si Si8 0.324177 0.472696 0.176507
O O1 0.250000 0.803627 0.750000
O O2 0.500000 0.773254 0.694509
O O3 0.300450 0.841486 0.618793
O O4 0.263756 0.709024 0.645920
O O5 0.500000 0.936984 0.576953
O O6 0.241303 0.921105 0.511870
O O7 0.254199 0.972900 0.642975
O O8 0.500000 0.850509 0.025168
O O9 0.766935 0.793152 0.035371
O O10 0.692350 0.893706 0.122882
O O11 0.265533 0.315391 0.882867
O O12 0.000000 0.279622 0.929171
O O13 0.203763 0.334603 0.014533
O O14 0.735057 0.424579 0.112554
O O15 0.000000 0.367131 0.110288
O O16 0.750000 0.061091 0.750000
O O17 0.000000 0.022195 0.688253
O O18 0.750000 0.343066 0.750000
O O19 0.778855 0.447280 0.658511
O O20 0.000000 0.358226 0.684209
O O21 0.250000 0.447680 0.250000
O O22 0.500000 0.463689 0.184667
#
# Coordination Sequence:
#
# PCOD8221149 Si02
#       8
#     8   8   8   8   8   8   8   8
#     4  10  21  36  54  83 119 156 199 242 289 349
#     4  11  22  40  64  90 123 162 203 248 302 362
#     4  11  24  42  64  90 124 162 205 254 305 364
#     4  11  23  41  64  90 122 159 203 252 304 364
#     4  10  21  38  57  83 121 159 201 247 296 359
#     4  11  25  43  63  92 124 158 203 252 304 362
#     4  10  22  41  63  89 120 156 202 252 305 363
#     4  10  21  37  59  87 120 159 203 250 301 360
#
# _framework density 20.053684000000001
#
# number of rings (size 3 to 8) (size 9 to 14) (size 15 to 20)
#    0.000    1.500    1.250    3.375    0.000   10.500 
#    0.000    3.750    0.000    0.000    0.000    0.000 
#    0.000    0.000    0.000    0.000    0.000    0.000 
#
# Total GULP energy -793965.190662 kJ/mol
# GULP energy per Si atom -12405.706104 kJ/mol
# Density = 2.000804 g / cm^3
# Si number density = 20.053684 Si / 1000 Ang^3
#
#
#
# Elastic Constant Matrix: (Units=GPa)
#
#
# Indices 1 2 3 4 5 6 
#
# 1 83.6136 22.8994 43.7533 0.0000 0.0000 0.0000
# 2 22.8994 46.9456 16.8709 0.0000 0.0000 0.0000
# 3 43.7533 16.8709 102.2198 0.0000 0.0000 0.0000
# 4 0.0000 0.0000 0.0000 36.1844 0.0000 0.0000
# 5 0.0000 0.0000 0.0000 0.0000 37.0972 0.0000
# 6 0.0000 0.0000 0.0000 0.0000 0.0000 119.5356
#
#
#
# Elastic Compliance Matrix: (Units=1/GPa)
#
#
# Indices 1 2 3 4 5 6 
#
# 1 0.016858 -0.005985 -0.006228 0.000000 0.000000 0.000000
# 2 -0.005985 0.024769 -0.001526 0.000000 0.000000 0.000000
# 3 -0.006228 -0.001526 0.012700 0.000000 0.000000 0.000000
# 4 0.000000 0.000000 0.000000 0.027636 0.000000 0.000000
# 5 0.000000 0.000000 0.000000 0.000000 0.026956 0.000000
# 6 0.000000 0.000000 0.000000 0.000000 0.000000 0.008366
#
#
# Mechanical properties :
#
#
# Convention : Reuss Voigt Hill
#
# Bulk Modulus (GPa) = 37.24501 44.42513 40.83507
# Shear Modulus (GPa) = 32.52804 48.51379 40.52092
#
# Velocity S-wave (km/s) = 4.03184 4.92387 4.50001
# Velocity P-wave (km/s) = 6.34722 7.38425 6.88529
#
# Compressibility (1/GPa) = 0.02684924
#
# Stress axis : x y z
#
# Youngs Moduli (GPa) = 59.31968 40.37284 78.73711
#
# Poissons Ratio (x) = 0.24163 0.49037
# Poissons Ratio (y) = 0.35502 0.12018
# Poissons Ratio (z) = 0.36944 0.06162
#
# Static dielectric constant tensor:
#      x y z
#    x 3.710170 0.000000 0.000000 
#    y 0.000000 3.632340 0.000000 
#    z 0.000000 0.000000 3.618370 
# 
# 
# High freq. dielectric constant tensor:
#      x y z
#    x 1.791430 0.000000 0.000000 
#    y 0.000000 1.785070 0.000000 
#    z 0.000000 0.000000 1.789740 
# 
# From -- ./inp_files/26859.got.cif
#   From: 2010.03.12/outbox.cif.g09.slc.cpg/sg53_14_cif.got.tgz:26859.got - 2010.04.16 14:36:59.
