data_PCOD8221237
_publ_section_title
;
Structure prediction by ZEFSAII (Michael W. Deem and Ramdas Pophale) SiO2 
 PCOD8221237
Probable space group: P M N A
;
_chemical_formula_sum "Si O2"
_cell_formula_units_Z 56
_cell_length_a 13.996442
_cell_length_b 9.239613
_cell_length_c 22.232285
_cell_angle_alpha 90.000000
_cell_angle_beta 90.000000
_cell_angle_gamma 90.000000
_cell_volume 2875.117057
_symmetry_space_group_name_H-M "P M N A"
_symmetry_group_IT_number 53
_symmetry_cell_setting 'orthorhombic'
loop_
_space_group_symop_operation_xyz
x,y,z
1/2-x,-y,1/2+z
x,-y,-z
1/2-x,y,1/2-z
-x,-y,-z
1/2+x,y,1/2-z
-x,y,z
1/2+x,-y,1/2+z
loop_
_atom_site_type_symbol
_atom_site_label
_atom_site_fract_x
_atom_site_fract_y
_atom_site_fract_z
Si Si1 0.390659 0.481014 0.627505
Si Si2 0.389623 0.238080 0.718509
Si Si3 0.110925 0.758273 0.032728
Si Si4 0.724113 0.256472 0.409941
Si Si5 0.717409 0.062871 0.628143
Si Si6 0.110743 0.740654 0.358688
Si Si7 0.891575 0.542772 0.568668
O O1 0.500000 0.524901 0.634716
O O2 0.357211 0.380700 0.682463
O O3 0.373210 0.397116 0.564571
O O4 0.332025 0.628122 0.630256
O O5 0.500000 0.201181 0.705150
O O6 0.325081 0.106100 0.693630
O O7 0.370798 0.269672 0.787772
O O8 0.143323 0.886611 0.076971
O O9 0.000000 0.781563 0.016716
O O10 0.172895 0.765950 0.973228
O O11 0.831246 0.313719 0.418831
O O12 0.729203 0.108676 0.372992
O O13 0.821412 0.133670 0.615473
O O14 0.142222 0.590091 0.389217
O O15 0.000000 0.776948 0.373698
O O16 0.877904 0.500000 0.500000
O O17 0.000000 0.583697 0.583728
#
# Coordination Sequence:
#
# PCOD8221237 Si02
#       7
#     8   8   8   8   8   8   8
#     4   9  18  33  55  82 109 139 180 227 269 318
#     4   9  19  38  60  79 103 143 192 230 265 323
#     4  10  21  37  56  79 111 151 187 215 257 328
#     4  12  22  32  52  83 117 146 174 222 286 333
#     4  11  22  34  53  82 114 146 181 225 272 323
#     4  10  21  40  63  78  99 146 195 228 268 329
#     4  10  21  38  60  84 109 141 187 240 287 332
#
# _framework density 19.477467999999998
#
# number of rings (size 3 to 8) (size 9 to 14) (size 15 to 20)
#    0.000    1.857    0.000    6.429    0.000    4.571 
#    0.000    2.857    0.000    7.714    0.000    0.000 
#    0.000    0.000    0.000    0.000    0.000    0.000 
#
# Total GULP energy -694560.729917 kJ/mol
# GULP energy per Si atom -12402.870177 kJ/mol
# Density = 1.943314 g / cm^3
# Si number density = 19.477468 Si / 1000 Ang^3
#
#
#
# Elastic Constant Matrix: (Units=GPa)
#
#
# Indices 1 2 3 4 5 6 
#
# 1 91.0922 64.6141 41.6659 0.0000 0.0000 0.0000
# 2 64.6141 146.3279 51.4820 0.0000 0.0000 0.0000
# 3 41.6659 51.4820 85.8723 0.0000 0.0000 0.0000
# 4 0.0000 0.0000 0.0000 16.5460 0.0000 0.0000
# 5 0.0000 0.0000 0.0000 0.0000 23.6608 0.0000
# 6 0.0000 0.0000 0.0000 0.0000 0.0000 18.6897
#
#
#
# Elastic Compliance Matrix: (Units=1/GPa)
#
#
# Indices 1 2 3 4 5 6 
#
# 1 0.017461 -0.005994 -0.004879 0.000000 0.000000 0.000000
# 2 -0.005994 0.010718 -0.003518 0.000000 0.000000 0.000000
# 3 -0.004879 -0.003518 0.016121 0.000000 0.000000 0.000000
# 4 0.000000 0.000000 0.000000 0.060438 0.000000 0.000000
# 5 0.000000 0.000000 0.000000 0.000000 0.042264 0.000000
# 6 0.000000 0.000000 0.000000 0.000000 0.000000 0.053505
#
#
# Mechanical properties :
#
#
# Convention : Reuss Voigt Hill
#
# Bulk Modulus (GPa) = 64.43215 70.97961 67.70588
# Shear Modulus (GPa) = 21.32547 22.81465 22.07006
#
# Velocity S-wave (km/s) = 3.31249 3.42619 3.36982
# Velocity P-wave (km/s) = 6.91247 7.22307 7.06948
#
# Compressibility (1/GPa) = 0.01552020
#
# Stress axis : x y z
#
# Youngs Moduli (GPa) = 57.27046 93.29927 62.02987
#
# Poissons Ratio (x) = 0.55921 0.30263
# Poissons Ratio (y) = 0.34327 0.21819
# Poissons Ratio (z) = 0.27941 0.32818
#
# Static dielectric constant tensor:
#      x y z
#    x 3.819670 0.000000 0.000000 
#    y 0.000000 3.418760 0.000000 
#    z 0.000000 0.000000 3.509070 
# 
# 
# High freq. dielectric constant tensor:
#      x y z
#    x 1.779510 0.000000 0.000000 
#    y 0.000000 1.737430 0.000000 
#    z 0.000000 0.000000 1.750500 
# 
# From -- ./inp_files/32442.got.cif
#   From: 2010.03.12/outbox.cif.g09.slc.cpg/sg53_17_cif.got.tgz:32442.got - 2010.04.16 14:36:59.
