data_PCOD8221601
_publ_section_title
;
Structure prediction by ZEFSAII (Michael W. Deem and Ramdas Pophale) SiO2 
 PCOD8221601
Probable space group: P M N A
;
_chemical_formula_sum "Si O2"
_cell_formula_units_Z 56
_cell_length_a 17.617113
_cell_length_b 9.880493
_cell_length_c 15.466854
_cell_angle_alpha 90.000000
_cell_angle_beta 90.000000
_cell_angle_gamma 90.000000
_cell_volume 2692.249722
_symmetry_space_group_name_H-M "P M N A"
_symmetry_group_IT_number 53
_symmetry_cell_setting 'orthorhombic'
loop_
_space_group_symop_operation_xyz
x,y,z
1/2-x,-y,1/2+z
x,-y,-z
1/2-x,y,1/2-z
-x,-y,-z
1/2+x,y,1/2-z
-x,y,z
1/2+x,-y,1/2+z
loop_
_atom_site_type_symbol
_atom_site_label
_atom_site_fract_x
_atom_site_fract_y
_atom_site_fract_z
Si Si1 0.348053 0.652084 0.996738
Si Si2 0.172493 0.638749 0.039690
Si Si3 0.915257 0.027446 0.236744
Si Si4 0.910835 0.227959 0.658567
Si Si5 0.085337 0.686680 0.682821
Si Si6 0.584390 0.872490 0.559121
Si Si7 0.337033 0.452276 0.730568
O O1 0.261319 0.656820 0.026042
O O2 0.393002 0.762073 0.055951
O O3 0.381421 0.500000 0.000000
O O4 0.356914 0.688741 0.896975
O O5 0.151551 0.628176 0.140971
O O6 0.142257 0.500000 0.000000
O O7 0.131789 0.760982 0.991687
O O8 0.918071 0.157196 0.295742
O O9 0.874050 0.072582 0.146986
O O10 0.000000 0.978819 0.211473
O O11 0.876627 0.905114 0.292214
O O12 0.870634 0.360632 0.694337
O O13 0.000000 0.232910 0.673196
O O14 0.118527 0.595860 0.762237
O O15 0.000000 0.635531 0.659823
O O16 0.500000 0.813404 0.581094
O O17 0.575391 0.000000 0.500000
O O18 0.250000 0.483346 0.750000
#
# Coordination Sequence:
#
# PCOD8221601 Si02
#       7
#     8   8   8   8   8   8   8
#     4  11  22  41  62  94 133 164 209 266 321 383
#     4  11  23  40  62  90 128 170 207 264 329 381
#     4   9  21  40  60  92 125 159 211 267 319 371
#     4  11  22  40  68  92 122 169 215 262 316 382
#     4  11  23  40  65  93 128 169 214 267 320 388
#     4  10  21  41  65  89 125 168 216 270 316 378
#     4  12  22  39  61  91 129 163 211 268 317 376
#
# _framework density 20.800446999999998
#
# number of rings (size 3 to 8) (size 9 to 14) (size 15 to 20)
#    0.000    1.286    2.857    3.429    0.000    3.714 
#    2.571    2.857    0.000    0.000    0.000    0.000 
#    0.000    0.000    0.000    0.000    0.000    0.000 
#
# Total GULP energy -694026.734311 kJ/mol
# GULP energy per Si atom -12393.334541 kJ/mol
# Density = 2.075310 g / cm^3
# Si number density = 20.800447 Si / 1000 Ang^3
#
#
#
# Elastic Constant Matrix: (Units=GPa)
#
#
# Indices 1 2 3 4 5 6 
#
# 1 65.3472 34.8884 26.2974 0.0000 0.0000 0.0000
# 2 34.8884 107.4484 32.6740 0.0000 0.0000 0.0000
# 3 26.2974 32.6740 126.6931 0.0000 0.0000 0.0000
# 4 0.0000 0.0000 0.0000 42.3526 0.0000 0.0000
# 5 0.0000 0.0000 0.0000 0.0000 29.6062 0.0000
# 6 0.0000 0.0000 0.0000 0.0000 0.0000 13.7250
#
#
#
# Elastic Compliance Matrix: (Units=1/GPa)
#
#
# Indices 1 2 3 4 5 6 
#
# 1 0.019264 -0.005468 -0.002588 0.000000 0.000000 0.000000
# 2 -0.005468 0.011651 -0.001870 0.000000 0.000000 0.000000
# 3 -0.002588 -0.001870 0.008913 0.000000 0.000000 0.000000
# 4 0.000000 0.000000 0.000000 0.023611 0.000000 0.000000
# 5 0.000000 0.000000 0.000000 0.000000 0.033777 0.000000
# 6 0.000000 0.000000 0.000000 0.000000 0.000000 0.072860
#
#
# Mechanical properties :
#
#
# Convention : Reuss Voigt Hill
#
# Bulk Modulus (GPa) = 50.06229 54.13426 52.09828
# Shear Modulus (GPa) = 25.43424 30.84534 28.13979
#
# Velocity S-wave (km/s) = 3.50061 3.85504 3.68209
# Velocity P-wave (km/s) = 6.36075 6.77475 6.57101
#
# Compressibility (1/GPa) = 0.01997511
#
# Stress axis : x y z
#
# Youngs Moduli (GPa) = 51.91097 85.83127 112.20112
#
# Poissons Ratio (x) = 0.46931 0.29042
# Poissons Ratio (y) = 0.28384 0.20979
# Poissons Ratio (z) = 0.13437 0.16049
#
# Static dielectric constant tensor:
#      x y z
#    x 3.714600 0.000000 0.000000 
#    y 0.000000 3.798490 0.000000 
#    z 0.000000 0.000000 4.010710 
# 
# 
# High freq. dielectric constant tensor:
#      x y z
#    x 1.794960 0.000000 0.000000 
#    y 0.000000 1.816730 0.000000 
#    z 0.000000 0.000000 1.830610 
# 
# From -- ./inp_files/24343.got.cif
#   From: 2010.03.12/outbox.cif.g09.slc.cpg/sg53_13_cif.got.tgz:24343.got - 2010.04.16 14:36:59.
