data_PCOD8221678
_publ_section_title
;
Structure prediction by ZEFSAII (Michael W. Deem and Ramdas Pophale) SiO2 
 PCOD8221678
Probable space group: P M N A
;
_chemical_formula_sum "Si O2"
_cell_formula_units_Z 64
_cell_length_a 8.785274
_cell_length_b 11.837267
_cell_length_c 30.599318
_cell_angle_alpha 90.000000
_cell_angle_beta 90.000000
_cell_angle_gamma 90.000000
_cell_volume 3182.134277
_symmetry_space_group_name_H-M "P M N A"
_symmetry_group_IT_number 53
_symmetry_cell_setting 'orthorhombic'
loop_
_space_group_symop_operation_xyz
x,y,z
1/2-x,-y,1/2+z
x,-y,-z
1/2-x,y,1/2-z
-x,-y,-z
1/2+x,y,1/2-z
-x,y,z
1/2+x,-y,1/2+z
loop_
_atom_site_type_symbol
_atom_site_label
_atom_site_fract_x
_atom_site_fract_y
_atom_site_fract_z
Si Si1 0.675259 0.647204 0.627278
Si Si2 0.177393 0.615614 0.121712
Si Si3 0.179248 0.240775 0.795600
Si Si4 0.322382 0.244841 0.953768
Si Si5 0.177572 0.789344 0.957728
Si Si6 0.679700 0.004798 0.325285
Si Si7 0.177869 0.000969 0.418324
Si Si8 0.178587 0.773307 0.706447
O O1 0.500000 0.668731 0.639724
O O2 0.713110 0.515904 0.624335
O O3 0.716484 0.703710 0.581274
O O4 0.778815 0.700458 0.664479
O O5 0.231786 0.672662 0.166890
O O6 0.274814 0.664690 0.082236
O O7 0.000000 0.640927 0.113113
O O8 0.250000 0.280898 0.750000
O O9 0.000000 0.241075 0.790339
O O10 0.238624 0.116302 0.808466
O O11 0.500000 0.256590 0.963620
O O12 0.279370 0.120303 0.937352
O O13 0.228960 0.271171 0.997700
O O14 0.274474 0.904335 0.953265
O O15 0.000000 0.819041 0.959328
O O16 0.500000 0.017699 0.320803
O O17 0.723792 0.023172 0.375398
O O18 0.760053 0.099246 0.296400
O O19 0.000000 0.010644 0.407143
O O20 0.250000 0.717208 0.750000
O O21 0.000000 0.776170 0.711437
#
# Coordination Sequence:
#
# PCOD8221678 Si02
#       8
#     8   8   8   8   8   8   8   8
#     4  10  23  43  65  89 120 159 209 260 305 360
#     4  10  22  43  65  87 119 161 208 255 305 361
#     4  10  22  38  61  90 121 157 196 245 299 360
#     4  11  24  40  61  91 126 161 201 252 307 367
#     4  11  23  39  63  91 122 162 204 252 307 367
#     4  11  21  37  62  92 124 158 200 245 301 366
#     4  11  22  37  60  91 125 160 197 248 309 365
#     4  12  25  41  64  92 126 164 203 251 305 363
#
# _framework density 20.112287999999999
#
# number of rings (size 3 to 8) (size 9 to 14) (size 15 to 20)
#    0.000    1.250    2.500    3.375    0.000    7.500 
#    0.000    3.750    0.000    0.000    0.000    0.000 
#    0.000    0.000    0.000    0.000    0.000    0.000 
#
# Total GULP energy -794064.466617 kJ/mol
# GULP energy per Si atom -12407.257291 kJ/mol
# Density = 2.006651 g / cm^3
# Si number density = 20.112288 Si / 1000 Ang^3
#
#
#
# Elastic Constant Matrix: (Units=GPa)
#
#
# Indices 1 2 3 4 5 6 
#
# 1 89.1158 43.5898 48.6422 0.0000 0.0000 0.0000
# 2 43.5898 111.3491 40.8433 0.0000 0.0000 0.0000
# 3 48.6422 40.8433 135.6796 0.0000 0.0000 0.0000
# 4 0.0000 0.0000 0.0000 5.5563 0.0000 0.0000
# 5 0.0000 0.0000 0.0000 0.0000 39.4320 0.0000
# 6 0.0000 0.0000 0.0000 0.0000 0.0000 19.9670
#
#
#
# Elastic Compliance Matrix: (Units=1/GPa)
#
#
# Indices 1 2 3 4 5 6 
#
# 1 0.015818 -0.004623 -0.004279 0.000000 0.000000 0.000000
# 2 -0.004623 0.011446 -0.001788 0.000000 0.000000 0.000000
# 3 -0.004279 -0.001788 0.009443 0.000000 0.000000 0.000000
# 4 0.000000 0.000000 0.000000 0.179977 0.000000 0.000000
# 5 0.000000 0.000000 0.000000 0.000000 0.025360 0.000000
# 6 0.000000 0.000000 0.000000 0.000000 0.000000 0.050083
#
#
# Mechanical properties :
#
#
# Convention : Reuss Voigt Hill
#
# Bulk Modulus (GPa) = 65.24629 66.92167 66.08398
# Shear Modulus (GPa) = 15.69278 26.52900 21.11089
#
# Velocity S-wave (km/s) = 2.79634 3.63580 3.24335
# Velocity P-wave (km/s) = 6.55267 7.13945 6.85234
#
# Compressibility (1/GPa) = 0.01532654
#
# Stress axis : x y z
#
# Youngs Moduli (GPa) = 63.21781 87.36377 105.89991
#
# Poissons Ratio (x) = 0.40385 0.45319
# Poissons Ratio (y) = 0.29224 0.18939
# Poissons Ratio (z) = 0.27054 0.15624
#
# Static dielectric constant tensor:
#      x y z
#    x 3.571690 0.000000 0.000000 
#    y 0.000000 3.687540 0.000000 
#    z 0.000000 0.000000 3.823960 
# 
# 
# High freq. dielectric constant tensor:
#      x y z
#    x 1.786140 0.000000 0.000000 
#    y 0.000000 1.782130 0.000000 
#    z 0.000000 0.000000 1.800260 
# 
# From -- ./inp_files/38274.got.cif
#   From: 2010.03.12/outbox.cif.g09.slc.cpg/sg53_20_cif.got.tgz:38274.got - 2010.04.16 14:36:59.
