data_PCOD8221280
_publ_section_title
;
Structure prediction by ZEFSAII (Michael W. Deem and Ramdas Pophale) SiO2 
 PCOD8221280
Probable space group: P M N A
;
_chemical_formula_sum "Si O2"
_cell_formula_units_Z 48
_cell_length_a 7.749255
_cell_length_b 16.331980
_cell_length_c 19.579060
_cell_angle_alpha 90.000000
_cell_angle_beta 90.000000
_cell_angle_gamma 90.000000
_cell_volume 2477.939102
_symmetry_space_group_name_H-M "P M N A"
_symmetry_group_IT_number 53
_symmetry_cell_setting 'orthorhombic'
loop_
_space_group_symop_operation_xyz
x,y,z
1/2-x,-y,1/2+z
x,-y,-z
1/2-x,y,1/2-z
-x,-y,-z
1/2+x,y,1/2-z
-x,y,z
1/2+x,-y,1/2+z
loop_
_atom_site_type_symbol
_atom_site_label
_atom_site_fract_x
_atom_site_fract_y
_atom_site_fract_z
Si Si1 0.307375 0.368780 0.826495
Si Si2 0.307903 0.545277 0.676861
Si Si3 0.703903 0.748361 0.058105
Si Si4 0.000000 0.876414 0.045005
Si Si5 0.000000 0.949387 0.895559
Si Si6 0.703085 0.855157 0.827573
Si Si7 0.802469 0.692829 0.592207
O O1 0.250000 0.349580 0.750000
O O2 0.500000 0.339338 0.832881
O O3 0.297872 0.464870 0.844740
O O4 0.217797 0.311162 0.883048
O O5 0.250000 0.581609 0.750000
O O6 0.500000 0.511718 0.684917
O O7 0.302323 0.615438 0.620235
O O8 0.500000 0.772747 0.064448
O O9 0.822481 0.828547 0.059910
O O10 0.734151 0.699860 0.987723
O O11 0.000000 0.953548 0.095194
O O12 0.000000 0.902394 0.966697
O O13 0.175077 0.928246 0.854109
O O14 0.750000 0.835929 0.750000
O O15 0.500000 0.877560 0.836904
O O16 0.756251 0.775383 0.870485
O O17 0.000000 0.674567 0.609181
#
# Coordination Sequence:
#
# PCOD8221280 Si02
#       7
#     8   8   8   4   4   8   8
#     4  10  21  39  61  83 116 160 206 255 309 355
#     4  11  22  34  54  85 121 162 205 249 296 358
#     4  10  23  41  64  91 120 159 205 255 304 364
#     4  11  24  42  70  88 127 153 209 255 304 385
#     4  11  24  42  64  99 120 167 195 252 320 366
#     4  11  22  38  64  92 129 166 200 247 305 370
#     4  10  21  37  57  87 122 160 200 245 299 356
#
# _framework density 19.370933999999998
#
# number of rings (size 3 to 8) (size 9 to 14) (size 15 to 20)
#    0.000    1.500    2.500    3.500    4.667    2.667 
#    0.000    5.833    0.000    0.000    0.000    0.000 
#    0.000    0.000    0.000    0.000    0.000    0.000 
#
# Total GULP energy -595107.130659 kJ/mol
# GULP energy per Si atom -12398.065222 kJ/mol
# Density = 1.932685 g / cm^3
# Si number density = 19.370934 Si / 1000 Ang^3
#
#
#
# Elastic Constant Matrix: (Units=GPa)
#
#
# Indices 1 2 3 4 5 6 
#
# 1 95.0532 44.3904 38.2518 0.0000 0.0000 0.0000
# 2 44.3904 111.3688 67.7313 0.0000 0.0000 0.0000
# 3 38.2518 67.7313 121.1550 0.0000 0.0000 0.0000
# 4 0.0000 0.0000 0.0000 32.0170 0.0000 0.0000
# 5 0.0000 0.0000 0.0000 0.0000 22.5022 0.0000
# 6 0.0000 0.0000 0.0000 0.0000 0.0000 26.8231
#
#
#
# Elastic Compliance Matrix: (Units=1/GPa)
#
#
# Indices 1 2 3 4 5 6 
#
# 1 0.013197 -0.004130 -0.001857 0.000000 0.000000 0.000000
# 2 -0.004130 0.014898 -0.007024 0.000000 0.000000 0.000000
# 3 -0.001857 -0.007024 0.012767 0.000000 0.000000 0.000000
# 4 0.000000 0.000000 0.000000 0.031233 0.000000 0.000000
# 5 0.000000 0.000000 0.000000 0.000000 0.044440 0.000000
# 6 0.000000 0.000000 0.000000 0.000000 0.000000 0.037281
#
#
# Mechanical properties :
#
#
# Convention : Reuss Voigt Hill
#
# Bulk Modulus (GPa) = 67.39841 69.81378 68.60609
# Shear Modulus (GPa) = 27.05822 28.08202 27.57012
#
# Velocity S-wave (km/s) = 3.74150 3.81162 3.77672
# Velocity P-wave (km/s) = 7.31670 7.44916 7.38323
#
# Compressibility (1/GPa) = 0.01483715
#
# Stress axis : x y z
#
# Youngs Moduli (GPa) = 75.77552 67.12527 78.32540
#
# Poissons Ratio (x) = 0.27726 0.14549
# Poissons Ratio (y) = 0.31299 0.55018
# Poissons Ratio (z) = 0.14075 0.47151
#
# Static dielectric constant tensor:
#      x y z
#    x 3.684760 0.000000 0.000000 
#    y 0.000000 3.313720 0.000000 
#    z 0.000000 0.000000 3.432620 
# 
# 
# High freq. dielectric constant tensor:
#      x y z
#    x 1.767110 0.000000 0.000000 
#    y 0.000000 1.737560 0.000000 
#    z 0.000000 0.000000 1.759990 
# 
# From -- ./inp_files/26318.got.cif
#   From: 2010.03.12/outbox.cif.g09.slc.cpg/sg53_14_cif.got.tgz:26318.got - 2010.04.16 14:36:59.
