data_PCOD8221505
_publ_section_title
;
Structure prediction by ZEFSAII (Michael W. Deem and Ramdas Pophale) SiO2 
 PCOD8221505
Probable space group: P M N A
;
_chemical_formula_sum "Si O2"
_cell_formula_units_Z 56
_cell_length_a 8.748883
_cell_length_b 19.451217
_cell_length_c 15.495037
_cell_angle_alpha 90.000000
_cell_angle_beta 90.000000
_cell_angle_gamma 90.000000
_cell_volume 2636.889951
_symmetry_space_group_name_H-M "P M N A"
_symmetry_group_IT_number 53
_symmetry_cell_setting 'orthorhombic'
loop_
_space_group_symop_operation_xyz
x,y,z
1/2-x,-y,1/2+z
x,-y,-z
1/2-x,y,1/2-z
-x,-y,-z
1/2+x,y,1/2-z
-x,y,z
1/2+x,-y,1/2+z
loop_
_atom_site_type_symbol
_atom_site_label
_atom_site_fract_x
_atom_site_fract_y
_atom_site_fract_z
Si Si1 0.323929 0.687465 0.341487
Si Si2 0.324625 0.837837 0.342727
Si Si3 0.179924 0.834953 0.658326
Si Si4 0.179195 0.554572 0.929276
Si Si5 0.679625 0.322256 0.158030
Si Si6 0.319997 0.440865 0.838151
Si Si7 0.680572 0.079221 0.495993
O O1 0.250000 0.705323 0.250000
O O2 0.500000 0.664239 0.332377
O O3 0.307205 0.761702 0.386576
O O4 0.234777 0.625582 0.396225
O O5 0.250000 0.850047 0.250000
O O6 0.500000 0.855072 0.326569
O O7 0.255531 0.888393 0.415047
O O8 0.250000 0.856600 0.750000
O O9 0.224979 0.755936 0.635909
O O10 0.241537 0.885300 0.585660
O O11 0.000000 0.842574 0.665574
O O12 0.254357 0.629411 0.919248
O O13 0.225895 0.511609 0.844812
O O14 0.000000 0.563494 0.943559
O O15 0.250774 0.500000 0.000000
O O16 0.750000 0.344337 0.250000
O O17 0.500000 0.333693 0.163785
O O18 0.250000 0.410052 0.750000
O O19 0.500000 0.453614 0.842247
O O20 0.500000 0.090113 0.486871
O O21 0.727300 0.000000 0.500000
#
# Coordination Sequence:
#
# PCOD8221505 Si02
#       7
#     8   8   8   8   8   8   8
#     4   9  16  29  49  74 103 136 179 223 268 324
#     4   9  19  35  56  82 114 154 195 239 290 347
#     4  10  22  41  66  94 123 159 204 256 312 369
#     4  11  24  39  54  76 109 148 189 235 290 347
#     4  10  21  39  63  89 116 150 197 250 304 360
#     4  11  21  34  53  75 103 138 177 221 269 322
#     4  10  22  40  61  89 125 161 198 242 296 359
#
# _framework density 21.23714
#
# number of rings (size 3 to 8) (size 9 to 14) (size 15 to 20)
#    0.000    2.000    0.000    4.286    0.000    6.000 
#    0.000    5.714    0.000    0.000    0.000    0.000 
#    0.000    0.000    0.000    0.000    0.000    0.000 
#
# Total GULP energy -693747.192195 kJ/mol
# GULP energy per Si atom -12388.342718 kJ/mol
# Density = 2.118880 g / cm^3
# Si number density = 21.237140 Si / 1000 Ang^3
#
#
#
# Elastic Constant Matrix: (Units=GPa)
#
#
# Indices 1 2 3 4 5 6 
#
# 1 78.9139 39.6871 29.9322 0.0000 0.0000 0.0000
# 2 39.6871 142.5455 57.0693 0.0000 0.0000 0.0000
# 3 29.9322 57.0693 90.4242 0.0000 0.0000 0.0000
# 4 0.0000 0.0000 0.0000 14.7645 0.0000 0.0000
# 5 0.0000 0.0000 0.0000 0.0000 25.5483 0.0000
# 6 0.0000 0.0000 0.0000 0.0000 0.0000 30.7769
#
#
#
# Elastic Compliance Matrix: (Units=1/GPa)
#
#
# Indices 1 2 3 4 5 6 
#
# 1 0.015397 -0.003006 -0.003200 0.000000 0.000000 0.000000
# 2 -0.003006 0.009974 -0.005300 0.000000 0.000000 0.000000
# 3 -0.003200 -0.005300 0.015463 0.000000 0.000000 0.000000
# 4 0.000000 0.000000 0.000000 0.067730 0.000000 0.000000
# 5 0.000000 0.000000 0.000000 0.000000 0.039142 0.000000
# 6 0.000000 0.000000 0.000000 0.000000 0.000000 0.032492
#
#
# Mechanical properties :
#
#
# Convention : Reuss Voigt Hill
#
# Bulk Modulus (GPa) = 56.10570 62.80676 59.45623
# Shear Modulus (GPa) = 23.90629 26.56429 25.23529
#
# Velocity S-wave (km/s) = 3.35876 3.54056 3.45086
# Velocity P-wave (km/s) = 6.44342 6.80825 6.62835
#
# Compressibility (1/GPa) = 0.01782350
#
# Stress axis : x y z
#
# Youngs Moduli (GPa) = 64.94600 100.26013 64.67008
#
# Poissons Ratio (x) = 0.30137 0.20693
# Poissons Ratio (y) = 0.19522 0.34275
# Poissons Ratio (z) = 0.20781 0.53137
#
# Static dielectric constant tensor:
#      x y z
#    x 3.794110 0.000000 0.000000 
#    y 0.000000 4.244430 0.000000 
#    z 0.000000 0.000000 3.858390 
# 
# 
# High freq. dielectric constant tensor:
#      x y z
#    x 1.827920 0.000000 0.000000 
#    y 0.000000 1.849530 0.000000 
#    z 0.000000 0.000000 1.819180 
# 
# From -- ./inp_files/20556.got.cif
#   From: 2010.03.12/outbox.cif.g09.slc.cpg/sg53_11_cif.got.tgz:20556.got - 2010.04.16 14:36:59.
