data_PCOD8221854
_publ_section_title
;
Structure prediction by ZEFSAII (Michael W. Deem and Ramdas Pophale) SiO2 
 PCOD8221854
Probable space group: P M N A
;
_chemical_formula_sum "Si O2"
_cell_formula_units_Z 64
_cell_length_a 8.806083
_cell_length_b 21.288496
_cell_length_c 18.376791
_cell_angle_alpha 90.000000
_cell_angle_beta 90.000000
_cell_angle_gamma 90.000000
_cell_volume 3445.065083
_symmetry_space_group_name_H-M "P M N A"
_symmetry_group_IT_number 53
_symmetry_cell_setting 'orthorhombic'
loop_
_space_group_symop_operation_xyz
x,y,z
1/2-x,-y,1/2+z
x,-y,-z
1/2-x,y,1/2-z
-x,-y,-z
1/2+x,y,1/2-z
-x,y,z
1/2+x,-y,1/2+z
loop_
_atom_site_type_symbol
_atom_site_label
_atom_site_fract_x
_atom_site_fract_y
_atom_site_fract_z
Si Si1 0.678911 0.607119 0.674326
Si Si2 0.680293 0.934868 0.470527
Si Si3 0.179167 0.260341 0.326019
Si Si4 0.676272 0.192201 0.455316
Si Si5 0.325453 0.498257 0.085553
Si Si6 0.320707 0.125795 0.674546
Si Si7 0.822125 0.622410 0.329066
Si Si8 0.824164 0.744220 0.106483
O O1 0.750000 0.583430 0.750000
O O2 0.500000 0.615396 0.683040
O O3 0.750803 0.673079 0.650634
O O4 0.716408 0.556433 0.613398
O O5 0.500000 0.939043 0.467894
O O6 0.727371 0.878046 0.523388
O O7 0.740062 0.920592 0.388937
O O8 0.751606 0.000000 0.500000
O O9 0.250000 0.237234 0.250000
O O10 0.219132 0.210301 0.387731
O O11 0.000000 0.266973 0.317192
O O12 0.500000 0.194314 0.432604
O O13 0.705526 0.239532 0.522210
O O14 0.500000 0.483337 0.105710
O O15 0.272681 0.563510 0.121607
O O16 0.301549 0.500000 0.000000
O O17 0.250000 0.103349 0.750000
O O18 0.500000 0.121471 0.679768
O O19 0.272299 0.197071 0.656061
O O20 0.750000 0.616854 0.250000
O O21 0.773758 0.684712 0.371351
O O22 0.000000 0.624704 0.317745
O O23 0.000000 0.728829 0.119983
#
# Coordination Sequence:
#
# PCOD8221854 Si02
#       8
#     8   8   8   8   8   8   8   8
#     4  11  22  38  60  83 106 139 181 225 277 329
#     4   8  15  31  55  79 107 147 187 219 262 321
#     4  11  22  37  58  82 110 143 182 227 279 330
#     4   9  18  34  56  83 112 142 180 226 270 318
#     4  10  23  41  57  78 109 142 179 225 272 323
#     4   9  17  30  50  77 106 139 178 219 263 310
#     4  11  23  37  55  78 106 142 178 218 268 321
#     4   9  19  34  53  78 109 140 174 219 265 320
#
# _framework density 18.577297999999999
#
# number of rings (size 3 to 8) (size 9 to 14) (size 15 to 20)
#    0.000    2.250    0.000    5.625    1.750    4.250 
#    0.000    2.500    0.000    3.000    0.000    0.000 
#    0.000    0.000    0.000    0.000    0.000    0.000 
#
# Total GULP energy -793671.384656 kJ/mol
# GULP energy per Si atom -12401.115385 kJ/mol
# Density = 1.853501 g / cm^3
# Si number density = 18.577298 Si / 1000 Ang^3
#
#
#
# Elastic Constant Matrix: (Units=GPa)
#
#
# Indices 1 2 3 4 5 6 
#
# 1 85.9419 42.6773 47.8462 0.0000 0.0000 0.0000
# 2 42.6773 121.5171 82.0810 0.0000 0.0000 0.0000
# 3 47.8462 82.0810 127.3415 0.0000 0.0000 0.0000
# 4 0.0000 0.0000 0.0000 25.2449 0.0000 0.0000
# 5 0.0000 0.0000 0.0000 0.0000 30.0028 0.0000
# 6 0.0000 0.0000 0.0000 0.0000 0.0000 5.3537
#
#
#
# Elastic Compliance Matrix: (Units=1/GPa)
#
#
# Indices 1 2 3 4 5 6 
#
# 1 0.015169 -0.002617 -0.004013 0.000000 0.000000 0.000000
# 2 -0.002617 0.015027 -0.008703 0.000000 0.000000 0.000000
# 3 -0.004013 -0.008703 0.014970 0.000000 0.000000 0.000000
# 4 0.000000 0.000000 0.000000 0.039612 0.000000 0.000000
# 5 0.000000 0.000000 0.000000 0.000000 0.033330 0.000000
# 6 0.000000 0.000000 0.000000 0.000000 0.000000 0.186788
#
#
# Mechanical properties :
#
#
# Convention : Reuss Voigt Hill
#
# Bulk Modulus (GPa) = 68.95846 75.55662 72.25754
# Shear Modulus (GPa) = 14.68884 22.93334 18.81109
#
# Velocity S-wave (km/s) = 2.81497 3.51733 3.18557
# Velocity P-wave (km/s) = 6.91127 7.56672 7.24641
#
# Compressibility (1/GPa) = 0.01450148
#
# Stress axis : x y z
#
# Youngs Moduli (GPa) = 65.92241 66.54822 66.80024
#
# Poissons Ratio (x) = 0.17416 0.26805
# Poissons Ratio (y) = 0.17252 0.58133
# Poissons Ratio (z) = 0.26453 0.57914
#
# Static dielectric constant tensor:
#      x y z
#    x 3.238300 0.000000 0.000000 
#    y 0.000000 3.518390 0.000000 
#    z 0.000000 0.000000 3.568690 
# 
# 
# High freq. dielectric constant tensor:
#      x y z
#    x 1.708570 0.000000 0.000000 
#    y 0.000000 1.715760 0.000000 
#    z 0.000000 0.000000 1.729160 
# 
# From -- ./inp_files/26939.got.cif
#   From: 2010.03.12/outbox.cif.g09.slc.cpg/sg53_14_cif.got.tgz:26939.got - 2010.04.16 14:36:59.
