data_PCOD8221183
_publ_section_title
;
Structure prediction by ZEFSAII (Michael W. Deem and Ramdas Pophale) SiO2 
 PCOD8221183
Probable space group: P M N A
;
_chemical_formula_sum "Si O2"
_cell_formula_units_Z 40
_cell_length_a 9.043910
_cell_length_b 7.475629
_cell_length_c 29.864131
_cell_angle_alpha 90.000000
_cell_angle_beta 90.000000
_cell_angle_gamma 90.000000
_cell_volume 2019.081520
_symmetry_space_group_name_H-M "P M N A"
_symmetry_group_IT_number 53
_symmetry_cell_setting 'orthorhombic'
loop_
_space_group_symop_operation_xyz
x,y,z
1/2-x,-y,1/2+z
x,-y,-z
1/2-x,y,1/2-z
-x,-y,-z
1/2+x,y,1/2-z
-x,y,z
1/2+x,-y,1/2+z
loop_
_atom_site_type_symbol
_atom_site_label
_atom_site_fract_x
_atom_site_fract_y
_atom_site_fract_z
Si Si1 0.329006 0.318014 0.110482
Si Si2 0.670851 0.314210 0.209162
Si Si3 0.327285 0.695343 0.291670
Si Si4 0.172438 0.304973 0.890883
Si Si5 0.326374 0.011022 0.948473
O O1 0.500000 0.369443 0.102879
O O2 0.308275 0.228409 0.159977
O O3 0.234660 0.495733 0.103948
O O4 0.273436 0.171682 0.075052
O O5 0.750000 0.203394 0.250000
O O6 0.500000 0.338213 0.221339
O O7 0.751574 0.503318 0.206916
O O8 0.250000 0.803677 0.250000
O O9 0.500000 0.678835 0.281509
O O10 0.298794 0.778301 0.341013
O O11 0.246985 0.180565 0.927387
O O12 0.000000 0.315674 0.900953
O O13 0.500000 0.038544 0.941931
O O14 0.280348 0.000000 0.000000
#
# Coordination Sequence:
#
# PCOD8221183 Si02
#       5
#     8   8   8   8   8
#     4   9  19  36  57  80 107 142 181 220 265 318
#     4   9  15  25  45  73 104 137 172 210 255 308
#     4   9  16  27  46  74 106 140 176 211 254 309
#     4  10  21  36  56  83 113 144 177 219 273 326
#     4  10  22  40  60  80 104 139 185 233 276 323
#
# _framework density 19.810988999999999
#
# number of rings (size 3 to 8) (size 9 to 14) (size 15 to 20)
#    0.000    2.600    0.000    3.000    0.000    5.200 
#    0.000    5.000    0.000    4.800    0.000    0.000 
#    0.000    0.000    0.000    0.000    0.000    0.000 
#
# Total GULP energy -495623.737305 kJ/mol
# GULP energy per Si atom -12390.593433 kJ/mol
# Density = 1.976590 g / cm^3
# Si number density = 19.810989 Si / 1000 Ang^3
#
#
#
# Elastic Constant Matrix: (Units=GPa)
#
#
# Indices 1 2 3 4 5 6 
#
# 1 98.1577 38.7691 72.2971 0.0000 0.0000 0.0000
# 2 38.7691 75.4153 70.0045 0.0000 0.0000 0.0000
# 3 72.2971 70.0045 184.3113 0.0000 0.0000 0.0000
# 4 0.0000 0.0000 0.0000 -25.4762 0.0000 0.0000
# 5 0.0000 0.0000 0.0000 0.0000 36.1540 0.0000
# 6 0.0000 0.0000 0.0000 0.0000 0.0000 -17.6984
#
#
#
# Elastic Compliance Matrix: (Units=1/GPa)
#
#
# Indices 1 2 3 4 5 6 
#
# 1 0.014886 -0.003448 -0.004529 0.000000 0.000000 0.000000
# 2 -0.003448 0.021279 -0.006730 0.000000 0.000000 0.000000
# 3 -0.004529 -0.006730 0.009758 0.000000 0.000000 0.000000
# 4 0.000000 0.000000 0.000000 -0.039252 0.000000 0.000000
# 5 0.000000 0.000000 0.000000 0.000000 0.027659 0.000000
# 6 0.000000 0.000000 0.000000 0.000000 0.000000 -0.056502
#
#
# Mechanical properties :
#
#
# Convention : Reuss Voigt Hill
#
# Bulk Modulus (GPa) = 60.57248 80.00285 70.28766
# Shear Modulus (GPa) = 392.30290 10.38345 201.34318
#
# Velocity S-wave (km/s) = 14.08733 2.29186 10.09221
# Velocity P-wave (km/s) = 17.18270 6.89016 13.09045
#
# Compressibility (1/GPa) = 0.01650915
#
# Stress axis : x y z
#
# Youngs Moduli (GPa) = 67.17927 46.99400 102.47618
#
# Poissons Ratio (x) = 0.16203 0.46415
# Poissons Ratio (y) = 0.23163 0.68964
# Poissons Ratio (z) = 0.30428 0.31626
#
# Static dielectric constant tensor:
#      x y z
#    x 3.647720 0.000000 0.000000 
#    y 0.000000 3.114760 0.000000 
#    z 0.000000 0.000000 4.619950 
# 
# 
# High freq. dielectric constant tensor:
#      x y z
#    x 1.776980 0.000000 0.000000 
#    y 0.000000 1.732120 0.000000 
#    z 0.000000 0.000000 1.792130 
# 
# From -- ./inp_files/37511.got.cif
#   From: 2010.03.12/outbox.cif.g09.slc.cpg/sg53_19_cif.got.tgz:37511.got - 2010.04.16 14:36:59.
