data_PCOD8221325
_publ_section_title
;
Structure prediction by ZEFSAII (Michael W. Deem and Ramdas Pophale) SiO2 
 PCOD8221325
Probable space group: P M N A
;
_chemical_formula_sum "Si O2"
_cell_formula_units_Z 48
_cell_length_a 8.710366
_cell_length_b 15.130441
_cell_length_c 17.526061
_cell_angle_alpha 90.000000
_cell_angle_beta 90.000000
_cell_angle_gamma 90.000000
_cell_volume 2309.789003
_symmetry_space_group_name_H-M "P M N A"
_symmetry_group_IT_number 53
_symmetry_cell_setting 'orthorhombic'
loop_
_space_group_symop_operation_xyz
x,y,z
1/2-x,-y,1/2+z
x,-y,-z
1/2-x,y,1/2-z
-x,-y,-z
1/2+x,y,1/2-z
-x,y,z
1/2+x,-y,1/2+z
loop_
_atom_site_type_symbol
_atom_site_label
_atom_site_fract_x
_atom_site_fract_y
_atom_site_fract_z
Si Si1 0.178918 0.178048 0.084579
Si Si2 0.681068 0.686327 0.169002
Si Si3 0.681153 0.982856 0.832951
Si Si4 0.681147 0.852083 0.410400
Si Si5 0.679045 0.646717 0.669742
Si Si6 0.680830 0.525906 0.414433
O O1 0.218152 0.277961 0.108282
O O2 0.000000 0.155182 0.096801
O O3 0.279199 0.114659 0.137776
O O4 0.227586 0.168807 0.996986
O O5 0.750000 0.657639 0.250000
O O6 0.500000 0.689694 0.175644
O O7 0.741901 0.782339 0.146137
O O8 0.731113 0.615225 0.106068
O O9 0.750000 0.999485 0.750000
O O10 0.500000 0.996144 0.829532
O O11 0.755680 0.051257 0.891913
O O12 0.500000 0.848731 0.398200
O O13 0.750000 0.672848 0.750000
O O14 0.500000 0.638781 0.681815
O O15 0.741810 0.553061 0.639533
O O16 0.722995 0.500000 0.500000
O O17 0.500000 0.542758 0.405372
#
# Coordination Sequence:
#
# PCOD8221325 Si02
#       6
#     8   8   8   8   8   8
#     4  10  22  41  64  90 120 158 201 245 299 361
#     4  12  25  41  62  90 124 161 205 254 305 362
#     4  12  25  41  62  90 124 160 201 248 299 357
#     4  11  23  42  66  90 120 158 201 250 305 363
#     4  10  21  37  59  87 118 154 197 243 293 351
#     4  10  21  40  64  89 120 160 204 250 303 362
#
# _framework density 20.781120000000001
#
# number of rings (size 3 to 8) (size 9 to 14) (size 15 to 20)
#    0.000    1.167    0.000    6.500    0.000   10.333 
#    0.000    1.667    0.000    0.000    0.000    0.000 
#    0.000    0.000    0.000    0.000    0.000    0.000 
#
# Total GULP energy -595573.761810 kJ/mol
# GULP energy per Si atom -12407.786704 kJ/mol
# Density = 2.073382 g / cm^3
# Si number density = 20.781120 Si / 1000 Ang^3
#
#
#
# Elastic Constant Matrix: (Units=GPa)
#
#
# Indices 1 2 3 4 5 6 
#
# 1 92.2754 23.8109 35.8662 0.0000 0.0000 0.0000
# 2 23.8109 81.3085 10.0114 0.0000 0.0000 0.0000
# 3 35.8662 10.0114 94.5862 0.0000 0.0000 0.0000
# 4 0.0000 0.0000 0.0000 43.2575 0.0000 0.0000
# 5 0.0000 0.0000 0.0000 0.0000 28.6341 0.0000
# 6 0.0000 0.0000 0.0000 0.0000 0.0000 52.5314
#
#
#
# Elastic Compliance Matrix: (Units=1/GPa)
#
#
# Indices 1 2 3 4 5 6 
#
# 1 0.013572 -0.003385 -0.004788 0.000000 0.000000 0.000000
# 2 -0.003385 0.013305 -0.000125 0.000000 0.000000 0.000000
# 3 -0.004788 -0.000125 0.012401 0.000000 0.000000 0.000000
# 4 0.000000 0.000000 0.000000 0.023117 0.000000 0.000000
# 5 0.000000 0.000000 0.000000 0.000000 0.034923 0.000000
# 6 0.000000 0.000000 0.000000 0.000000 0.000000 0.019036
#
#
# Mechanical properties :
#
#
# Convention : Reuss Voigt Hill
#
# Bulk Modulus (GPa) = 44.08600 45.28301 44.68450
# Shear Modulus (GPa) = 35.58433 38.11671 36.85052
#
# Velocity S-wave (km/s) = 4.14253 4.28740 4.21559
# Velocity P-wave (km/s) = 6.64389 6.80785 6.72637
#
# Compressibility (1/GPa) = 0.02268294
#
# Stress axis : x y z
#
# Youngs Moduli (GPa) = 73.68351 75.15724 80.63788
#
# Poissons Ratio (x) = 0.25440 0.38609
# Poissons Ratio (y) = 0.24941 0.01006
# Poissons Ratio (z) = 0.35279 0.00938
#
# Static dielectric constant tensor:
#      x y z
#    x 3.689960 0.000000 0.000000 
#    y 0.000000 3.904940 0.000000 
#    z 0.000000 0.000000 3.826420 
# 
# 
# High freq. dielectric constant tensor:
#      x y z
#    x 1.807960 0.000000 0.000000 
#    y 0.000000 1.829480 0.000000 
#    z 0.000000 0.000000 1.827780 
# 
# From -- ./inp_files/26227.got.cif
#   From: 2010.03.12/outbox.cif.g09.slc.cpg/sg53_14_cif.got.tgz:26227.got - 2010.04.16 14:36:59.
