data_PCOD8221419
_publ_section_title
;
Structure prediction by ZEFSAII (Michael W. Deem and Ramdas Pophale) SiO2 
 PCOD8221419
Probable space group: P M N A
;
_chemical_formula_sum "Si O2"
_cell_formula_units_Z 64
_cell_length_a 15.061777
_cell_length_b 8.630560
_cell_length_c 23.645215
_cell_angle_alpha 90.000000
_cell_angle_beta 90.000000
_cell_angle_gamma 90.000000
_cell_volume 3073.678623
_symmetry_space_group_name_H-M "P M N A"
_symmetry_group_IT_number 53
_symmetry_cell_setting 'orthorhombic'
loop_
_space_group_symop_operation_xyz
x,y,z
1/2-x,-y,1/2+z
x,-y,-z
1/2-x,y,1/2-z
-x,-y,-z
1/2+x,y,1/2-z
-x,y,z
1/2+x,-y,1/2+z
loop_
_atom_site_type_symbol
_atom_site_label
_atom_site_fract_x
_atom_site_fract_y
_atom_site_fract_z
Si Si1 0.397114 0.899864 0.262188
Si Si2 0.603270 0.930680 0.852098
Si Si3 0.098766 0.427513 0.135831
Si Si4 0.747320 0.567703 0.439266
Si Si5 0.150707 0.556942 0.250755
Si Si6 0.899793 0.424866 0.367749
Si Si7 0.237804 0.068444 0.559664
Si Si8 0.603315 0.930073 0.622959
O O1 0.500000 0.856377 0.262046
O O2 0.343978 0.740164 0.260437
O O3 0.371858 0.008988 0.209949
O O4 0.370037 0.991961 0.318106
O O5 0.500000 0.960068 0.866361
O O6 0.627772 0.750239 0.853660
O O7 0.662645 0.023015 0.896058
O O8 0.166641 0.538382 0.103607
O O9 0.096744 0.468131 0.202195
O O10 0.126583 0.250403 0.127149
O O11 0.000000 0.456531 0.111655
O O12 0.722098 0.500000 0.500000
O O13 0.836975 0.489491 0.416692
O O14 0.760630 0.748563 0.444658
O O15 0.250000 0.490452 0.250000
O O16 0.106034 0.526596 0.311095
O O17 0.000000 0.434183 0.391006
O O18 0.208169 0.000000 0.500000
O O19 0.335520 0.004283 0.574728
O O20 0.500000 0.958050 0.607818
#
# Coordination Sequence:
#
# PCOD8221419 Si02
#       8
#     8   8   8   8   8   8   8   8
#     4  10  21  38  60  93 130 165 207 253 309 377
#     4  10  23  42  66  94 126 165 209 257 313 370
#     4  11  23  43  67  94 129 168 209 260 315 374
#     4  12  26  45  66  95 126 162 216 260 314 374
#     4  12  23  36  60  98 133 168 207 256 314 375
#     4  11  23  43  67  94 129 168 209 260 315 374
#     4  12  26  43  66  91 124 166 208 262 310 368
#     4  10  23  42  66  94 126 165 209 257 313 370
#
# _framework density 20.821954000000002
#
# number of rings (size 3 to 8) (size 9 to 14) (size 15 to 20)
#    0.000    1.000    1.250    5.625    1.750    6.000 
#    0.000    0.000    0.000    0.000    0.000    0.000 
#    0.000    0.000    0.000    0.000    0.000    0.000 
#
# Total GULP energy -794051.951144 kJ/mol
# GULP energy per Si atom -12407.061737 kJ/mol
# Density = 2.077456 g / cm^3
# Si number density = 20.821954 Si / 1000 Ang^3
#
#
#
# Elastic Constant Matrix: (Units=GPa)
#
#
# Indices 1 2 3 4 5 6 
#
# 1 82.2915 30.5690 13.6559 0.0000 0.0000 0.0000
# 2 30.5690 112.4067 13.0016 0.0000 0.0000 0.0000
# 3 13.6559 13.0016 71.9679 0.0000 0.0000 0.0000
# 4 0.0000 0.0000 0.0000 39.4298 0.0000 0.0000
# 5 0.0000 0.0000 0.0000 0.0000 -89.2260 0.0000
# 6 0.0000 0.0000 0.0000 0.0000 0.0000 37.9425
#
#
#
# Elastic Compliance Matrix: (Units=1/GPa)
#
#
# Indices 1 2 3 4 5 6 
#
# 1 0.013788 -0.003521 -0.001980 0.000000 0.000000 0.000000
# 2 -0.003521 0.009985 -0.001136 0.000000 0.000000 0.000000
# 3 -0.001980 -0.001136 0.014476 0.000000 0.000000 0.000000
# 4 0.000000 0.000000 0.000000 0.025362 0.000000 0.000000
# 5 0.000000 0.000000 0.000000 0.000000 -0.011207 0.000000
# 6 0.000000 0.000000 0.000000 0.000000 0.000000 0.026356
#
#
# Mechanical properties :
#
#
# Convention : Reuss Voigt Hill
#
# Bulk Modulus (GPa) = 40.03867 42.34657 41.19262
# Shear Modulus (GPa) = 49.82155 11.59190 30.70673
#
# Velocity S-wave (km/s) = 4.89687 2.36204 3.84439
# Velocity P-wave (km/s) = 7.15844 5.27452 6.28744
#
# Compressibility (1/GPa) = 0.02497585
#
# Stress axis : x y z
#
# Youngs Moduli (GPa) = 72.52478 100.14919 69.07963
#
# Poissons Ratio (x) = 0.35260 0.13680
# Poissons Ratio (y) = 0.25534 0.07846
# Poissons Ratio (z) = 0.14362 0.11375
#
# Static dielectric constant tensor:
#      x y z
#    x 3.820440 0.000000 0.000000 
#    y 0.000000 3.830600 0.000000 
#    z 0.000000 0.000000 3.788200 
# 
# 
# High freq. dielectric constant tensor:
#      x y z
#    x 1.827250 0.000000 0.000000 
#    y 0.000000 1.830160 0.000000 
#    z 0.000000 0.000000 1.810380 
# 
# From -- ./inp_files/35390.got.cif
#   From: 2010.03.12/outbox.cif.g09.slc.cpg/sg53_18_cif.got.tgz:35390.got - 2010.04.16 14:36:59.
