data_PCOD8221193
_publ_section_title
;
Structure prediction by ZEFSAII (Michael W. Deem and Ramdas Pophale) SiO2 
 PCOD8221193
Probable space group: P M N A
;
_chemical_formula_sum "Si O2"
_cell_formula_units_Z 28
_cell_length_a 9.501736
_cell_length_b 11.354264
_cell_length_c 12.941671
_cell_angle_alpha 90.000000
_cell_angle_beta 90.000000
_cell_angle_gamma 90.000000
_cell_volume 1396.215010
_symmetry_space_group_name_H-M "P M N A"
_symmetry_group_IT_number 53
_symmetry_cell_setting 'orthorhombic'
loop_
_space_group_symop_operation_xyz
x,y,z
1/2-x,-y,1/2+z
x,-y,-z
1/2-x,y,1/2-z
-x,-y,-z
1/2+x,y,1/2-z
-x,y,z
1/2+x,-y,1/2+z
loop_
_atom_site_type_symbol
_atom_site_label
_atom_site_fract_x
_atom_site_fract_y
_atom_site_fract_z
Si Si1 0.839125 0.194879 0.150522
Si Si2 0.664966 0.364785 0.014913
Si Si3 0.751940 0.000000 0.000000
Si Si4 0.345395 0.184240 0.846545
O O1 0.750000 0.153187 0.250000
O O2 0.761059 0.310169 0.105077
O O3 0.000000 0.226992 0.180586
O O4 0.846681 0.088741 0.067694
O O5 0.500000 0.347048 0.042918
O O6 0.705188 0.500000 0.000000
O O7 0.702375 0.301602 0.906779
O O8 0.652709 0.074793 0.924846
O O9 0.250000 0.156793 0.750000
O O10 0.500000 0.201195 0.800863
#
# Coordination Sequence:
#
# PCOD8221193 Si02
#       4
#     8   8   4   8
#     4  11  23  38  58  85 115 149 189 233 282 336
#     4   9  20  40  61  82 112 149 188 231 278 330
#     4  10  22  38  58  80 110 150 192 232 276 332
#     4  10  21  36  57  83 111 144 183 228 279 333
#
# _framework density 20.054217999999999
#
# number of rings (size 3 to 8) (size 9 to 14) (size 15 to 20)
#    0.000    2.000    0.000    2.571    0.000   13.143 
#    0.000    2.857    0.000    0.000    0.000    0.000 
#    0.000    0.000    0.000    0.000    0.000    0.000 
#
# Total GULP energy -347189.526861 kJ/mol
# GULP energy per Si atom -12399.625959 kJ/mol
# Density = 2.000857 g / cm^3
# Si number density = 20.054218 Si / 1000 Ang^3
#
#
#
# Elastic Constant Matrix: (Units=GPa)
#
#
# Indices 1 2 3 4 5 6 
#
# 1 111.0957 33.7036 58.2116 0.0000 0.0000 0.0000
# 2 33.7036 141.0361 51.7953 0.0000 0.0000 0.0000
# 3 58.2116 51.7953 124.0512 0.0000 0.0000 0.0000
# 4 0.0000 0.0000 0.0000 16.5349 0.0000 0.0000
# 5 0.0000 0.0000 0.0000 0.0000 28.0221 0.0000
# 6 0.0000 0.0000 0.0000 0.0000 0.0000 -46.2762
#
#
#
# Elastic Compliance Matrix: (Units=1/GPa)
#
#
# Indices 1 2 3 4 5 6 
#
# 1 0.012042 -0.000948 -0.005255 0.000000 0.000000 0.000000
# 2 -0.000948 0.008449 -0.003083 0.000000 0.000000 0.000000
# 3 -0.005255 -0.003083 0.011814 0.000000 0.000000 0.000000
# 4 0.000000 0.000000 0.000000 0.060478 0.000000 0.000000
# 5 0.000000 0.000000 0.000000 0.000000 0.035686 0.000000
# 6 0.000000 0.000000 0.000000 0.000000 0.000000 -0.021609
#
#
# Mechanical properties :
#
#
# Convention : Reuss Voigt Hill
#
# Bulk Modulus (GPa) = 72.81239 73.73376 73.27307
# Shear Modulus (GPa) = 38.45838 15.15434 26.80636
#
# Velocity S-wave (km/s) = 4.38393 2.75192 3.66005
# Velocity P-wave (km/s) = 7.87475 6.85160 7.38093
#
# Compressibility (1/GPa) = 0.01373393
#
# Stress axis : x y z
#
# Youngs Moduli (GPa) = 83.03990 118.35559 84.64201
#
# Poissons Ratio (x) = 0.11218 0.44481
# Poissons Ratio (y) = 0.07871 0.26095
# Poissons Ratio (z) = 0.43639 0.36489
#
# Static dielectric constant tensor:
#      x y z
#    x 3.460240 0.000000 0.000000 
#    y 0.000000 3.674240 0.000000 
#    z 0.000000 0.000000 3.625560 
# 
# 
# High freq. dielectric constant tensor:
#      x y z
#    x 1.777310 0.000000 0.000000 
#    y 0.000000 1.783470 0.000000 
#    z 0.000000 0.000000 1.782570 
# 
# From -- ./inp_files/14514.got.cif
#   From: 2010.03.12/outbox.cif.g09.slc.cpg/sg53_8_cif.got.tgz:14514.got - 2010.04.16 14:36:59.
