data_PCOD8221478
_publ_section_title
;
Structure prediction by ZEFSAII (Michael W. Deem and Ramdas Pophale) SiO2 
 PCOD8221478
Probable space group: P M N A
;
_chemical_formula_sum "Si O2"
_cell_formula_units_Z 64
_cell_length_a 22.419987
_cell_length_b 16.087851
_cell_length_c 8.298170
_cell_angle_alpha 90.000000
_cell_angle_beta 90.000000
_cell_angle_gamma 90.000000
_cell_volume 2993.062044
_symmetry_space_group_name_H-M "P M N A"
_symmetry_group_IT_number 53
_symmetry_cell_setting 'orthorhombic'
loop_
_space_group_symop_operation_xyz
x,y,z
1/2-x,-y,1/2+z
x,-y,-z
1/2-x,y,1/2-z
-x,-y,-z
1/2+x,y,1/2-z
-x,y,z
1/2+x,-y,1/2+z
loop_
_atom_site_type_symbol
_atom_site_label
_atom_site_fract_x
_atom_site_fract_y
_atom_site_fract_z
Si Si1 0.286437 0.657447 0.517568
Si Si2 0.567357 0.146175 0.918324
Si Si3 0.626273 0.455467 0.659988
Si Si4 0.671570 0.078721 0.109697
Si Si5 0.774697 0.843412 0.074747
Si Si6 0.337543 0.613871 0.844126
Si Si7 0.877251 0.038806 0.850709
Si Si8 0.432360 0.334035 0.898303
O O1 0.315213 0.593684 0.393143
O O2 0.284914 0.745724 0.432784
O O3 0.325961 0.666186 0.680523
O O4 0.221469 0.619009 0.548193
O O5 0.500000 0.133903 0.982050
O O6 0.579092 0.077379 0.781092
O O7 0.576707 0.238142 0.845083
O O8 0.612817 0.132581 0.065551
O O9 0.597613 0.500000 0.500000
O O10 0.647061 0.519547 0.797009
O O11 0.580550 0.391841 0.743653
O O12 0.663728 0.038829 0.285983
O O13 0.730561 0.133875 0.075210
O O14 0.678638 0.000000 0.000000
O O15 0.750000 0.867289 0.250000
O O16 0.836634 0.891104 0.066110
O O17 0.392389 0.649919 0.944868
O O18 0.914910 0.000000 0.000000
O O19 0.500000 0.350633 0.952886
#
# Coordination Sequence:
#
# PCOD8221478 Si02
#       8
#     8   8   8   8   8   8   8   8
#     4  10  24  40  62  94 131 164 202 257 315 373
#     4  10  22  42  64  86 116 159 208 253 306 363
#     4  10  23  41  63  92 130 164 205 261 312 369
#     4  10  21  39  60  88 120 155 201 247 298 362
#     4  12  22  38  62  91 123 166 203 247 308 375
#     4  10  23  41  61  96 127 164 208 256 310 374
#     4  11  25  38  62  91 124 160 201 253 306 365
#     4  11  24  43  67  89 119 167 216 258 308 380
#
# _framework density 21.382784000000001
#
# number of rings (size 3 to 8) (size 9 to 14) (size 15 to 20)
#    0.000    1.500    2.500    2.250    1.750   12.750 
#    0.000    3.125    0.000    6.750    0.000    0.000 
#    0.000    0.000    0.000    0.000    0.000    0.000 
#
# Total GULP energy -793264.663608 kJ/mol
# GULP energy per Si atom -12394.760369 kJ/mol
# Density = 2.133412 g / cm^3
# Si number density = 21.382784 Si / 1000 Ang^3
#
#
#
# Elastic Constant Matrix: (Units=GPa)
#
#
# Indices 1 2 3 4 5 6 
#
# 1 88.6736 16.5071 7.8196 0.0000 0.0000 0.0000
# 2 16.5071 87.0474 17.2701 0.0000 0.0000 0.0000
# 3 7.8196 17.2701 49.2408 0.0000 0.0000 0.0000
# 4 0.0000 0.0000 0.0000 28.8014 0.0000 0.0000
# 5 0.0000 0.0000 0.0000 0.0000 2.5015 0.0000
# 6 0.0000 0.0000 0.0000 0.0000 0.0000 13.4333
#
#
#
# Elastic Compliance Matrix: (Units=1/GPa)
#
#
# Indices 1 2 3 4 5 6 
#
# 1 0.011752 -0.001997 -0.001166 0.000000 0.000000 0.000000
# 2 -0.001997 0.012687 -0.004132 0.000000 0.000000 0.000000
# 3 -0.001166 -0.004132 0.021943 0.000000 0.000000 0.000000
# 4 0.000000 0.000000 0.000000 0.034721 0.000000 0.000000
# 5 0.000000 0.000000 0.000000 0.000000 0.399768 0.000000
# 6 0.000000 0.000000 0.000000 0.000000 0.000000 0.074442
#
#
# Mechanical properties :
#
#
# Convention : Reuss Voigt Hill
#
# Bulk Modulus (GPa) = 31.45587 34.23949 32.84768
# Shear Modulus (GPa) = 8.61328 21.17156 14.89242
#
# Velocity S-wave (km/s) = 2.00920 3.15003 2.64193
# Velocity P-wave (km/s) = 4.48612 5.41089 4.97006
#
# Compressibility (1/GPa) = 0.03179057
#
# Stress axis : x y z
#
# Youngs Moduli (GPa) = 85.09247 78.82330 45.57299
#
# Poissons Ratio (x) = 0.15743 0.05313
# Poissons Ratio (y) = 0.16995 0.18832
# Poissons Ratio (z) = 0.09920 0.32573
#
# Static dielectric constant tensor:
#      x y z
#    x 3.806640 0.000000 0.000000 
#    y 0.000000 5.289040 0.000000 
#    z 0.000000 0.000000 5.206730 
# 
# 
# High freq. dielectric constant tensor:
#      x y z
#    x 1.817820 0.000000 0.000000 
#    y 0.000000 1.854850 0.000000 
#    z 0.000000 0.000000 1.840550 
# 
# From -- ./inp_files/11948.got.cif
#   From: 2010.03.12/outbox.cif.g09.slc.cpg/sg53_6_cif.got.tgz:11948.got - 2010.04.16 14:36:59.
