data_PCOD8221056
_publ_section_title
;
Structure prediction by ZEFSAII (Michael W. Deem and Ramdas Pophale) SiO2 
 PCOD8221056
Probable space group: P M N A
;
_chemical_formula_sum "Si O2"
_cell_formula_units_Z 40
_cell_length_a 9.049401
_cell_length_b 7.851650
_cell_length_c 29.586609
_cell_angle_alpha 90.000000
_cell_angle_beta 90.000000
_cell_angle_gamma 90.000000
_cell_volume 2102.209322
_symmetry_space_group_name_H-M "P M N A"
_symmetry_group_IT_number 53
_symmetry_cell_setting 'orthorhombic'
loop_
_space_group_symop_operation_xyz
x,y,z
1/2-x,-y,1/2+z
x,-y,-z
1/2-x,y,1/2-z
-x,-y,-z
1/2+x,y,1/2-z
-x,y,z
1/2+x,-y,1/2+z
loop_
_atom_site_type_symbol
_atom_site_label
_atom_site_fract_x
_atom_site_fract_y
_atom_site_fract_z
Si Si1 0.332230 0.568854 0.356567
Si Si2 0.825352 0.046878 0.862505
Si Si3 0.166702 0.603799 0.044335
Si Si4 0.675768 0.741228 0.701761
Si Si5 0.672187 0.938538 0.048096
O O1 0.500000 0.583485 0.340634
O O2 0.264532 0.761037 0.351185
O O3 0.322922 0.499768 0.408474
O O4 0.258549 0.424391 0.324809
O O5 0.755581 0.976664 0.909364
O O6 0.000000 0.053001 0.869910
O O7 0.778565 0.915674 0.823539
O O8 0.295343 0.739670 0.048823
O O9 0.000000 0.681287 0.040303
O O10 0.206063 0.500000 0.000000
O O11 0.750000 0.746105 0.750000
O O12 0.500000 0.731362 0.706369
O O13 0.500000 0.978256 0.052739
O O14 0.735803 0.000000 0.000000
#
# Coordination Sequence:
#
# PCOD8221056 Si02
#       5
#     8   8   8   8   8
#     4   8  16  33  52  76 106 132 171 221 265 313
#     4   9  19  36  57  77 103 142 183 227 268 313
#     4   9  18  32  54  80 104 138 185 227 265 318
#     4  10  21  36  56  80 106 137 176 224 275 322
#     4  10  21  34  49  76 113 147 177 218 273 329
#
# _framework density 19.027602000000002
#
# number of rings (size 3 to 8) (size 9 to 14) (size 15 to 20)
#    0.000    2.800    0.000    1.800    2.800    3.600 
#    0.000    4.000    0.000    0.000    0.000    0.000 
#    0.000    0.000    0.000    0.000    0.000    0.000 
#
# Total GULP energy -495536.962661 kJ/mol
# GULP energy per Si atom -12388.424067 kJ/mol
# Density = 1.898429 g / cm^3
# Si number density = 19.027602 Si / 1000 Ang^3
#
#
#
# Elastic Constant Matrix: (Units=GPa)
#
#
# Indices 1 2 3 4 5 6 
#
# 1 25.2690 19.9522 35.1876 0.0000 0.0000 0.0000
# 2 19.9522 107.1831 84.7702 0.0000 0.0000 0.0000
# 3 35.1876 84.7702 180.4426 0.0000 0.0000 0.0000
# 4 0.0000 0.0000 0.0000 36.7121 0.0000 0.0000
# 5 0.0000 0.0000 0.0000 0.0000 30.1035 0.0000
# 6 0.0000 0.0000 0.0000 0.0000 0.0000 16.2387
#
#
#
# Elastic Compliance Matrix: (Units=1/GPa)
#
#
# Indices 1 2 3 4 5 6 
#
# 1 0.054844 -0.002786 -0.009386 0.000000 0.000000 0.000000
# 2 -0.002786 0.014987 -0.006498 0.000000 0.000000 0.000000
# 3 -0.009386 -0.006498 0.010425 0.000000 0.000000 0.000000
# 4 0.000000 0.000000 0.000000 0.027239 0.000000 0.000000
# 5 0.000000 0.000000 0.000000 0.000000 0.033219 0.000000
# 6 0.000000 0.000000 0.000000 0.000000 0.000000 0.061581
#
#
# Mechanical properties :
#
#
# Convention : Reuss Voigt Hill
#
# Bulk Modulus (GPa) = 23.30074 65.85720 44.57897
# Shear Modulus (GPa) = 19.68963 28.14318 23.91640
#
# Velocity S-wave (km/s) = 3.22031 3.85004 3.54917
# Velocity P-wave (km/s) = 5.10877 7.37905 6.34625
#
# Compressibility (1/GPa) = 0.04291710
#
# Stress axis : x y z
#
# Youngs Moduli (GPa) = 18.23343 66.72291 95.92429
#
# Poissons Ratio (x) = 0.18587 0.90038
# Poissons Ratio (y) = 0.05079 0.62329
# Poissons Ratio (z) = 0.17115 0.43354
#
# Static dielectric constant tensor:
#      x y z
#    x 3.114990 0.000000 0.000000 
#    y 0.000000 3.756000 0.000000 
#    z 0.000000 0.000000 3.769620 
# 
# 
# High freq. dielectric constant tensor:
#      x y z
#    x 1.705050 0.000000 0.000000 
#    y 0.000000 1.730980 0.000000 
#    z 0.000000 0.000000 1.749840 
# 
# From -- ./inp_files/33624.got.cif
#   From: 2010.03.12/outbox.cif.g09.slc.cpg/sg53_17_cif.got.tgz:33624.got - 2010.04.16 14:36:59.
