data_PCOD8221880
_publ_section_title
;
Structure prediction by ZEFSAII (Michael W. Deem and Ramdas Pophale) SiO2 
 PCOD8221880
Probable space group: P M N A
;
_chemical_formula_sum "Si O2"
_cell_formula_units_Z 32
_cell_length_a 19.052361
_cell_length_b 9.051401
_cell_length_c 8.169445
_cell_angle_alpha 90.000000
_cell_angle_beta 90.000000
_cell_angle_gamma 90.000000
_cell_volume 1408.825360
_symmetry_space_group_name_H-M "P M N A"
_symmetry_group_IT_number 53
_symmetry_cell_setting 'orthorhombic'
loop_
_space_group_symop_operation_xyz
x,y,z
1/2-x,-y,1/2+z
x,-y,-z
1/2-x,y,1/2-z
-x,-y,-z
1/2+x,y,1/2-z
-x,y,z
1/2+x,-y,1/2+z
loop_
_atom_site_type_symbol
_atom_site_label
_atom_site_fract_x
_atom_site_fract_y
_atom_site_fract_z
Si Si1 0.693389 0.614316 0.879666
Si Si2 0.802772 0.877007 0.389547
Si Si3 0.919509 0.909609 0.164601
Si Si4 0.420361 0.564999 0.322528
O O1 0.750000 0.673146 0.750000
O O2 0.733381 0.500000 0.000000
O O3 0.667625 0.748083 0.993780
O O4 0.627494 0.471987 0.198064
O O5 0.750000 0.815808 0.250000
O O6 0.868581 0.965563 0.308485
O O7 0.763129 0.000000 0.500000
O O8 0.899333 0.736234 0.153812
O O9 0.000000 0.935039 0.214210
O O10 0.902486 0.000000 0.000000
O O11 0.411809 0.500000 0.500000
O O12 0.500000 0.550316 0.257892
#
# Coordination Sequence:
#
# PCOD8221880 Si02
#       4
#     8   8   8   8
#     4  12  25  42  68  97 133 173 220 279 334 397
#     4  12  27  45  66  97 132 177 224 278 334 400
#     4  10  23  44  69  97 134 176 219 271 334 402
#     4  10  23  42  68 101 134 172 217 271 337 401
#
# _framework density 22.713958000000002
#
# number of rings (size 3 to 8) (size 9 to 14) (size 15 to 20)
#    0.000    1.000    2.500    3.000    7.000    2.000 
#    0.000    0.000    0.000    0.000    0.000    0.000 
#    0.000    0.000    0.000    0.000    0.000    0.000 
#
# Total GULP energy -396623.328071 kJ/mol
# GULP energy per Si atom -12394.479002 kJ/mol
# Density = 2.266226 g / cm^3
# Si number density = 22.713958 Si / 1000 Ang^3
#
#
#
# Elastic Constant Matrix: (Units=GPa)
#
#
# Indices 1 2 3 4 5 6 
#
# 1 117.8709 42.5923 72.3554 0.0000 0.0000 0.0000
# 2 42.5923 117.3949 66.4246 0.0000 0.0000 0.0000
# 3 72.3554 66.4246 134.0929 0.0000 0.0000 0.0000
# 4 0.0000 0.0000 0.0000 57.2843 0.0000 0.0000
# 5 0.0000 0.0000 0.0000 0.0000 27.8593 0.0000
# 6 0.0000 0.0000 0.0000 0.0000 0.0000 27.2720
#
#
#
# Elastic Compliance Matrix: (Units=1/GPa)
#
#
# Indices 1 2 3 4 5 6 
#
# 1 0.012773 -0.001020 -0.006387 0.000000 0.000000 0.000000
# 2 -0.001020 0.011917 -0.005353 0.000000 0.000000 0.000000
# 3 -0.006387 -0.005353 0.013555 0.000000 0.000000 0.000000
# 4 0.000000 0.000000 0.000000 0.017457 0.000000 0.000000
# 5 0.000000 0.000000 0.000000 0.000000 0.035895 0.000000
# 6 0.000000 0.000000 0.000000 0.000000 0.000000 0.036668
#
#
# Mechanical properties :
#
#
# Convention : Reuss Voigt Hill
#
# Bulk Modulus (GPa) = 78.58091 81.34480 79.96285
# Shear Modulus (GPa) = 31.64029 35.01556 33.32793
#
# Velocity S-wave (km/s) = 3.73633 3.93057 3.83468
# Velocity P-wave (km/s) = 7.29962 7.51595 7.40858
#
# Compressibility (1/GPa) = 0.01272574
#
# Stress axis : x y z
#
# Youngs Moduli (GPa) = 78.28921 83.91264 73.77200
#
# Poissons Ratio (x) = 0.08563 0.47117
# Poissons Ratio (y) = 0.07989 0.39488
# Poissons Ratio (z) = 0.50002 0.44916
#
# Static dielectric constant tensor:
#      x y z
#    x 4.051940 0.000000 0.000000 
#    y 0.000000 4.755410 0.000000 
#    z 0.000000 0.000000 4.406170 
# 
# 
# High freq. dielectric constant tensor:
#      x y z
#    x 1.894270 0.000000 0.000000 
#    y 0.000000 1.901550 0.000000 
#    z 0.000000 0.000000 1.910290 
# 
# From -- ./inp_files/2627.got.cif
#   From: 2010.03.12/outbox.cif.g09.slc.cpg/sg53_2_cif.got.tgz:2627.got - 2010.04.16 14:36:59.
