data_PCOD8221289
_publ_section_title
;
Structure prediction by ZEFSAII (Michael W. Deem and Ramdas Pophale) SiO2 
 PCOD8221289
Probable space group: P M N A
;
_chemical_formula_sum "Si O2"
_cell_formula_units_Z 32
_cell_length_a 8.616070
_cell_length_b 20.502076
_cell_length_c 9.233117
_cell_angle_alpha 90.000000
_cell_angle_beta 90.000000
_cell_angle_gamma 90.000000
_cell_volume 1631.005391
_symmetry_space_group_name_H-M "P M N A"
_symmetry_group_IT_number 53
_symmetry_cell_setting 'orthorhombic'
loop_
_space_group_symop_operation_xyz
x,y,z
1/2-x,-y,1/2+z
x,-y,-z
1/2-x,y,1/2-z
-x,-y,-z
1/2+x,y,1/2-z
-x,y,z
1/2+x,-y,1/2+z
loop_
_atom_site_type_symbol
_atom_site_label
_atom_site_fract_x
_atom_site_fract_y
_atom_site_fract_z
Si Si1 0.816520 0.302144 0.590877
Si Si2 0.683382 0.938437 0.409816
Si Si3 0.183866 0.813574 0.908590
Si Si4 0.181999 0.561716 0.096255
O O1 0.750000 0.286886 0.750000
O O2 0.752577 0.252249 0.473640
O O3 0.765386 0.373595 0.535733
O O4 0.000000 0.297224 0.598768
O O5 0.750000 0.939543 0.250000
O O6 0.500000 0.941746 0.398475
O O7 0.738505 0.873108 0.490421
O O8 0.748078 0.000000 0.500000
O O9 0.250000 0.825915 0.750000
O O10 0.000000 0.808081 0.900450
O O11 0.250000 0.543171 0.250000
O O12 0.000000 0.576090 0.106355
O O13 0.222744 0.500000 0.000000
#
# Coordination Sequence:
#
# PCOD8221289 Si02
#       4
#     8   8   8   8
#     4  11  22  38  60  84 114 151 192 237 286 341
#     4  10  22  39  60  87 117 151 191 235 284 339
#     4  11  23  39  59  85 117 151 192 238 287 342
#     4  10  21  37  58  84 114 148 189 235 284 341
#
# _framework density 19.619800000000001
#
# number of rings (size 3 to 8) (size 9 to 14) (size 15 to 20)
#    0.000    1.500    0.000    6.750    0.000    7.500 
#    0.000    2.500    0.000    0.000    0.000    0.000 
#    0.000    0.000    0.000    0.000    0.000    0.000 
#
# Total GULP energy -396924.521298 kJ/mol
# GULP energy per Si atom -12403.891291 kJ/mol
# Density = 1.957514 g / cm^3
# Si number density = 19.619800 Si / 1000 Ang^3
#
#
#
# Elastic Constant Matrix: (Units=GPa)
#
#
# Indices 1 2 3 4 5 6 
#
# 1 97.6745 57.9494 54.0126 0.0000 0.0000 0.0000
# 2 57.9494 146.6811 100.2358 0.0000 0.0000 0.0000
# 3 54.0126 100.2358 156.3697 0.0000 0.0000 0.0000
# 4 0.0000 0.0000 0.0000 50.7995 0.0000 0.0000
# 5 0.0000 0.0000 0.0000 0.0000 38.4279 0.0000
# 6 0.0000 0.0000 0.0000 0.0000 0.0000 7.8725
#
#
#
# Elastic Compliance Matrix: (Units=1/GPa)
#
#
# Indices 1 2 3 4 5 6 
#
# 1 0.013809 -0.003908 -0.002265 0.000000 0.000000 0.000000
# 2 -0.003908 0.013238 -0.007136 0.000000 0.000000 0.000000
# 3 -0.002265 -0.007136 0.011752 0.000000 0.000000 0.000000
# 4 0.000000 0.000000 0.000000 0.019685 0.000000 0.000000
# 5 0.000000 0.000000 0.000000 0.000000 0.026023 0.000000
# 6 0.000000 0.000000 0.000000 0.000000 0.000000 0.127025
#
#
# Mechanical properties :
#
#
# Convention : Reuss Voigt Hill
#
# Bulk Modulus (GPa) = 82.09273 91.68011 86.88642
# Shear Modulus (GPa) = 20.64340 31.98848 26.31594
#
# Velocity S-wave (km/s) = 3.24724 4.04222 3.66634
# Velocity P-wave (km/s) = 7.48278 8.28347 7.89329
#
# Compressibility (1/GPa) = 0.01218135
#
# Stress axis : x y z
#
# Youngs Moduli (GPa) = 72.41658 75.54215 85.09504
#
# Poissons Ratio (x) = 0.29520 0.19273
# Poissons Ratio (y) = 0.28299 0.60722
# Poissons Ratio (z) = 0.16401 0.53905
#
# Static dielectric constant tensor:
#      x y z
#    x 3.662900 0.000000 0.000000 
#    y 0.000000 3.876370 0.000000 
#    z 0.000000 0.000000 3.578400 
# 
# 
# High freq. dielectric constant tensor:
#      x y z
#    x 1.775030 0.000000 0.000000 
#    y 0.000000 1.783630 0.000000 
#    z 0.000000 0.000000 1.768160 
# 
# From -- ./inp_files/6028.got.cif
#   From: 2010.03.12/outbox.cif.g09.slc.cpg/sg53_4_cif.got.tgz:6028.got - 2010.04.16 14:36:59.
