data_PCOD8221585
_publ_section_title
;
Structure prediction by ZEFSAII (Michael W. Deem and Ramdas Pophale) SiO2 
 PCOD8221585
Probable space group: P M N A
;
_chemical_formula_sum "Si O2"
_cell_formula_units_Z 44
_cell_length_a 9.286402
_cell_length_b 13.091561
_cell_length_c 17.673248
_cell_angle_alpha 90.000000
_cell_angle_beta 90.000000
_cell_angle_gamma 90.000000
_cell_volume 2148.598585
_symmetry_space_group_name_H-M "P M N A"
_symmetry_group_IT_number 53
_symmetry_cell_setting 'orthorhombic'
loop_
_space_group_symop_operation_xyz
x,y,z
1/2-x,-y,1/2+z
x,-y,-z
1/2-x,y,1/2-z
-x,-y,-z
1/2+x,y,1/2-z
-x,y,z
1/2+x,-y,1/2+z
loop_
_atom_site_type_symbol
_atom_site_label
_atom_site_fract_x
_atom_site_fract_y
_atom_site_fract_z
Si Si1 0.835009 0.421639 0.441448
Si Si2 0.666394 0.587686 0.172837
Si Si3 0.750000 0.100070 0.750000
Si Si4 0.828759 0.804784 0.531189
Si Si5 0.657838 0.903493 0.817036
Si Si6 0.664931 0.770486 0.388691
O O1 0.757993 0.500000 0.500000
O O2 0.820429 0.472410 0.358607
O O3 0.772044 0.307659 0.442909
O O4 0.000000 0.410730 0.466981
O O5 0.750000 0.593784 0.250000
O O6 0.500000 0.619265 0.184587
O O7 0.739448 0.667704 0.115332
O O8 0.836882 0.170303 0.808599
O O9 0.648612 0.025732 0.800874
O O10 0.780724 0.880939 0.599074
O O11 0.739684 0.836349 0.455976
O O12 0.000000 0.812125 0.515408
O O13 0.750000 0.850000 0.750000
O O14 0.500000 0.854152 0.812906
O O15 0.500000 0.744817 0.409315
#
# Coordination Sequence:
#
# PCOD8221585 Si02
#       6
#     8   8   4   8   8   8
#     4   9  17  34  59  85 116 156 189 228 283 344
#     4  11  22  37  59  88 123 158 199 242 294 357
#     4  10  24  42  62  82 118 160 198 254 304 364
#     4  10  21  40  65  91 121 159 204 244 296 363
#     4   9  21  41  64  87 116 155 197 247 301 359
#     4  12  24  38  61  91 122 158 201 252 307 355
#
# _framework density 20.478463999999999
#
# number of rings (size 3 to 8) (size 9 to 14) (size 15 to 20)
#    0.545    1.273    2.727    1.636    0.000    4.364 
#    0.000    5.455    0.000    0.000    0.000    0.000 
#    0.000    0.000    0.000    0.000    0.000    0.000 
#
# Total GULP energy -545201.020220 kJ/mol
# GULP energy per Si atom -12390.932278 kJ/mol
# Density = 2.043185 g / cm^3
# Si number density = 20.478464 Si / 1000 Ang^3
#
#
#
# Elastic Constant Matrix: (Units=GPa)
#
#
# Indices 1 2 3 4 5 6 
#
# 1 106.2190 14.3468 49.6659 0.0000 0.0000 0.0000
# 2 14.3468 78.4199 31.1170 0.0000 0.0000 0.0000
# 3 49.6659 31.1170 119.5649 0.0000 0.0000 0.0000
# 4 0.0000 0.0000 0.0000 34.8009 0.0000 0.0000
# 5 0.0000 0.0000 0.0000 0.0000 31.4625 0.0000
# 6 0.0000 0.0000 0.0000 0.0000 0.0000 14.0141
#
#
#
# Elastic Compliance Matrix: (Units=1/GPa)
#
#
# Indices 1 2 3 4 5 6 
#
# 1 0.011688 -0.000236 -0.004793 0.000000 0.000000 0.000000
# 2 -0.000236 0.014225 -0.003604 0.000000 0.000000 0.000000
# 3 -0.004793 -0.003604 0.011293 0.000000 0.000000 0.000000
# 4 0.000000 0.000000 0.000000 0.028735 0.000000 0.000000
# 5 0.000000 0.000000 0.000000 0.000000 0.031784 0.000000
# 6 0.000000 0.000000 0.000000 0.000000 0.000000 0.071357
#
#
# Mechanical properties :
#
#
# Convention : Reuss Voigt Hill
#
# Bulk Modulus (GPa) = 50.15478 54.94035 52.54756
# Shear Modulus (GPa) = 25.90747 29.99377 27.95062
#
# Velocity S-wave (km/s) = 3.56069 3.83123 3.69843
# Velocity P-wave (km/s) = 6.43812 6.81598 6.62974
#
# Compressibility (1/GPa) = 0.01993828
#
# Stress axis : x y z
#
# Youngs Moduli (GPa) = 85.55961 70.29805 88.55223
#
# Poissons Ratio (x) = 0.01660 0.42447
# Poissons Ratio (y) = 0.02021 0.31914
# Poissons Ratio (z) = 0.41013 0.25335
#
# Static dielectric constant tensor:
#      x y z
#    x 3.380210 0.000000 0.000000 
#    y 0.000000 3.713920 0.000000 
#    z 0.000000 0.000000 3.743680 
# 
# 
# High freq. dielectric constant tensor:
#      x y z
#    x 1.771200 0.000000 0.000000 
#    y 0.000000 1.787030 0.000000 
#    z 0.000000 0.000000 1.811100 
# 
# From -- ./inp_files/26069.got.cif
#   From: 2010.03.12/outbox.cif.g09.slc.cpg/sg53_14_cif.got.tgz:26069.got - 2010.04.16 14:36:59.
