data_PCOD8221946
_publ_section_title
;
Structure prediction by ZEFSAII (Michael W. Deem and Ramdas Pophale) SiO2 
 PCOD8221946
Probable space group: P M N A
;
_chemical_formula_sum "Si O2"
_cell_formula_units_Z 48
_cell_length_a 21.455450
_cell_length_b 7.784760
_cell_length_c 17.438488
_cell_angle_alpha 90.000000
_cell_angle_beta 90.000000
_cell_angle_gamma 90.000000
_cell_volume 2912.672682
_symmetry_space_group_name_H-M "P M N A"
_symmetry_group_IT_number 53
_symmetry_cell_setting 'orthorhombic'
loop_
_space_group_symop_operation_xyz
x,y,z
1/2-x,-y,1/2+z
x,-y,-z
1/2-x,y,1/2-z
-x,-y,-z
1/2+x,y,1/2-z
-x,y,z
1/2+x,-y,1/2+z
loop_
_atom_site_type_symbol
_atom_site_label
_atom_site_fract_x
_atom_site_fract_y
_atom_site_fract_z
Si Si1 0.321419 0.343248 0.220900
Si Si2 0.571632 0.687721 0.468399
Si Si3 0.149543 0.639289 0.175179
Si Si4 0.754454 0.539700 0.585655
Si Si5 0.825100 0.126365 0.059919
Si Si6 0.820663 0.010794 0.774455
O O1 0.250000 0.342423 0.250000
O O2 0.362600 0.467581 0.274817
O O3 0.317179 0.418623 0.134541
O O4 0.350463 0.149192 0.225691
O O5 0.585059 0.500000 0.500000
O O6 0.500000 0.742350 0.473359
O O7 0.591844 0.681516 0.379613
O O8 0.609799 0.822504 0.519649
O O9 0.212680 0.613802 0.123039
O O10 0.154270 0.795534 0.237386
O O11 0.776783 0.500000 0.500000
O O12 0.713314 0.709412 0.583699
O O13 0.835600 0.019212 0.136493
O O14 0.789392 0.000000 0.000000
O O15 0.750000 0.015246 0.750000
#
# Coordination Sequence:
#
# PCOD8221946 Si02
#       6
#     8   8   8   8   8   8
#     4   9  18  29  45  65  89 118 155 195 236 290
#     4  11  21  33  47  64  93 133 173 206 235 272
#     4  11  18  31  47  63  88 125 161 197 241 277
#     4  11  17  31  46  67  95 124 157 194 242 294
#     4  12  19  30  45  67  93 127 163 207 232 279
#     4  11  18  29  46  65  88 118 162 199 241 288
#
# _framework density 16.479710000000001
#
# number of rings (size 3 to 8) (size 9 to 14) (size 15 to 20)
#    0.000    1.167   10.000    1.500    0.000    0.333 
#    0.000    0.000    0.000    0.000    0.000    0.000 
#    0.000    0.667    0.000    1.500    0.000    0.333 
#
# Total GULP energy -594635.000172 kJ/mol
# GULP energy per Si atom -12388.229170 kJ/mol
# Density = 1.644220 g / cm^3
# Si number density = 16.479710 Si / 1000 Ang^3
#
#
#
# Elastic Constant Matrix: (Units=GPa)
#
#
# Indices 1 2 3 4 5 6 
#
# 1 25.5549 13.5457 13.3937 0.0000 0.0000 0.0000
# 2 13.5457 95.3857 18.5530 0.0000 0.0000 0.0000
# 3 13.3937 18.5530 71.2566 0.0000 0.0000 0.0000
# 4 0.0000 0.0000 0.0000 30.3361 0.0000 0.0000
# 5 0.0000 0.0000 0.0000 0.0000 16.8732 0.0000
# 6 0.0000 0.0000 0.0000 0.0000 0.0000 17.9762
#
#
#
# Elastic Compliance Matrix: (Units=1/GPa)
#
#
# Indices 1 2 3 4 5 6 
#
# 1 0.045620 -0.005067 -0.007256 0.000000 0.000000 0.000000
# 2 -0.005067 0.011606 -0.002069 0.000000 0.000000 0.000000
# 3 -0.007256 -0.002069 0.015936 0.000000 0.000000 0.000000
# 4 0.000000 0.000000 0.000000 0.032964 0.000000 0.000000
# 5 0.000000 0.000000 0.000000 0.000000 0.059265 0.000000
# 6 0.000000 0.000000 0.000000 0.000000 0.000000 0.055629
#
#
# Mechanical properties :
#
#
# Convention : Reuss Voigt Hill
#
# Bulk Modulus (GPa) = 22.53371 31.46469 26.99920
# Shear Modulus (GPa) = 18.89659 22.81743 20.85701
#
# Velocity S-wave (km/s) = 3.38991 3.72503 3.56141
# Velocity P-wave (km/s) = 5.38751 6.13478 5.77325
#
# Compressibility (1/GPa) = 0.04437795
#
# Stress axis : x y z
#
# Youngs Moduli (GPa) = 21.92012 86.16340 62.74951
#
# Poissons Ratio (x) = 0.43661 0.45529
# Poissons Ratio (y) = 0.11108 0.12985
# Poissons Ratio (z) = 0.15904 0.17830
#
# Static dielectric constant tensor:
#      x y z
#    x 2.571100 0.000000 0.000000 
#    y 0.000000 3.701780 0.000000 
#    z 0.000000 0.000000 2.866810 
# 
# 
# High freq. dielectric constant tensor:
#      x y z
#    x 1.549710 0.000000 0.000000 
#    y 0.000000 1.667400 0.000000 
#    z 0.000000 0.000000 1.632310 
# 
# From -- ./inp_files/29274.got.cif
#   From: 2010.03.12/outbox.cif.g09.slc.cpg/sg53_15_cif.got.tgz:29274.got - 2010.04.16 14:36:59.
