data_PCOD8221868
_publ_section_title
;
Structure prediction by ZEFSAII (Michael W. Deem and Ramdas Pophale) SiO2 
 PCOD8221868
Probable space group: P M N A
;
_chemical_formula_sum "Si O2"
_cell_formula_units_Z 64
_cell_length_a 8.596194
_cell_length_b 23.887066
_cell_length_c 15.170556
_cell_angle_alpha 90.000000
_cell_angle_beta 90.000000
_cell_angle_gamma 90.000000
_cell_volume 3115.089404
_symmetry_space_group_name_H-M "P M N A"
_symmetry_group_IT_number 53
_symmetry_cell_setting 'orthorhombic'
loop_
_space_group_symop_operation_xyz
x,y,z
1/2-x,-y,1/2+z
x,-y,-z
1/2-x,y,1/2-z
-x,-y,-z
1/2+x,y,1/2-z
-x,y,z
1/2+x,-y,1/2+z
loop_
_atom_site_type_symbol
_atom_site_label
_atom_site_fract_x
_atom_site_fract_y
_atom_site_fract_z
Si Si1 0.182648 0.389549 0.653177
Si Si2 0.817911 0.624864 0.847431
Si Si3 0.317292 0.118102 0.340718
Si Si4 0.182361 0.512872 0.653440
Si Si5 0.319635 0.819584 0.999453
Si Si6 0.319409 0.998774 0.896932
Si Si7 0.317529 0.888574 0.341866
Si Si8 0.681371 0.690855 0.001194
O O1 0.250000 0.378734 0.750000
O O2 0.222900 0.451674 0.613836
O O3 0.249329 0.344646 0.583665
O O4 0.000000 0.382815 0.663888
O O5 0.750000 0.634208 0.750000
O O6 0.760839 0.566417 0.893798
O O7 0.000000 0.623968 0.837842
O O8 0.766960 0.675242 0.910691
O O9 0.250000 0.143226 0.250000
O O10 0.500000 0.106819 0.334874
O O11 0.283051 0.163300 0.415915
O O12 0.227560 0.060752 0.358943
O O13 0.250000 0.512942 0.750000
O O14 0.000000 0.523591 0.654043
O O15 0.500000 0.830318 0.977337
O O16 0.273471 0.856764 0.082054
O O17 0.285648 0.755336 0.022372
O O18 0.500000 0.010723 0.876852
O O19 0.215063 0.045377 0.849541
O O20 0.283442 0.000000 0.000000
O O21 0.250000 0.865760 0.250000
O O22 0.500000 0.876417 0.348394
O O23 0.500000 0.678123 0.988509
#
# Coordination Sequence:
#
# PCOD8221868 Si02
#       8
#     8   8   8   8   8   8   8   8
#     4   9  19  36  59  87 118 155 194 240 296 354
#     4  11  22  37  59  86 118 154 196 244 298 357
#     4  12  25  42  66  94 126 162 203 247 301 362
#     4   9  16  30  54  83 117 152 190 235 292 356
#     4  11  24  44  65  88 120 158 205 257 305 355
#     4  11  22  39  66  96 131 165 198 244 301 359
#     4  12  25  42  66  94 127 164 205 249 300 359
#     4  10  23  42  62  85 117 157 201 248 299 355
#
# _framework density 20.545157
#
# number of rings (size 3 to 8) (size 9 to 14) (size 15 to 20)
#    0.000    1.375    1.250    5.625    0.000    4.000 
#    0.000    3.750    0.000    0.000    0.000    0.000 
#    0.000    0.000    0.000    0.000    0.000    0.000 
#
# Total GULP energy -793687.412310 kJ/mol
# GULP energy per Si atom -12401.365817 kJ/mol
# Density = 2.049840 g / cm^3
# Si number density = 20.545157 Si / 1000 Ang^3
#
#
#
# Elastic Constant Matrix: (Units=GPa)
#
#
# Indices 1 2 3 4 5 6 
#
# 1 75.0652 26.6886 26.0995 0.0000 0.0000 0.0000
# 2 26.6886 82.2001 20.6799 0.0000 0.0000 0.0000
# 3 26.0995 20.6799 100.3119 0.0000 0.0000 0.0000
# 4 0.0000 0.0000 0.0000 -5.5843 0.0000 0.0000
# 5 0.0000 0.0000 0.0000 0.0000 32.2576 0.0000
# 6 0.0000 0.0000 0.0000 0.0000 0.0000 24.3540
#
#
#
# Elastic Compliance Matrix: (Units=1/GPa)
#
#
# Indices 1 2 3 4 5 6 
#
# 1 0.016013 -0.004378 -0.003264 0.000000 0.000000 0.000000
# 2 -0.004378 0.014028 -0.001753 0.000000 0.000000 0.000000
# 3 -0.003264 -0.001753 0.011179 0.000000 0.000000 0.000000
# 4 0.000000 0.000000 0.000000 -0.179075 0.000000 0.000000
# 5 0.000000 0.000000 0.000000 0.000000 0.031000 0.000000
# 6 0.000000 0.000000 0.000000 0.000000 0.000000 0.041061
#
#
# Mechanical properties :
#
#
# Convention : Reuss Voigt Hill
#
# Bulk Modulus (GPa) = 44.58089 44.94589 44.76339
# Shear Modulus (GPa) = -126.49674 22.47943 -52.00866
#
# Velocity S-wave (km/s) = -7.85517 3.31138 -5.03679
# Velocity P-wave (km/s) = 7.77982 6.04520 3.46274
#
# Compressibility (1/GPa) = 0.02243114
#
# Stress axis : x y z
#
# Youngs Moduli (GPa) = 62.44895 71.28671 89.44984
#
# Poissons Ratio (x) = 0.31209 0.29195
# Poissons Ratio (y) = 0.27340 0.15679
# Poissons Ratio (z) = 0.20382 0.12495
#
# Static dielectric constant tensor:
#      x y z
#    x 3.764130 0.000000 0.000000 
#    y 0.000000 4.079230 0.000000 
#    z 0.000000 0.000000 3.938880 
# 
# 
# High freq. dielectric constant tensor:
#      x y z
#    x 1.808400 0.000000 0.000000 
#    y 0.000000 1.804900 0.000000 
#    z 0.000000 0.000000 1.804840 
# 
# From -- ./inp_files/21016.got.cif
#   From: 2010.03.12/outbox.cif.g09.slc.cpg/sg53_11_cif.got.tgz:21016.got - 2010.04.16 14:36:59.
