data_PCOD8221326
_publ_section_title
;
Structure prediction by ZEFSAII (Michael W. Deem and Ramdas Pophale) SiO2 
 PCOD8221326
Probable space group: P M N A
;
_chemical_formula_sum "Si O2"
_cell_formula_units_Z 64
_cell_length_a 8.564352
_cell_length_b 23.857047
_cell_length_c 15.456307
_cell_angle_alpha 90.000000
_cell_angle_beta 90.000000
_cell_angle_gamma 90.000000
_cell_volume 3158.034937
_symmetry_space_group_name_H-M "P M N A"
_symmetry_group_IT_number 53
_symmetry_cell_setting 'orthorhombic'
loop_
_space_group_symop_operation_xyz
x,y,z
1/2-x,-y,1/2+z
x,-y,-z
1/2-x,y,1/2-z
-x,-y,-z
1/2+x,y,1/2-z
-x,y,z
1/2+x,-y,1/2+z
loop_
_atom_site_type_symbol
_atom_site_label
_atom_site_fract_x
_atom_site_fract_y
_atom_site_fract_z
Si Si1 0.815871 0.366006 0.338287
Si Si2 0.183644 0.255948 0.588654
Si Si3 0.183624 0.136307 0.341394
Si Si4 0.183325 0.366625 0.839004
Si Si5 0.817716 0.252275 0.099404
Si Si6 0.315978 0.863484 0.158356
Si Si7 0.818381 0.564983 0.493098
Si Si8 0.186262 0.936821 0.499996
O O1 0.750000 0.393728 0.250000
O O2 0.732220 0.306461 0.347288
O O3 0.769211 0.406311 0.417139
O O4 0.000000 0.357438 0.333430
O O5 0.227072 0.308039 0.648440
O O6 0.276775 0.261975 0.500099
O O7 0.237847 0.199626 0.636912
O O8 0.000000 0.255300 0.567661
O O9 0.250000 0.115938 0.250000
O O10 0.227278 0.199881 0.361440
O O11 0.251185 0.095487 0.415769
O O12 0.000000 0.131389 0.337967
O O13 0.250000 0.392867 0.750000
O O14 0.216771 0.409413 0.916277
O O15 0.000000 0.355676 0.832410
O O16 0.000000 0.241526 0.110623
O O17 0.250000 0.883036 0.250000
O O18 0.500000 0.867228 0.161988
O O19 0.249713 0.905136 0.085015
O O20 0.777896 0.500000 0.500000
O O21 0.000000 0.575461 0.472465
O O22 0.000000 0.936213 0.500176
O O23 0.251669 0.000000 0.500000
#
# Coordination Sequence:
#
# PCOD8221326 Si02
#       8
#     8   8   8   8   8   8   8   8
#     4  11  23  40  64  91 126 162 201 251 303 364
#     4  11  21  38  62  90 124 160 199 247 307 370
#     4  11  22  39  61  88 121 158 201 248 302 361
#     4  12  25  41  64  94 127 166 207 253 307 366
#     4  12  23  37  61  92 124 158 199 246 305 368
#     4  10  21  37  59  88 118 155 195 240 297 356
#     4  10  23  44  67  91 123 165 209 258 310 360
#     4   9  19  38  61  83 114 159 204 246 299 360
#
# _framework density 20.265767
#
# number of rings (size 3 to 8) (size 9 to 14) (size 15 to 20)
#    0.000    1.250    2.500    4.125    0.000    3.750 
#    0.000    1.250    0.000    2.625    0.000    0.000 
#    0.000    0.000    0.000    0.000    0.000    0.000 
#
# Total GULP energy -793948.955131 kJ/mol
# GULP energy per Si atom -12405.452424 kJ/mol
# Density = 2.021964 g / cm^3
# Si number density = 20.265767 Si / 1000 Ang^3
#
#
#
# Elastic Constant Matrix: (Units=GPa)
#
#
# Indices 1 2 3 4 5 6 
#
# 1 53.0111 20.5164 30.5111 0.0000 0.0000 0.0000
# 2 20.5164 136.9552 62.5668 0.0000 0.0000 0.0000
# 3 30.5111 62.5668 173.8309 0.0000 0.0000 0.0000
# 4 0.0000 0.0000 0.0000 14.8456 0.0000 0.0000
# 5 0.0000 0.0000 0.0000 0.0000 37.2951 0.0000
# 6 0.0000 0.0000 0.0000 0.0000 0.0000 4.9564
#
#
#
# Elastic Compliance Matrix: (Units=1/GPa)
#
#
# Indices 1 2 3 4 5 6 
#
# 1 0.021340 -0.001778 -0.003106 0.000000 0.000000 0.000000
# 2 -0.001778 0.008887 -0.002887 0.000000 0.000000 0.000000
# 3 -0.003106 -0.002887 0.007337 0.000000 0.000000 0.000000
# 4 0.000000 0.000000 0.000000 0.067360 0.000000 0.000000
# 5 0.000000 0.000000 0.000000 0.000000 0.026813 0.000000
# 6 0.000000 0.000000 0.000000 0.000000 0.000000 0.201758
#
#
# Mechanical properties :
#
#
# Convention : Reuss Voigt Hill
#
# Bulk Modulus (GPa) = 45.40748 65.66510 55.53629
# Shear Modulus (GPa) = 14.03017 28.09962 21.06489
#
# Velocity S-wave (km/s) = 2.63403 3.72769 3.22752
# Velocity P-wave (km/s) = 5.63076 7.14142 6.43060
#
# Compressibility (1/GPa) = 0.02202280
#
# Stress axis : x y z
#
# Youngs Moduli (GPa) = 46.86139 112.52795 136.30004
#
# Poissons Ratio (x) = 0.20007 0.42329
# Poissons Ratio (y) = 0.08332 0.39343
# Poissons Ratio (z) = 0.14553 0.32481
#
# Static dielectric constant tensor:
#      x y z
#    x 3.513880 0.000000 0.000000 
#    y 0.000000 3.737520 0.000000 
#    z 0.000000 0.000000 4.034160 
# 
# 
# High freq. dielectric constant tensor:
#      x y z
#    x 1.781080 0.000000 0.000000 
#    y 0.000000 1.787910 0.000000 
#    z 0.000000 0.000000 1.810830 
# 
# From -- ./inp_files/20804.got.cif
#   From: 2010.03.12/outbox.cif.g09.slc.cpg/sg53_11_cif.got.tgz:20804.got - 2010.04.16 14:36:59.
