data_PCOD8221559
_publ_section_title
;
Structure prediction by ZEFSAII (Michael W. Deem and Ramdas Pophale) SiO2 
 PCOD8221559
Probable space group: P M N A
;
_chemical_formula_sum "Si O2"
_cell_formula_units_Z 40
_cell_length_a 8.954857
_cell_length_b 12.327459
_cell_length_c 18.267730
_cell_angle_alpha 90.000000
_cell_angle_beta 90.000000
_cell_angle_gamma 90.000000
_cell_volume 2016.586269
_symmetry_space_group_name_H-M "P M N A"
_symmetry_group_IT_number 53
_symmetry_cell_setting 'orthorhombic'
loop_
_space_group_symop_operation_xyz
x,y,z
1/2-x,-y,1/2+z
x,-y,-z
1/2-x,y,1/2-z
-x,-y,-z
1/2+x,y,1/2-z
-x,y,z
1/2+x,-y,1/2+z
loop_
_atom_site_type_symbol
_atom_site_label
_atom_site_fract_x
_atom_site_fract_y
_atom_site_fract_z
Si Si1 0.673221 0.332368 0.071792
Si Si2 0.174657 0.706028 0.078187
Si Si3 0.324201 0.132112 0.173051
Si Si4 0.174490 0.534608 0.325861
Si Si5 0.325541 0.042192 0.578805
O O1 0.500000 0.326806 0.049587
O O2 0.721701 0.227165 0.117502
O O3 0.709420 0.439070 0.117666
O O4 0.770245 0.339723 0.999049
O O5 0.257621 0.646282 0.144269
O O6 0.213883 0.832096 0.085519
O O7 0.000000 0.684051 0.084652
O O8 0.250000 0.159275 0.250000
O O9 0.500000 0.125294 0.184416
O O10 0.264683 0.018462 0.142200
O O11 0.250000 0.502239 0.250000
O O12 0.000000 0.550386 0.312892
O O13 0.500000 0.018286 0.589609
O O14 0.270702 0.000000 0.500000
#
# Coordination Sequence:
#
# PCOD8221559 Si02
#       5
#     8   8   8   8   8
#     4  10  22  40  62  90 122 158 199 249 302 357
#     4  11  23  39  64  92 120 158 203 249 299 359
#     4  11  23  38  61  91 123 159 201 248 302 359
#     4  11  24  42  62  87 123 161 201 249 302 358
#     4  10  21  40  62  87 120 158 199 247 298 352
#
# _framework density 19.835502000000002
#
# number of rings (size 3 to 8) (size 9 to 14) (size 15 to 20)
#    0.000    1.400    2.000    3.000    0.000    7.600 
#    0.000    0.000    0.000    0.000    0.000    0.000 
#    0.000    0.000    0.000    0.000    0.000    0.000 
#
# Total GULP energy -496319.471684 kJ/mol
# GULP energy per Si atom -12407.986792 kJ/mol
# Density = 1.979036 g / cm^3
# Si number density = 19.835502 Si / 1000 Ang^3
#
#
#
# Elastic Constant Matrix: (Units=GPa)
#
#
# Indices 1 2 3 4 5 6 
#
# 1 78.4993 43.8281 30.9928 0.0000 0.0000 0.0000
# 2 43.8281 100.8458 17.6491 0.0000 0.0000 0.0000
# 3 30.9928 17.6491 60.4577 0.0000 0.0000 0.0000
# 4 0.0000 0.0000 0.0000 -8.8246 0.0000 0.0000
# 5 0.0000 0.0000 0.0000 0.0000 40.1373 0.0000
# 6 0.0000 0.0000 0.0000 0.0000 0.0000 17.3274
#
#
#
# Elastic Compliance Matrix: (Units=1/GPa)
#
#
# Indices 1 2 3 4 5 6 
#
# 1 0.020012 -0.007274 -0.008136 0.000000 0.000000 0.000000
# 2 -0.007274 0.013094 -0.000094 0.000000 0.000000 0.000000
# 3 -0.008136 -0.000094 0.020738 0.000000 0.000000 0.000000
# 4 0.000000 0.000000 0.000000 -0.113319 0.000000 0.000000
# 5 0.000000 0.000000 0.000000 0.000000 0.024914 0.000000
# 6 0.000000 0.000000 0.000000 0.000000 0.000000 0.057712
#
#
# Mechanical properties :
#
#
# Convention : Reuss Voigt Hill
#
# Bulk Modulus (GPa) = 43.78564 47.19365 45.48964
# Shear Modulus (GPa) = 80.94575 19.55019 50.24797
#
# Velocity S-wave (km/s) = 6.39509 3.14286 5.03858
# Velocity P-wave (km/s) = 8.75510 6.08393 7.53877
#
# Compressibility (1/GPa) = 0.02283854
#
# Stress axis : x y z
#
# Youngs Moduli (GPa) = 49.97004 76.37303 48.21970
#
# Poissons Ratio (x) = 0.55550 0.39229
# Poissons Ratio (y) = 0.36346 0.00452
# Poissons Ratio (z) = 0.40653 0.00716
#
# Static dielectric constant tensor:
#      x y z
#    x 3.606950 0.000000 0.000000 
#    y 0.000000 3.721860 0.000000 
#    z 0.000000 0.000000 3.615620 
# 
# 
# High freq. dielectric constant tensor:
#      x y z
#    x 1.778260 0.000000 0.000000 
#    y 0.000000 1.786320 0.000000 
#    z 0.000000 0.000000 1.779340 
# 
# From -- ./inp_files/19901.got.cif
#   From: 2010.03.12/outbox.cif.g09.slc.cpg/sg53_10_cif.got.tgz:19901.got - 2010.04.16 14:36:59.
