data_PCOD8221401
_publ_section_title
;
Structure prediction by ZEFSAII (Michael W. Deem and Ramdas Pophale) SiO2 
 PCOD8221401
Probable space group: P M N A
;
_chemical_formula_sum "Si O2"
_cell_formula_units_Z 64
_cell_length_a 8.658588
_cell_length_b 11.929764
_cell_length_c 31.474924
_cell_angle_alpha 90.000000
_cell_angle_beta 90.000000
_cell_angle_gamma 90.000000
_cell_volume 3251.199486
_symmetry_space_group_name_H-M "P M N A"
_symmetry_group_IT_number 53
_symmetry_cell_setting 'orthorhombic'
loop_
_space_group_symop_operation_xyz
x,y,z
1/2-x,-y,1/2+z
x,-y,-z
1/2-x,y,1/2-z
-x,-y,-z
1/2+x,y,1/2-z
-x,y,z
1/2+x,-y,1/2+z
loop_
_atom_site_type_symbol
_atom_site_label
_atom_site_fract_x
_atom_site_fract_y
_atom_site_fract_z
Si Si1 0.181919 0.101583 0.627291
Si Si2 0.181965 0.243973 0.706786
Si Si3 0.318119 0.362365 0.124841
Si Si4 0.324391 0.880094 0.978532
Si Si5 0.317425 0.497237 0.794013
Si Si6 0.820837 0.127097 0.110567
Si Si7 0.319097 0.756400 0.446969
Si Si8 0.318817 0.476195 0.951414
O O1 0.240385 0.166849 0.668639
O O2 0.273019 0.152220 0.587732
O O3 0.000000 0.115553 0.619121
O O4 0.224287 0.971562 0.633191
O O5 0.250000 0.192935 0.750000
O O6 0.243314 0.370280 0.699770
O O7 0.000000 0.241977 0.709690
O O8 0.500000 0.341827 0.127035
O O9 0.259546 0.434858 0.164922
O O10 0.231683 0.245181 0.129472
O O11 0.274686 0.421466 0.079952
O O12 0.500000 0.856978 0.963405
O O13 0.209411 0.875952 0.939412
O O14 0.274513 0.782102 0.010178
O O15 0.309354 0.000000 0.000000
O O16 0.250000 0.547761 0.750000
O O17 0.500000 0.501004 0.790901
O O18 0.000000 0.108395 0.119822
O O19 0.500000 0.764645 0.455580
O O20 0.271282 0.631498 0.433130
O O21 0.500000 0.450607 0.948795
O O22 0.266993 0.500000 0.000000
#
# Coordination Sequence:
#
# PCOD8221401 Si02
#       8
#     8   8   8   8   8   8   8   8
#     4  11  22  39  60  83 114 154 196 231 277 348
#     4   9  19  36  61  90 118 147 183 231 287 344
#     4  10  21  39  61  84 116 159 202 240 290 357
#     4  11  22  38  60  81 109 155 200 237 282 344
#     4   9  18  35  60  89 117 148 189 240 292 348
#     4  12  25  39  58  86 119 151 192 247 297 341
#     4  12  24  36  57  88 119 148 187 244 296 335
#     4  10  21  38  60  84 114 155 199 238 285 354
#
# _framework density 19.685041999999999
#
# number of rings (size 3 to 8) (size 9 to 14) (size 15 to 20)
#    0.000    1.500    1.250    4.500    0.000    5.750 
#    0.000    3.125    0.000    0.000    0.000    0.000 
#    0.000    0.000    0.000    0.000    0.000    0.000 
#
# Total GULP energy -793869.079380 kJ/mol
# GULP energy per Si atom -12404.204365 kJ/mol
# Density = 1.964024 g / cm^3
# Si number density = 19.685042 Si / 1000 Ang^3
#
#
#
# Elastic Constant Matrix: (Units=GPa)
#
#
# Indices 1 2 3 4 5 6 
#
# 1 46.6287 26.2049 19.8641 0.0000 0.0000 0.0000
# 2 26.2049 109.8290 48.0784 0.0000 0.0000 0.0000
# 3 19.8641 48.0784 127.0319 0.0000 0.0000 0.0000
# 4 0.0000 0.0000 0.0000 32.1447 0.0000 0.0000
# 5 0.0000 0.0000 0.0000 0.0000 29.7099 0.0000
# 6 0.0000 0.0000 0.0000 0.0000 0.0000 24.1969
#
#
#
# Elastic Compliance Matrix: (Units=1/GPa)
#
#
# Indices 1 2 3 4 5 6 
#
# 1 0.025182 -0.005135 -0.001994 0.000000 0.000000 0.000000
# 2 -0.005135 0.011960 -0.003724 0.000000 0.000000 0.000000
# 3 -0.001994 -0.003724 0.009593 0.000000 0.000000 0.000000
# 4 0.000000 0.000000 0.000000 0.031109 0.000000 0.000000
# 5 0.000000 0.000000 0.000000 0.000000 0.033659 0.000000
# 6 0.000000 0.000000 0.000000 0.000000 0.000000 0.041328
#
#
# Mechanical properties :
#
#
# Convention : Reuss Voigt Hill
#
# Bulk Modulus (GPa) = 39.95378 52.42051 46.18714
# Shear Modulus (GPa) = 27.34033 29.83311 28.58672
#
# Velocity S-wave (km/s) = 3.73082 3.89719 3.81492
# Velocity P-wave (km/s) = 6.23693 6.85115 6.55124
#
# Compressibility (1/GPa) = 0.02502892
#
# Stress axis : x y z
#
# Youngs Moduli (GPa) = 39.71163 83.60914 104.24068
#
# Poissons Ratio (x) = 0.42936 0.20786
# Poissons Ratio (y) = 0.20393 0.38816
# Poissons Ratio (z) = 0.07919 0.31134
#
# Static dielectric constant tensor:
#      x y z
#    x 3.439550 0.000000 0.000000 
#    y 0.000000 3.786840 0.000000 
#    z 0.000000 0.000000 3.828220 
# 
# 
# High freq. dielectric constant tensor:
#      x y z
#    x 1.760470 0.000000 0.000000 
#    y 0.000000 1.772160 0.000000 
#    z 0.000000 0.000000 1.762900 
# 
# From -- ./inp_files/38289.got.cif
#   From: 2010.03.12/outbox.cif.g09.slc.cpg/sg53_20_cif.got.tgz:38289.got - 2010.04.16 14:36:59.
