data_PCOD8221906
_publ_section_title
;
Structure prediction by ZEFSAII (Michael W. Deem and Ramdas Pophale) SiO2 
 PCOD8221906
Probable space group: P M N A
;
_chemical_formula_sum "Si O2"
_cell_formula_units_Z 40
_cell_length_a 8.513552
_cell_length_b 14.344727
_cell_length_c 15.577920
_cell_angle_alpha 90.000000
_cell_angle_beta 90.000000
_cell_angle_gamma 90.000000
_cell_volume 1902.446925
_symmetry_space_group_name_H-M "P M N A"
_symmetry_group_IT_number 53
_symmetry_cell_setting 'orthorhombic'
loop_
_space_group_symop_operation_xyz
x,y,z
1/2-x,-y,1/2+z
x,-y,-z
1/2-x,y,1/2-z
-x,-y,-z
1/2+x,y,1/2-z
-x,y,z
1/2+x,-y,1/2+z
loop_
_atom_site_type_symbol
_atom_site_label
_atom_site_fract_x
_atom_site_fract_y
_atom_site_fract_z
Si Si1 0.316696 0.600104 0.587821
Si Si2 0.314619 0.219483 0.662068
Si Si3 0.316367 0.406513 0.901908
Si Si4 0.316689 0.891659 0.505693
Si Si5 0.816025 0.780825 0.662014
O O1 0.500000 0.603912 0.565877
O O2 0.220910 0.616613 0.500558
O O3 0.272740 0.500232 0.628475
O O4 0.270897 0.681755 0.652505
O O5 0.250000 0.173424 0.750000
O O6 0.500000 0.227195 0.665154
O O7 0.240605 0.321965 0.656464
O O8 0.259873 0.155971 0.582524
O O9 0.500000 0.422280 0.890013
O O10 0.500000 0.872598 0.522177
O O11 0.219683 0.849826 0.584060
O O12 0.277764 0.000000 0.500000
O O13 0.750000 0.825975 0.750000
O O14 0.000000 0.764063 0.668505
#
# Coordination Sequence:
#
# PCOD8221906 Si02
#       5
#     8   8   8   8   8
#     4  11  21  37  61  91 128 170 213 257 312 373
#     4  11  23  40  64  93 129 168 212 261 315 375
#     4  11  21  36  60  92 128 168 214 258 310 373
#     4  10  23  45  70  95 127 166 208 263 325 383
#     4  12  25  42  66  96 130 169 214 264 318 379
#
# _framework density 21.025552999999999
#
# number of rings (size 3 to 8) (size 9 to 14) (size 15 to 20)
#    0.000    1.000    2.000    7.200    0.000    2.800 
#    0.000    6.000    0.000    0.000    0.000    0.000 
#    0.000    0.000    0.000    0.000    0.000    0.000 
#
# Total GULP energy -496248.348715 kJ/mol
# GULP energy per Si atom -12406.208718 kJ/mol
# Density = 2.097770 g / cm^3
# Si number density = 21.025553 Si / 1000 Ang^3
#
#
#
# Elastic Constant Matrix: (Units=GPa)
#
#
# Indices 1 2 3 4 5 6 
#
# 1 100.6278 37.7507 36.1077 0.0000 0.0000 0.0000
# 2 37.7507 114.0193 54.8691 0.0000 0.0000 0.0000
# 3 36.1077 54.8691 134.3102 0.0000 0.0000 0.0000
# 4 0.0000 0.0000 0.0000 16.3276 0.0000 0.0000
# 5 0.0000 0.0000 0.0000 0.0000 35.7670 0.0000
# 6 0.0000 0.0000 0.0000 0.0000 0.0000 22.4942
#
#
#
# Elastic Compliance Matrix: (Units=1/GPa)
#
#
# Indices 1 2 3 4 5 6 
#
# 1 0.011745 -0.002949 -0.001953 0.000000 0.000000 0.000000
# 2 -0.002949 0.011657 -0.003969 0.000000 0.000000 0.000000
# 3 -0.001953 -0.003969 0.009592 0.000000 0.000000 0.000000
# 4 0.000000 0.000000 0.000000 0.061246 0.000000 0.000000
# 5 0.000000 0.000000 0.000000 0.000000 0.027959 0.000000
# 6 0.000000 0.000000 0.000000 0.000000 0.000000 0.044456
#
#
# Mechanical properties :
#
#
# Convention : Reuss Voigt Hill
#
# Bulk Modulus (GPa) = 65.56670 67.37916 66.47293
# Shear Modulus (GPa) = 26.38802 29.59974 27.99388
#
# Velocity S-wave (km/s) = 3.54651 3.75613 3.65282
# Velocity P-wave (km/s) = 6.92981 7.13634 7.03383
#
# Compressibility (1/GPa) = 0.01525164
#
# Stress axis : x y z
#
# Youngs Moduli (GPa) = 85.14591 85.78568 104.25327
#
# Poissons Ratio (x) = 0.25297 0.20358
# Poissons Ratio (y) = 0.25108 0.41382
# Poissons Ratio (z) = 0.16627 0.34052
#
# Static dielectric constant tensor:
#      x y z
#    x 3.787260 0.000000 0.000000 
#    y 0.000000 3.844700 0.000000 
#    z 0.000000 0.000000 3.800490 
# 
# 
# High freq. dielectric constant tensor:
#      x y z
#    x 1.832500 0.000000 0.000000 
#    y 0.000000 1.820170 0.000000 
#    z 0.000000 0.000000 1.826230 
# 
# From -- ./inp_files/19831.got.cif
#   From: 2010.03.12/outbox.cif.g09.slc.cpg/sg53_10_cif.got.tgz:19831.got - 2010.04.16 14:36:59.
