data_PCOD8221453
_publ_section_title
;
Structure prediction by ZEFSAII (Michael W. Deem and Ramdas Pophale) SiO2 
 PCOD8221453
Probable space group: P M N A
;
_chemical_formula_sum "Si O2"
_cell_formula_units_Z 40
_cell_length_a 17.634744
_cell_length_b 11.809309
_cell_length_c 9.052672
_cell_angle_alpha 90.000000
_cell_angle_beta 90.000000
_cell_angle_gamma 90.000000
_cell_volume 1885.256431
_symmetry_space_group_name_H-M "P M N A"
_symmetry_group_IT_number 53
_symmetry_cell_setting 'orthorhombic'
loop_
_space_group_symop_operation_xyz
x,y,z
1/2-x,-y,1/2+z
x,-y,-z
1/2-x,y,1/2-z
-x,-y,-z
1/2+x,y,1/2-z
-x,y,z
1/2+x,-y,1/2+z
loop_
_atom_site_type_symbol
_atom_site_label
_atom_site_fract_x
_atom_site_fract_y
_atom_site_fract_z
Si Si1 0.089369 0.909150 0.121017
Si Si2 0.338050 0.710674 0.249449
Si Si3 0.321111 0.534288 0.835400
Si Si4 0.410446 0.261032 0.065728
Si Si5 0.175082 0.952872 0.657067
O O1 0.123579 0.780285 0.113072
O O2 0.000000 0.899672 0.113038
O O3 0.118903 0.952681 0.277947
O O4 0.119455 0.000000 0.000000
O O5 0.250000 0.745440 0.250000
O O6 0.347339 0.574596 0.262398
O O7 0.378132 0.745808 0.098155
O O8 0.250000 0.591089 0.750000
O O9 0.390161 0.621834 0.850781
O O10 0.293797 0.500000 0.000000
O O11 0.500000 0.246850 0.062757
O O12 0.373046 0.161560 0.159201
O O13 0.250000 0.931924 0.750000
O O14 0.201200 0.000000 0.500000
#
# Coordination Sequence:
#
# PCOD8221453 Si02
#       5
#     8   8   8   8   8
#     4  11  24  40  61  90 129 170 214 268 327 392
#     4  10  21  38  63  91 129 168 216 267 326 390
#     4   9  20  40  64  94 126 170 217 275 327 393
#     4  11  23  39  65  97 128 166 218 277 334 395
#     4  12  25  40  64  92 126 169 218 271 331 406
#
# _framework density 21.217272000000001
#
# number of rings (size 3 to 8) (size 9 to 14) (size 15 to 20)
#    0.000    1.400    2.000    3.000    2.800    5.200 
#    3.600    0.000    0.000    0.600    0.000    0.000 
#    0.000    0.000    0.000    0.000    0.000    0.000 
#
# Total GULP energy -495812.233816 kJ/mol
# GULP energy per Si atom -12395.305845 kJ/mol
# Density = 2.116898 g / cm^3
# Si number density = 21.217272 Si / 1000 Ang^3
#
#
#
# Elastic Constant Matrix: (Units=GPa)
#
#
# Indices 1 2 3 4 5 6 
#
# 1 147.9947 74.2862 52.9138 0.0000 0.0000 0.0000
# 2 74.2862 133.5113 46.1873 0.0000 0.0000 0.0000
# 3 52.9138 46.1873 75.7745 0.0000 0.0000 0.0000
# 4 0.0000 0.0000 0.0000 42.2944 0.0000 0.0000
# 5 0.0000 0.0000 0.0000 0.0000 12.9881 0.0000
# 6 0.0000 0.0000 0.0000 0.0000 0.0000 28.2042
#
#
#
# Elastic Compliance Matrix: (Units=1/GPa)
#
#
# Indices 1 2 3 4 5 6 
#
# 1 0.010607 -0.004232 -0.004828 0.000000 0.000000 0.000000
# 2 -0.004232 0.011180 -0.003859 0.000000 0.000000 0.000000
# 3 -0.004828 -0.003859 0.018921 0.000000 0.000000 0.000000
# 4 0.000000 0.000000 0.000000 0.023644 0.000000 0.000000
# 5 0.000000 0.000000 0.000000 0.000000 0.076993 0.000000
# 6 0.000000 0.000000 0.000000 0.000000 0.000000 0.035456
#
#
# Mechanical properties :
#
#
# Convention : Reuss Voigt Hill
#
# Bulk Modulus (GPa) = 67.24963 78.22835 72.73899
# Shear Modulus (GPa) = 24.08539 28.95690 26.52115
#
# Velocity S-wave (km/s) = 3.37290 3.69830 3.53934
# Velocity P-wave (km/s) = 6.85077 7.42878 7.14562
#
# Compressibility (1/GPa) = 0.01486997
#
# Stress axis : x y z
#
# Youngs Moduli (GPa) = 94.27524 89.44777 52.85235
#
# Poissons Ratio (x) = 0.37853 0.25515
# Poissons Ratio (y) = 0.39896 0.20398
# Poissons Ratio (z) = 0.45513 0.34521
#
# Static dielectric constant tensor:
#      x y z
#    x 3.729730 0.000000 0.000000 
#    y 0.000000 4.270900 0.000000 
#    z 0.000000 0.000000 3.902570 
# 
# 
# High freq. dielectric constant tensor:
#      x y z
#    x 1.831200 0.000000 0.000000 
#    y 0.000000 1.850350 0.000000 
#    z 0.000000 0.000000 1.813990 
# 
# From -- ./inp_files/9622.got.cif
#   From: 2010.03.12/outbox.cif.g09.slc.cpg/sg53_5_cif.got.tgz:9622.got - 2010.04.16 14:36:59.
