data_PCOD8221475
_publ_section_title
;
Structure prediction by ZEFSAII (Michael W. Deem and Ramdas Pophale) SiO2 
 PCOD8221475
Probable space group: P M N A
;
_chemical_formula_sum "Si O2"
_cell_formula_units_Z 48
_cell_length_a 7.440980
_cell_length_b 16.652600
_cell_length_c 19.627654
_cell_angle_alpha 90.000000
_cell_angle_beta 90.000000
_cell_angle_gamma 90.000000
_cell_volume 2432.095259
_symmetry_space_group_name_H-M "P M N A"
_symmetry_group_IT_number 53
_symmetry_cell_setting 'orthorhombic'
loop_
_space_group_symop_operation_xyz
x,y,z
1/2-x,-y,1/2+z
x,-y,-z
1/2-x,y,1/2-z
-x,-y,-z
1/2+x,y,1/2-z
-x,y,z
1/2+x,-y,1/2+z
loop_
_atom_site_type_symbol
_atom_site_label
_atom_site_fract_x
_atom_site_fract_y
_atom_site_fract_z
Si Si1 0.290536 0.628589 0.325662
Si Si2 0.000000 0.949351 0.603499
Si Si3 0.289037 0.304927 0.409893
Si Si4 0.000000 0.120409 0.546779
Si Si5 0.290035 0.150680 0.328396
Si Si6 0.787551 0.747005 0.058692
Si Si7 0.710210 0.548976 0.674290
O O1 0.250000 0.661304 0.250000
O O2 0.500000 0.622021 0.338522
O O3 0.213149 0.691045 0.380444
O O4 0.202403 0.539850 0.335547
O O5 0.821230 0.925805 0.645272
O O6 0.000000 0.907023 0.530761
O O7 0.000000 0.045127 0.597358
O O8 0.500000 0.307531 0.398114
O O9 0.215477 0.227566 0.369784
O O10 0.238522 0.299415 0.489070
O O11 0.204650 0.386935 0.378710
O O12 0.181111 0.169825 0.561983
O O13 0.250000 0.167029 0.250000
O O14 0.500000 0.134069 0.341821
O O15 0.000000 0.765992 0.063544
O O16 0.750000 0.580938 0.750000
O O17 0.500000 0.541733 0.661737
#
# Coordination Sequence:
#
# PCOD8221475 Si02
#       7
#     8   4   8   4   8   8   8
#     4   9  19  34  57  79 110 155 197 243 297 339
#     4  11  24  42  62  93 116 155 193 238 308 358
#     4   9  18  32  54  85 118 153 193 231 286 344
#     4  11  24  42  66  86 117 149 197 247 296 367
#     4  11  21  37  62  90 125 160 190 236 291 354
#     4  10  21  39  60  87 115 150 198 245 291 351
#     4   9  17  32  50  79 116 154 195 237 282 341
#
# _framework density 19.736069000000001
#
# number of rings (size 3 to 8) (size 9 to 14) (size 15 to 20)
#    0.000    2.167    2.500    0.500    1.167    1.333 
#    3.000    5.833    0.000    1.000    0.000    0.000 
#    0.000    0.000    0.000    0.000    0.000    0.000 
#
# Total GULP energy -595122.443588 kJ/mol
# GULP energy per Si atom -12398.384241 kJ/mol
# Density = 1.969115 g / cm^3
# Si number density = 19.736069 Si / 1000 Ang^3
#
#
#
# Elastic Constant Matrix: (Units=GPa)
#
#
# Indices 1 2 3 4 5 6 
#
# 1 73.1919 36.5956 23.1209 0.0000 0.0000 0.0000
# 2 36.5956 140.9337 87.8662 0.0000 0.0000 0.0000
# 3 23.1209 87.8662 150.9713 0.0000 0.0000 0.0000
# 4 0.0000 0.0000 0.0000 47.4873 0.0000 0.0000
# 5 0.0000 0.0000 0.0000 0.0000 20.1663 0.0000
# 6 0.0000 0.0000 0.0000 0.0000 0.0000 12.5833
#
#
#
# Elastic Compliance Matrix: (Units=1/GPa)
#
#
# Indices 1 2 3 4 5 6 
#
# 1 0.015701 -0.004046 -0.000050 0.000000 0.000000 0.000000
# 2 -0.004046 0.012179 -0.006469 0.000000 0.000000 0.000000
# 3 -0.000050 -0.006469 0.010396 0.000000 0.000000 0.000000
# 4 0.000000 0.000000 0.000000 0.021058 0.000000 0.000000
# 5 0.000000 0.000000 0.000000 0.000000 0.049588 0.000000
# 6 0.000000 0.000000 0.000000 0.000000 0.000000 0.079470
#
#
# Mechanical properties :
#
#
# Convention : Reuss Voigt Hill
#
# Bulk Modulus (GPa) = 58.31688 73.36245 65.83967
# Shear Modulus (GPa) = 23.23010 30.54833 26.88922
#
# Velocity S-wave (km/s) = 3.43452 3.93853 3.69513
# Velocity P-wave (km/s) = 6.73353 7.61152 7.18594
#
# Compressibility (1/GPa) = 0.01714769
#
# Stress axis : x y z
#
# Youngs Moduli (GPa) = 63.68833 82.10791 96.18897
#
# Poissons Ratio (x) = 0.33221 0.00479
# Poissons Ratio (y) = 0.25769 0.62221
# Poissons Ratio (z) = 0.00317 0.53113
#
# Static dielectric constant tensor:
#      x y z
#    x 3.479800 0.000000 0.000000 
#    y 0.000000 3.763990 0.000000 
#    z 0.000000 0.000000 3.593540 
# 
# 
# High freq. dielectric constant tensor:
#      x y z
#    x 1.766290 0.000000 0.000000 
#    y 0.000000 1.758230 0.000000 
#    z 0.000000 0.000000 1.769980 
# 
# From -- ./inp_files/26317.got.cif
#   From: 2010.03.12/outbox.cif.g09.slc.cpg/sg53_14_cif.got.tgz:26317.got - 2010.04.16 14:36:59.
