data_PCOD8221270
_publ_section_title
;
Structure prediction by ZEFSAII (Michael W. Deem and Ramdas Pophale) SiO2 
 PCOD8221270
Probable space group: P M N A
;
_chemical_formula_sum "Si O2"
_cell_formula_units_Z 52
_cell_length_a 9.056068
_cell_length_b 16.928432
_cell_length_c 16.344182
_cell_angle_alpha 90.000000
_cell_angle_beta 90.000000
_cell_angle_gamma 90.000000
_cell_volume 2505.645333
_symmetry_space_group_name_H-M "P M N A"
_symmetry_group_IT_number 53
_symmetry_cell_setting 'orthorhombic'
loop_
_space_group_symop_operation_xyz
x,y,z
1/2-x,-y,1/2+z
x,-y,-z
1/2-x,y,1/2-z
-x,-y,-z
1/2+x,y,1/2-z
-x,y,z
1/2+x,-y,1/2+z
loop_
_atom_site_type_symbol
_atom_site_label
_atom_site_fract_x
_atom_site_fract_y
_atom_site_fract_z
Si Si1 0.672781 0.535364 0.829950
Si Si2 0.672521 0.670279 0.958952
Si Si3 0.325963 0.175981 0.451382
Si Si4 0.250000 0.255897 0.750000
Si Si5 0.834993 0.860081 0.384807
Si Si6 0.334729 0.376576 0.621606
Si Si7 0.336909 0.971683 0.907045
O O1 0.750000 0.572803 0.750000
O O2 0.500000 0.522691 0.813231
O O3 0.700996 0.592622 0.905870
O O4 0.746142 0.451850 0.847428
O O5 0.500000 0.686635 0.971325
O O6 0.748022 0.745576 0.915030
O O7 0.745890 0.660109 0.046836
O O8 0.500000 0.185567 0.445931
O O9 0.278878 0.168657 0.546257
O O10 0.276773 0.100852 0.396384
O O11 0.155673 0.198687 0.691765
O O12 0.350810 0.312030 0.693665
O O13 0.000000 0.863897 0.423784
O O14 0.790886 0.949630 0.355567
O O15 0.500000 0.400791 0.594488
O O16 0.500000 0.941959 0.881340
O O17 0.333885 0.000000 0.000000
#
# Coordination Sequence:
#
# PCOD8221270 Si02
#       7
#     8   8   8   4   8   8   8
#     4  11  25  44  67  92 122 164 208 260 320 378
#     4  11  24  42  65  92 125 166 212 258 314 380
#     4  11  21  34  58  90 120 154 203 260 307 358
#     4  12  24  36  62  94 128 166 206 254 314 368
#     4  10  21  37  57  83 122 165 203 246 302 372
#     4  12  25  40  62  94 130 167 208 258 316 377
#     4   8  16  33  56  80 110 153 195 234 293 359
#
# _framework density 20.753136999999999
#
# number of rings (size 3 to 8) (size 9 to 14) (size 15 to 20)
#    0.000    1.385    2.308    4.615    0.000    8.923 
#    0.000    0.000    1.692    0.000    0.000    0.000 
#    0.000    0.000    0.000    0.000    0.000    0.000 
#
# Total GULP energy -644623.452930 kJ/mol
# GULP energy per Si atom -12396.604864 kJ/mol
# Density = 2.070590 g / cm^3
# Si number density = 20.753137 Si / 1000 Ang^3
#
#
#
# Elastic Constant Matrix: (Units=GPa)
#
#
# Indices 1 2 3 4 5 6 
#
# 1 150.6572 69.6166 34.6227 0.0000 0.0000 0.0000
# 2 69.6166 154.8467 52.2308 0.0000 0.0000 0.0000
# 3 34.6227 52.2308 52.9772 0.0000 0.0000 0.0000
# 4 0.0000 0.0000 0.0000 32.7271 0.0000 0.0000
# 5 0.0000 0.0000 0.0000 0.0000 22.0233 0.0000
# 6 0.0000 0.0000 0.0000 0.0000 0.0000 28.0269
#
#
#
# Elastic Compliance Matrix: (Units=1/GPa)
#
#
# Indices 1 2 3 4 5 6 
#
# 1 0.008632 -0.002963 -0.002720 0.000000 0.000000 0.000000
# 2 -0.002963 0.010693 -0.008606 0.000000 0.000000 0.000000
# 3 -0.002720 -0.008606 0.029138 0.000000 0.000000 0.000000
# 4 0.000000 0.000000 0.000000 0.030556 0.000000 0.000000
# 5 0.000000 0.000000 0.000000 0.000000 0.045407 0.000000
# 6 0.000000 0.000000 0.000000 0.000000 0.000000 0.035680
#
#
# Mechanical properties :
#
#
# Convention : Reuss Voigt Hill
#
# Bulk Modulus (GPa) = 50.28819 74.60234 62.44527
# Shear Modulus (GPa) = 25.60018 30.02287 27.81152
#
# Velocity S-wave (km/s) = 3.51601 3.80763 3.66473
# Velocity P-wave (km/s) = 6.38493 7.44018 6.93266
#
# Compressibility (1/GPa) = 0.01988539
#
# Stress axis : x y z
#
# Youngs Moduli (GPa) = 115.84874 93.51853 34.31956
#
# Poissons Ratio (x) = 0.27714 0.09334
# Poissons Ratio (y) = 0.34331 0.29534
# Poissons Ratio (z) = 0.31507 0.80479
#
# Static dielectric constant tensor:
#      x y z
#    x 3.697760 0.000000 0.000000 
#    y 0.000000 4.315120 0.000000 
#    z 0.000000 0.000000 3.818410 
# 
# 
# High freq. dielectric constant tensor:
#      x y z
#    x 1.813730 0.000000 0.000000 
#    y 0.000000 1.836310 0.000000 
#    z 0.000000 0.000000 1.774410 
# 
# From -- ./inp_files/26492.got.cif
#   From: 2010.03.12/outbox.cif.g09.slc.cpg/sg53_14_cif.got.tgz:26492.got - 2010.04.16 14:36:59.
