data_PCOD8221813
_publ_section_title
;
Structure prediction by ZEFSAII (Michael W. Deem and Ramdas Pophale) SiO2 
 PCOD8221813
Probable space group: P M N A
;
_chemical_formula_sum "Si O2"
_cell_formula_units_Z 48
_cell_length_a 27.471225
_cell_length_b 8.728439
_cell_length_c 9.569004
_cell_angle_alpha 90.000000
_cell_angle_beta 90.000000
_cell_angle_gamma 90.000000
_cell_volume 2294.464503
_symmetry_space_group_name_H-M "P M N A"
_symmetry_group_IT_number 53
_symmetry_cell_setting 'orthorhombic'
loop_
_space_group_symop_operation_xyz
x,y,z
1/2-x,-y,1/2+z
x,-y,-z
1/2-x,y,1/2-z
-x,-y,-z
1/2+x,y,1/2-z
-x,y,z
1/2+x,-y,1/2+z
loop_
_atom_site_type_symbol
_atom_site_label
_atom_site_fract_x
_atom_site_fract_y
_atom_site_fract_z
Si Si1 0.306342 0.153221 0.413788
Si Si2 0.944269 0.828029 0.778178
Si Si3 0.804358 0.152289 0.412448
Si Si4 0.557125 0.176705 0.776241
Si Si5 0.603966 0.675933 0.968174
Si Si6 0.896135 0.677484 0.022930
O O1 0.317005 0.121826 0.250375
O O2 0.250899 0.209077 0.432874
O O3 0.340844 0.284775 0.477192
O O4 0.316812 0.000000 0.500000
O O5 0.912764 0.709386 0.688828
O O6 0.933817 0.784755 0.938159
O O7 0.000000 0.804411 0.740586
O O8 0.928114 0.001551 0.750245
O O9 0.838928 0.282447 0.478337
O O10 0.814132 0.000000 0.500000
O O11 0.500000 0.205734 0.746995
O O12 0.591983 0.284679 0.683365
O O13 0.570030 0.218366 0.934838
O O14 0.595697 0.500000 0.000000
O O15 0.906475 0.500000 0.000000
#
# Coordination Sequence:
#
# PCOD8221813 Si02
#       6
#     8   8   8   8   8   8
#     4  10  22  42  68  96 126 164 211 259 310 374
#     4  11  23  43  66  89 122 167 219 262 308 373
#     4  10  22  42  68  96 126 164 211 259 310 374
#     4  11  25  43  66  93 124 169 217 260 306 371
#     4  12  25  40  63  96 131 166 204 260 324 374
#     4  12  25  40  63  96 131 166 204 260 324 374
#
# _framework density 20.919913000000001
#
# number of rings (size 3 to 8) (size 9 to 14) (size 15 to 20)
#    0.000    1.000    1.667    5.000    2.333    7.333 
#    0.000    0.000    0.000    0.000    0.000    0.000 
#    0.000    0.000    0.000    0.000    0.000    0.000 
#
# Total GULP energy -595442.453444 kJ/mol
# GULP energy per Si atom -12405.051113 kJ/mol
# Density = 2.087230 g / cm^3
# Si number density = 20.919913 Si / 1000 Ang^3
#
#
#
# Elastic Constant Matrix: (Units=GPa)
#
#
# Indices 1 2 3 4 5 6 
#
# 1 107.6149 40.4078 21.3463 0.0000 0.0000 0.0000
# 2 40.4078 102.1759 9.4862 0.0000 0.0000 0.0000
# 3 21.3463 9.4862 68.9652 0.0000 0.0000 0.0000
# 4 0.0000 0.0000 0.0000 32.5484 0.0000 0.0000
# 5 0.0000 0.0000 0.0000 0.0000 39.0626 0.0000
# 6 0.0000 0.0000 0.0000 0.0000 0.0000 19.0592
#
#
#
# Elastic Compliance Matrix: (Units=1/GPa)
#
#
# Indices 1 2 3 4 5 6 
#
# 1 0.011483 -0.004266 -0.002967 0.000000 0.000000 0.000000
# 2 -0.004266 0.011498 -0.000261 0.000000 0.000000 0.000000
# 3 -0.002967 -0.000261 0.015454 0.000000 0.000000 0.000000
# 4 0.000000 0.000000 0.000000 0.030724 0.000000 0.000000
# 5 0.000000 0.000000 0.000000 0.000000 0.025600 0.000000
# 6 0.000000 0.000000 0.000000 0.000000 0.000000 0.052468
#
#
# Mechanical properties :
#
#
# Convention : Reuss Voigt Hill
#
# Bulk Modulus (GPa) = 42.64975 46.80407 44.72691
# Shear Modulus (GPa) = 29.40638 31.96841 30.68739
#
# Velocity S-wave (km/s) = 3.75329 3.91338 3.83417
# Velocity P-wave (km/s) = 6.26213 6.54529 6.40528
#
# Compressibility (1/GPa) = 0.02344680
#
# Stress axis : x y z
#
# Youngs Moduli (GPa) = 87.08781 86.96993 64.70615
#
# Poissons Ratio (x) = 0.37098 0.19201
# Poissons Ratio (y) = 0.37148 0.01691
# Poissons Ratio (z) = 0.25843 0.02273
#
# Static dielectric constant tensor:
#      x y z
#    x 3.895430 0.000000 0.000000 
#    y 0.000000 3.508700 0.000000 
#    z 0.000000 0.000000 3.925940 
# 
# 
# High freq. dielectric constant tensor:
#      x y z
#    x 1.833350 0.000000 0.000000 
#    y 0.000000 1.805640 0.000000 
#    z 0.000000 0.000000 1.832750 
# 
# From -- ./inp_files/12976.got.cif
#   From: 2010.03.12/outbox.cif.g09.slc.cpg/sg53_7_cif.got.tgz:12976.got - 2010.04.16 14:36:59.
