data_PCOD8221682
_publ_section_title
;
Structure prediction by ZEFSAII (Michael W. Deem and Ramdas Pophale) SiO2 
 PCOD8221682
Probable space group: P M N A
;
_chemical_formula_sum "Si O2"
_cell_formula_units_Z 24
_cell_length_a 15.512994
_cell_length_b 8.579292
_cell_length_c 9.662185
_cell_angle_alpha 90.000000
_cell_angle_beta 90.000000
_cell_angle_gamma 90.000000
_cell_volume 1285.945084
_symmetry_space_group_name_H-M "P M N A"
_symmetry_group_IT_number 53
_symmetry_cell_setting 'orthorhombic'
loop_
_space_group_symop_operation_xyz
x,y,z
1/2-x,-y,1/2+z
x,-y,-z
1/2-x,y,1/2-z
-x,-y,-z
1/2+x,y,1/2-z
-x,y,z
1/2+x,-y,1/2+z
loop_
_atom_site_type_symbol
_atom_site_label
_atom_site_fract_x
_atom_site_fract_y
_atom_site_fract_z
Si Si1 0.750000 0.635198 0.250000
Si Si2 0.146257 0.500000 0.000000
Si Si3 0.320856 0.937489 0.148248
Si Si4 0.000000 0.745596 0.991180
Si Si5 0.000000 0.019330 0.774334
O O1 0.702810 0.526312 0.362128
O O2 0.815631 0.748362 0.335976
O O3 0.086815 0.351555 0.029782
O O4 0.250000 0.015020 0.250000
O O5 0.416717 0.995301 0.178471
O O6 0.292891 0.000000 0.000000
O O7 0.000000 0.878540 0.879136
O O8 0.000000 0.816919 0.144918
#
# Coordination Sequence:
#
# PCOD8221682 Si02
#       5
#     4   4   8   4   4
#     4  10  24  38  62  94 126 172 208 264 314 384
#     4  11  22  42  60  91 134 166 214 259 322 391
#     4  10  23  40  64  98 127 163 217 272 316 375
#     4  10  22  38  65  91 124 175 211 260 320 390
#     4  11  21  40  67  95 125 166 221 266 322 367
#
# _framework density 18.663315000000001
#
# number of rings (size 3 to 8) (size 9 to 14) (size 15 to 20)
#    1.000    0.667    3.333    0.500    9.333    2.667 
#    0.000    0.000    0.000    5.000    0.000    0.000 
#    0.000    0.000    0.000    0.000    0.000    0.000 
#
# Total GULP energy -297509.959706 kJ/mol
# GULP energy per Si atom -12396.248321 kJ/mol
# Density = 1.862084 g / cm^3
# Si number density = 18.663315 Si / 1000 Ang^3
#
#
#
# Elastic Constant Matrix: (Units=GPa)
#
#
# Indices 1 2 3 4 5 6 
#
# 1 139.9409 30.6156 70.0354 0.0000 0.0000 0.0000
# 2 30.6156 74.7611 51.3804 0.0000 0.0000 0.0000
# 3 70.0354 51.3804 155.5418 0.0000 0.0000 0.0000
# 4 0.0000 0.0000 0.0000 30.7753 0.0000 0.0000
# 5 0.0000 0.0000 0.0000 0.0000 19.1715 0.0000
# 6 0.0000 0.0000 0.0000 0.0000 0.0000 55.3488
#
#
#
# Elastic Compliance Matrix: (Units=1/GPa)
#
#
# Indices 1 2 3 4 5 6 
#
# 1 0.009308 -0.001205 -0.003793 0.000000 0.000000 0.000000
# 2 -0.001205 0.017460 -0.005225 0.000000 0.000000 0.000000
# 3 -0.003793 -0.005225 0.009863 0.000000 0.000000 0.000000
# 4 0.000000 0.000000 0.000000 0.032494 0.000000 0.000000
# 5 0.000000 0.000000 0.000000 0.000000 0.052161 0.000000
# 6 0.000000 0.000000 0.000000 0.000000 0.000000 0.018067
#
#
# Mechanical properties :
#
#
# Convention : Reuss Voigt Hill
#
# Bulk Modulus (GPa) = 61.78527 74.92297 68.35412
# Shear Modulus (GPa) = 30.26744 35.60660 32.93702
#
# Velocity S-wave (km/s) = 4.03148 4.37262 4.20551
# Velocity P-wave (km/s) = 7.40591 8.10708 7.76441
#
# Compressibility (1/GPa) = 0.01618509
#
# Stress axis : x y z
#
# Youngs Moduli (GPa) = 107.43783 57.27234 101.38865
#
# Poissons Ratio (x) = 0.06901 0.38456
# Poissons Ratio (y) = 0.12945 0.52978
# Poissons Ratio (z) = 0.40751 0.29926
#
# Static dielectric constant tensor:
#      x y z
#    x 3.578170 0.000000 0.000000 
#    y 0.000000 3.346100 0.000000 
#    z 0.000000 0.000000 3.321690 
# 
# 
# High freq. dielectric constant tensor:
#      x y z
#    x 1.732540 0.000000 0.000000 
#    y 0.000000 1.715470 0.000000 
#    z 0.000000 0.000000 1.722770 
# 
# From -- ./inp_files/9342.got.cif
#   From: 2010.03.12/outbox.cif.g09.slc.cpg/sg53_5_cif.got.tgz:9342.got - 2010.04.16 14:36:59.
