data_PCOD8221298
_publ_section_title
;
Structure prediction by ZEFSAII (Michael W. Deem and Ramdas Pophale) SiO2 
 PCOD8221298
Probable space group: P M N A
;
_chemical_formula_sum "Si O2"
_cell_formula_units_Z 48
_cell_length_a 9.236402
_cell_length_b 29.315569
_cell_length_c 8.930559
_cell_angle_alpha 90.000000
_cell_angle_beta 90.000000
_cell_angle_gamma 90.000000
_cell_volume 2418.130855
_symmetry_space_group_name_H-M "P M N A"
_symmetry_group_IT_number 53
_symmetry_cell_setting 'orthorhombic'
loop_
_space_group_symop_operation_xyz
x,y,z
1/2-x,-y,1/2+z
x,-y,-z
1/2-x,y,1/2-z
-x,-y,-z
1/2+x,y,1/2-z
-x,y,z
1/2+x,-y,1/2+z
loop_
_atom_site_type_symbol
_atom_site_label
_atom_site_fract_x
_atom_site_fract_y
_atom_site_fract_z
Si Si1 0.500000 0.951005 0.073267
Si Si2 0.832784 0.810500 0.402899
Si Si3 0.500000 0.050156 0.569728
Si Si4 0.330238 0.705831 0.095494
Si Si5 0.831529 0.545030 0.596537
Si Si6 0.248003 0.104943 0.427747
Si Si7 0.824267 0.369135 0.089505
O O1 0.371215 0.922550 0.011918
O O2 0.500000 0.955178 0.252138
O O3 0.500000 0.000000 0.000000
O O4 0.750000 0.821036 0.250000
O O5 0.814329 0.758299 0.453542
O O6 0.765780 0.841262 0.535463
O O7 0.000000 0.822704 0.376141
O O8 0.377710 0.081748 0.508416
O O9 0.500000 0.000000 0.500000
O O10 0.250000 0.696657 0.250000
O O11 0.500000 0.691729 0.105240
O O12 0.240025 0.676969 0.977323
O O13 0.824083 0.500000 0.500000
O O14 0.750000 0.533549 0.750000
O O15 0.741624 0.585513 0.508965
O O16 0.000000 0.559448 0.624141
O O17 0.250000 0.098079 0.250000
O O18 0.750000 0.373596 0.250000
O O19 0.000000 0.368064 0.091023
#
# Coordination Sequence:
#
# PCOD8221298 Si02
#       7
#     4   8   4   8   8   8   8
#     4  12  24  44  68  90 126 164 206 256 307 374
#     4  10  22  41  65  92 123 162 204 250 307 370
#     4  12  26  44  66  94 124 166 208 252 313 370
#     4  10  21  39  62  90 123 160 205 256 308 372
#     4  10  21  37  58  85 118 158 206 258 316 378
#     4  12  25  42  63  95 127 161 206 256 310 369
#     4  11  22  38  60  87 121 163 208 258 316 375
#
# _framework density 19.850041000000001
#
# number of rings (size 3 to 8) (size 9 to 14) (size 15 to 20)
#    0.000    1.167    0.833    7.000    1.167    3.333 
#    0.000    1.667    0.000    0.000    0.000    0.000 
#    0.000    0.000    0.000    0.000    0.000    0.000 
#
# Total GULP energy -594681.533196 kJ/mol
# GULP energy per Si atom -12389.198608 kJ/mol
# Density = 1.980486 g / cm^3
# Si number density = 19.850041 Si / 1000 Ang^3
#
#
#
# Elastic Constant Matrix: (Units=GPa)
#
#
# Indices 1 2 3 4 5 6 
#
# 1 191.7156 73.2464 56.5142 0.0000 0.0000 0.0000
# 2 73.2464 127.7223 57.5454 0.0000 0.0000 0.0000
# 3 56.5142 57.5454 122.6765 0.0000 0.0000 0.0000
# 4 0.0000 0.0000 0.0000 37.1285 0.0000 0.0000
# 5 0.0000 0.0000 0.0000 0.0000 30.6139 0.0000
# 6 0.0000 0.0000 0.0000 0.0000 0.0000 40.2961
#
#
#
# Elastic Compliance Matrix: (Units=1/GPa)
#
#
# Indices 1 2 3 4 5 6 
#
# 1 0.006945 -0.003222 -0.001688 0.000000 0.000000 0.000000
# 2 -0.003222 0.011423 -0.003874 0.000000 0.000000 0.000000
# 3 -0.001688 -0.003874 0.010746 0.000000 0.000000 0.000000
# 4 0.000000 0.000000 0.000000 0.026934 0.000000 0.000000
# 5 0.000000 0.000000 0.000000 0.000000 0.032665 0.000000
# 6 0.000000 0.000000 0.000000 0.000000 0.000000 0.024816
#
#
# Mechanical properties :
#
#
# Convention : Reuss Voigt Hill
#
# Bulk Modulus (GPa) = 86.61011 90.74738 88.67875
# Shear Modulus (GPa) = 37.05230 38.59492 37.82361
#
# Velocity S-wave (km/s) = 4.32512 4.41423 4.36990
# Velocity P-wave (km/s) = 8.28668 8.47327 8.38050
#
# Compressibility (1/GPa) = 0.01154600
#
# Stress axis : x y z
#
# Youngs Moduli (GPa) = 143.99574 87.54488 93.05648
#
# Poissons Ratio (x) = 0.28209 0.15706
# Poissons Ratio (y) = 0.46398 0.36048
# Poissons Ratio (z) = 0.24303 0.33913
#
# Static dielectric constant tensor:
#      x y z
#    x 3.977120 0.000000 0.000000 
#    y 0.000000 4.107210 0.000000 
#    z 0.000000 0.000000 3.401280 
# 
# 
# High freq. dielectric constant tensor:
#      x y z
#    x 1.800920 0.000000 0.000000 
#    y 0.000000 1.797090 0.000000 
#    z 0.000000 0.000000 1.763270 
# 
# From -- ./inp_files/6850.got.cif
#   From: 2010.03.12/outbox.cif.g09.slc.cpg/sg53_4_cif.got.tgz:6850.got - 2010.04.16 14:36:59.
