data_PCOD8221598
_publ_section_title
;
Structure prediction by ZEFSAII (Michael W. Deem and Ramdas Pophale) SiO2 
 PCOD8221598
Probable space group: P M N A
;
_chemical_formula_sum "Si O2"
_cell_formula_units_Z 40
_cell_length_a 22.865269
_cell_length_b 9.503539
_cell_length_c 8.561870
_cell_angle_alpha 90.000000
_cell_angle_beta 90.000000
_cell_angle_gamma 90.000000
_cell_volume 1860.502705
_symmetry_space_group_name_H-M "P M N A"
_symmetry_group_IT_number 53
_symmetry_cell_setting 'orthorhombic'
loop_
_space_group_symop_operation_xyz
x,y,z
1/2-x,-y,1/2+z
x,-y,-z
1/2-x,y,1/2-z
-x,-y,-z
1/2+x,y,1/2-z
-x,y,z
1/2+x,-y,1/2+z
loop_
_atom_site_type_symbol
_atom_site_label
_atom_site_fract_x
_atom_site_fract_y
_atom_site_fract_z
Si Si1 0.827726 0.149190 0.942171
Si Si2 0.402626 0.660115 0.956987
Si Si3 0.390189 0.086902 0.852686
Si Si4 0.435074 0.827345 0.667248
Si Si5 0.734163 0.648610 0.930145
O O1 0.887498 0.193652 0.031569
O O2 0.774125 0.250092 0.969470
O O3 0.838377 0.145100 0.756452
O O4 0.805584 0.000000 0.000000
O O5 0.428911 0.698180 0.788787
O O6 0.333304 0.684685 0.953269
O O7 0.420409 0.500000 0.000000
O O8 0.426010 0.775273 0.084026
O O9 0.429619 0.979742 0.751143
O O10 0.364073 0.000000 0.000000
O O11 0.500000 0.819931 0.593484
O O12 0.750000 0.659242 0.750000
O O13 0.750270 0.500000 0.000000
#
# Coordination Sequence:
#
# PCOD8221598 Si02
#       5
#     8   8   8   8   8
#     4  10  22  39  62  92 125 162 204 259 306 369
#     4  10  22  39  61  89 124 161 208 252 307 378
#     4   9  21  38  60  89 119 160 205 248 309 367
#     4  10  21  41  64  88 121 161 207 260 315 371
#     4  11  24  41  63  93 127 167 203 251 314 379
#
# _framework density 21.499566000000002
#
# number of rings (size 3 to 8) (size 9 to 14) (size 15 to 20)
#    0.000    2.000    2.000    0.000    5.600   10.000 
#    0.000    0.000    0.000    4.200    0.000    0.000 
#    0.000    0.000    0.000    0.000    0.000    0.000 
#
# Total GULP energy -495823.707002 kJ/mol
# GULP energy per Si atom -12395.592675 kJ/mol
# Density = 2.145063 g / cm^3
# Si number density = 21.499566 Si / 1000 Ang^3
#
#
#
# Elastic Constant Matrix: (Units=GPa)
#
#
# Indices 1 2 3 4 5 6 
#
# 1 89.9725 19.4433 1.1560 0.0000 0.0000 0.0000
# 2 19.4433 109.4139 16.5480 0.0000 0.0000 0.0000
# 3 1.1560 16.5480 84.9716 0.0000 0.0000 0.0000
# 4 0.0000 0.0000 0.0000 31.8893 0.0000 0.0000
# 5 0.0000 0.0000 0.0000 0.0000 -16.0756 0.0000
# 6 0.0000 0.0000 0.0000 0.0000 0.0000 15.7702
#
#
#
# Elastic Compliance Matrix: (Units=1/GPa)
#
#
# Indices 1 2 3 4 5 6 
#
# 1 0.011564 -0.002093 0.000250 0.000000 0.000000 0.000000
# 2 -0.002093 0.009796 -0.001879 0.000000 0.000000 0.000000
# 3 0.000250 -0.001879 0.012131 0.000000 0.000000 0.000000
# 4 0.000000 0.000000 0.000000 0.031358 0.000000 0.000000
# 5 0.000000 0.000000 0.000000 0.000000 -0.062206 0.000000
# 6 0.000000 0.000000 0.000000 0.000000 0.000000 0.063411
#
#
# Mechanical properties :
#
#
# Convention : Reuss Voigt Hill
#
# Bulk Modulus (GPa) = 38.39208 39.85027 39.12118
# Shear Modulus (GPa) = 60.84249 22.79750 41.81999
#
# Velocity S-wave (km/s) = 5.32549 3.25987 4.41518
# Velocity P-wave (km/s) = 7.46394 5.72229 6.65037
#
# Compressibility (1/GPa) = 0.02604704
#
# Stress axis : x y z
#
# Youngs Moduli (GPa) = 86.47876 102.08548 82.43199
#
# Poissons Ratio (x) = 0.21364 -0.02063
# Poissons Ratio (y) = 0.18098 0.15491
# Poissons Ratio (z) = -0.02164 0.19184
#
# Static dielectric constant tensor:
#      x y z
#    x 3.601380 0.000000 0.000000 
#    y 0.000000 4.139110 0.000000 
#    z 0.000000 0.000000 4.042520 
# 
# 
# High freq. dielectric constant tensor:
#      x y z
#    x 1.824560 0.000000 0.000000 
#    y 0.000000 1.850060 0.000000 
#    z 0.000000 0.000000 1.851150 
# 
# From -- ./inp_files/12266.got.cif
#   From: 2010.03.12/outbox.cif.g09.slc.cpg/sg53_7_cif.got.tgz:12266.got - 2010.04.16 14:36:59.
