data_PCOD8221856
_publ_section_title
;
Structure prediction by ZEFSAII (Michael W. Deem and Ramdas Pophale) SiO2 
 PCOD8221856
Probable space group: P M N A
;
_chemical_formula_sum "Si O2"
_cell_formula_units_Z 56
_cell_length_a 9.019751
_cell_length_b 22.731705
_cell_length_c 14.060998
_cell_angle_alpha 90.000000
_cell_angle_beta 90.000000
_cell_angle_gamma 90.000000
_cell_volume 2882.987148
_symmetry_space_group_name_H-M "P M N A"
_symmetry_group_IT_number 53
_symmetry_cell_setting 'orthorhombic'
loop_
_space_group_symop_operation_xyz
x,y,z
1/2-x,-y,1/2+z
x,-y,-z
1/2-x,y,1/2-z
-x,-y,-z
1/2+x,y,1/2-z
-x,y,z
1/2+x,-y,1/2+z
loop_
_atom_site_type_symbol
_atom_site_label
_atom_site_fract_x
_atom_site_fract_y
_atom_site_fract_z
Si Si1 0.333450 0.480516 0.607566
Si Si2 0.675505 0.202344 0.352620
Si Si3 0.175716 0.032418 0.850586
Si Si4 0.830934 0.406021 0.335529
Si Si5 0.332682 0.699264 0.966719
Si Si6 0.173226 0.359968 0.654723
Si Si7 0.324518 0.084726 0.453642
O O1 0.337417 0.500000 0.500000
O O2 0.500000 0.472905 0.647700
O O3 0.248711 0.531427 0.662180
O O4 0.246466 0.420313 0.621139
O O5 0.750000 0.206437 0.250000
O O6 0.500000 0.200442 0.338315
O O7 0.716338 0.257961 0.417271
O O8 0.736013 0.145231 0.409155
O O9 0.250000 0.049523 0.750000
O O10 0.000000 0.034655 0.835734
O O11 0.230302 0.968000 0.885111
O O12 0.226900 0.076801 0.935944
O O13 0.750000 0.370357 0.250000
O O14 0.813400 0.367408 0.429631
O O15 0.000000 0.417188 0.309460
O O16 0.500000 0.721895 0.946081
O O17 0.301165 0.692672 0.078771
O O18 0.250000 0.336580 0.750000
O O19 0.000000 0.371591 0.670549
O O20 0.500000 0.083506 0.454044
#
# Coordination Sequence:
#
# PCOD8221856 Si02
#       7
#     8   8   8   8   8   8   8
#     4  11  22  36  57  84 111 140 176 218 270 330
#     4  11  22  37  59  84 112 146 186 229 278 331
#     4   9  16  31  54  80 114 151 190 230 275 327
#     4  11  22  37  56  79 108 140 175 217 270 325
#     4  10  23  41  59  80 108 143 183 228 274 322
#     4  11  23  41  62  83 109 142 182 226 276 332
#     4   8  17  33  53  79 113 154 189 225 276 335
#
# _framework density 19.424298
#
# number of rings (size 3 to 8) (size 9 to 14) (size 15 to 20)
#    0.000    1.857    1.429    3.857    0.000    4.000 
#    0.000    4.286    0.000    3.429    0.000    0.000 
#    0.000    0.000    0.000    0.000    0.000    0.000 
#
# Total GULP energy -694194.058778 kJ/mol
# GULP energy per Si atom -12396.322478 kJ/mol
# Density = 1.938009 g / cm^3
# Si number density = 19.424298 Si / 1000 Ang^3
#
#
#
# Elastic Constant Matrix: (Units=GPa)
#
#
# Indices 1 2 3 4 5 6 
#
# 1 107.2637 41.9693 56.8298 0.0000 0.0000 0.0000
# 2 41.9693 89.5014 48.1045 0.0000 0.0000 0.0000
# 3 56.8298 48.1045 143.3522 0.0000 0.0000 0.0000
# 4 0.0000 0.0000 0.0000 27.3908 0.0000 0.0000
# 5 0.0000 0.0000 0.0000 0.0000 33.3963 0.0000
# 6 0.0000 0.0000 0.0000 0.0000 0.0000 18.2504
#
#
#
# Elastic Compliance Matrix: (Units=1/GPa)
#
#
# Indices 1 2 3 4 5 6 
#
# 1 0.012889 -0.004023 -0.003760 0.000000 0.000000 0.000000
# 2 -0.004023 0.014887 -0.003401 0.000000 0.000000 0.000000
# 3 -0.003760 -0.003401 0.009607 0.000000 0.000000 0.000000
# 4 0.000000 0.000000 0.000000 0.036509 0.000000 0.000000
# 5 0.000000 0.000000 0.000000 0.000000 0.029943 0.000000
# 6 0.000000 0.000000 0.000000 0.000000 0.000000 0.054793
#
#
# Mechanical properties :
#
#
# Convention : Reuss Voigt Hill
#
# Bulk Modulus (GPa) = 66.59301 70.43607 68.51454
# Shear Modulus (GPa) = 26.88146 28.68841 27.78493
#
# Velocity S-wave (km/s) = 3.72413 3.84726 3.78619
# Velocity P-wave (km/s) = 7.26980 7.48838 7.37990
#
# Compressibility (1/GPa) = 0.01501659
#
# Stress axis : x y z
#
# Youngs Moduli (GPa) = 77.58648 67.17065 104.08610
#
# Poissons Ratio (x) = 0.27024 0.39131
# Poissons Ratio (y) = 0.31215 0.35398
# Poissons Ratio (z) = 0.29169 0.22843
#
# Static dielectric constant tensor:
#      x y z
#    x 3.488180 0.000000 0.000000 
#    y 0.000000 3.511360 0.000000 
#    z 0.000000 0.000000 3.794840 
# 
# 
# High freq. dielectric constant tensor:
#      x y z
#    x 1.749860 0.000000 0.000000 
#    y 0.000000 1.733600 0.000000 
#    z 0.000000 0.000000 1.775640 
# 
# From -- ./inp_files/20496.got.cif
#   From: 2010.03.12/outbox.cif.g09.slc.cpg/sg53_11_cif.got.tgz:20496.got - 2010.04.16 14:36:59.
