data_PCOD8221552
_publ_section_title
;
Structure prediction by ZEFSAII (Michael W. Deem and Ramdas Pophale) SiO2 
 PCOD8221552
Probable space group: P M N A
;
_chemical_formula_sum "Si O2"
_cell_formula_units_Z 56
_cell_length_a 14.118624
_cell_length_b 13.500522
_cell_length_c 15.067386
_cell_angle_alpha 90.000000
_cell_angle_beta 90.000000
_cell_angle_gamma 90.000000
_cell_volume 2871.976273
_symmetry_space_group_name_H-M "P M N A"
_symmetry_group_IT_number 53
_symmetry_cell_setting 'orthorhombic'
loop_
_space_group_symop_operation_xyz
x,y,z
1/2-x,-y,1/2+z
x,-y,-z
1/2-x,y,1/2-z
-x,-y,-z
1/2+x,y,1/2-z
-x,y,z
1/2+x,-y,1/2+z
loop_
_atom_site_type_symbol
_atom_site_label
_atom_site_fract_x
_atom_site_fract_y
_atom_site_fract_z
Si Si1 0.606354 0.097272 0.101313
Si Si2 0.212024 0.391598 0.462116
Si Si3 0.726132 0.913913 0.151716
Si Si4 0.109089 0.293362 0.097608
Si Si5 0.604968 0.886633 0.473883
Si Si6 0.610734 0.294918 0.196724
Si Si7 0.894329 0.770712 0.431780
O O1 0.500000 0.058915 0.124953
O O2 0.637834 0.183920 0.168135
O O3 0.682031 0.009785 0.104305
O O4 0.607166 0.140584 0.002848
O O5 0.195939 0.500000 0.500000
O O6 0.324230 0.368926 0.456212
O O7 0.165114 0.375001 0.364780
O O8 0.164437 0.322158 0.535073
O O9 0.750000 0.947056 0.250000
O O10 0.818380 0.870847 0.102392
O O11 0.652981 0.821214 0.154481
O O12 0.139494 0.301711 0.200527
O O13 0.000000 0.325387 0.085048
O O14 0.127101 0.182253 0.059945
O O15 0.500000 0.859462 0.437325
O O16 0.607907 0.000000 0.500000
O O17 0.500000 0.314202 0.180970
O O18 0.000000 0.734740 0.409827
#
# Coordination Sequence:
#
# PCOD8221552 Si02
#       7
#     8   8   8   8   8   8   8
#     4   9  19  35  58  86 119 153 195 244 289 350
#     4  11  22  38  64  91 118 149 194 253 314 368
#     4  12  24  34  54  84 119 162 202 238 286 351
#     4  10  21  40  64  88 124 161 200 249 296 359
#     4  10  22  38  57  84 120 162 203 242 290 349
#     4   9  20  37  61  96 122 152 198 250 309 355
#     4  10  21  40  60  82 115 153 195 241 301 360
#
# _framework density 19.49877
#
# number of rings (size 3 to 8) (size 9 to 14) (size 15 to 20)
#    0.000    1.857    1.429    3.429    4.000    3.714 
#    0.000    1.429    0.000    0.000    0.000    0.000 
#    0.000    0.000    0.000    0.000    0.000    0.000 
#
# Total GULP energy -694237.052313 kJ/mol
# GULP energy per Si atom -12397.090220 kJ/mol
# Density = 1.945439 g / cm^3
# Si number density = 19.498770 Si / 1000 Ang^3
#
#
#
# Elastic Constant Matrix: (Units=GPa)
#
#
# Indices 1 2 3 4 5 6 
#
# 1 108.6524 56.7461 36.9850 0.0000 0.0000 0.0000
# 2 56.7461 108.2006 50.0868 0.0000 0.0000 0.0000
# 3 36.9850 50.0868 55.5192 0.0000 0.0000 0.0000
# 4 0.0000 0.0000 0.0000 14.2844 0.0000 0.0000
# 5 0.0000 0.0000 0.0000 0.0000 21.4628 0.0000
# 6 0.0000 0.0000 0.0000 0.0000 0.0000 15.3413
#
#
#
# Elastic Compliance Matrix: (Units=1/GPa)
#
#
# Indices 1 2 3 4 5 6 
#
# 1 0.013273 -0.004925 -0.004399 0.000000 0.000000 0.000000
# 2 -0.004925 0.017697 -0.012684 0.000000 0.000000 0.000000
# 3 -0.004399 -0.012684 0.032386 0.000000 0.000000 0.000000
# 4 0.000000 0.000000 0.000000 0.070007 0.000000 0.000000
# 5 0.000000 0.000000 0.000000 0.000000 0.046592 0.000000
# 6 0.000000 0.000000 0.000000 0.000000 0.000000 0.065183
#
#
# Mechanical properties :
#
#
# Convention : Reuss Voigt Hill
#
# Bulk Modulus (GPa) = 51.70971 62.22311 56.96641
# Shear Modulus (GPa) = 16.91471 18.78797 17.85134
#
# Velocity S-wave (km/s) = 2.94849 3.10747 3.02902
# Velocity P-wave (km/s) = 6.17807 6.69744 6.44299
#
# Compressibility (1/GPa) = 0.01933873
#
# Stress axis : x y z
#
# Youngs Moduli (GPa) = 75.33963 56.50827 30.87782
#
# Poissons Ratio (x) = 0.27829 0.13584
# Poissons Ratio (y) = 0.37102 0.39166
# Poissons Ratio (z) = 0.33145 0.71677
#
# Static dielectric constant tensor:
#      x y z
#    x 4.024870 0.000000 0.000000 
#    y 0.000000 3.271240 0.000000 
#    z 0.000000 0.000000 3.459600 
# 
# 
# High freq. dielectric constant tensor:
#      x y z
#    x 1.785360 0.000000 0.000000 
#    y 0.000000 1.730580 0.000000 
#    z 0.000000 0.000000 1.737660 
# 
# From -- ./inp_files/22848.got.cif
#   From: 2010.03.12/outbox.cif.g09.slc.cpg/sg53_12_cif.got.tgz:22848.got - 2010.04.16 14:36:59.
