data_PCOD8221458
_publ_section_title
;
Structure prediction by ZEFSAII (Michael W. Deem and Ramdas Pophale) SiO2 
 PCOD8221458
Probable space group: P M N A
;
_chemical_formula_sum "Si O2"
_cell_formula_units_Z 64
_cell_length_a 14.502058
_cell_length_b 9.698579
_cell_length_c 21.641390
_cell_angle_alpha 90.000000
_cell_angle_beta 90.000000
_cell_angle_gamma 90.000000
_cell_volume 3043.847549
_symmetry_space_group_name_H-M "P M N A"
_symmetry_group_IT_number 53
_symmetry_cell_setting 'orthorhombic'
loop_
_space_group_symop_operation_xyz
x,y,z
1/2-x,-y,1/2+z
x,-y,-z
1/2-x,y,1/2-z
-x,-y,-z
1/2+x,y,1/2-z
-x,y,z
1/2+x,-y,1/2+z
loop_
_atom_site_type_symbol
_atom_site_label
_atom_site_fract_x
_atom_site_fract_y
_atom_site_fract_z
Si Si1 0.599181 0.955220 0.178768
Si Si2 0.757531 0.460139 0.929024
Si Si3 0.607498 0.506055 0.834661
Si Si4 0.108905 0.040825 0.067073
Si Si5 0.895591 0.677949 0.874604
Si Si6 0.397758 0.278966 0.732976
Si Si7 0.221883 0.815450 0.127776
Si Si8 0.148830 0.230858 0.261175
O O1 0.500000 0.928627 0.144736
O O2 0.599850 0.877260 0.243839
O O3 0.681897 0.897232 0.136600
O O4 0.599125 0.115179 0.198051
O O5 0.656323 0.485174 0.900536
O O6 0.833179 0.544951 0.888892
O O7 0.773623 0.294952 0.927644
O O8 0.761020 0.500000 0.000000
O O9 0.500000 0.531964 0.846246
O O10 0.626303 0.374375 0.791509
O O11 0.655490 0.635329 0.803233
O O12 0.142093 0.194261 0.084625
O O13 0.000000 0.031646 0.069579
O O14 0.145921 0.931255 0.116084
O O15 0.148160 0.000000 0.000000
O O16 0.898617 0.724893 0.802971
O O17 0.000000 0.639356 0.893526
O O18 0.500000 0.320874 0.706122
O O19 0.314217 0.281318 0.684221
O O20 0.250000 0.171036 0.250000
#
# Coordination Sequence:
#
# PCOD8221458 Si02
#       8
#     8   8   8   8   8   8   8   8
#     4  11  23  38  59  95 135 165 200 253 321 389
#     4  12  27  44  64  91 127 176 230 272 315 377
#     4  11  24  43  65  92 127 166 210 267 326 383
#     4  10  22  41  63  91 130 174 219 266 318 383
#     4  11  23  41  65  96 134 171 211 266 328 390
#     4  10  21  38  63  95 129 160 200 255 323 388
#     4  12  23  38  66  93 128 170 216 263 320 380
#     4  12  22  38  66  98 131 161 203 263 332 396
#
# _framework density 21.026019999999999
#
# number of rings (size 3 to 8) (size 9 to 14) (size 15 to 20)
#    0.000    0.875    2.500    5.625    0.000    4.500 
#    0.000    0.000    0.000    0.375    0.000    0.000 
#    0.000    0.000    0.000    0.000    0.000    0.000 
#
# Total GULP energy -793413.827241 kJ/mol
# GULP energy per Si atom -12397.091051 kJ/mol
# Density = 2.097816 g / cm^3
# Si number density = 21.026020 Si / 1000 Ang^3
#
#
#
# Elastic Constant Matrix: (Units=GPa)
#
#
# Indices 1 2 3 4 5 6 
#
# 1 78.5974 29.5821 21.3419 0.0000 0.0000 0.0000
# 2 29.5821 97.2358 27.1288 0.0000 0.0000 0.0000
# 3 21.3419 27.1288 66.6839 0.0000 0.0000 0.0000
# 4 0.0000 0.0000 0.0000 30.9522 0.0000 0.0000
# 5 0.0000 0.0000 0.0000 0.0000 22.3645 0.0000
# 6 0.0000 0.0000 0.0000 0.0000 0.0000 23.2025
#
#
#
# Elastic Compliance Matrix: (Units=1/GPa)
#
#
# Indices 1 2 3 4 5 6 
#
# 1 0.014993 -0.003635 -0.003319 0.000000 0.000000 0.000000
# 2 -0.003635 0.012482 -0.003915 0.000000 0.000000 0.000000
# 3 -0.003319 -0.003915 0.017651 0.000000 0.000000 0.000000
# 4 0.000000 0.000000 0.000000 0.032308 0.000000 0.000000
# 5 0.000000 0.000000 0.000000 0.000000 0.044714 0.000000
# 6 0.000000 0.000000 0.000000 0.000000 0.000000 0.043099
#
#
# Mechanical properties :
#
#
# Convention : Reuss Voigt Hill
#
# Bulk Modulus (GPa) = 42.75793 44.29141 43.52467
# Shear Modulus (GPa) = 25.66986 26.26813 25.96900
#
# Velocity S-wave (km/s) = 3.49787 3.53840 3.51820
# Velocity P-wave (km/s) = 6.05750 6.14853 6.10319
#
# Compressibility (1/GPa) = 0.02338747
#
# Stress axis : x y z
#
# Youngs Moduli (GPa) = 66.69968 80.11283 56.65359
#
# Poissons Ratio (x) = 0.29122 0.18806
# Poissons Ratio (y) = 0.24246 0.22179
# Poissons Ratio (z) = 0.22141 0.31362
#
# Static dielectric constant tensor:
#      x y z
#    x 3.907050 0.000000 0.000000 
#    y 0.000000 3.958480 0.000000 
#    z 0.000000 0.000000 3.535580 
# 
# 
# High freq. dielectric constant tensor:
#      x y z
#    x 1.834590 0.000000 0.000000 
#    y 0.000000 1.843480 0.000000 
#    z 0.000000 0.000000 1.790380 
# 
# From -- ./inp_files/35350.got.cif
#   From: 2010.03.12/outbox.cif.g09.slc.cpg/sg53_18_cif.got.tgz:35350.got - 2010.04.16 14:36:59.
