data_PCOD8221170
_publ_section_title
;
Structure prediction by ZEFSAII (Michael W. Deem and Ramdas Pophale) SiO2 
 PCOD8221170
Probable space group: P M N A
;
_chemical_formula_sum "Si O2"
_cell_formula_units_Z 48
_cell_length_a 9.850604
_cell_length_b 29.476001
_cell_length_c 8.537811
_cell_angle_alpha 90.000000
_cell_angle_beta 90.000000
_cell_angle_gamma 90.000000
_cell_volume 2479.008180
_symmetry_space_group_name_H-M "P M N A"
_symmetry_group_IT_number 53
_symmetry_cell_setting 'orthorhombic'
loop_
_space_group_symop_operation_xyz
x,y,z
1/2-x,-y,1/2+z
x,-y,-z
1/2-x,y,1/2-z
-x,-y,-z
1/2+x,y,1/2-z
-x,y,z
1/2+x,-y,1/2+z
loop_
_atom_site_type_symbol
_atom_site_label
_atom_site_fract_x
_atom_site_fract_y
_atom_site_fract_z
Si Si1 0.754478 0.896911 0.434021
Si Si2 0.344986 0.279715 0.897230
Si Si3 0.500000 0.950919 0.930595
Si Si4 0.657406 0.633525 0.901676
Si Si5 0.500000 0.051255 0.437243
Si Si6 0.841042 0.808872 0.596460
Si Si7 0.157201 0.455561 0.597847
O O1 0.750000 0.902949 0.250000
O O2 0.871305 0.925370 0.509465
O O3 0.622467 0.918100 0.507881
O O4 0.778212 0.844278 0.473348
O O5 0.250000 0.270608 0.750000
O O6 0.500000 0.280832 0.837242
O O7 0.304158 0.326784 0.978046
O O8 0.324117 0.240702 0.024674
O O9 0.500000 0.953475 0.746337
O O10 0.500000 0.000000 0.000000
O O11 0.750000 0.638082 0.750000
O O12 0.500000 0.636709 0.850417
O O13 0.690188 0.586587 0.986750
O O14 0.500000 0.000000 0.500000
O O15 0.750000 0.812038 0.750000
O O16 0.000000 0.819434 0.633305
O O17 0.194855 0.500000 0.500000
O O18 0.250000 0.453003 0.750000
O O19 0.000000 0.455759 0.650854
#
# Coordination Sequence:
#
# PCOD8221170 Si02
#       7
#     8   8   4   8   4   8   8
#     4  12  25  43  65  93 126 161 202 250 301 358
#     4  10  22  40  61  89 123 158 203 251 303 362
#     4  12  24  44  66  92 128 160 204 250 295 360
#     4  10  21  37  58  85 119 157 202 254 306 366
#     4  12  26  44  68  96 124 166 204 246 305 356
#     4  11  24  42  64  92 124 159 201 249 301 362
#     4  10  21  36  55  83 117 155 202 253 306 366
#
# _framework density 19.362580999999999
#
# number of rings (size 3 to 8) (size 9 to 14) (size 15 to 20)
#    0.000    1.167    0.833    5.500    1.167    2.333 
#    0.000    0.000    0.000    0.000    0.000    0.000 
#    0.000    0.000    0.000    0.000    0.000    0.000 
#
# Total GULP energy -595332.997404 kJ/mol
# GULP energy per Si atom -12402.770779 kJ/mol
# Density = 1.931851 g / cm^3
# Si number density = 19.362581 Si / 1000 Ang^3
#
#
#
# Elastic Constant Matrix: (Units=GPa)
#
#
# Indices 1 2 3 4 5 6 
#
# 1 120.9183 31.3996 63.3959 0.0000 0.0000 0.0000
# 2 31.3996 116.5576 27.1706 0.0000 0.0000 0.0000
# 3 63.3959 27.1706 145.7778 0.0000 0.0000 0.0000
# 4 0.0000 0.0000 0.0000 27.8232 0.0000 0.0000
# 5 0.0000 0.0000 0.0000 0.0000 44.2911 0.0000
# 6 0.0000 0.0000 0.0000 0.0000 0.0000 31.4585
#
#
#
# Elastic Compliance Matrix: (Units=1/GPa)
#
#
# Indices 1 2 3 4 5 6 
#
# 1 0.011122 -0.001954 -0.004473 0.000000 0.000000 0.000000
# 2 -0.001954 0.009312 -0.000886 0.000000 0.000000 0.000000
# 3 -0.004473 -0.000886 0.008970 0.000000 0.000000 0.000000
# 4 0.000000 0.000000 0.000000 0.035941 0.000000 0.000000
# 5 0.000000 0.000000 0.000000 0.000000 0.022578 0.000000
# 6 0.000000 0.000000 0.000000 0.000000 0.000000 0.031788
#
#
# Mechanical properties :
#
#
# Convention : Reuss Voigt Hill
#
# Bulk Modulus (GPa) = 67.66014 69.68733 68.67374
# Shear Modulus (GPa) = 35.90323 38.13374 37.01848
#
# Velocity S-wave (km/s) = 4.31078 4.44267 4.37722
# Velocity P-wave (km/s) = 7.73284 7.89843 7.81607
#
# Compressibility (1/GPa) = 0.01477975
#
# Stress axis : x y z
#
# Youngs Moduli (GPa) = 89.90887 107.38501 111.48244
#
# Poissons Ratio (x) = 0.20979 0.49864
# Poissons Ratio (y) = 0.17565 0.09878
# Poissons Ratio (z) = 0.40214 0.09515
#
# Static dielectric constant tensor:
#      x y z
#    x 3.719910 0.000000 0.000000 
#    y 0.000000 3.435290 0.000000 
#    z 0.000000 0.000000 3.950430 
# 
# 
# High freq. dielectric constant tensor:
#      x y z
#    x 1.765790 0.000000 0.000000 
#    y 0.000000 1.779740 0.000000 
#    z 0.000000 0.000000 1.761140 
# 
# From -- ./inp_files/6832.got.cif
#   From: 2010.03.12/outbox.cif.g09.slc.cpg/sg53_4_cif.got.tgz:6832.got - 2010.04.16 14:36:59.
