data_PCOD8221225
_publ_section_title
;
Structure prediction by ZEFSAII (Michael W. Deem and Ramdas Pophale) SiO2 
 PCOD8221225
Probable space group: P M N A
;
_chemical_formula_sum "Si O2"
_cell_formula_units_Z 48
_cell_length_a 8.925211
_cell_length_b 21.140886
_cell_length_c 14.096808
_cell_angle_alpha 90.000000
_cell_angle_beta 90.000000
_cell_angle_gamma 90.000000
_cell_volume 2659.882554
_symmetry_space_group_name_H-M "P M N A"
_symmetry_group_IT_number 53
_symmetry_cell_setting 'orthorhombic'
loop_
_space_group_symop_operation_xyz
x,y,z
1/2-x,-y,1/2+z
x,-y,-z
1/2-x,y,1/2-z
-x,-y,-z
1/2+x,y,1/2-z
-x,y,z
1/2+x,-y,1/2+z
loop_
_atom_site_type_symbol
_atom_site_label
_atom_site_fract_x
_atom_site_fract_y
_atom_site_fract_z
Si Si1 0.322079 0.665581 0.148022
Si Si2 0.174428 0.995622 0.649708
Si Si3 0.675765 0.103125 0.992568
Si Si4 0.827756 0.329219 0.149601
Si Si5 0.325728 0.427387 0.506328
Si Si6 0.677142 0.762846 0.485748
O O1 0.250000 0.656915 0.250000
O O2 0.500000 0.669193 0.156239
O O3 0.275300 0.605116 0.085931
O O4 0.260687 0.730228 0.102197
O O5 0.250000 0.989811 0.750000
O O6 0.215717 0.061968 0.600191
O O7 0.000000 0.992114 0.666200
O O8 0.223979 0.936874 0.584610
O O9 0.500000 0.120467 0.995021
O O10 0.777168 0.164695 0.990663
O O11 0.750000 0.327965 0.250000
O O12 0.000000 0.320670 0.172214
O O13 0.795045 0.395168 0.095667
O O14 0.772383 0.271502 0.083090
O O15 0.277615 0.500000 0.500000
O O16 0.500000 0.419263 0.534597
O O17 0.500000 0.755694 0.469915
#
# Coordination Sequence:
#
# PCOD8221225 Si02
#       6
#     8   8   8   8   8   8
#     4  11  22  37  57  80 108 142 180 222 267 318
#     4   9  19  35  54  76 105 138 174 214 259 312
#     4   9  19  36  54  75 105 140 173 212 264 317
#     4   9  19  34  52  75 104 137 173 213 259 310
#     4   9  19  37  57  79 110 143 176 220 268 313
#     4  10  21  37  55  78 106 138 178 222 268 318
#
# _framework density 18.045909000000002
#
# number of rings (size 3 to 8) (size 9 to 14) (size 15 to 20)
#    0.000    2.500    0.000    4.000    0.000    7.000 
#    0.000    8.333    0.000    0.000    0.000    0.000 
#    0.000    0.000    0.000    0.000    0.000    0.000 
#
# Total GULP energy -595204.092433 kJ/mol
# GULP energy per Si atom -12400.085259 kJ/mol
# Density = 1.800484 g / cm^3
# Si number density = 18.045909 Si / 1000 Ang^3
#
#
#
# Elastic Constant Matrix: (Units=GPa)
#
#
# Indices 1 2 3 4 5 6 
#
# 1 78.1183 42.4470 46.2008 0.0000 0.0000 0.0000
# 2 42.4470 123.4586 32.3331 0.0000 0.0000 0.0000
# 3 46.2008 32.3331 113.4222 0.0000 0.0000 0.0000
# 4 0.0000 0.0000 0.0000 13.0349 0.0000 0.0000
# 5 0.0000 0.0000 0.0000 0.0000 38.2862 0.0000
# 6 0.0000 0.0000 0.0000 0.0000 0.0000 32.7599
#
#
#
# Elastic Compliance Matrix: (Units=1/GPa)
#
#
# Indices 1 2 3 4 5 6 
#
# 1 0.019306 -0.004948 -0.006454 0.000000 0.000000 0.000000
# 2 -0.004948 0.010021 -0.000841 0.000000 0.000000 0.000000
# 3 -0.006454 -0.000841 0.011685 0.000000 0.000000 0.000000
# 4 0.000000 0.000000 0.000000 0.076717 0.000000 0.000000
# 5 0.000000 0.000000 0.000000 0.000000 0.026119 0.000000
# 6 0.000000 0.000000 0.000000 0.000000 0.000000 0.030525
#
#
# Mechanical properties :
#
#
# Convention : Reuss Voigt Hill
#
# Bulk Modulus (GPa) = 60.50554 61.88454 61.19504
# Shear Modulus (GPa) = 24.46556 29.75075 27.10815
#
# Velocity S-wave (km/s) = 3.68603 4.06472 3.88000
# Velocity P-wave (km/s) = 7.19147 7.50976 7.35234
#
# Compressibility (1/GPa) = 0.01652741
#
# Stress axis : x y z
#
# Youngs Moduli (GPa) = 51.79638 99.78732 85.57752
#
# Poissons Ratio (x) = 0.49371 0.55230
# Poissons Ratio (y) = 0.25627 0.07201
# Poissons Ratio (z) = 0.33428 0.08396
#
# Static dielectric constant tensor:
#      x y z
#    x 3.277380 0.000000 0.000000 
#    y 0.000000 3.412750 0.000000 
#    z 0.000000 0.000000 3.321090 
# 
# 
# High freq. dielectric constant tensor:
#      x y z
#    x 1.697860 0.000000 0.000000 
#    y 0.000000 1.703640 0.000000 
#    z 0.000000 0.000000 1.702700 
# 
# From -- ./inp_files/20357.got.cif
#   From: 2010.03.12/outbox.cif.g09.slc.cpg/sg53_11_cif.got.tgz:20357.got - 2010.04.16 14:36:59.
