data_PCOD8221648
_publ_section_title
;
Structure prediction by ZEFSAII (Michael W. Deem and Ramdas Pophale) SiO2 
 PCOD8221648
Probable space group: P M N A
;
_chemical_formula_sum "Si O2"
_cell_formula_units_Z 40
_cell_length_a 9.012389
_cell_length_b 25.551771
_cell_length_c 9.084634
_cell_angle_alpha 90.000000
_cell_angle_beta 90.000000
_cell_angle_gamma 90.000000
_cell_volume 2092.032228
_symmetry_space_group_name_H-M "P M N A"
_symmetry_group_IT_number 53
_symmetry_cell_setting 'orthorhombic'
loop_
_space_group_symop_operation_xyz
x,y,z
1/2-x,-y,1/2+z
x,-y,-z
1/2-x,y,1/2-z
-x,-y,-z
1/2+x,y,1/2-z
-x,y,z
1/2+x,-y,1/2+z
loop_
_atom_site_type_symbol
_atom_site_label
_atom_site_fract_x
_atom_site_fract_y
_atom_site_fract_z
Si Si1 0.826759 0.837020 0.405716
Si Si2 0.327239 0.953321 0.097118
Si Si3 0.671362 0.551706 0.595883
Si Si4 0.674214 0.359459 0.908064
Si Si5 0.172270 0.741848 0.596701
O O1 0.750000 0.827364 0.250000
O O2 0.794653 0.895444 0.468669
O O3 0.766627 0.795948 0.526337
O O4 0.000000 0.827851 0.377959
O O5 0.250000 0.958683 0.250000
O O6 0.500000 0.962180 0.121163
O O7 0.259398 0.000000 0.000000
O O8 0.685042 0.500000 0.500000
O O9 0.750000 0.540609 0.750000
O O10 0.500000 0.567281 0.621775
O O11 0.754959 0.598115 0.514606
O O12 0.750000 0.361914 0.750000
O O13 0.500000 0.370832 0.890075
O O14 0.705640 0.303242 0.979129
O O15 0.250000 0.729328 0.750000
O O16 0.000000 0.746199 0.632415
#
# Coordination Sequence:
#
# PCOD8221648 Si02
#       5
#     8   8   8   8   8
#     4   9  18  34  53  74 102 136 175 217 263 315
#     4   9  18  32  50  73 102 135 172 216 263 313
#     4  11  24  41  62  88 118 151 187 228 273 322
#     4  11  23  39  60  85 113 146 185 227 273 325
#     4  10  22  37  54  79 109 141 177 220 269 320
#
# _framework density 19.120163000000002
#
# number of rings (size 3 to 8) (size 9 to 14) (size 15 to 20)
#    0.000    2.000    0.000    3.000    0.000    8.400 
#    0.000    0.000    0.000    0.000    0.000    0.000 
#    0.000    0.000    0.000    0.000    0.000    0.000 
#
# Total GULP energy -496017.741606 kJ/mol
# GULP energy per Si atom -12400.443540 kJ/mol
# Density = 1.907664 g / cm^3
# Si number density = 19.120163 Si / 1000 Ang^3
#
#
#
# Elastic Constant Matrix: (Units=GPa)
#
#
# Indices 1 2 3 4 5 6 
#
# 1 84.0666 55.6108 57.8169 0.0000 0.0000 0.0000
# 2 55.6108 119.6991 48.4442 0.0000 0.0000 0.0000
# 3 57.8169 48.4442 109.7289 0.0000 0.0000 0.0000
# 4 0.0000 0.0000 0.0000 42.9767 0.0000 0.0000
# 5 0.0000 0.0000 0.0000 0.0000 34.7664 0.0000
# 6 0.0000 0.0000 0.0000 0.0000 0.0000 35.4130
#
#
#
# Elastic Compliance Matrix: (Units=1/GPa)
#
#
# Indices 1 2 3 4 5 6 
#
# 1 0.022525 -0.006893 -0.008825 0.000000 0.000000 0.000000
# 2 -0.006893 0.012281 -0.001790 0.000000 0.000000 0.000000
# 3 -0.008825 -0.001790 0.014554 0.000000 0.000000 0.000000
# 4 0.000000 0.000000 0.000000 0.023268 0.000000 0.000000
# 5 0.000000 0.000000 0.000000 0.000000 0.028763 0.000000
# 6 0.000000 0.000000 0.000000 0.000000 0.000000 0.028238
#
#
# Mechanical properties :
#
#
# Convention : Reuss Voigt Hill
#
# Bulk Modulus (GPa) = 69.72023 70.80429 70.26226
# Shear Modulus (GPa) = 29.51121 32.73938 31.12530
#
# Velocity S-wave (km/s) = 3.93295 4.14248 4.03907
# Velocity P-wave (km/s) = 7.56092 7.74544 7.65374
#
# Compressibility (1/GPa) = 0.01434304
#
# Stress axis : x y z
#
# Youngs Moduli (GPa) = 44.39577 81.42564 68.71091
#
# Poissons Ratio (x) = 0.56127 0.60639
# Poissons Ratio (y) = 0.30602 0.12300
# Poissons Ratio (z) = 0.39180 0.14576
#
# Static dielectric constant tensor:
#      x y z
#    x 3.583620 0.000000 0.000000 
#    y 0.000000 4.067510 0.000000 
#    z 0.000000 0.000000 3.329040 
# 
# 
# High freq. dielectric constant tensor:
#      x y z
#    x 1.745060 0.000000 0.000000 
#    y 0.000000 1.764140 0.000000 
#    z 0.000000 0.000000 1.744230 
# 
# From -- ./inp_files/6253.got.cif
#   From: 2010.03.12/outbox.cif.g09.slc.cpg/sg53_4_cif.got.tgz:6253.got - 2010.04.16 14:36:59.
