data_PCOD8221893
_publ_section_title
;
Structure prediction by ZEFSAII (Michael W. Deem and Ramdas Pophale) SiO2 
 PCOD8221893
Probable space group: P M N A
;
_chemical_formula_sum "Si O2"
_cell_formula_units_Z 60
_cell_length_a 14.632088
_cell_length_b 8.664145
_cell_length_c 21.692176
_cell_angle_alpha 90.000000
_cell_angle_beta 90.000000
_cell_angle_gamma 90.000000
_cell_volume 2750.015462
_symmetry_space_group_name_H-M "P M N A"
_symmetry_group_IT_number 53
_symmetry_cell_setting 'orthorhombic'
loop_
_space_group_symop_operation_xyz
x,y,z
1/2-x,-y,1/2+z
x,-y,-z
1/2-x,y,1/2-z
-x,-y,-z
1/2+x,y,1/2-z
-x,y,z
1/2+x,-y,1/2+z
loop_
_atom_site_type_symbol
_atom_site_label
_atom_site_fract_x
_atom_site_fract_y
_atom_site_fract_z
Si Si1 0.893093 0.974049 0.312654
Si Si2 0.820192 0.496881 0.842478
Si Si3 0.399073 0.104116 0.058839
Si Si4 0.102138 0.304534 0.939901
Si Si5 0.106251 0.962607 0.901154
Si Si6 0.228338 0.702736 0.952146
Si Si7 0.750000 0.251082 0.750000
Si Si8 0.604282 0.215541 0.282827
O O1 0.834974 0.849837 0.274335
O O2 0.000000 0.926435 0.306074
O O3 0.863054 0.997932 0.383819
O O4 0.875073 0.144423 0.283854
O O5 0.902950 0.420854 0.881476
O O6 0.762785 0.588150 0.894362
O O7 0.769320 0.357740 0.808992
O O8 0.846893 0.620424 0.790299
O O9 0.500000 0.170497 0.076162
O O10 0.332412 0.242989 0.039813
O O11 0.408335 0.000000 0.000000
O O12 0.000000 0.302083 0.969558
O O13 0.132626 0.138317 0.913865
O O14 0.180857 0.369036 0.986518
O O15 0.162969 0.851626 0.945287
O O16 0.134281 0.916702 0.831572
O O17 0.000000 0.933273 0.914719
O O18 0.500000 0.255179 0.293526
#
# Coordination Sequence:
#
# PCOD8221893 Si02
#       8
#     8   8   8   8   8   8   4   8
#     4  10  24  45  71  99 126 169 225 278 332 384
#     4  11  26  39  58  99 135 182 213 253 321 405
#     4  10  23  43  71  97 119 158 226 294 334 366
#     4  11  22  39  63  97 141 178 213 263 325 394
#     4   9  18  33  58  95 132 173 216 258 308 378
#     4  11  23  38  64  92 134 172 223 262 321 392
#     4  12  28  42  70  94 138 174 214 270 328 390
#     4   9  19  38  64  93 130 171 215 263 318 389
#
# _framework density 21.818058000000001
#
# number of rings (size 3 to 8) (size 9 to 14) (size 15 to 20)
#    0.000    1.733    0.000    3.200    9.333    5.333 
#    0.000    0.667    0.000    1.600    0.000    0.000 
#    0.000    0.000    0.000    0.000    0.000    0.000 
#
# Total GULP energy -743475.565644 kJ/mol
# GULP energy per Si atom -12391.259427 kJ/mol
# Density = 2.176840 g / cm^3
# Si number density = 21.818058 Si / 1000 Ang^3
#
#
#
# Elastic Constant Matrix: (Units=GPa)
#
#
# Indices 1 2 3 4 5 6 
#
# 1 88.2524 39.9293 42.2390 0.0000 0.0000 0.0000
# 2 39.9293 102.9922 47.9936 0.0000 0.0000 0.0000
# 3 42.2390 47.9936 104.8307 0.0000 0.0000 0.0000
# 4 0.0000 0.0000 0.0000 35.6754 0.0000 0.0000
# 5 0.0000 0.0000 0.0000 0.0000 25.5055 0.0000
# 6 0.0000 0.0000 0.0000 0.0000 0.0000 4.6364
#
#
#
# Elastic Compliance Matrix: (Units=1/GPa)
#
#
# Indices 1 2 3 4 5 6 
#
# 1 0.015152 -0.003851 -0.004342 0.000000 0.000000 0.000000
# 2 -0.003851 0.013321 -0.004547 0.000000 0.000000 0.000000
# 3 -0.004342 -0.004547 0.013370 0.000000 0.000000 0.000000
# 4 0.000000 0.000000 0.000000 0.028031 0.000000 0.000000
# 5 0.000000 0.000000 0.000000 0.000000 0.039207 0.000000
# 6 0.000000 0.000000 0.000000 0.000000 0.000000 0.215686
#
#
# Mechanical properties :
#
#
# Convention : Reuss Voigt Hill
#
# Bulk Modulus (GPa) = 61.11186 61.82211 61.46698
# Shear Modulus (GPa) = 14.05673 24.22434 19.14054
#
# Velocity S-wave (km/s) = 2.54100 3.33571 2.96510
# Velocity P-wave (km/s) = 6.05636 6.57516 6.32109
#
# Compressibility (1/GPa) = 0.01636344
#
# Stress axis : x y z
#
# Youngs Moduli (GPa) = 65.99989 75.06746 74.79169
#
# Poissons Ratio (x) = 0.28907 0.32474
# Poissons Ratio (y) = 0.25415 0.34009
# Poissons Ratio (z) = 0.28657 0.34135
#
# Static dielectric constant tensor:
#      x y z
#    x 3.958790 0.000000 0.000000 
#    y 0.000000 3.927380 0.000000 
#    z 0.000000 0.000000 4.238410 
# 
# 
# High freq. dielectric constant tensor:
#      x y z
#    x 1.843010 0.000000 0.000000 
#    y 0.000000 1.856160 0.000000 
#    z 0.000000 0.000000 1.868460 
# 
# From -- ./inp_files/35284.got.cif
#   From: 2010.03.12/outbox.cif.g09.slc.cpg/sg53_18_cif.got.tgz:35284.got - 2010.04.16 14:36:59.
