data_PCOD8221699
_publ_section_title
;
Structure prediction by ZEFSAII (Michael W. Deem and Ramdas Pophale) SiO2 
 PCOD8221699
Probable space group: P M N A
;
_chemical_formula_sum "Si O2"
_cell_formula_units_Z 48
_cell_length_a 8.775454
_cell_length_b 30.841850
_cell_length_c 8.939107
_cell_angle_alpha 90.000000
_cell_angle_beta 90.000000
_cell_angle_gamma 90.000000
_cell_volume 2419.380358
_symmetry_space_group_name_H-M "P M N A"
_symmetry_group_IT_number 53
_symmetry_cell_setting 'orthorhombic'
loop_
_space_group_symop_operation_xyz
x,y,z
1/2-x,-y,1/2+z
x,-y,-z
1/2-x,y,1/2-z
-x,-y,-z
1/2+x,y,1/2-z
-x,y,z
1/2+x,-y,1/2+z
loop_
_atom_site_type_symbol
_atom_site_label
_atom_site_fract_x
_atom_site_fract_y
_atom_site_fract_z
Si Si1 0.675527 0.544261 0.410697
Si Si2 0.680551 0.622851 0.913579
Si Si3 0.319694 0.872813 0.411456
Si Si4 0.819584 0.206619 0.413112
Si Si5 0.679264 0.041499 0.411426
Si Si6 0.320769 0.707811 0.087647
O O1 0.691885 0.500000 0.500000
O O2 0.750000 0.537977 0.250000
O O3 0.500000 0.558057 0.391867
O O4 0.764298 0.580442 0.501880
O O5 0.750000 0.625047 0.750000
O O6 0.500000 0.621760 0.898606
O O7 0.737757 0.664340 0.007072
O O8 0.250000 0.879425 0.250000
O O9 0.500000 0.866647 0.401211
O O10 0.246386 0.831019 0.485274
O O11 0.272250 0.914858 0.505052
O O12 0.750000 0.203258 0.250000
O O13 0.769141 0.251947 0.486115
O O14 0.000000 0.201929 0.402371
O O15 0.750000 0.042498 0.250000
O O16 0.500000 0.037742 0.394680
O O17 0.744653 0.000000 0.500000
O O18 0.250000 0.712111 0.250000
O O19 0.500000 0.706854 0.108384
#
# Coordination Sequence:
#
# PCOD8221699 Si02
#       6
#     8   8   8   8   8   8
#     4  11  24  41  62  89 121 157 197 242 292 347
#     4  11  23  40  62  89 120 155 197 243 293 347
#     4  11  23  39  60  87 118 153 195 241 291 347
#     4  11  23  40  61  87 119 155 196 241 292 347
#     4  10  22  39  59  85 116 151 192 238 289 345
#     4  10  23  40  60  87 118 154 195 241 291 346
#
# _framework density 19.839791000000002
#
# number of rings (size 3 to 8) (size 9 to 14) (size 15 to 20)
#    0.000    1.333    0.000    5.000    0.000   11.000 
#    0.000    0.000    0.000    0.000    0.000    0.000 
#    0.000    0.000    0.000    0.000    0.000    0.000 
#
# Total GULP energy -595473.097742 kJ/mol
# GULP energy per Si atom -12405.689536 kJ/mol
# Density = 1.979463 g / cm^3
# Si number density = 19.839791 Si / 1000 Ang^3
#
#
#
# Elastic Constant Matrix: (Units=GPa)
#
#
# Indices 1 2 3 4 5 6 
#
# 1 65.6272 35.8367 36.6766 0.0000 0.0000 0.0000
# 2 35.8367 99.6811 11.2890 0.0000 0.0000 0.0000
# 3 36.6766 11.2890 113.7678 0.0000 0.0000 0.0000
# 4 0.0000 0.0000 0.0000 46.4840 0.0000 0.0000
# 5 0.0000 0.0000 0.0000 0.0000 87.1022 0.0000
# 6 0.0000 0.0000 0.0000 0.0000 0.0000 31.9272
#
#
#
# Elastic Compliance Matrix: (Units=1/GPa)
#
#
# Indices 1 2 3 4 5 6 
#
# 1 0.023103 -0.007547 -0.006699 0.000000 0.000000 0.000000
# 2 -0.007547 0.012611 0.001182 0.000000 0.000000 0.000000
# 3 -0.006699 0.001182 0.010832 0.000000 0.000000 0.000000
# 4 0.000000 0.000000 0.000000 0.021513 0.000000 0.000000
# 5 0.000000 0.000000 0.000000 0.000000 0.011481 0.000000
# 6 0.000000 0.000000 0.000000 0.000000 0.000000 0.031321
#
#
# Mechanical properties :
#
#
# Convention : Reuss Voigt Hill
#
# Bulk Modulus (GPa) = 48.97770 49.63118 49.30444
# Shear Modulus (GPa) = 34.77162 46.12092 40.44627
#
# Velocity S-wave (km/s) = 4.19097 4.82671 4.52003
# Velocity P-wave (km/s) = 6.93968 7.49221 7.22123
#
# Compressibility (1/GPa) = 0.02041746
#
# Stress axis : x y z
#
# Youngs Moduli (GPa) = 43.28535 79.29325 92.31737
#
# Poissons Ratio (x) = 0.59843 0.61843
# Poissons Ratio (y) = 0.32667 -0.10908
# Poissons Ratio (z) = 0.28997 -0.09369
#
# Static dielectric constant tensor:
#      x y z
#    x 3.723450 0.000000 0.000000 
#    y 0.000000 4.123810 0.000000 
#    z 0.000000 0.000000 3.705120 
# 
# 
# High freq. dielectric constant tensor:
#      x y z
#    x 1.780650 0.000000 0.000000 
#    y 0.000000 1.796250 0.000000 
#    z 0.000000 0.000000 1.795350 
# 
# From -- ./inp_files/6685.got.cif
#   From: 2010.03.12/outbox.cif.g09.slc.cpg/sg53_4_cif.got.tgz:6685.got - 2010.04.16 14:36:59.
