data_PCOD8221769
_publ_section_title
;
Structure prediction by ZEFSAII (Michael W. Deem and Ramdas Pophale) SiO2 
 PCOD8221769
Probable space group: P M N A
;
_chemical_formula_sum "Si O2"
_cell_formula_units_Z 40
_cell_length_a 22.699918
_cell_length_b 8.747903
_cell_length_c 9.670507
_cell_angle_alpha 90.000000
_cell_angle_beta 90.000000
_cell_angle_gamma 90.000000
_cell_volume 1920.337181
_symmetry_space_group_name_H-M "P M N A"
_symmetry_group_IT_number 53
_symmetry_cell_setting 'orthorhombic'
loop_
_space_group_symop_operation_xyz
x,y,z
1/2-x,-y,1/2+z
x,-y,-z
1/2-x,y,1/2-z
-x,-y,-z
1/2+x,y,1/2-z
-x,y,z
1/2+x,-y,1/2+z
loop_
_atom_site_type_symbol
_atom_site_label
_atom_site_fract_x
_atom_site_fract_y
_atom_site_fract_z
Si Si1 0.066469 0.173531 0.230877
Si Si2 0.069676 0.174876 0.726503
Si Si3 0.871035 0.320516 0.471396
Si Si4 0.120817 0.680687 0.013938
Si Si5 0.243865 0.346132 0.085117
O O1 0.105646 0.290733 0.317988
O O2 0.000000 0.187857 0.282242
O O3 0.087481 0.999809 0.248235
O O4 0.071567 0.227218 0.072331
O O5 0.089214 0.220410 0.573043
O O6 0.109331 0.278549 0.827047
O O7 0.000000 0.204266 0.746133
O O8 0.876187 0.500000 0.500000
O O9 0.802792 0.264552 0.473090
O O10 0.113209 0.500000 0.000000
O O11 0.184128 0.743789 0.956228
O O12 0.250000 0.375028 0.250000
O O13 0.236521 0.500000 0.000000
#
# Coordination Sequence:
#
# PCOD8221769 Si02
#       5
#     8   8   8   8   8
#     4  11  23  42  63  88 130 171 204 259 322 375
#     4  11  25  42  61  92 130 171 208 251 322 379
#     4  11  23  40  66  93 125 161 213 263 306 372
#     4  11  23  40  66  93 125 161 213 263 306 372
#     4  10  22  40  65  95 128 162 204 261 324 370
#
# _framework density 20.829675000000002
#
# number of rings (size 3 to 8) (size 9 to 14) (size 15 to 20)
#    0.000    1.200    2.000    3.600    8.400    8.000 
#    0.000    6.000    0.000    0.000    0.000    0.000 
#    0.000    0.000    0.000    0.000    0.000    0.000 
#
# Total GULP energy -495963.014359 kJ/mol
# GULP energy per Si atom -12399.075359 kJ/mol
# Density = 2.078227 g / cm^3
# Si number density = 20.829675 Si / 1000 Ang^3
#
#
#
# Elastic Constant Matrix: (Units=GPa)
#
#
# Indices 1 2 3 4 5 6 
#
# 1 106.2297 42.4369 29.9755 0.0000 0.0000 0.0000
# 2 42.4369 85.6824 10.6208 0.0000 0.0000 0.0000
# 3 29.9755 10.6208 82.9355 0.0000 0.0000 0.0000
# 4 0.0000 0.0000 0.0000 36.4268 0.0000 0.0000
# 5 0.0000 0.0000 0.0000 0.0000 40.5146 0.0000
# 6 0.0000 0.0000 0.0000 0.0000 0.0000 12.7752
#
#
#
# Elastic Compliance Matrix: (Units=1/GPa)
#
#
# Indices 1 2 3 4 5 6 
#
# 1 0.012865 -0.005889 -0.003896 0.000000 0.000000 0.000000
# 2 -0.005889 0.014555 0.000265 0.000000 0.000000 0.000000
# 3 -0.003896 0.000265 0.013432 0.000000 0.000000 0.000000
# 4 0.000000 0.000000 0.000000 0.027452 0.000000 0.000000
# 5 0.000000 0.000000 0.000000 0.000000 0.024682 0.000000
# 6 0.000000 0.000000 0.000000 0.000000 0.000000 0.078277
#
#
# Mechanical properties :
#
#
# Convention : Reuss Voigt Hill
#
# Bulk Modulus (GPa) = 45.84735 48.99042 47.41888
# Shear Modulus (GPa) = 25.30687 30.73095 28.01891
#
# Velocity S-wave (km/s) = 3.48939 3.84519 3.67160
# Velocity P-wave (km/s) = 6.18812 6.57910 6.38660
#
# Compressibility (1/GPa) = 0.02181151
#
# Stress axis : x y z
#
# Youngs Moduli (GPa) = 77.72744 68.70498 74.45044
#
# Poissons Ratio (x) = 0.40461 0.29005
# Poissons Ratio (y) = 0.45775 -0.01970
# Poissons Ratio (z) = 0.30281 -0.01818
#
# Static dielectric constant tensor:
#      x y z
#    x 4.212380 0.000000 0.000000 
#    y 0.000000 3.516980 0.000000 
#    z 0.000000 0.000000 3.816960 
# 
# 
# High freq. dielectric constant tensor:
#      x y z
#    x 1.831620 0.000000 0.000000 
#    y 0.000000 1.795450 0.000000 
#    z 0.000000 0.000000 1.830440 
# 
# From -- ./inp_files/11575.got.cif
#   From: 2010.03.12/outbox.cif.g09.slc.cpg/sg53_6_cif.got.tgz:11575.got - 2010.04.16 14:36:59.
