data_PCOD8221320
_publ_section_title
;
Structure prediction by ZEFSAII (Michael W. Deem and Ramdas Pophale) SiO2 
 PCOD8221320
Probable space group: P M N A
;
_chemical_formula_sum "Si O2"
_cell_formula_units_Z 40
_cell_length_a 16.944814
_cell_length_b 13.157955
_cell_length_c 8.579641
_cell_angle_alpha 90.000000
_cell_angle_beta 90.000000
_cell_angle_gamma 90.000000
_cell_volume 1912.909037
_symmetry_space_group_name_H-M "P M N A"
_symmetry_group_IT_number 53
_symmetry_cell_setting 'orthorhombic'
loop_
_space_group_symop_operation_xyz
x,y,z
1/2-x,-y,1/2+z
x,-y,-z
1/2-x,y,1/2-z
-x,-y,-z
1/2+x,y,1/2-z
-x,y,z
1/2+x,-y,1/2+z
loop_
_atom_site_type_symbol
_atom_site_label
_atom_site_fract_x
_atom_site_fract_y
_atom_site_fract_z
Si Si1 0.591102 0.613845 0.861025
Si Si2 0.088058 0.999055 0.185667
Si Si3 0.835583 0.203613 0.191681
Si Si4 0.164078 0.793589 0.176437
Si Si5 0.659925 0.410607 0.807056
O O1 0.500000 0.610775 0.915867
O O2 0.603627 0.712669 0.754923
O O3 0.611378 0.512094 0.761409
O O4 0.651112 0.611905 0.007772
O O5 0.119929 0.891288 0.248347
O O6 0.000000 0.013408 0.249327
O O7 0.139725 0.091946 0.254090
O O8 0.089567 0.000000 0.000000
O O9 0.750000 0.233479 0.250000
O O10 0.834882 0.201153 0.007477
O O11 0.250000 0.792394 0.250000
O O12 0.121446 0.688041 0.223156
O O13 0.750000 0.424906 0.750000
#
# Coordination Sequence:
#
# PCOD8221320 Si02
#       5
#     8   8   8   8   8
#     4  11  24  42  62  89 124 158 197 251 307 352
#     4   9  19  35  55  82 117 153 191 242 300 352
#     4  11  21  37  62  87 117 157 201 245 293 355
#     4  10  21  37  59  86 115 152 198 244 291 351
#     4  10  21  39  62  87 118 157 200 243 296 357
#
# _framework density 20.910561999999999
#
# number of rings (size 3 to 8) (size 9 to 14) (size 15 to 20)
#    0.000    1.800    0.000    5.400    0.000    6.400 
#    0.000    4.000    0.000    6.000    0.000    0.000 
#    0.000    0.000    0.000    0.000    0.000    0.000 
#
# Total GULP energy -495863.791435 kJ/mol
# GULP energy per Si atom -12396.594786 kJ/mol
# Density = 2.086297 g / cm^3
# Si number density = 20.910562 Si / 1000 Ang^3
#
#
#
# Elastic Constant Matrix: (Units=GPa)
#
#
# Indices 1 2 3 4 5 6 
#
# 1 106.4562 47.3846 33.3846 0.0000 0.0000 0.0000
# 2 47.3846 195.1950 40.2411 0.0000 0.0000 0.0000
# 3 33.3846 40.2411 62.5639 0.0000 0.0000 0.0000
# 4 0.0000 0.0000 0.0000 43.2336 0.0000 0.0000
# 5 0.0000 0.0000 0.0000 0.0000 21.0907 0.0000
# 6 0.0000 0.0000 0.0000 0.0000 0.0000 27.5586
#
#
#
# Elastic Compliance Matrix: (Units=1/GPa)
#
#
# Indices 1 2 3 4 5 6 
#
# 1 0.011810 -0.001807 -0.005139 0.000000 0.000000 0.000000
# 2 -0.001807 0.006183 -0.003012 0.000000 0.000000 0.000000
# 3 -0.005139 -0.003012 0.020664 0.000000 0.000000 0.000000
# 4 0.000000 0.000000 0.000000 0.023130 0.000000 0.000000
# 5 0.000000 0.000000 0.000000 0.000000 0.047414 0.000000
# 6 0.000000 0.000000 0.000000 0.000000 0.000000 0.036286
#
#
# Mechanical properties :
#
#
# Convention : Reuss Voigt Hill
#
# Bulk Modulus (GPa) = 53.36721 67.35954 60.36337
# Shear Modulus (GPa) = 29.12888 34.59023 31.85955
#
# Velocity S-wave (km/s) = 3.73637 4.07160 3.90758
# Velocity P-wave (km/s) = 6.64763 7.37475 7.02061
#
# Compressibility (1/GPa) = 0.01873810
#
# Stress axis : x y z
#
# Youngs Moduli (GPa) = 84.67640 161.73751 48.39436
#
# Poissons Ratio (x) = 0.29232 0.24871
# Poissons Ratio (y) = 0.15304 0.14578
# Poissons Ratio (z) = 0.43517 0.48722
#
# Static dielectric constant tensor:
#      x y z
#    x 2.888030 0.000000 0.000000 
#    y 0.000000 4.614230 0.000000 
#    z 0.000000 0.000000 3.493700 
# 
# 
# High freq. dielectric constant tensor:
#      x y z
#    x 1.810220 0.000000 0.000000 
#    y 0.000000 1.851700 0.000000 
#    z 0.000000 0.000000 1.791040 
# 
# From -- ./inp_files/8353.got.cif
#   From: 2010.03.12/outbox.cif.g09.slc.cpg/sg53_5_cif.got.tgz:8353.got - 2010.04.16 14:36:59.
