data_PCOD8221843
_publ_section_title
;
Structure prediction by ZEFSAII (Michael W. Deem and Ramdas Pophale) SiO2 
 PCOD8221843
Probable space group: P M N A
;
_chemical_formula_sum "Si O2"
_cell_formula_units_Z 64
_cell_length_a 15.133350
_cell_length_b 21.778913
_cell_length_c 10.012767
_cell_angle_alpha 90.000000
_cell_angle_beta 90.000000
_cell_angle_gamma 90.000000
_cell_volume 3300.086979
_symmetry_space_group_name_H-M "P M N A"
_symmetry_group_IT_number 53
_symmetry_cell_setting 'orthorhombic'
loop_
_space_group_symop_operation_xyz
x,y,z
1/2-x,-y,1/2+z
x,-y,-z
1/2-x,y,1/2-z
-x,-y,-z
1/2+x,y,1/2-z
-x,y,z
1/2+x,-y,1/2+z
loop_
_atom_site_type_symbol
_atom_site_label
_atom_site_fract_x
_atom_site_fract_y
_atom_site_fract_z
Si Si1 0.250000 0.848289 0.096439
Si Si2 0.900067 0.358631 0.021424
Si Si3 0.898776 0.054922 0.902699
Si Si4 0.599933 0.641369 0.978576
Si Si5 0.896200 0.419882 0.750000
Si Si6 0.398776 0.054922 0.902699
Si Si7 0.750000 0.733868 0.597992
Si Si8 0.849707 0.557687 0.750000
O O1 0.250000 0.826055 0.250000
O O2 0.162309 0.887181 0.065011
O O3 0.337691 0.887181 0.065011
O O4 0.250000 0.790410 0.001435
O O5 0.838342 0.304910 0.074462
O O6 0.898577 0.417297 0.118952
O O7 0.000000 0.333184 0.012797
O O8 0.866125 0.380772 0.877505
O O9 0.884507 0.032857 0.750000
O O10 0.000000 0.074763 0.928138
O O11 0.870623 0.000000 0.000000
O O12 0.500000 0.666816 0.987203
O O13 0.661658 0.695090 0.925538
O O14 0.601423 0.582703 0.881048
O O15 0.633875 0.619228 0.122495
O O16 0.846951 0.484539 0.750000
O O17 0.000000 0.433255 0.750000
O O18 0.500000 0.074763 0.928138
O O19 0.370623 0.000000 0.000000
O O20 0.750000 0.757808 0.750000
O O21 0.750000 0.583476 0.750000
#
# Coordination Sequence:
#
# PCOD8221843 Si02
#       8
#     8   8   8   8   8   8   8   8
#     4  10  23  39  59  85 121 161 198 247 289 331
#     4  11  23  42  61  83 117 150 191 246 297 354
#     4   9  18  35  60  92 126 157 193 235 288 343
#     4  11  23  42  61  83 117 150 191 246 297 354
#     4  10  24  38  60  92 112 145 191 234 302 373
#     4   9  18  35  60  92 126 157 193 235 288 343
#     4  12  26  43  58  86 112 157 211 242 293 353
#     4  12  22  38  62  91 117 150 185 233 305 369
#
# _framework density 19.393429000000001
#
# number of rings (size 3 to 8) (size 9 to 14) (size 15 to 20)
#    0.000    1.500    2.500    2.250    3.500    5.000 
#    0.000    0.000    0.000    0.000    0.000    0.000 
#    0.000    0.000    0.000    0.000    0.000    0.000 
#
# Total GULP energy -793906.974205 kJ/mol
# GULP energy per Si atom -12404.796472 kJ/mol
# Density = 1.934929 g / cm^3
# Si number density = 19.393429 Si / 1000 Ang^3
#
#
#
# Elastic Constant Matrix: (Units=GPa)
#
#
# Indices 1 2 3 4 5 6 
#
# 1 97.9246 52.4050 39.9705 0.0000 0.0000 0.0000
# 2 52.4050 108.6464 63.7743 0.0000 0.0000 0.0000
# 3 39.9705 63.7743 143.5443 0.0000 0.0000 0.0000
# 4 0.0000 0.0000 0.0000 38.6167 0.0000 0.0000
# 5 0.0000 0.0000 0.0000 0.0000 29.2916 0.0000
# 6 0.0000 0.0000 0.0000 0.0000 0.0000 16.2919
#
#
#
# Elastic Compliance Matrix: (Units=1/GPa)
#
#
# Indices 1 2 3 4 5 6 
#
# 1 0.013918 -0.006004 -0.001208 0.000000 0.000000 0.000000
# 2 -0.006004 0.015042 -0.005011 0.000000 0.000000 0.000000
# 3 -0.001208 -0.005011 0.009529 0.000000 0.000000 0.000000
# 4 0.000000 0.000000 0.000000 0.025896 0.000000 0.000000
# 5 0.000000 0.000000 0.000000 0.000000 0.034140 0.000000
# 6 0.000000 0.000000 0.000000 0.000000 0.000000 0.061380
#
#
# Mechanical properties :
#
#
# Convention : Reuss Voigt Hill
#
# Bulk Modulus (GPa) = 71.21123 73.60167 72.40645
# Shear Modulus (GPa) = 26.45065 29.77106 28.11086
#
# Velocity S-wave (km/s) = 3.69710 3.92230 3.81137
# Velocity P-wave (km/s) = 7.41780 7.65159 7.53560
#
# Compressibility (1/GPa) = 0.01404273
#
# Stress axis : x y z
#
# Youngs Moduli (GPa) = 71.84810 66.48217 104.94199
#
# Poissons Ratio (x) = 0.39918 0.12677
# Poissons Ratio (y) = 0.43140 0.52584
# Poissons Ratio (z) = 0.08679 0.33313
#
# Static dielectric constant tensor:
#      x y z
#    x 3.655280 0.000000 0.000000 
#    y 0.000000 3.220290 0.000000 
#    z 0.000000 0.000000 3.801010 
# 
# 
# High freq. dielectric constant tensor:
#      x y z
#    x 1.772200 0.000000 0.000000 
#    y 0.000000 1.728130 0.000000 
#    z 0.000000 0.000000 1.771040 
# 
# From -- ./inp_files/8914.got.cif
#   From: 2010.03.12/outbox.cif.g09.slc.cpg/sg53_5_cif.got.tgz:8914.got - 2010.04.16 14:36:59.
