data_PCOD8221988
_publ_section_title
;
Structure prediction by ZEFSAII (Michael W. Deem and Ramdas Pophale) SiO2 
 PCOD8221988
Probable space group: P M N A
;
_chemical_formula_sum "Si O2"
_cell_formula_units_Z 48
_cell_length_a 10.162074
_cell_length_b 8.086045
_cell_length_c 26.866793
_cell_angle_alpha 90.000000
_cell_angle_beta 90.000000
_cell_angle_gamma 90.000000
_cell_volume 2207.670916
_symmetry_space_group_name_H-M "P M N A"
_symmetry_group_IT_number 53
_symmetry_cell_setting 'orthorhombic'
loop_
_space_group_symop_operation_xyz
x,y,z
1/2-x,-y,1/2+z
x,-y,-z
1/2-x,y,1/2-z
-x,-y,-z
1/2+x,y,1/2-z
-x,y,z
1/2+x,-y,1/2+z
loop_
_atom_site_type_symbol
_atom_site_label
_atom_site_fract_x
_atom_site_fract_y
_atom_site_fract_z
Si Si1 0.000000 0.719720 0.037610
Si Si2 0.238123 0.080030 0.948550
Si Si3 0.500000 0.647421 0.567498
Si Si4 0.500000 0.398604 0.080708
Si Si5 0.500000 0.740460 0.023919
Si Si6 0.156087 0.959011 0.848875
Si Si7 0.766992 0.623976 0.859329
Si Si8 0.654821 0.305564 0.703694
O O1 0.870841 0.783360 0.065916
O O2 0.000000 0.527762 0.042524
O O3 0.000000 0.773693 0.979195
O O4 0.377667 0.161815 0.955357
O O5 0.236791 0.960313 0.901095
O O6 0.192853 0.000000 0.000000
O O7 0.632232 0.673329 0.597594
O O8 0.500000 0.562339 0.048130
O O9 0.623150 0.391178 0.117471
O O10 0.500000 0.258470 0.037029
O O11 0.216041 0.788890 0.823557
O O12 0.000000 0.942058 0.857891
O O13 0.188278 0.123733 0.817534
O O14 0.810193 0.452633 0.834247
O O15 0.750000 0.335019 0.750000
O O16 0.500000 0.317259 0.718269
#
# Coordination Sequence:
#
# PCOD8221988 Si02
#       8
#     4   8   4   4   4   8   8   8
#     4  11  21  32  56  92 126 180 229 272 316 390
#     4  12  23  36  60  93 140 187 234 277 332 398
#     4  11  20  36  61  90 131 172 224 272 329 383
#     4  11  24  40  63  94 139 184 238 278 333 395
#     4  11  23  40  56  88 140 198 235 282 326 388
#     4  11  23  43  70 102 137 178 226 283 344 411
#     4  12  24  44  69 100 134 176 221 284 339 409
#     4  11  26  49  76 103 132 170 219 283 356 422
#
# _framework density 21.742370999999999
#
# number of rings (size 3 to 8) (size 9 to 14) (size 15 to 20)
#    0.000    0.667    2.500    6.500    1.167    4.000 
#    3.000    0.000    0.000    0.000    0.000    0.000 
#    0.000    0.000    0.000    0.000    0.000    0.000 
#
# Total GULP energy -594820.304634 kJ/mol
# GULP energy per Si atom -12392.089680 kJ/mol
# Density = 2.169288 g / cm^3
# Si number density = 21.742371 Si / 1000 Ang^3
#
#
#
# Elastic Constant Matrix: (Units=GPa)
#
#
# Indices 1 2 3 4 5 6 
#
# 1 162.8233 45.5272 32.9000 0.0000 0.0000 0.0000
# 2 45.5272 129.8554 21.2430 0.0000 0.0000 0.0000
# 3 32.9000 21.2430 54.9073 0.0000 0.0000 0.0000
# 4 0.0000 0.0000 0.0000 22.6228 0.0000 0.0000
# 5 0.0000 0.0000 0.0000 0.0000 22.5848 0.0000
# 6 0.0000 0.0000 0.0000 0.0000 0.0000 30.1943
#
#
#
# Elastic Compliance Matrix: (Units=1/GPa)
#
#
# Indices 1 2 3 4 5 6 
#
# 1 0.007448 -0.002008 -0.003686 0.000000 0.000000 0.000000
# 2 -0.002008 0.008763 -0.002187 0.000000 0.000000 0.000000
# 3 -0.003686 -0.002187 0.021267 0.000000 0.000000 0.000000
# 4 0.000000 0.000000 0.000000 0.044203 0.000000 0.000000
# 5 0.000000 0.000000 0.000000 0.000000 0.044277 0.000000
# 6 0.000000 0.000000 0.000000 0.000000 0.000000 0.033119
#
#
# Mechanical properties :
#
#
# Convention : Reuss Voigt Hill
#
# Bulk Modulus (GPa) = 46.04915 60.76959 53.40937
# Shear Modulus (GPa) = 27.46084 31.60812 29.53448
#
# Velocity S-wave (km/s) = 3.55774 3.81695 3.68962
# Velocity P-wave (km/s) = 6.17269 6.88738 6.53981
#
# Compressibility (1/GPa) = 0.02171593
#
# Stress axis : x y z
#
# Youngs Moduli (GPa) = 134.26605 114.11984 47.02115
#
# Poissons Ratio (x) = 0.22918 0.17331
# Poissons Ratio (y) = 0.26964 0.10283
# Poissons Ratio (z) = 0.49487 0.24956
#
# Static dielectric constant tensor:
#      x y z
#    x 3.917440 0.000000 0.000000 
#    y 0.000000 4.582340 0.000000 
#    z 0.000000 0.000000 3.874440 
# 
# 
# High freq. dielectric constant tensor:
#      x y z
#    x 1.861360 0.000000 0.000000 
#    y 0.000000 1.887950 0.000000 
#    z 0.000000 0.000000 1.824630 
# 
# From -- ./inp_files/37892.got.cif
#   From: 2010.03.12/outbox.cif.g09.slc.cpg/sg53_19_cif.got.tgz:37892.got - 2010.04.16 14:36:59.
