data_PCOD8221513
_publ_section_title
;
Structure prediction by ZEFSAII (Michael W. Deem and Ramdas Pophale) SiO2 
 PCOD8221513
Probable space group: P M N A
;
_chemical_formula_sum "Si O2"
_cell_formula_units_Z 48
_cell_length_a 20.687753
_cell_length_b 14.238200
_cell_length_c 7.730121
_cell_angle_alpha 90.000000
_cell_angle_beta 90.000000
_cell_angle_gamma 90.000000
_cell_volume 2276.956341
_symmetry_space_group_name_H-M "P M N A"
_symmetry_group_IT_number 53
_symmetry_cell_setting 'orthorhombic'
loop_
_space_group_symop_operation_xyz
x,y,z
1/2-x,-y,1/2+z
x,-y,-z
1/2-x,y,1/2-z
-x,-y,-z
1/2+x,y,1/2-z
-x,y,z
1/2+x,-y,1/2+z
loop_
_atom_site_type_symbol
_atom_site_label
_atom_site_fract_x
_atom_site_fract_y
_atom_site_fract_z
Si Si1 0.070274 0.252408 0.943825
Si Si2 0.326312 0.397211 0.450265
Si Si3 0.179143 0.037080 0.687528
Si Si4 0.178730 0.395411 0.453851
Si Si5 0.425856 0.894379 0.740027
Si Si6 0.386148 0.212472 0.910642
O O1 0.062196 0.218243 0.745029
O O2 0.000000 0.293460 0.999807
O O3 0.126751 0.328361 0.948343
O O4 0.089078 0.169678 0.074815
O O5 0.350688 0.500000 0.500000
O O6 0.252855 0.383644 0.514405
O O7 0.330503 0.377877 0.247887
O O8 0.250000 0.008700 0.750000
O O9 0.170806 0.149443 0.676931
O O10 0.169695 0.000000 0.500000
O O11 0.122025 0.982892 0.790758
O O12 0.153703 0.500000 0.500000
O O13 0.137575 0.317466 0.551638
O O14 0.500000 0.930470 0.740626
O O15 0.414454 0.836239 0.917702
#
# Coordination Sequence:
#
# PCOD8221513 Si02
#       6
#     8   8   8   8   8   8
#     4  11  24  39  64  93 125 173 215 260 320 381
#     4  10  21  39  63  92 128 165 214 266 316 389
#     4  10  25  41  64  96 128 170 213 270 327 379
#     4  10  21  39  65  97 127 166 209 263 330 378
#     4  10  23  45  66  90 128 172 220 270 318 382
#     4  11  23  40  65  95 127 168 210 269 319 385
#
# _framework density 21.080773000000001
#
# number of rings (size 3 to 8) (size 9 to 14) (size 15 to 20)
#    0.000    1.667    1.667    1.500    4.667    6.667 
#    0.000    1.667    0.000    2.500    0.000    0.000 
#    0.000    0.000    0.000    0.000    0.000    0.000 
#
# Total GULP energy -594908.384876 kJ/mol
# GULP energy per Si atom -12393.924685 kJ/mol
# Density = 2.103279 g / cm^3
# Si number density = 21.080773 Si / 1000 Ang^3
#
#
#
# Elastic Constant Matrix: (Units=GPa)
#
#
# Indices 1 2 3 4 5 6 
#
# 1 111.3258 58.8272 18.3871 0.0000 0.0000 0.0000
# 2 58.8272 129.4233 32.6545 0.0000 0.0000 0.0000
# 3 18.3871 32.6545 95.7769 0.0000 0.0000 0.0000
# 4 0.0000 0.0000 0.0000 36.2710 0.0000 0.0000
# 5 0.0000 0.0000 0.0000 0.0000 -7.7123 0.0000
# 6 0.0000 0.0000 0.0000 0.0000 0.0000 -19.9151
#
#
#
# Elastic Compliance Matrix: (Units=1/GPa)
#
#
# Indices 1 2 3 4 5 6 
#
# 1 0.011842 -0.005262 -0.000480 0.000000 0.000000 0.000000
# 2 -0.005262 0.010792 -0.002669 0.000000 0.000000 0.000000
# 3 -0.000480 -0.002669 0.011443 0.000000 0.000000 0.000000
# 4 0.000000 0.000000 0.000000 0.027570 0.000000 0.000000
# 5 0.000000 0.000000 0.000000 0.000000 -0.129664 0.000000
# 6 0.000000 0.000000 0.000000 0.000000 0.000000 -0.050213
#
#
# Mechanical properties :
#
#
# Convention : Reuss Voigt Hill
#
# Bulk Modulus (GPa) = 57.95056 61.80706 59.87881
# Shear Modulus (GPa) = -52.27011 16.83922 -17.71545
#
# Velocity S-wave (km/s) = -4.98488 2.82936 -2.90204
# Velocity P-wave (km/s) = 2.36274 6.32902 4.15175
#
# Compressibility (1/GPa) = 0.01725609
#
# Stress axis : x y z
#
# Youngs Moduli (GPa) = 84.44336 92.66401 87.38933
#
# Poissons Ratio (x) = 0.48757 0.04190
# Poissons Ratio (y) = 0.44432 0.23326
# Poissons Ratio (z) = 0.04049 0.24734
#
# Static dielectric constant tensor:
#      x y z
#    x 3.580990 0.000000 0.000000 
#    y 0.000000 5.074970 0.000000 
#    z 0.000000 0.000000 3.574730 
# 
# 
# High freq. dielectric constant tensor:
#      x y z
#    x 1.816090 0.000000 0.000000 
#    y 0.000000 1.825540 0.000000 
#    z 0.000000 0.000000 1.844950 
# 
# From -- ./inp_files/9957.got.cif
#   From: 2010.03.12/outbox.cif.g09.slc.cpg/sg53_5_cif.got.tgz:9957.got - 2010.04.16 14:36:59.
