data_PCOD8221842
_publ_section_title
;
Structure prediction by ZEFSAII (Michael W. Deem and Ramdas Pophale) SiO2 
 PCOD8221842
Probable space group: P M N A
;
_chemical_formula_sum "Si O2"
_cell_formula_units_Z 56
_cell_length_a 8.611655
_cell_length_b 14.818576
_cell_length_c 22.576260
_cell_angle_alpha 90.000000
_cell_angle_beta 90.000000
_cell_angle_gamma 90.000000
_cell_volume 2881.012169
_symmetry_space_group_name_H-M "P M N A"
_symmetry_group_IT_number 53
_symmetry_cell_setting 'orthorhombic'
loop_
_space_group_symop_operation_xyz
x,y,z
1/2-x,-y,1/2+z
x,-y,-z
1/2-x,y,1/2-z
-x,-y,-z
1/2+x,y,1/2-z
-x,y,z
1/2+x,-y,1/2+z
loop_
_atom_site_type_symbol
_atom_site_label
_atom_site_fract_x
_atom_site_fract_y
_atom_site_fract_z
Si Si1 0.680511 0.598164 0.522773
Si Si2 0.316835 0.803335 0.688267
Si Si3 0.683015 0.574580 0.188017
Si Si4 0.818021 0.702230 0.417452
Si Si5 0.818106 0.620455 0.647744
Si Si6 0.683928 0.882174 0.446008
Si Si7 0.683533 0.917535 0.577880
O O1 0.730901 0.500000 0.500000
O O2 0.500000 0.601963 0.540405
O O3 0.716123 0.670576 0.472707
O O4 0.784206 0.625087 0.578323
O O5 0.250000 0.841775 0.750000
O O6 0.500000 0.812745 0.689881
O O7 0.271348 0.698901 0.682006
O O8 0.246220 0.860949 0.633078
O O9 0.750000 0.607928 0.250000
O O10 0.500000 0.572628 0.191390
O O11 0.739421 0.646148 0.139279
O O12 0.745934 0.474876 0.172294
O O13 0.776894 0.807262 0.408476
O O14 0.000000 0.687091 0.429075
O O15 0.000000 0.632302 0.659012
O O16 0.500000 0.867260 0.440681
O O17 0.739005 0.877344 0.514810
O O18 0.733548 0.977889 0.417662
O O19 0.500000 0.910714 0.579436
#
# Coordination Sequence:
#
# PCOD8221842 Si02
#       7
#     8   8   8   8   8   8   8
#     4  11  22  35  55  84 113 148 189 229 272 330
#     4  11  22  37  56  83 116 153 194 237 284 343
#     4  10  23  39  55  74 105 147 189 228 273 322
#     4  11  22  37  55  82 116 148 181 230 283 331
#     4  11  22  38  58  82 113 151 186 232 288 336
#     4   9  17  35  62  87 107 140 184 230 284 342
#     4   8  17  35  59  83 111 141 180 231 284 337
#
# _framework density 19.437612999999999
#
# number of rings (size 3 to 8) (size 9 to 14) (size 15 to 20)
#    0.000    1.857    1.429    3.857    0.000    5.143 
#    0.000    4.286    0.000    3.429    0.000    0.000 
#    0.000    0.000    0.000    0.000    0.000    0.000 
#
# Total GULP energy -694537.911617 kJ/mol
# GULP energy per Si atom -12402.462707 kJ/mol
# Density = 1.939337 g / cm^3
# Si number density = 19.437613 Si / 1000 Ang^3
#
#
#
# Elastic Constant Matrix: (Units=GPa)
#
#
# Indices 1 2 3 4 5 6 
#
# 1 37.3043 20.0426 18.3562 0.0000 0.0000 0.0000
# 2 20.0426 126.8769 54.0284 0.0000 0.0000 0.0000
# 3 18.3562 54.0284 119.0068 0.0000 0.0000 0.0000
# 4 0.0000 0.0000 0.0000 21.6228 0.0000 0.0000
# 5 0.0000 0.0000 0.0000 0.0000 31.0492 0.0000
# 6 0.0000 0.0000 0.0000 0.0000 0.0000 29.3770
#
#
#
# Elastic Compliance Matrix: (Units=1/GPa)
#
#
# Indices 1 2 3 4 5 6 
#
# 1 0.030181 -0.003453 -0.003088 0.000000 0.000000 0.000000
# 2 -0.003453 0.010166 -0.004083 0.000000 0.000000 0.000000
# 3 -0.003088 -0.004083 0.010733 0.000000 0.000000 0.000000
# 4 0.000000 0.000000 0.000000 0.046247 0.000000 0.000000
# 5 0.000000 0.000000 0.000000 0.000000 0.032207 0.000000
# 6 0.000000 0.000000 0.000000 0.000000 0.000000 0.034040
#
#
# Mechanical properties :
#
#
# Convention : Reuss Voigt Hill
#
# Bulk Modulus (GPa) = 33.51986 52.00471 42.76228
# Shear Modulus (GPa) = 25.67206 29.12718 27.39962
#
# Velocity S-wave (km/s) = 3.63814 3.87524 3.75856
# Velocity P-wave (km/s) = 5.91019 6.84369 6.39400
#
# Compressibility (1/GPa) = 0.02983306
#
# Stress axis : x y z
#
# Youngs Moduli (GPa) = 33.13342 98.37125 93.17408
#
# Poissons Ratio (x) = 0.33966 0.28770
# Poissons Ratio (y) = 0.11440 0.38039
# Poissons Ratio (z) = 0.10231 0.40160
#
# Static dielectric constant tensor:
#      x y z
#    x 3.270340 0.000000 0.000000 
#    y 0.000000 3.762210 0.000000 
#    z 0.000000 0.000000 3.881050 
# 
# 
# High freq. dielectric constant tensor:
#      x y z
#    x 1.740980 0.000000 0.000000 
#    y 0.000000 1.760960 0.000000 
#    z 0.000000 0.000000 1.754050 
# 
# From -- ./inp_files/30800.got.cif
#   From: 2010.03.12/outbox.cif.g09.slc.cpg/sg53_16_cif.got.tgz:30800.got - 2010.04.16 14:36:59.
