data_PCOD8221472
_publ_section_title
;
Structure prediction by ZEFSAII (Michael W. Deem and Ramdas Pophale) SiO2 
 PCOD8221472
Probable space group: P M N A
;
_chemical_formula_sum "Si O2"
_cell_formula_units_Z 64
_cell_length_a 15.173535
_cell_length_b 9.140588
_cell_length_c 23.659694
_cell_angle_alpha 90.000000
_cell_angle_beta 90.000000
_cell_angle_gamma 90.000000
_cell_volume 3281.482015
_symmetry_space_group_name_H-M "P M N A"
_symmetry_group_IT_number 53
_symmetry_cell_setting 'orthorhombic'
loop_
_space_group_symop_operation_xyz
x,y,z
1/2-x,-y,1/2+z
x,-y,-z
1/2-x,y,1/2-z
-x,-y,-z
1/2+x,y,1/2-z
-x,y,z
1/2+x,-y,1/2+z
loop_
_atom_site_type_symbol
_atom_site_label
_atom_site_fract_x
_atom_site_fract_y
_atom_site_fract_z
Si Si1 0.601632 0.082266 0.117736
Si Si2 0.900045 0.422379 0.379617
Si Si3 0.753950 0.576830 0.058769
Si Si4 0.398323 0.894486 0.756075
Si Si5 0.757235 0.075406 0.941664
Si Si6 0.596931 0.421343 0.645215
Si Si7 0.152154 0.576403 0.746089
Si Si8 0.100989 0.084485 0.849967
O O1 0.500000 0.052965 0.101124
O O2 0.625420 0.253275 0.110154
O O3 0.620222 0.035425 0.182527
O O4 0.662325 0.983416 0.078062
O O5 0.840112 0.525598 0.417972
O O6 0.890451 0.465048 0.313863
O O7 0.000000 0.452088 0.398249
O O8 0.752951 0.750646 0.050836
O O9 0.829921 0.521828 0.101524
O O10 0.774993 0.500000 0.000000
O O11 0.500000 0.845809 0.752974
O O12 0.341305 0.750382 0.745811
O O13 0.371923 0.010762 0.708893
O O14 0.834152 0.026968 0.898628
O O15 0.783266 0.000000 0.000000
O O16 0.500000 0.438780 0.617280
O O17 0.595511 0.510450 0.703264
O O18 0.615923 0.254407 0.660563
O O19 0.250000 0.510052 0.750000
O O20 0.000000 0.047290 0.866883
#
# Coordination Sequence:
#
# PCOD8221472 Si02
#       8
#     8   8   8   8   8   8   8   8
#     4   9  20  38  59  84 116 150 188 230 279 336
#     4  10  21  39  60  85 119 155 189 233 283 338
#     4  11  24  41  59  84 113 147 200 241 286 343
#     4   9  19  35  56  88 118 150 187 225 280 342
#     4  11  24  39  59  83 110 149 192 240 287 335
#     4  10  21  40  60  84 119 154 188 235 286 340
#     4  11  20  33  58  91 121 151 187 232 280 339
#     4   9  21  39  59  84 117 151 187 231 283 340
#
# _framework density 19.503382999999999
#
# number of rings (size 3 to 8) (size 9 to 14) (size 15 to 20)
#    0.000    2.000    1.250    2.625    3.500    3.500 
#    0.000    1.250    0.000    0.000    0.000    0.000 
#    0.000    0.000    0.000    0.000    0.000    0.000 
#
# Total GULP energy -793758.691507 kJ/mol
# GULP energy per Si atom -12402.479555 kJ/mol
# Density = 1.945899 g / cm^3
# Si number density = 19.503383 Si / 1000 Ang^3
#
#
#
# Elastic Constant Matrix: (Units=GPa)
#
#
# Indices 1 2 3 4 5 6 
#
# 1 79.2813 19.2026 16.8756 0.0000 0.0000 0.0000
# 2 19.2026 49.1790 27.0835 0.0000 0.0000 0.0000
# 3 16.8756 27.0835 84.2404 0.0000 0.0000 0.0000
# 4 0.0000 0.0000 0.0000 35.3843 0.0000 0.0000
# 5 0.0000 0.0000 0.0000 0.0000 25.5295 0.0000
# 6 0.0000 0.0000 0.0000 0.0000 0.0000 23.7831
#
#
#
# Elastic Compliance Matrix: (Units=1/GPa)
#
#
# Indices 1 2 3 4 5 6 
#
# 1 0.014043 -0.004780 -0.001276 0.000000 0.000000 0.000000
# 2 -0.004780 0.026336 -0.007509 0.000000 0.000000 0.000000
# 3 -0.001276 -0.007509 0.014541 0.000000 0.000000 0.000000
# 4 0.000000 0.000000 0.000000 0.028261 0.000000 0.000000
# 5 0.000000 0.000000 0.000000 0.000000 0.039170 0.000000
# 6 0.000000 0.000000 0.000000 0.000000 0.000000 0.042047
#
#
# Mechanical properties :
#
#
# Convention : Reuss Voigt Hill
#
# Bulk Modulus (GPa) = 35.98750 37.66936 36.82843
# Shear Modulus (GPa) = 24.90135 26.90865 25.90500
#
# Velocity S-wave (km/s) = 3.57707 3.71845 3.64844
# Velocity P-wave (km/s) = 5.96260 6.14752 6.05576
#
# Compressibility (1/GPa) = 0.02778743
#
# Stress axis : x y z
#
# Youngs Moduli (GPa) = 71.21077 37.97084 68.77213
#
# Poissons Ratio (x) = 0.18151 0.08777
# Poissons Ratio (y) = 0.34041 0.51644
# Poissons Ratio (z) = 0.09088 0.28514
#
# Static dielectric constant tensor:
#      x y z
#    x 3.623470 0.000000 0.000000 
#    y 0.000000 3.402770 0.000000 
#    z 0.000000 0.000000 3.548770 
# 
# 
# High freq. dielectric constant tensor:
#      x y z
#    x 1.771430 0.000000 0.000000 
#    y 0.000000 1.749650 0.000000 
#    z 0.000000 0.000000 1.756750 
# 
# From -- ./inp_files/35321.got.cif
#   From: 2010.03.12/outbox.cif.g09.slc.cpg/sg53_18_cif.got.tgz:35321.got - 2010.04.16 14:36:59.
