data_PCOD8221444
_publ_section_title
;
Structure prediction by ZEFSAII (Michael W. Deem and Ramdas Pophale) SiO2 
 PCOD8221444
Probable space group: P M N A
;
_chemical_formula_sum "Si O2"
_cell_formula_units_Z 48
_cell_length_a 9.568029
_cell_length_b 16.811775
_cell_length_c 14.176234
_cell_angle_alpha 90.000000
_cell_angle_beta 90.000000
_cell_angle_gamma 90.000000
_cell_volume 2280.325928
_symmetry_space_group_name_H-M "P M N A"
_symmetry_group_IT_number 53
_symmetry_cell_setting 'orthorhombic'
loop_
_space_group_symop_operation_xyz
x,y,z
1/2-x,-y,1/2+z
x,-y,-z
1/2-x,y,1/2-z
-x,-y,-z
1/2+x,y,1/2-z
-x,y,z
1/2+x,-y,1/2+z
loop_
_atom_site_type_symbol
_atom_site_label
_atom_site_fract_x
_atom_site_fract_y
_atom_site_fract_z
Si Si1 0.162950 0.907994 0.980968
Si Si2 0.848788 0.188177 0.839425
Si Si3 0.164252 0.807052 0.655473
Si Si4 0.287974 0.360241 0.641795
Si Si5 0.845331 0.533243 0.841955
Si Si6 0.346230 0.354552 0.044985
O O1 0.261742 0.882379 0.894197
O O2 0.000000 0.889468 0.957870
O O3 0.214292 0.860833 0.073608
O O4 0.187684 0.000000 0.000000
O O5 0.750000 0.179662 0.750000
O O6 0.875845 0.279675 0.871061
O O7 0.000000 0.152279 0.812166
O O8 0.250000 0.787928 0.750000
O O9 0.182062 0.731912 0.587364
O O10 0.000000 0.825000 0.675939
O O11 0.250000 0.365305 0.750000
O O12 0.366298 0.443061 0.620363
O O13 0.158074 0.351817 0.569292
O O14 0.750000 0.539507 0.750000
O O15 0.773010 0.585128 0.922402
O O16 0.000000 0.567854 0.820353
O O17 0.500000 0.385182 0.074830
#
# Coordination Sequence:
#
# PCOD8221444 Si02
#       6
#     8   8   8   8   8   8
#     4  10  22  42  67  96 129 165 207 257 316 376
#     4  10  21  38  62  91 125 164 204 253 306 369
#     4  11  24  43  67  95 127 168 215 261 315 376
#     4  10  22  39  61  90 123 164 208 258 310 371
#     4  11  24  40  61  91 127 167 215 262 315 374
#     4  11  24  42  65  92 125 168 215 264 316 373
#
# _framework density 21.049621999999999
#
# number of rings (size 3 to 8) (size 9 to 14) (size 15 to 20)
#    0.000    1.500    1.667    2.500    0.000   13.000 
#    0.000    1.667    0.000    0.000    0.000    0.000 
#    0.000    0.000    0.000    0.000    0.000    0.000 
#
# Total GULP energy -594859.613659 kJ/mol
# GULP energy per Si atom -12392.908618 kJ/mol
# Density = 2.100171 g / cm^3
# Si number density = 21.049622 Si / 1000 Ang^3
#
#
#
# Elastic Constant Matrix: (Units=GPa)
#
#
# Indices 1 2 3 4 5 6 
#
# 1 146.7523 41.3973 67.1006 0.0000 0.0000 0.0000
# 2 41.3973 103.5162 43.2085 0.0000 0.0000 0.0000
# 3 67.1006 43.2085 120.6161 0.0000 0.0000 0.0000
# 4 0.0000 0.0000 0.0000 30.1073 0.0000 0.0000
# 5 0.0000 0.0000 0.0000 0.0000 29.4875 0.0000
# 6 0.0000 0.0000 0.0000 0.0000 0.0000 29.4288
#
#
#
# Elastic Compliance Matrix: (Units=1/GPa)
#
#
# Indices 1 2 3 4 5 6 
#
# 1 0.009434 -0.001860 -0.004582 0.000000 0.000000 0.000000
# 2 -0.001860 0.011726 -0.003166 0.000000 0.000000 0.000000
# 3 -0.004582 -0.003166 0.011974 0.000000 0.000000 0.000000
# 4 0.000000 0.000000 0.000000 0.033215 0.000000 0.000000
# 5 0.000000 0.000000 0.000000 0.000000 0.033913 0.000000
# 6 0.000000 0.000000 0.000000 0.000000 0.000000 0.033980
#
#
# Mechanical properties :
#
#
# Convention : Reuss Voigt Hill
#
# Bulk Modulus (GPa) = 71.84991 74.92193 73.38592
# Shear Modulus (GPa) = 31.62644 32.41659 32.02151
#
# Velocity S-wave (km/s) = 3.88038 3.92855 3.90454
# Velocity P-wave (km/s) = 7.36778 7.49989 7.43412
#
# Compressibility (1/GPa) = 0.01391790
#
# Stress axis : x y z
#
# Youngs Moduli (GPa) = 106.00006 85.28347 83.51604
#
# Poissons Ratio (x) = 0.15865 0.38266
# Poissons Ratio (y) = 0.19719 0.26438
# Poissons Ratio (z) = 0.48568 0.26997
#
# Static dielectric constant tensor:
#      x y z
#    x 3.805280 0.000000 0.000000 
#    y 0.000000 4.063190 0.000000 
#    z 0.000000 0.000000 3.847870 
# 
# 
# High freq. dielectric constant tensor:
#      x y z
#    x 1.821250 0.000000 0.000000 
#    y 0.000000 1.822860 0.000000 
#    z 0.000000 0.000000 1.831870 
# 
# From -- ./inp_files/20216.got.cif
#   From: 2010.03.12/outbox.cif.g09.slc.cpg/sg53_11_cif.got.tgz:20216.got - 2010.04.16 14:36:59.
