data_PCOD8221370
_publ_section_title
;
Structure prediction by ZEFSAII (Michael W. Deem and Ramdas Pophale) SiO2 
 PCOD8221370
Probable space group: P M N A
;
_chemical_formula_sum "Si O2"
_cell_formula_units_Z 48
_cell_length_a 8.998289
_cell_length_b 9.853825
_cell_length_c 28.800527
_cell_angle_alpha 90.000000
_cell_angle_beta 90.000000
_cell_angle_gamma 90.000000
_cell_volume 2553.672603
_symmetry_space_group_name_H-M "P M N A"
_symmetry_group_IT_number 53
_symmetry_cell_setting 'orthorhombic'
loop_
_space_group_symop_operation_xyz
x,y,z
1/2-x,-y,1/2+z
x,-y,-z
1/2-x,y,1/2-z
-x,-y,-z
1/2+x,y,1/2-z
-x,y,z
1/2+x,-y,1/2+z
loop_
_atom_site_type_symbol
_atom_site_label
_atom_site_fract_x
_atom_site_fract_y
_atom_site_fract_z
Si Si1 0.176441 0.270150 0.379267
Si Si2 0.826112 0.526823 0.702201
Si Si3 0.324855 0.217336 0.797780
Si Si4 0.331430 0.123941 0.529662
Si Si5 0.675635 0.358443 0.018828
Si Si6 0.329665 0.982827 0.367698
O O1 0.225371 0.378665 0.340315
O O2 0.233171 0.325257 0.429189
O O3 0.000000 0.246498 0.379319
O O4 0.257534 0.130622 0.367732
O O5 0.750000 0.574733 0.750000
O O6 0.781547 0.372331 0.689426
O O7 0.000000 0.539633 0.710676
O O8 0.250000 0.174302 0.750000
O O9 0.500000 0.199265 0.793547
O O10 0.263587 0.115421 0.835515
O O11 0.500000 0.156682 0.514393
O O12 0.228725 0.250892 0.518938
O O13 0.320023 0.086886 0.582830
O O14 0.267118 0.000000 0.500000
O O15 0.500000 0.361377 0.019188
O O16 0.740671 0.500000 0.000000
O O17 0.500000 0.995127 0.350912
#
# Coordination Sequence:
#
# PCOD8221370 Si02
#       6
#     8   8   8   8   8   8
#     4  10  21  38  57  83 116 150 189 237 289 340
#     4   9  20  38  60  84 113 146 184 230 283 339
#     4  10  21  39  63  88 116 149 187 235 287 342
#     4  10  21  39  58  80 116 155 192 235 283 334
#     4  10  22  37  58  86 115 148 192 240 286 342
#     4  11  23  38  58  85 116 153 195 237 282 338
#
# _framework density 18.796457
#
# number of rings (size 3 to 8) (size 9 to 14) (size 15 to 20)
#    0.000    2.000    1.667    1.000    2.333    4.000 
#    0.000    1.667    0.000    0.000    0.000    0.000 
#    0.000    0.000    0.000    0.000    0.000    0.000 
#
# Total GULP energy -595285.963063 kJ/mol
# GULP energy per Si atom -12401.790897 kJ/mol
# Density = 1.875368 g / cm^3
# Si number density = 18.796457 Si / 1000 Ang^3
#
#
#
# Elastic Constant Matrix: (Units=GPa)
#
#
# Indices 1 2 3 4 5 6 
#
# 1 46.5699 37.4043 40.6192 0.0000 0.0000 0.0000
# 2 37.4043 130.3448 64.0005 0.0000 0.0000 0.0000
# 3 40.6192 64.0005 100.1685 0.0000 0.0000 0.0000
# 4 0.0000 0.0000 0.0000 65.4542 0.0000 0.0000
# 5 0.0000 0.0000 0.0000 0.0000 30.2048 0.0000
# 6 0.0000 0.0000 0.0000 0.0000 0.0000 20.3881
#
#
#
# Elastic Compliance Matrix: (Units=1/GPa)
#
#
# Indices 1 2 3 4 5 6 
#
# 1 0.034925 -0.004471 -0.011306 0.000000 0.000000 0.000000
# 2 -0.004471 0.011751 -0.005695 0.000000 0.000000 0.000000
# 3 -0.011306 -0.005695 0.018207 0.000000 0.000000 0.000000
# 4 0.000000 0.000000 0.000000 0.015278 0.000000 0.000000
# 5 0.000000 0.000000 0.000000 0.000000 0.033107 0.000000
# 6 0.000000 0.000000 0.000000 0.000000 0.000000 0.049048
#
#
# Mechanical properties :
#
#
# Convention : Reuss Voigt Hill
#
# Bulk Modulus (GPa) = 45.58069 62.34789 53.96429
# Shear Modulus (GPa) = 23.52121 32.21338 27.86730
#
# Velocity S-wave (km/s) = 3.54130 4.14430 3.85461
# Velocity P-wave (km/s) = 6.40495 7.49282 6.97014
#
# Compressibility (1/GPa) = 0.02193912
#
# Stress axis : x y z
#
# Youngs Moduli (GPa) = 28.63247 85.09611 54.92496
#
# Poissons Ratio (x) = 0.38047 0.62097
# Poissons Ratio (y) = 0.12802 0.31281
# Poissons Ratio (z) = 0.32371 0.48464
#
# Static dielectric constant tensor:
#      x y z
#    x 3.456020 0.000000 0.000000 
#    y 0.000000 3.555050 0.000000 
#    z 0.000000 0.000000 3.277020 
# 
# 
# High freq. dielectric constant tensor:
#      x y z
#    x 1.727220 0.000000 0.000000 
#    y 0.000000 1.738840 0.000000 
#    z 0.000000 0.000000 1.738870 
# 
# From -- ./inp_files/37698.got.cif
#   From: 2010.03.12/outbox.cif.g09.slc.cpg/sg53_19_cif.got.tgz:37698.got - 2010.04.16 14:36:59.
