data_PCOD8221083
_publ_section_title
;
Structure prediction by ZEFSAII (Michael W. Deem and Ramdas Pophale) SiO2 
 PCOD8221083
Probable space group: P M N A
;
_chemical_formula_sum "Si O2"
_cell_formula_units_Z 48
_cell_length_a 10.139550
_cell_length_b 13.034405
_cell_length_c 17.537213
_cell_angle_alpha 90.000000
_cell_angle_beta 90.000000
_cell_angle_gamma 90.000000
_cell_volume 2317.770703
_symmetry_space_group_name_H-M "P M N A"
_symmetry_group_IT_number 53
_symmetry_cell_setting 'orthorhombic'
loop_
_space_group_symop_operation_xyz
x,y,z
1/2-x,-y,1/2+z
x,-y,-z
1/2-x,y,1/2-z
-x,-y,-z
1/2+x,y,1/2-z
-x,y,z
1/2+x,-y,1/2+z
loop_
_atom_site_type_symbol
_atom_site_label
_atom_site_fract_x
_atom_site_fract_y
_atom_site_fract_z
Si Si1 0.846389 0.430905 0.683989
Si Si2 0.351888 0.950174 0.313102
Si Si3 0.146573 0.321983 0.537126
Si Si4 0.152540 0.655962 0.629310
Si Si5 0.646422 0.173777 0.367133
Si Si6 0.747677 0.109273 0.525595
O O1 0.750000 0.391913 0.750000
O O2 0.784319 0.373966 0.609918
O O3 0.831671 0.553109 0.676997
O O4 0.000000 0.401693 0.700493
O O5 0.250000 0.905903 0.250000
O O6 0.500000 0.924296 0.285406
O O7 0.333202 0.900408 0.396235
O O8 0.330129 0.071709 0.318550
O O9 0.205032 0.362983 0.457237
O O10 0.144303 0.197650 0.539439
O O11 0.000000 0.364894 0.542356
O O12 0.245080 0.745301 0.663363
O O13 0.000000 0.694086 0.628557
O O14 0.500000 0.218381 0.351644
O O15 0.653680 0.147786 0.457364
O O16 0.812846 0.000000 0.500000
#
# Coordination Sequence:
#
# PCOD8221083 Si02
#       6
#     8   8   8   8   8   8
#     4  10  21  37  55  77 109 145 177 212 259 315
#     4  10  21  35  51  74 106 142 176 213 263 320
#     4   9  18  34  56  80 105 136 176 220 264 310
#     4   9  18  34  57  80 102 134 176 220 264 310
#     4   9  18  34  56  79 103 134 175 222 267 312
#     4   9  18  34  56  79 103 136 178 220 263 311
#
# _framework density 20.709554000000001
#
# number of rings (size 3 to 8) (size 9 to 14) (size 15 to 20)
#    0.000    2.667    0.000    1.000    0.000    7.667 
#    0.000   12.500    0.000    5.000    0.000    0.000 
#    0.000    0.000    0.000    0.000    0.000    0.000 
#
# Total GULP energy -594809.682658 kJ/mol
# GULP energy per Si atom -12391.868389 kJ/mol
# Density = 2.066242 g / cm^3
# Si number density = 20.709554 Si / 1000 Ang^3
#
#
#
# Elastic Constant Matrix: (Units=GPa)
#
#
# Indices 1 2 3 4 5 6 
#
# 1 77.6923 8.3826 25.2530 0.0000 0.0000 0.0000
# 2 8.3826 41.1463 -3.5500 0.0000 0.0000 0.0000
# 3 25.2530 -3.5500 56.9033 0.0000 0.0000 0.0000
# 4 0.0000 0.0000 0.0000 19.2033 0.0000 0.0000
# 5 0.0000 0.0000 0.0000 0.0000 19.2216 0.0000
# 6 0.0000 0.0000 0.0000 0.0000 0.0000 16.6076
#
#
#
# Elastic Compliance Matrix: (Units=1/GPa)
#
#
# Indices 1 2 3 4 5 6 
#
# 1 0.015610 -0.003798 -0.007164 0.000000 0.000000 0.000000
# 2 -0.003798 0.025359 0.003268 0.000000 0.000000 0.000000
# 3 -0.007164 0.003268 0.020957 0.000000 0.000000 0.000000
# 4 0.000000 0.000000 0.000000 0.052074 0.000000 0.000000
# 5 0.000000 0.000000 0.000000 0.000000 0.052025 0.000000
# 6 0.000000 0.000000 0.000000 0.000000 0.000000 0.060213
#
#
# Mechanical properties :
#
#
# Convention : Reuss Voigt Hill
#
# Bulk Modulus (GPa) = 21.48866 26.21254 23.85060
# Shear Modulus (GPa) = 19.44461 20.71692 20.08077
#
# Velocity S-wave (km/s) = 3.06750 3.16627 3.11728
# Velocity P-wave (km/s) = 4.79008 5.10409 4.94957
#
# Compressibility (1/GPa) = 0.04653617
#
# Stress axis : x y z
#
# Youngs Moduli (GPa) = 64.06229 39.43337 47.71672
#
# Poissons Ratio (x) = 0.14978 0.34186
# Poissons Ratio (y) = 0.24332 -0.15592
# Poissons Ratio (z) = 0.45897 -0.12886
#
# Static dielectric constant tensor:
#      x y z
#    x 3.494400 0.000000 0.000000 
#    y 0.000000 3.713870 0.000000 
#    z 0.000000 0.000000 3.756710 
# 
# 
# High freq. dielectric constant tensor:
#      x y z
#    x 1.781590 0.000000 0.000000 
#    y 0.000000 1.801090 0.000000 
#    z 0.000000 0.000000 1.816720 
# 
# From -- ./inp_files/26267.got.cif
#   From: 2010.03.12/outbox.cif.g09.slc.cpg/sg53_14_cif.got.tgz:26267.got - 2010.04.16 14:36:59.
