data_PCOD8221087
_publ_section_title
;
Structure prediction by ZEFSAII (Michael W. Deem and Ramdas Pophale) SiO2 
 PCOD8221087
Probable space group: P M N A
;
_chemical_formula_sum "Si O2"
_cell_formula_units_Z 48
_cell_length_a 8.705452
_cell_length_b 30.352866
_cell_length_c 9.516557
_cell_angle_alpha 90.000000
_cell_angle_beta 90.000000
_cell_angle_gamma 90.000000
_cell_volume 2514.611417
_symmetry_space_group_name_H-M "P M N A"
_symmetry_group_IT_number 53
_symmetry_cell_setting 'orthorhombic'
loop_
_space_group_symop_operation_xyz
x,y,z
1/2-x,-y,1/2+z
x,-y,-z
1/2-x,y,1/2-z
-x,-y,-z
1/2+x,y,1/2-z
-x,y,z
1/2+x,-y,1/2+z
loop_
_atom_site_type_symbol
_atom_site_label
_atom_site_fract_x
_atom_site_fract_y
_atom_site_fract_z
Si Si1 0.320424 0.539812 0.896743
Si Si2 0.818478 0.117092 0.397206
Si Si3 0.180472 0.783951 0.604188
Si Si4 0.682323 0.368045 0.402511
Si Si5 0.681586 0.040185 0.903972
Si Si6 0.317910 0.706367 0.096199
O O1 0.250000 0.524684 0.750000
O O2 0.500000 0.550333 0.880295
O O3 0.235570 0.583548 0.951703
O O4 0.287163 0.500000 0.000000
O O5 0.750000 0.100302 0.250000
O O6 0.760510 0.166682 0.431152
O O7 0.761955 0.085451 0.522630
O O8 0.000000 0.115005 0.382560
O O9 0.250000 0.766622 0.750000
O O10 0.232345 0.751482 0.480465
O O11 0.000000 0.783602 0.623184
O O12 0.750000 0.356330 0.250000
O O13 0.500000 0.365603 0.395276
O O14 0.744920 0.334574 0.516735
O O15 0.750000 0.036534 0.750000
O O16 0.500000 0.038790 0.889778
O O17 0.740977 0.000000 0.000000
O O18 0.250000 0.708621 0.250000
O O19 0.500000 0.700609 0.101122
#
# Coordination Sequence:
#
# PCOD8221087 Si02
#       6
#     8   8   8   8   8   8
#     4  10  21  37  58  84 113 145 183 225 269 320
#     4   9  18  34  54  78 106 136 175 219 264 316
#     4   9  19  35  56  79 105 139 177 219 265 319
#     4  11  22  38  60  83 110 145 184 225 270 322
#     4  10  21  35  52  76 106 139 176 219 265 316
#     4  11  23  38  55  79 110 142 180 225 274 323
#
# _framework density 19.088436000000002
#
# number of rings (size 3 to 8) (size 9 to 14) (size 15 to 20)
#    0.000    2.000    0.000    4.500    0.000    6.333 
#    0.000    1.667    0.000    0.000    0.000    0.000 
#    0.000    0.000    0.000    0.000    0.000    0.000 
#
# Total GULP energy -595290.788048 kJ/mol
# GULP energy per Si atom -12401.891418 kJ/mol
# Density = 1.904499 g / cm^3
# Si number density = 19.088436 Si / 1000 Ang^3
#
#
#
# Elastic Constant Matrix: (Units=GPa)
#
#
# Indices 1 2 3 4 5 6 
#
# 1 79.4634 55.9194 58.7139 0.0000 0.0000 0.0000
# 2 55.9194 137.9060 109.4710 0.0000 0.0000 0.0000
# 3 58.7139 109.4710 173.1503 0.0000 0.0000 0.0000
# 4 0.0000 0.0000 0.0000 42.1431 0.0000 0.0000
# 5 0.0000 0.0000 0.0000 0.0000 35.7730 0.0000
# 6 0.0000 0.0000 0.0000 0.0000 0.0000 3.4949
#
#
#
# Elastic Compliance Matrix: (Units=1/GPa)
#
#
# Indices 1 2 3 4 5 6 
#
# 1 0.018379 -0.005029 -0.003052 0.000000 0.000000 0.000000
# 2 -0.005029 0.015933 -0.008368 0.000000 0.000000 0.000000
# 3 -0.003052 -0.008368 0.012101 0.000000 0.000000 0.000000
# 4 0.000000 0.000000 0.000000 0.023729 0.000000 0.000000
# 5 0.000000 0.000000 0.000000 0.000000 0.027954 0.000000
# 6 0.000000 0.000000 0.000000 0.000000 0.000000 0.286129
#
#
# Mechanical properties :
#
#
# Convention : Reuss Voigt Hill
#
# Bulk Modulus (GPa) = 74.00057 93.19201 83.59629
# Shear Modulus (GPa) = 11.85874 27.37657 19.61766
#
# Velocity S-wave (km/s) = 2.49520 3.79119 3.20929
# Velocity P-wave (km/s) = 6.86679 8.25175 7.59092
#
# Compressibility (1/GPa) = 0.01351341
#
# Stress axis : x y z
#
# Youngs Moduli (GPa) = 54.40968 62.76113 82.63795
#
# Poissons Ratio (x) = 0.31566 0.25224
# Poissons Ratio (y) = 0.27365 0.69153
# Poissons Ratio (z) = 0.16608 0.52519
#
# Static dielectric constant tensor:
#      x y z
#    x 3.508620 0.000000 0.000000 
#    y 0.000000 3.867390 0.000000 
#    z 0.000000 0.000000 4.109700 
# 
# 
# High freq. dielectric constant tensor:
#      x y z
#    x 1.744500 0.000000 0.000000 
#    y 0.000000 1.757510 0.000000 
#    z 0.000000 0.000000 1.741080 
# 
# From -- ./inp_files/6648.got.cif
#   From: 2010.03.12/outbox.cif.g09.slc.cpg/sg53_4_cif.got.tgz:6648.got - 2010.04.16 14:36:59.
