data_PCOD8221195
_publ_section_title
;
Structure prediction by ZEFSAII (Michael W. Deem and Ramdas Pophale) SiO2 
 PCOD8221195
Probable space group: P M N A
;
_chemical_formula_sum "Si O2"
_cell_formula_units_Z 32
_cell_length_a 8.724172
_cell_length_b 5.070563
_cell_length_c 35.006319
_cell_angle_alpha 90.000000
_cell_angle_beta 90.000000
_cell_angle_gamma 90.000000
_cell_volume 1548.555761
_symmetry_space_group_name_H-M "P M N A"
_symmetry_group_IT_number 53
_symmetry_cell_setting 'orthorhombic'
loop_
_space_group_symop_operation_xyz
x,y,z
1/2-x,-y,1/2+z
x,-y,-z
1/2-x,y,1/2-z
-x,-y,-z
1/2+x,y,1/2-z
-x,y,z
1/2+x,-y,1/2+z
loop_
_atom_site_type_symbol
_atom_site_label
_atom_site_fract_x
_atom_site_fract_y
_atom_site_fract_z
Si Si1 0.321361 0.545487 0.791027
Si Si2 0.320967 0.558270 0.956220
Si Si3 0.819877 0.057052 0.919686
Si Si4 0.819724 0.949527 0.338525
O O1 0.250000 0.502122 0.750000
O O2 0.500000 0.510094 0.785456
O O3 0.263050 0.325319 0.820734
O O4 0.277075 0.828593 0.807667
O O5 0.500000 0.534859 0.947022
O O6 0.231965 0.352536 0.929607
O O7 0.264715 0.852880 0.947606
O O8 0.283869 0.500000 0.000000
O O9 0.775544 0.992175 0.876405
O O10 0.000000 0.028252 0.925426
O O11 0.000000 0.951686 0.348579
#
# Coordination Sequence:
#
# PCOD8221195 Si02
#       4
#     8   8   8   8
#     4  10  21  36  57  83 112 150 195 244 295 349
#     4  11  24  43  66  90 121 165 208 245 298 371
#     4  12  25  40  63  95 126 158 201 258 311 351
#     4  10  21  38  58  82 115 157 199 238 291 361
#
# _framework density 20.664415000000002
#
# number of rings (size 3 to 8) (size 9 to 14) (size 15 to 20)
#    0.000    1.250    0.000    6.000    0.000    9.000 
#    0.000    0.000    0.000    0.000    0.000    0.000 
#    0.000    0.000    0.000    0.000    0.000    0.000 
#
# Total GULP energy -397049.044970 kJ/mol
# GULP energy per Si atom -12407.782655 kJ/mol
# Density = 2.061738 g / cm^3
# Si number density = 20.664415 Si / 1000 Ang^3
#
#
#
# Elastic Constant Matrix: (Units=GPa)
#
#
# Indices 1 2 3 4 5 6 
#
# 1 65.6697 15.9220 51.5659 0.0000 0.0000 0.0000
# 2 15.9220 87.0027 11.0285 0.0000 0.0000 0.0000
# 3 51.5659 11.0285 91.6135 0.0000 0.0000 0.0000
# 4 0.0000 0.0000 0.0000 28.6082 0.0000 0.0000
# 5 0.0000 0.0000 0.0000 0.0000 32.2923 0.0000
# 6 0.0000 0.0000 0.0000 0.0000 0.0000 50.9754
#
#
#
# Elastic Compliance Matrix: (Units=1/GPa)
#
#
# Indices 1 2 3 4 5 6 
#
# 1 0.028134 -0.003190 -0.015452 0.000000 0.000000 0.000000
# 2 -0.003190 0.012034 0.000347 0.000000 0.000000 0.000000
# 3 -0.015452 0.000347 0.019571 0.000000 0.000000 0.000000
# 4 0.000000 0.000000 0.000000 0.034955 0.000000 0.000000
# 5 0.000000 0.000000 0.000000 0.000000 0.030967 0.000000
# 6 0.000000 0.000000 0.000000 0.000000 0.000000 0.019617
#
#
# Mechanical properties :
#
#
# Convention : Reuss Voigt Hill
#
# Bulk Modulus (GPa) = 43.19810 44.59098 43.89454
# Shear Modulus (GPa) = 26.37340 33.42646 29.89993
#
# Velocity S-wave (km/s) = 3.57637 4.02629 3.80798
# Velocity P-wave (km/s) = 6.16473 6.57572 6.37354
#
# Compressibility (1/GPa) = 0.02314916
#
# Stress axis : x y z
#
# Youngs Moduli (GPa) = 35.54361 83.09985 51.09619
#
# Poissons Ratio (x) = 0.26510 0.78953
# Poissons Ratio (y) = 0.11339 -0.01773
# Poissons Ratio (z) = 0.54921 -0.02883
#
# Static dielectric constant tensor:
#      x y z
#    x 3.666950 0.000000 0.000000 
#    y 0.000000 3.973900 0.000000 
#    z 0.000000 0.000000 3.832470 
# 
# 
# High freq. dielectric constant tensor:
#      x y z
#    x 1.801340 0.000000 0.000000 
#    y 0.000000 1.826550 0.000000 
#    z 0.000000 0.000000 1.820730 
# 
# From -- ./inp_files/12675.got.cif
#   From: 2010.03.12/outbox.cif.g09.slc.cpg/sg53_7_cif.got.tgz:12675.got - 2010.04.16 14:36:59.
