data_PCOD8221958
_publ_section_title
;
Structure prediction by ZEFSAII (Michael W. Deem and Ramdas Pophale) SiO2 
 PCOD8221958
Probable space group: P M N A
;
_chemical_formula_sum "Si O2"
_cell_formula_units_Z 40
_cell_length_a 27.555937
_cell_length_b 9.296006
_cell_length_c 8.960010
_cell_angle_alpha 90.000000
_cell_angle_beta 90.000000
_cell_angle_gamma 90.000000
_cell_volume 2295.197557
_symmetry_space_group_name_H-M "P M N A"
_symmetry_group_IT_number 53
_symmetry_cell_setting 'orthorhombic'
loop_
_space_group_symop_operation_xyz
x,y,z
1/2-x,-y,1/2+z
x,-y,-z
1/2-x,y,1/2-z
-x,-y,-z
1/2+x,y,1/2-z
-x,y,z
1/2+x,-y,1/2+z
loop_
_atom_site_type_symbol
_atom_site_label
_atom_site_fract_x
_atom_site_fract_y
_atom_site_fract_z
Si Si1 0.216707 0.635713 0.895786
Si Si2 0.052861 0.651766 0.582002
Si Si3 0.141024 0.351625 0.588570
Si Si4 0.887801 0.456772 0.160856
Si Si5 0.231771 0.143447 0.584813
O O1 0.250000 0.625704 0.750000
O O2 0.160383 0.641517 0.849385
O O3 0.228248 0.500000 0.000000
O O4 0.226169 0.780821 0.988666
O O5 0.047540 0.500000 0.500000
O O6 0.095790 0.733246 0.491324
O O7 0.070001 0.629583 0.752920
O O8 0.000000 0.730451 0.580369
O O9 0.153063 0.500000 0.500000
O O10 0.126573 0.394378 0.756506
O O11 0.186553 0.249539 0.592161
O O12 0.908539 0.500000 0.000000
O O13 0.250000 0.105713 0.750000
O O14 0.215566 0.000000 0.500000
#
# Coordination Sequence:
#
# PCOD8221958 Si02
#       5
#     8   8   8   8   8
#     4  11  19  31  50  71  98 132 168 198 234 289
#     4   8  15  28  46  68  94 123 156 195 236 278
#     4   9  18  33  52  71  95 129 164 194 232 287
#     4   9  16  25  44  71  96 122 155 194 237 281
#     4  12  24  35  48  71 101 132 164 202 246 289
#
# _framework density 17.427693000000001
#
# number of rings (size 3 to 8) (size 9 to 14) (size 15 to 20)
#    0.000    2.600    0.000    7.800    0.000    1.200 
#    0.000    0.000    0.000    0.600    0.000    0.000 
#    0.000    4.800    0.000    0.000    0.000    0.000 
#
# Total GULP energy -495693.224458 kJ/mol
# GULP energy per Si atom -12392.330611 kJ/mol
# Density = 1.738803 g / cm^3
# Si number density = 17.427693 Si / 1000 Ang^3
#
#
#
# Elastic Constant Matrix: (Units=GPa)
#
#
# Indices 1 2 3 4 5 6 
#
# 1 112.4612 15.5993 38.6924 0.0000 0.0000 0.0000
# 2 15.5993 53.2710 23.1182 0.0000 0.0000 0.0000
# 3 38.6924 23.1182 132.8729 0.0000 0.0000 0.0000
# 4 0.0000 0.0000 0.0000 18.1689 0.0000 0.0000
# 5 0.0000 0.0000 0.0000 0.0000 13.7063 0.0000
# 6 0.0000 0.0000 0.0000 0.0000 0.0000 -0.5440
#
#
#
# Elastic Compliance Matrix: (Units=1/GPa)
#
#
# Indices 1 2 3 4 5 6 
#
# 1 0.010040 -0.001808 -0.002609 0.000000 0.000000 0.000000
# 2 -0.001808 0.020631 -0.003063 0.000000 0.000000 0.000000
# 3 -0.002609 -0.003063 0.008819 0.000000 0.000000 0.000000
# 4 0.000000 0.000000 0.000000 0.055039 0.000000 0.000000
# 5 0.000000 0.000000 0.000000 0.000000 0.072959 0.000000
# 6 0.000000 0.000000 0.000000 0.000000 0.000000 -1.838127
#
#
# Mechanical properties :
#
#
# Convention : Reuss Voigt Hill
#
# Bulk Modulus (GPa) = 40.76703 50.38056 45.57379
# Shear Modulus (GPa) = -3.03490 21.01258 8.98884
#
# Velocity S-wave (km/s) = -1.32106 3.47609 2.27354
# Velocity P-wave (km/s) = 4.59521 6.71431 5.75317
#
# Compressibility (1/GPa) = 0.02452963
#
# Stress axis : x y z
#
# Youngs Moduli (GPa) = 99.59747 48.47169 113.39514
#
# Poissons Ratio (x) = 0.08763 0.29587
# Poissons Ratio (y) = 0.18005 0.34733
# Poissons Ratio (z) = 0.25987 0.14847
#
# Static dielectric constant tensor:
#      x y z
#    x 3.823300 0.000000 0.000000 
#    y 0.000000 2.807970 0.000000 
#    z 0.000000 0.000000 3.570100 
# 
# 
# High freq. dielectric constant tensor:
#      x y z
#    x 1.675570 0.000000 0.000000 
#    y 0.000000 1.609470 0.000000 
#    z 0.000000 0.000000 1.696190 
# 
# From -- ./inp_files/12862.got.cif
#   From: 2010.03.12/outbox.cif.g09.slc.cpg/sg53_7_cif.got.tgz:12862.got - 2010.04.16 14:36:59.
