data_PCOD8221556
_publ_section_title
;
Structure prediction by ZEFSAII (Michael W. Deem and Ramdas Pophale) SiO2 
 PCOD8221556
Probable space group: P M N A
;
_chemical_formula_sum "Si O2"
_cell_formula_units_Z 56
_cell_length_a 15.050885
_cell_length_b 9.784492
_cell_length_c 18.671304
_cell_angle_alpha 90.000000
_cell_angle_beta 90.000000
_cell_angle_gamma 90.000000
_cell_volume 2749.634510
_symmetry_space_group_name_H-M "P M N A"
_symmetry_group_IT_number 53
_symmetry_cell_setting 'orthorhombic'
loop_
_space_group_symop_operation_xyz
x,y,z
1/2-x,-y,1/2+z
x,-y,-z
1/2-x,y,1/2-z
-x,-y,-z
1/2+x,y,1/2-z
-x,y,z
1/2+x,-y,1/2+z
loop_
_atom_site_type_symbol
_atom_site_label
_atom_site_fract_x
_atom_site_fract_y
_atom_site_fract_z
Si Si1 0.650167 0.005789 0.775233
Si Si2 0.603153 0.900043 0.066503
Si Si3 0.257295 0.615462 0.594764
Si Si4 0.253617 0.308033 0.558935
Si Si5 0.597603 0.726559 0.824045
Si Si6 0.347157 0.510227 0.720784
Si Si7 0.596985 0.772811 0.336120
O O1 0.750000 0.020860 0.750000
O O2 0.636049 0.036166 0.859049
O O3 0.597604 0.107668 0.723147
O O4 0.618349 0.849422 0.768351
O O5 0.500000 0.860736 0.071431
O O6 0.659011 0.763985 0.053643
O O7 0.621727 0.000000 0.000000
O O8 0.230462 0.455302 0.591579
O O9 0.295303 0.672804 0.520264
O O10 0.173088 0.710617 0.615462
O O11 0.335293 0.616413 0.653965
O O12 0.324238 0.219534 0.605196
O O13 0.500000 0.749323 0.859776
O O14 0.594257 0.587416 0.779042
O O15 0.250000 0.471400 0.750000
O O16 0.398211 0.372370 0.703068
O O17 0.500000 0.781831 0.373891
#
# Coordination Sequence:
#
# PCOD8221556 Si02
#       7
#     8   8   8   8   8   8   8
#     4  12  23  40  62  88 123 166 206 258 314 366
#     4  11  24  40  61  91 126 163 207 255 313 378
#     4   9  20  38  61  83 121 164 204 246 312 376
#     4  10  21  40  61  88 121 165 208 254 307 373
#     4  11  22  36  58  91 123 155 201 255 311 372
#     4   9  19  37  59  87 120 162 205 253 310 366
#     4  11  22  38  62  91 121 158 211 262 306 362
#
# _framework density 20.366344000000002
#
# number of rings (size 3 to 8) (size 9 to 14) (size 15 to 20)
#    0.000    1.571    1.429    4.286    4.000    2.286 
#    0.000    7.857    0.000    0.429    0.000    0.000 
#    0.000    0.000    0.000    0.000    0.000    0.000 
#
# Total GULP energy -694063.944239 kJ/mol
# GULP energy per Si atom -12393.999004 kJ/mol
# Density = 2.031999 g / cm^3
# Si number density = 20.366344 Si / 1000 Ang^3
#
#
#
# Elastic Constant Matrix: (Units=GPa)
#
#
# Indices 1 2 3 4 5 6 
#
# 1 110.1790 36.6998 33.3416 0.0000 0.0000 0.0000
# 2 36.6998 68.9695 28.8647 0.0000 0.0000 0.0000
# 3 33.3416 28.8647 116.6003 0.0000 0.0000 0.0000
# 4 0.0000 0.0000 0.0000 28.4722 0.0000 0.0000
# 5 0.0000 0.0000 0.0000 0.0000 20.1385 0.0000
# 6 0.0000 0.0000 0.0000 0.0000 0.0000 2.5351
#
#
#
# Elastic Compliance Matrix: (Units=1/GPa)
#
#
# Indices 1 2 3 4 5 6 
#
# 1 0.011421 -0.005255 -0.001965 0.000000 0.000000 0.000000
# 2 -0.005255 0.018593 -0.003100 0.000000 0.000000 0.000000
# 3 -0.001965 -0.003100 0.009906 0.000000 0.000000 0.000000
# 4 0.000000 0.000000 0.000000 0.035122 0.000000 0.000000
# 5 0.000000 0.000000 0.000000 0.000000 0.049656 0.000000
# 6 0.000000 0.000000 0.000000 0.000000 0.000000 0.394455
#
#
# Mechanical properties :
#
#
# Convention : Reuss Voigt Hill
#
# Bulk Modulus (GPa) = 51.86836 54.84009 53.35422
# Shear Modulus (GPa) = 9.15383 23.35203 16.25293
#
# Velocity S-wave (km/s) = 2.12234 3.38982 2.82801
# Velocity P-wave (km/s) = 5.61505 6.50434 6.07599
#
# Compressibility (1/GPa) = 0.01927958
#
# Stress axis : x y z
#
# Youngs Moduli (GPa) = 87.55669 53.78407 100.95297
#
# Poissons Ratio (x) = 0.28264 0.19837
# Poissons Ratio (y) = 0.46011 0.31296
# Poissons Ratio (z) = 0.17205 0.16673
#
# Static dielectric constant tensor:
#      x y z
#    x 3.730870 0.000000 0.000000 
#    y 0.000000 3.770620 0.000000 
#    z 0.000000 0.000000 3.996560 
# 
# 
# High freq. dielectric constant tensor:
#      x y z
#    x 1.785990 0.000000 0.000000 
#    y 0.000000 1.798950 0.000000 
#    z 0.000000 0.000000 1.798620 
# 
# From -- ./inp_files/32467.got.cif
#   From: 2010.03.12/outbox.cif.g09.slc.cpg/sg53_17_cif.got.tgz:32467.got - 2010.04.16 14:36:59.
