data_PCOD8221108
_publ_section_title
;
Structure prediction by ZEFSAII (Michael W. Deem and Ramdas Pophale) SiO2 
 PCOD8221108
Probable space group: P M N A
;
_chemical_formula_sum "Si O2"
_cell_formula_units_Z 52
_cell_length_a 8.357452
_cell_length_b 17.930292
_cell_length_c 17.166988
_cell_angle_alpha 90.000000
_cell_angle_beta 90.000000
_cell_angle_gamma 90.000000
_cell_volume 2572.499842
_symmetry_space_group_name_H-M "P M N A"
_symmetry_group_IT_number 53
_symmetry_cell_setting 'orthorhombic'
loop_
_space_group_symop_operation_xyz
x,y,z
1/2-x,-y,1/2+z
x,-y,-z
1/2-x,y,1/2-z
-x,-y,-z
1/2+x,y,1/2-z
-x,y,z
1/2+x,-y,1/2+z
loop_
_atom_site_type_symbol
_atom_site_label
_atom_site_fract_x
_atom_site_fract_y
_atom_site_fract_z
Si Si1 0.500000 0.044404 0.630331
Si Si2 0.250000 0.892588 0.250000
Si Si3 0.184370 0.197621 0.468702
Si Si4 0.819756 0.619923 0.131602
Si Si5 0.000000 0.890390 0.958757
Si Si6 0.183445 0.533160 0.670298
Si Si7 0.171236 0.767700 0.358890
Si Si8 0.183085 0.365314 0.464680
O O1 0.348712 0.058044 0.687886
O O2 0.500000 0.095648 0.552567
O O3 0.500000 0.961720 0.597160
O O4 0.142828 0.835343 0.299500
O O5 0.332740 0.150085 0.433318
O O6 0.229952 0.198712 0.559715
O O7 0.191435 0.280646 0.432711
O O8 0.000000 0.165434 0.455385
O O9 0.710020 0.555472 0.167032
O O10 0.786387 0.700956 0.170996
O O11 0.000000 0.596577 0.149833
O O12 0.792313 0.626967 0.040007
O O13 0.250000 0.566632 0.750000
O O14 0.260586 0.578066 0.598068
O O15 0.000000 0.552666 0.668113
O O16 0.000000 0.728638 0.374552
O O17 0.000000 0.387093 0.485352
#
# Coordination Sequence:
#
# PCOD8221108 Si02
#       8
#     4   4   8   8   4   8   8   8
#     4  11  26  42  66  97 135 164 212 249 327 384
#     4  12  22  40  62  90 128 164 196 256 306 382
#     4   9  19  38  65  96 125 158 211 263 313 372
#     4  11  23  35  56  88 120 160 205 253 303 370
#     4  11  22  44  68 100 126 173 210 263 308 393
#     4  11  23  40  56  77 119 162 206 259 313 363
#     4  10  21  35  57  87 122 161 203 248 310 369
#     4   9  20  38  62  86 115 156 204 259 311 361
#
# _framework density 20.213802000000001
#
# number of rings (size 3 to 8) (size 9 to 14) (size 15 to 20)
#    0.000    1.692    2.308    3.231    6.462    3.077 
#    1.385    0.769    1.692    0.000    0.000    0.000 
#    0.000    0.000    0.000    0.000    0.000    0.000 
#
# Total GULP energy -644184.687844 kJ/mol
# GULP energy per Si atom -12388.167074 kJ/mol
# Density = 2.016779 g / cm^3
# Si number density = 20.213802 Si / 1000 Ang^3
#
#
#
# Elastic Constant Matrix: (Units=GPa)
#
#
# Indices 1 2 3 4 5 6 
#
# 1 91.9487 36.2533 22.5794 0.0000 0.0000 0.0000
# 2 36.2533 86.9976 36.1128 0.0000 0.0000 0.0000
# 3 22.5794 36.1128 79.6653 0.0000 0.0000 0.0000
# 4 0.0000 0.0000 0.0000 28.2806 0.0000 0.0000
# 5 0.0000 0.0000 0.0000 0.0000 20.6161 0.0000
# 6 0.0000 0.0000 0.0000 0.0000 0.0000 21.8354
#
#
#
# Elastic Compliance Matrix: (Units=1/GPa)
#
#
# Indices 1 2 3 4 5 6 
#
# 1 0.013164 -0.004849 -0.001533 0.000000 0.000000 0.000000
# 2 -0.004849 0.015945 -0.005854 0.000000 0.000000 0.000000
# 3 -0.001533 -0.005854 0.015640 0.000000 0.000000 0.000000
# 4 0.000000 0.000000 0.000000 0.035360 0.000000 0.000000
# 5 0.000000 0.000000 0.000000 0.000000 0.048506 0.000000
# 6 0.000000 0.000000 0.000000 0.000000 0.000000 0.045797
#
#
# Mechanical properties :
#
#
# Convention : Reuss Voigt Hill
#
# Bulk Modulus (GPa) = 49.31433 49.83362 49.57398
# Shear Modulus (GPa) = 24.31389 25.05747 24.68568
#
# Velocity S-wave (km/s) = 3.47196 3.52465 3.49840
# Velocity P-wave (km/s) = 6.36569 6.42425 6.39503
#
# Compressibility (1/GPa) = 0.02027808
#
# Stress axis : x y z
#
# Youngs Moduli (GPa) = 75.96451 62.71464 63.93682
#
# Poissons Ratio (x) = 0.30413 0.09800
# Poissons Ratio (y) = 0.36838 0.37426
# Poissons Ratio (z) = 0.11644 0.36711
#
# Static dielectric constant tensor:
#      x y z
#    x 3.684010 0.000000 0.000000 
#    y 0.000000 3.544370 0.000000 
#    z 0.000000 0.000000 3.723530 
# 
# 
# High freq. dielectric constant tensor:
#      x y z
#    x 1.793420 0.000000 0.000000 
#    y 0.000000 1.774370 0.000000 
#    z 0.000000 0.000000 1.773860 
# 
# From -- ./inp_files/26541.got.cif
#   From: 2010.03.12/outbox.cif.g09.slc.cpg/sg53_14_cif.got.tgz:26541.got - 2010.04.16 14:36:59.
