data_PCOD8221780
_publ_section_title
;
Structure prediction by ZEFSAII (Michael W. Deem and Ramdas Pophale) SiO2 
 PCOD8221780
Probable space group: P M N A
;
_chemical_formula_sum "Si O2"
_cell_formula_units_Z 56
_cell_length_a 14.324982
_cell_length_b 11.140370
_cell_length_c 16.461419
_cell_angle_alpha 90.000000
_cell_angle_beta 90.000000
_cell_angle_gamma 90.000000
_cell_volume 2627.005423
_symmetry_space_group_name_H-M "P M N A"
_symmetry_group_IT_number 53
_symmetry_cell_setting 'orthorhombic'
loop_
_space_group_symop_operation_xyz
x,y,z
1/2-x,-y,1/2+z
x,-y,-z
1/2-x,y,1/2-z
-x,-y,-z
1/2+x,y,1/2-z
-x,y,z
1/2+x,-y,1/2+z
loop_
_atom_site_type_symbol
_atom_site_label
_atom_site_fract_x
_atom_site_fract_y
_atom_site_fract_z
Si Si1 0.604452 0.368962 0.700337
Si Si2 0.769139 0.210574 0.912857
Si Si3 0.751347 0.382475 0.446982
Si Si4 0.607491 0.744082 0.656042
Si Si5 0.107137 0.405342 0.303186
Si Si6 0.897642 0.856158 0.305212
Si Si7 0.390671 0.012280 0.641084
O O1 0.500000 0.384636 0.660574
O O2 0.681406 0.319645 0.636867
O O3 0.641729 0.491350 0.740927
O O4 0.595098 0.278970 0.774761
O O5 0.681161 0.143321 0.873140
O O6 0.843091 0.101537 0.924713
O O7 0.732154 0.265967 0.996581
O O8 0.735513 0.500000 0.500000
O O9 0.658470 0.358371 0.395647
O O10 0.838449 0.400094 0.387434
O O11 0.500000 0.733827 0.631971
O O12 0.621105 0.718346 0.752557
O O13 0.646570 0.876240 0.634923
O O14 0.000000 0.428025 0.326880
O O15 0.866488 0.941703 0.231410
O O16 0.000000 0.896069 0.339244
O O17 0.500000 0.019797 0.624058
#
# Coordination Sequence:
#
# PCOD8221780 Si02
#       7
#     8   8   8   8   8   8   8
#     4   9  17  33  58  83 109 147 194 239 284 335
#     4  11  21  33  56  90 122 152 187 240 301 351
#     4  12  26  38  56  88 124 157 191 234 290 354
#     4  10  23  43  65  86 112 151 197 244 291 345
#     4  10  22  41  63  84 113 157 201 240 284 340
#     4   9  18  32  54  84 116 152 195 238 278 332
#     4   9  19  38  63  88 112 147 198 248 294 343
#
# _framework density 21.317046999999999
#
# number of rings (size 3 to 8) (size 9 to 14) (size 15 to 20)
#    0.000    2.000    0.000    5.143    0.000    6.286 
#    0.000    1.429    0.000    0.000    0.000    6.000 
#    0.000    0.000    0.000    0.000    0.000    0.000 
#
# Total GULP energy -694145.885301 kJ/mol
# GULP energy per Si atom -12395.462238 kJ/mol
# Density = 2.126853 g / cm^3
# Si number density = 21.317047 Si / 1000 Ang^3
#
#
#
# Elastic Constant Matrix: (Units=GPa)
#
#
# Indices 1 2 3 4 5 6 
#
# 1 89.0119 46.3247 41.0968 0.0000 0.0000 0.0000
# 2 46.3247 126.3709 53.6313 0.0000 0.0000 0.0000
# 3 41.0968 53.6313 74.8262 0.0000 0.0000 0.0000
# 4 0.0000 0.0000 0.0000 19.5960 0.0000 0.0000
# 5 0.0000 0.0000 0.0000 0.0000 20.1197 0.0000
# 6 0.0000 0.0000 0.0000 0.0000 0.0000 25.0992
#
#
#
# Elastic Compliance Matrix: (Units=1/GPa)
#
#
# Indices 1 2 3 4 5 6 
#
# 1 0.015822 -0.003035 -0.006514 0.000000 0.000000 0.000000
# 2 -0.003035 0.011955 -0.006902 0.000000 0.000000 0.000000
# 3 -0.006514 -0.006902 0.021889 0.000000 0.000000 0.000000
# 4 0.000000 0.000000 0.000000 0.051031 0.000000 0.000000
# 5 0.000000 0.000000 0.000000 0.000000 0.049703 0.000000
# 6 0.000000 0.000000 0.000000 0.000000 0.000000 0.039842
#
#
# Mechanical properties :
#
#
# Convention : Reuss Voigt Hill
#
# Bulk Modulus (GPa) = 59.65429 63.59051 61.62240
# Shear Modulus (GPa) = 21.85980 22.90673 22.38326
#
# Velocity S-wave (km/s) = 3.20576 3.28162 3.24391
# Velocity P-wave (km/s) = 6.46123 6.65239 6.55751
#
# Compressibility (1/GPa) = 0.01676325
#
# Stress axis : x y z
#
# Youngs Moduli (GPa) = 63.20417 83.64805 45.68558
#
# Poissons Ratio (x) = 0.25389 0.29761
# Poissons Ratio (y) = 0.19184 0.31530
# Poissons Ratio (z) = 0.41173 0.57730
#
# Static dielectric constant tensor:
#      x y z
#    x 3.985290 0.000000 0.000000 
#    y 0.000000 4.081040 0.000000 
#    z 0.000000 0.000000 3.592300 
# 
# 
# High freq. dielectric constant tensor:
#      x y z
#    x 1.840090 0.000000 0.000000 
#    y 0.000000 1.842710 0.000000 
#    z 0.000000 0.000000 1.804780 
# 
# From -- ./inp_files/22778.got.cif
#   From: 2010.03.12/outbox.cif.g09.slc.cpg/sg53_12_cif.got.tgz:22778.got - 2010.04.16 14:36:59.
