data_PCOD8221960
_publ_section_title
;
Structure prediction by ZEFSAII (Michael W. Deem and Ramdas Pophale) SiO2 
 PCOD8221960
Probable space group: P M N A
;
_chemical_formula_sum "Si O2"
_cell_formula_units_Z 48
_cell_length_a 13.766017
_cell_length_b 9.897423
_cell_length_c 19.945469
_cell_angle_alpha 90.000000
_cell_angle_beta 90.000000
_cell_angle_gamma 90.000000
_cell_volume 2717.532121
_symmetry_space_group_name_H-M "P M N A"
_symmetry_group_IT_number 53
_symmetry_cell_setting 'orthorhombic'
loop_
_space_group_symop_operation_xyz
x,y,z
1/2-x,-y,1/2+z
x,-y,-z
1/2-x,y,1/2-z
-x,-y,-z
1/2+x,y,1/2-z
-x,y,z
1/2+x,-y,1/2+z
loop_
_atom_site_type_symbol
_atom_site_label
_atom_site_fract_x
_atom_site_fract_y
_atom_site_fract_z
Si Si1 0.894093 0.417705 0.792160
Si Si2 0.806855 0.462025 0.648936
Si Si3 0.385422 0.733921 0.909263
Si Si4 0.888729 0.769498 0.437620
Si Si5 0.159503 0.865566 0.216749
Si Si6 0.324932 0.998657 0.152202
O O1 0.872468 0.449037 0.714777
O O2 0.808535 0.479601 0.837351
O O3 0.909783 0.255045 0.806650
O O4 0.000000 0.481558 0.810032
O O5 0.841483 0.589196 0.606602
O O6 0.819720 0.329450 0.603907
O O7 0.500000 0.734551 0.897340
O O8 0.335449 0.842619 0.860199
O O9 0.357777 0.769745 0.985226
O O10 0.000000 0.722335 0.429656
O O11 0.874754 0.920572 0.409436
O O12 0.250000 0.779308 0.250000
O O13 0.208916 0.960072 0.158913
O O14 0.119243 0.960792 0.277367
#
# Coordination Sequence:
#
# PCOD8221960 Si02
#       6
#     8   8   8   8   8   8
#     4  11  19  33  59  79  96 132 179 220 259 307
#     4  11  20  36  50  79 108 135 170 215 263 302
#     4  11  23  31  47  81 113 143 169 204 261 315
#     4  11  19  32  53  74 107 145 174 204 251 318
#     4   8  16  32  52  76  98 133 169 207 257 295
#     4   9  17  33  50  74 108 135 170 207 247 305
#
# _framework density 17.663084000000001
#
# number of rings (size 3 to 8) (size 9 to 14) (size 15 to 20)
#    1.000    0.667    5.000    3.000    0.000    6.000 
#    0.000    0.000    0.000    3.000    0.000    1.167 
#    0.000    0.000    0.000    0.000    0.000    0.000 
#
# Total GULP energy -594635.661543 kJ/mol
# GULP energy per Si atom -12388.242949 kJ/mol
# Density = 1.762288 g / cm^3
# Si number density = 17.663084 Si / 1000 Ang^3
#
#
#
# Elastic Constant Matrix: (Units=GPa)
#
#
# Indices 1 2 3 4 5 6 
#
# 1 89.0471 4.9214 28.3817 0.0000 0.0000 0.0000
# 2 4.9214 43.2334 8.8042 0.0000 0.0000 0.0000
# 3 28.3817 8.8042 68.1931 0.0000 0.0000 0.0000
# 4 0.0000 0.0000 0.0000 16.0221 0.0000 0.0000
# 5 0.0000 0.0000 0.0000 0.0000 16.9911 0.0000
# 6 0.0000 0.0000 0.0000 0.0000 0.0000 12.5598
#
#
#
# Elastic Compliance Matrix: (Units=1/GPa)
#
#
# Indices 1 2 3 4 5 6 
#
# 1 0.012954 -0.000387 -0.005341 0.000000 0.000000 0.000000
# 2 -0.000387 0.023766 -0.002907 0.000000 0.000000 0.000000
# 3 -0.005341 -0.002907 0.017263 0.000000 0.000000 0.000000
# 4 0.000000 0.000000 0.000000 0.062414 0.000000 0.000000
# 5 0.000000 0.000000 0.000000 0.000000 0.058854 0.000000
# 6 0.000000 0.000000 0.000000 0.000000 0.000000 0.079619
#
#
# Mechanical properties :
#
#
# Convention : Reuss Voigt Hill
#
# Bulk Modulus (GPa) = 27.23932 31.63201 29.43567
# Shear Modulus (GPa) = 17.58222 19.67237 18.62730
#
# Velocity S-wave (km/s) = 3.15845 3.34092 3.25097
# Velocity P-wave (km/s) = 5.36248 5.72972 5.54914
#
# Compressibility (1/GPa) = 0.03671163
#
# Stress axis : x y z
#
# Youngs Moduli (GPa) = 77.19723 42.07627 57.92850
#
# Poissons Ratio (x) = 0.01628 0.30942
# Poissons Ratio (y) = 0.02986 0.16842
# Poissons Ratio (z) = 0.41234 0.12233
#
# Static dielectric constant tensor:
#      x y z
#    x 3.117450 0.000000 0.000000 
#    y 0.000000 3.109020 0.000000 
#    z 0.000000 0.000000 3.182630 
# 
# 
# High freq. dielectric constant tensor:
#      x y z
#    x 1.662900 0.000000 0.000000 
#    y 0.000000 1.676760 0.000000 
#    z 0.000000 0.000000 1.665900 
# 
# From -- ./inp_files/32297.got.cif
#   From: 2010.03.12/outbox.cif.g09.slc.cpg/sg53_17_cif.got.tgz:32297.got - 2010.04.16 14:36:59.
