data_PCOD8221795
_publ_section_title
;
Structure prediction by ZEFSAII (Michael W. Deem and Ramdas Pophale) SiO2 
 PCOD8221795
Probable space group: P M N A
;
_chemical_formula_sum "Si O2"
_cell_formula_units_Z 32
_cell_length_a 9.974141
_cell_length_b 19.206348
_cell_length_c 8.453519
_cell_angle_alpha 90.000000
_cell_angle_beta 90.000000
_cell_angle_gamma 90.000000
_cell_volume 1619.413778
_symmetry_space_group_name_H-M "P M N A"
_symmetry_group_IT_number 53
_symmetry_cell_setting 'orthorhombic'
loop_
_space_group_symop_operation_xyz
x,y,z
1/2-x,-y,1/2+z
x,-y,-z
1/2-x,y,1/2-z
-x,-y,-z
1/2+x,y,1/2-z
-x,y,z
1/2+x,-y,1/2+z
loop_
_atom_site_type_symbol
_atom_site_label
_atom_site_fract_x
_atom_site_fract_y
_atom_site_fract_z
Si Si1 0.000000 0.076527 0.062386
Si Si2 0.155097 0.298649 0.103197
Si Si3 0.254546 0.160535 0.563317
Si Si4 0.500000 0.079257 0.061392
Si Si5 0.848672 0.435424 0.894849
O O1 0.000000 0.079027 0.250448
O O2 0.872631 0.111745 0.988684
O O3 0.000000 0.000000 0.000000
O O4 0.250000 0.315994 0.250000
O O5 0.000000 0.280594 0.151451
O O6 0.225676 0.235836 0.012073
O O7 0.156446 0.365389 0.993714
O O8 0.250000 0.169751 0.750000
O O9 0.123966 0.122689 0.500925
O O10 0.500000 0.000000 0.000000
O O11 0.750000 0.427269 0.750000
O O12 0.000000 0.449024 0.833162
O O13 0.799394 0.500000 0.000000
#
# Coordination Sequence:
#
# PCOD8221795 Si02
#       5
#     4   8   8   4   8
#     4  12  24  44  66  92 129 164 213 266 322 392
#     4  11  24  42  65  96 131 171 217 268 325 390
#     4  12  25  43  65  94 129 168 213 270 324 390
#     4  12  26  44  68  96 125 170 215 264 332 390
#     4  10  22  41  65  96 135 174 221 272 325 387
#
# _framework density 19.760235999999999
#
# number of rings (size 3 to 8) (size 9 to 14) (size 15 to 20)
#    0.000    0.750    1.250    6.750    1.750    1.500 
#    0.000    0.000    0.000    0.000    0.000    0.000 
#    0.000    0.000    0.000    0.000    0.000    0.000 
#
# Total GULP energy -396845.393644 kJ/mol
# GULP energy per Si atom -12401.418551 kJ/mol
# Density = 1.971526 g / cm^3
# Si number density = 19.760236 Si / 1000 Ang^3
#
#
#
# Elastic Constant Matrix: (Units=GPa)
#
#
# Indices 1 2 3 4 5 6 
#
# 1 159.2610 48.1544 60.9694 0.0000 0.0000 0.0000
# 2 48.1544 118.3272 -3.8233 0.0000 0.0000 0.0000
# 3 60.9694 -3.8233 72.9082 0.0000 0.0000 0.0000
# 4 0.0000 0.0000 0.0000 36.2190 0.0000 0.0000
# 5 0.0000 0.0000 0.0000 0.0000 39.3910 0.0000
# 6 0.0000 0.0000 0.0000 0.0000 0.0000 36.5754
#
#
#
# Elastic Compliance Matrix: (Units=1/GPa)
#
#
# Indices 1 2 3 4 5 6 
#
# 1 0.011634 -0.005058 -0.009994 0.000000 0.000000 0.000000
# 2 -0.005058 0.010664 0.004789 0.000000 0.000000 0.000000
# 3 -0.009994 0.004789 0.022325 0.000000 0.000000 0.000000
# 4 0.000000 0.000000 0.000000 0.027610 0.000000 0.000000
# 5 0.000000 0.000000 0.000000 0.000000 0.025387 0.000000
# 6 0.000000 0.000000 0.000000 0.000000 0.000000 0.027341
#
#
# Mechanical properties :
#
#
# Convention : Reuss Voigt Hill
#
# Bulk Modulus (GPa) = 41.49982 62.34416 51.92199
# Shear Modulus (GPa) = 32.56915 38.78348 35.67631
#
# Velocity S-wave (km/s) = 4.06423 4.43505 4.25368
# Velocity P-wave (km/s) = 6.56287 7.60559 7.10339
#
# Compressibility (1/GPa) = 0.02409649
#
# Stress axis : x y z
#
# Youngs Moduli (GPa) = 85.95205 93.77229 44.79311
#
# Poissons Ratio (x) = 0.47427 0.44768
# Poissons Ratio (y) = 0.43472 -0.21450
# Poissons Ratio (z) = 0.85905 -0.44905
#
# Static dielectric constant tensor:
#      x y z
#    x 3.955570 0.000000 0.000000 
#    y 0.000000 3.957680 0.000000 
#    z 0.000000 0.000000 3.782720 
# 
# 
# High freq. dielectric constant tensor:
#      x y z
#    x 1.790790 0.000000 0.000000 
#    y 0.000000 1.797720 0.000000 
#    z 0.000000 0.000000 1.780480 
# 
# From -- ./inp_files/6130.got.cif
#   From: 2010.03.12/outbox.cif.g09.slc.cpg/sg53_4_cif.got.tgz:6130.got - 2010.04.16 14:36:59.
