data_PCOD8221302
_publ_section_title
;
Structure prediction by ZEFSAII (Michael W. Deem and Ramdas Pophale) SiO2 
 PCOD8221302
Probable space group: P M N A
;
_chemical_formula_sum "Si O2"
_cell_formula_units_Z 56
_cell_length_a 8.927717
_cell_length_b 15.977246
_cell_length_c 19.422484
_cell_angle_alpha 90.000000
_cell_angle_beta 90.000000
_cell_angle_gamma 90.000000
_cell_volume 2770.429541
_symmetry_space_group_name_H-M "P M N A"
_symmetry_group_IT_number 53
_symmetry_cell_setting 'orthorhombic'
loop_
_space_group_symop_operation_xyz
x,y,z
1/2-x,-y,1/2+z
x,-y,-z
1/2-x,y,1/2-z
-x,-y,-z
1/2+x,y,1/2-z
-x,y,z
1/2+x,-y,1/2+z
loop_
_atom_site_type_symbol
_atom_site_label
_atom_site_fract_x
_atom_site_fract_y
_atom_site_fract_z
Si Si1 0.674897 0.248769 0.946930
Si Si2 0.829535 0.316274 0.071197
Si Si3 0.825659 0.364452 0.675530
Si Si4 0.828084 0.201133 0.320737
Si Si5 0.829044 0.502906 0.078268
Si Si6 0.826584 0.993002 0.679067
Si Si7 0.822749 0.927523 0.052148
O O1 0.500000 0.242913 0.963565
O O2 0.702299 0.279041 0.868151
O O3 0.748951 0.160628 0.966490
O O4 0.751340 0.318040 0.996112
O O5 0.744216 0.250209 0.117344
O O6 0.821305 0.407633 0.105756
O O7 0.000000 0.286512 0.062566
O O8 0.750000 0.356489 0.750000
O O9 0.766402 0.442435 0.631147
O O10 0.000000 0.379846 0.688190
O O11 0.750000 0.226435 0.250000
O O12 0.806423 0.104117 0.338354
O O13 0.000000 0.226064 0.313412
O O14 0.000000 0.536752 0.077336
O O15 0.765936 0.500000 0.000000
O O16 0.750000 0.015891 0.750000
O O17 0.000000 0.019481 0.679691
O O18 0.735691 0.048600 0.626443
O O19 0.000000 0.917330 0.051872
O O20 0.769708 0.000000 0.000000
#
# Coordination Sequence:
#
# PCOD8221302 Si02
#       7
#     8   8   8   8   8   8   8
#     4  11  24  41  62  90 122 161 205 254 310 366
#     4  11  22  37  62  91 121 159 201 247 302 365
#     4  11  25  43  66  94 126 164 208 257 308 366
#     4  10  21  37  58  86 121 159 200 249 303 361
#     4  10  21  40  65  91 122 161 202 248 305 365
#     4  10  21  38  60  84 115 156 199 247 303 362
#     4  11  24  40  61  90 123 160 205 255 307 366
#
# _framework density 20.213471999999999
#
# number of rings (size 3 to 8) (size 9 to 14) (size 15 to 20)
#    0.000    1.429    1.429    3.429    0.000    9.429 
#    0.000    1.429    0.000    0.000    0.000    0.000 
#    0.000    0.000    0.000    0.000    0.000    0.000 
#
# Total GULP energy -694529.936707 kJ/mol
# GULP energy per Si atom -12402.320298 kJ/mol
# Density = 2.016746 g / cm^3
# Si number density = 20.213472 Si / 1000 Ang^3
#
#
#
# Elastic Constant Matrix: (Units=GPa)
#
#
# Indices 1 2 3 4 5 6 
#
# 1 118.4501 44.5467 45.7420 0.0000 0.0000 0.0000
# 2 44.5467 81.3565 34.4276 0.0000 0.0000 0.0000
# 3 45.7420 34.4276 86.3014 0.0000 0.0000 0.0000
# 4 0.0000 0.0000 0.0000 39.2238 0.0000 0.0000
# 5 0.0000 0.0000 0.0000 0.0000 40.4858 0.0000
# 6 0.0000 0.0000 0.0000 0.0000 0.0000 58.2864
#
#
#
# Elastic Compliance Matrix: (Units=1/GPa)
#
#
# Indices 1 2 3 4 5 6 
#
# 1 0.011908 -0.004631 -0.004464 0.000000 0.000000 0.000000
# 2 -0.004631 0.016589 -0.004163 0.000000 0.000000 0.000000
# 3 -0.004464 -0.004163 0.015614 0.000000 0.000000 0.000000
# 4 0.000000 0.000000 0.000000 0.025495 0.000000 0.000000
# 5 0.000000 0.000000 0.000000 0.000000 0.024700 0.000000
# 6 0.000000 0.000000 0.000000 0.000000 0.000000 0.017157
#
#
# Mechanical properties :
#
#
# Convention : Reuss Voigt Hill
#
# Bulk Modulus (GPa) = 56.83595 59.50450 58.17022
# Shear Modulus (GPa) = 34.75988 38.35866 36.55927
#
# Velocity S-wave (km/s) = 4.15135 4.36096 4.25745
# Velocity P-wave (km/s) = 7.15243 7.40670 7.28067
#
# Compressibility (1/GPa) = 0.01759450
#
# Stress axis : x y z
#
# Youngs Moduli (GPa) = 83.97758 60.28068 64.04454
#
# Poissons Ratio (x) = 0.27917 0.28590
# Poissons Ratio (y) = 0.38891 0.26663
# Poissons Ratio (z) = 0.37488 0.25096
#
# Static dielectric constant tensor:
#      x y z
#    x 3.790450 0.000000 0.000000 
#    y 0.000000 3.716340 0.000000 
#    z 0.000000 0.000000 3.684910 
# 
# 
# High freq. dielectric constant tensor:
#      x y z
#    x 1.801450 0.000000 0.000000 
#    y 0.000000 1.792960 0.000000 
#    z 0.000000 0.000000 1.793050 
# 
# From -- ./inp_files/30881.got.cif
#   From: 2010.03.12/outbox.cif.g09.slc.cpg/sg53_16_cif.got.tgz:30881.got - 2010.04.16 14:36:59.
