data_PCOD8221606
_publ_section_title
;
Structure prediction by ZEFSAII (Michael W. Deem and Ramdas Pophale) SiO2 
 PCOD8221606
Probable space group: P M N A
;
_chemical_formula_sum "Si O2"
_cell_formula_units_Z 64
_cell_length_a 19.037787
_cell_length_b 9.758544
_cell_length_c 17.104739
_cell_angle_alpha 90.000000
_cell_angle_beta 90.000000
_cell_angle_gamma 90.000000
_cell_volume 3177.736920
_symmetry_space_group_name_H-M "P M N A"
_symmetry_group_IT_number 53
_symmetry_cell_setting 'orthorhombic'
loop_
_space_group_symop_operation_xyz
x,y,z
1/2-x,-y,1/2+z
x,-y,-z
1/2-x,y,1/2-z
-x,-y,-z
1/2+x,y,1/2-z
-x,y,z
1/2+x,-y,1/2+z
loop_
_atom_site_type_symbol
_atom_site_label
_atom_site_fract_x
_atom_site_fract_y
_atom_site_fract_z
Si Si1 0.670470 0.116758 0.550096
Si Si2 0.177622 0.026142 0.211503
Si Si3 0.919223 0.626815 0.555626
Si Si4 0.321700 0.152944 0.979289
Si Si5 0.080748 0.488184 0.717907
Si Si6 0.921168 0.728748 0.828268
Si Si7 0.920155 0.652243 0.004155
Si Si8 0.675587 0.773775 0.202742
O O1 0.738983 0.160130 0.498956
O O2 0.622144 0.250650 0.564198
O O3 0.629143 0.000000 0.500000
O O4 0.695396 0.050259 0.630708
O O5 0.250000 0.076797 0.250000
O O6 0.128963 0.156823 0.205790
O O7 0.139003 0.912647 0.265446
O O8 0.903366 0.500000 0.500000
O O9 0.867342 0.749488 0.534246
O O10 0.901877 0.581876 0.643410
O O11 0.000000 0.675790 0.546462
O O12 0.323682 0.207018 0.890299
O O13 0.349529 0.000000 0.000000
O O14 0.097133 0.579368 0.794134
O O15 0.129882 0.357349 0.723680
O O16 0.000000 0.438364 0.715016
O O17 0.913887 0.724434 0.920887
O O18 0.000000 0.768629 0.803275
O O19 0.000000 0.641824 0.034563
O O20 0.887242 0.500000 0.000000
O O21 0.750000 0.761120 0.250000
#
# Coordination Sequence:
#
# PCOD8221606 Si02
#       8
#     8   8   8   8   8   8   8   8
#     4  11  22  41  62  89 121 165 208 252 309 367
#     4  11  23  41  62  88 128 165 204 258 315 368
#     4  10  21  41  66  91 123 164 207 257 310 366
#     4  11  24  40  63  92 124 163 210 258 308 366
#     4  10  23  43  66  92 127 165 207 258 315 373
#     4  10  23  42  63  93 126 163 210 255 310 377
#     4  10  23  42  64  93 128 163 208 263 309 362
#     4  11  23  42  61  89 127 163 205 254 310 374
#
# _framework density 20.140121000000001
#
# number of rings (size 3 to 8) (size 9 to 14) (size 15 to 20)
#    0.000    1.500    5.000    0.000    3.500    2.500 
#    2.250    0.000    0.000    0.000    0.000    0.000 
#    0.000    0.000    0.000    0.000    0.000    0.000 
#
# Total GULP energy -793320.182064 kJ/mol
# GULP energy per Si atom -12395.627845 kJ/mol
# Density = 2.009428 g / cm^3
# Si number density = 20.140121 Si / 1000 Ang^3
#
#
#
# Elastic Constant Matrix: (Units=GPa)
#
#
# Indices 1 2 3 4 5 6 
#
# 1 88.2373 76.0426 20.3708 0.0000 0.0000 0.0000
# 2 76.0426 134.5010 12.5499 0.0000 0.0000 0.0000
# 3 20.3708 12.5499 48.3113 0.0000 0.0000 0.0000
# 4 0.0000 0.0000 0.0000 30.9193 0.0000 0.0000
# 5 0.0000 0.0000 0.0000 0.0000 22.9814 0.0000
# 6 0.0000 0.0000 0.0000 0.0000 0.0000 63.3245
#
#
#
# Elastic Compliance Matrix: (Units=1/GPa)
#
#
# Indices 1 2 3 4 5 6 
#
# 1 0.024093 -0.012988 -0.006785 0.000000 0.000000 0.000000
# 2 -0.012988 0.014621 0.001678 0.000000 0.000000 0.000000
# 3 -0.006785 0.001678 0.023124 0.000000 0.000000 0.000000
# 4 0.000000 0.000000 0.000000 0.032342 0.000000 0.000000
# 5 0.000000 0.000000 0.000000 0.000000 0.043513 0.000000
# 6 0.000000 0.000000 0.000000 0.000000 0.000000 0.015792
#
#
# Mechanical properties :
#
#
# Convention : Reuss Voigt Hill
#
# Bulk Modulus (GPa) = 38.98845 54.33068 46.65957
# Shear Modulus (GPa) = 25.22400 34.25080 29.73740
#
# Velocity S-wave (km/s) = 3.54280 4.12834 3.84673
# Velocity P-wave (km/s) = 6.01131 7.05402 6.55343
#
# Compressibility (1/GPa) = 0.02564862
#
# Stress axis : x y z
#
# Youngs Moduli (GPa) = 41.50665 68.39323 43.24514
#
# Poissons Ratio (x) = 0.88830 0.29341
# Poissons Ratio (y) = 0.53909 -0.07258
# Poissons Ratio (z) = 0.28162 -0.11478
#
# Static dielectric constant tensor:
#      x y z
#    x 3.585030 0.000000 0.000000 
#    y 0.000000 3.768500 0.000000 
#    z 0.000000 0.000000 3.806220 
# 
# 
# High freq. dielectric constant tensor:
#      x y z
#    x 1.771430 0.000000 0.000000 
#    y 0.000000 1.795740 0.000000 
#    z 0.000000 0.000000 1.795810 
# 
# From -- ./inp_files/29397.got.cif
#   From: 2010.03.12/outbox.cif.g09.slc.cpg/sg53_15_cif.got.tgz:29397.got - 2010.04.16 14:36:59.
