data_PCOD8221721
_publ_section_title
;
Structure prediction by ZEFSAII (Michael W. Deem and Ramdas Pophale) SiO2 
 PCOD8221721
Probable space group: P M N A
;
_chemical_formula_sum "Si O2"
_cell_formula_units_Z 48
_cell_length_a 28.420001
_cell_length_b 8.562919
_cell_length_c 9.643785
_cell_angle_alpha 90.000000
_cell_angle_beta 90.000000
_cell_angle_gamma 90.000000
_cell_volume 2346.893836
_symmetry_space_group_name_H-M "P M N A"
_symmetry_group_IT_number 53
_symmetry_cell_setting 'orthorhombic'
loop_
_space_group_symop_operation_xyz
x,y,z
1/2-x,-y,1/2+z
x,-y,-z
1/2-x,y,1/2-z
-x,-y,-z
1/2+x,y,1/2-z
-x,y,z
1/2+x,-y,1/2+z
loop_
_atom_site_type_symbol
_atom_site_label
_atom_site_fract_x
_atom_site_fract_y
_atom_site_fract_z
Si Si1 0.348493 0.315075 0.520877
Si Si2 0.601455 0.181351 0.771241
Si Si3 0.000000 0.815094 0.159507
Si Si4 0.249331 0.659591 0.916719
Si Si5 0.350958 0.317727 0.029612
Si Si6 0.000000 0.183661 0.148492
Si Si7 0.599413 0.182632 0.278660
O O1 0.353412 0.500000 0.500000
O O2 0.359736 0.273315 0.679765
O O3 0.297527 0.250218 0.468329
O O4 0.387161 0.216783 0.437143
O O5 0.547574 0.236062 0.741408
O O6 0.615321 0.221369 0.928264
O O7 0.607752 0.997581 0.754173
O O8 0.000000 0.998183 0.135962
O O9 0.000000 0.739276 0.005540
O O10 0.250000 0.633765 0.750000
O O11 0.246934 0.500000 0.000000
O O12 0.297017 0.746367 0.967410
O O13 0.351806 0.500000 0.000000
O O14 0.370334 0.295594 0.183509
O O15 0.045170 0.234298 0.237072
#
# Coordination Sequence:
#
# PCOD8221721 Si02
#       7
#     8   8   4   8   8   4   8
#     4  11  22  38  63  90 122 158 206 248 301 363
#     4  11  23  39  64  92 121 164 203 252 303 362
#     4   9  18  37  60  89 121 159 208 238 299 378
#     4  10  22  39  63  88 122 165 206 244 300 379
#     4  11  24  42  62  87 126 160 202 254 307 363
#     4   9  18  35  64  87 117 165 202 246 295 374
#     4  11  21  41  63  91 122 158 207 251 305 360
#
# _framework density 20.452566999999998
#
# number of rings (size 3 to 8) (size 9 to 14) (size 15 to 20)
#    0.000    1.500    3.333    2.000    7.000    0.667 
#    0.000   12.500    0.000    0.000    0.000    0.000 
#    0.000    0.000    0.000    0.000    0.000    0.000 
#
# Total GULP energy -594984.885566 kJ/mol
# GULP energy per Si atom -12395.518449 kJ/mol
# Density = 2.040602 g / cm^3
# Si number density = 20.452567 Si / 1000 Ang^3
#
#
#
# Elastic Constant Matrix: (Units=GPa)
#
#
# Indices 1 2 3 4 5 6 
#
# 1 163.8401 29.1844 30.3957 0.0000 0.0000 0.0000
# 2 29.1844 52.8359 8.8987 0.0000 0.0000 0.0000
# 3 30.3957 8.8987 68.3203 0.0000 0.0000 0.0000
# 4 0.0000 0.0000 0.0000 37.1543 0.0000 0.0000
# 5 0.0000 0.0000 0.0000 0.0000 25.3398 0.0000
# 6 0.0000 0.0000 0.0000 0.0000 0.0000 24.7870
#
#
#
# Elastic Compliance Matrix: (Units=1/GPa)
#
#
# Indices 1 2 3 4 5 6 
#
# 1 0.007246 -0.003537 -0.002763 0.000000 0.000000 0.000000
# 2 -0.003537 0.021078 -0.001172 0.000000 0.000000 0.000000
# 3 -0.002763 -0.001172 0.016019 0.000000 0.000000 0.000000
# 4 0.000000 0.000000 0.000000 0.026915 0.000000 0.000000
# 5 0.000000 0.000000 0.000000 0.000000 0.039464 0.000000
# 6 0.000000 0.000000 0.000000 0.000000 0.000000 0.040344
#
#
# Mechanical properties :
#
#
# Convention : Reuss Voigt Hill
#
# Bulk Modulus (GPa) = 34.01496 46.88375 40.44935
# Shear Modulus (GPa) = 28.44007 31.89072 30.16540
#
# Velocity S-wave (km/s) = 3.73304 3.95302 3.84460
# Velocity P-wave (km/s) = 5.93700 6.61877 6.28713
#
# Compressibility (1/GPa) = 0.02939883
#
# Stress axis : x y z
#
# Youngs Moduli (GPa) = 138.00365 47.44364 62.42643
#
# Poissons Ratio (x) = 0.16781 0.17249
# Poissons Ratio (y) = 0.48814 0.07314
# Poissons Ratio (z) = 0.38132 0.05559
#
# Static dielectric constant tensor:
#      x y z
#    x 4.390830 0.000000 0.000000 
#    y 0.000000 3.267740 0.000000 
#    z 0.000000 0.000000 3.875430 
# 
# 
# High freq. dielectric constant tensor:
#      x y z
#    x 1.822880 0.000000 0.000000 
#    y 0.000000 1.765500 0.000000 
#    z 0.000000 0.000000 1.804160 
# 
# From -- ./inp_files/13106.got.cif
#   From: 2010.03.12/outbox.cif.g09.slc.cpg/sg53_7_cif.got.tgz:13106.got - 2010.04.16 14:36:59.
