data_PCOD8221975
_publ_section_title
;
Structure prediction by ZEFSAII (Michael W. Deem and Ramdas Pophale) SiO2 
 PCOD8221975
Probable space group: P M N A
;
_chemical_formula_sum "Si O2"
_cell_formula_units_Z 56
_cell_length_a 29.522758
_cell_length_b 5.116271
_cell_length_c 27.161234
_cell_angle_alpha 90.000000
_cell_angle_beta 90.000000
_cell_angle_gamma 90.000000
_cell_volume 4102.607446
_symmetry_space_group_name_H-M "P M N A"
_symmetry_group_IT_number 53
_symmetry_cell_setting 'orthorhombic'
loop_
_space_group_symop_operation_xyz
x,y,z
1/2-x,-y,1/2+z
x,-y,-z
1/2-x,y,1/2-z
-x,-y,-z
1/2+x,y,1/2-z
-x,y,z
1/2+x,-y,1/2+z
loop_
_atom_site_type_symbol
_atom_site_label
_atom_site_fract_x
_atom_site_fract_y
_atom_site_fract_z
Si Si1 0.732320 0.361065 0.328407
Si Si2 0.238847 0.140702 0.623274
Si Si3 0.317902 0.753853 0.033022
Si Si4 0.905192 0.150785 0.592762
Si Si5 0.351859 0.135308 0.813327
Si Si6 0.448004 0.379715 0.052000
Si Si7 0.323182 0.640457 0.764794
O O1 0.729137 0.624337 0.359694
O O2 0.688554 0.353688 0.293096
O O3 0.777257 0.357147 0.295768
O O4 0.732826 0.123419 0.367410
O O5 0.226270 0.183534 0.566154
O O6 0.193396 0.130234 0.654802
O O7 0.361573 0.714648 0.067361
O O8 0.308665 0.500000 0.000000
O O9 0.328403 0.000000 0.000000
O O10 0.894823 0.106978 0.650331
O O11 0.943160 0.378586 0.590085
O O12 0.919479 0.877638 0.567031
O O13 0.353723 0.392783 0.779640
O O14 0.353254 0.892907 0.776247
O O15 0.500000 0.290252 0.048746
O O16 0.430683 0.500000 0.000000
#
# Coordination Sequence:
#
# PCOD8221975 Si02
#       7
#     8   8   8   8   8   8   8
#     4   9  15  24  37  50  70  92 110 134 159 193
#     4   9  17  26  35  51  69  89 115 139 166 200
#     4  11  20  29  41  54  70  92 118 148 182 220
#     4  11  20  32  45  57  73  90 110 143 187 226
#     4   9  17  26  38  55  72  87 107 133 164 212
#     4  11  22  34  46  58  70  87 115 148 183 228
#     4   9  15  24  37  54  71  90 110 128 158 198
#
# _framework density 13.649856
#
# number of rings (size 3 to 8) (size 9 to 14) (size 15 to 20)
#    0.000    2.143    0.000    5.571    0.000    9.143 
#    0.000    0.000    0.000    0.000    0.000    0.000 
#    0.000    0.000    0.000    0.000    0.000    0.000 
#
# Total GULP energy -694196.753630 kJ/mol
# GULP energy per Si atom -12396.370601 kJ/mol
# Density = 1.361879 g / cm^3
# Si number density = 13.649856 Si / 1000 Ang^3
#
#
#
# Elastic Constant Matrix: (Units=GPa)
#
#
# Indices 1 2 3 4 5 6 
#
# 1 27.8884 19.5068 25.4855 0.0000 0.0000 0.0000
# 2 19.5068 106.2975 19.9810 0.0000 0.0000 0.0000
# 3 25.4855 19.9810 39.8910 0.0000 0.0000 0.0000
# 4 0.0000 0.0000 0.0000 22.9193 0.0000 0.0000
# 5 0.0000 0.0000 0.0000 0.0000 19.6575 0.0000
# 6 0.0000 0.0000 0.0000 0.0000 0.0000 16.4317
#
#
#
# Elastic Compliance Matrix: (Units=1/GPa)
#
#
# Indices 1 2 3 4 5 6 
#
# 1 0.089813 -0.006288 -0.054230 0.000000 0.000000 0.000000
# 2 -0.006288 0.010826 -0.001405 0.000000 0.000000 0.000000
# 3 -0.054230 -0.001405 0.060419 0.000000 0.000000 0.000000
# 4 0.000000 0.000000 0.000000 0.043631 0.000000 0.000000
# 5 0.000000 0.000000 0.000000 0.000000 0.050871 0.000000
# 6 0.000000 0.000000 0.000000 0.000000 0.000000 0.060858
#
#
# Mechanical properties :
#
#
# Convention : Reuss Voigt Hill
#
# Bulk Modulus (GPa) = 26.87392 33.78039 30.32716
# Shear Modulus (GPa) = 11.04563 19.07526 15.06045
#
# Velocity S-wave (km/s) = 2.84775 3.74233 3.32526
# Velocity P-wave (km/s) = 5.52664 6.59355 6.08353
#
# Compressibility (1/GPa) = 0.03721080
#
# Stress axis : x y z
#
# Youngs Moduli (GPa) = 11.13425 92.37351 16.55121
#
# Poissons Ratio (x) = 0.58084 0.89757
# Poissons Ratio (y) = 0.07001 0.02326
# Poissons Ratio (z) = 0.60381 0.12980
#
# Static dielectric constant tensor:
#      x y z
#    x 2.336780 0.000000 0.000000 
#    y 0.000000 2.875760 0.000000 
#    z 0.000000 0.000000 2.704430 
# 
# 
# High freq. dielectric constant tensor:
#      x y z
#    x 1.454700 0.000000 0.000000 
#    y 0.000000 1.546750 0.000000 
#    z 0.000000 0.000000 1.499080 
# 
# From -- ./inp_files/35747.got.cif
#   From: 2010.03.12/outbox.cif.g09.slc.cpg/sg53_18_cif.got.tgz:35747.got - 2010.04.16 14:36:59.
