data_PCOD8221596
_publ_section_title
;
Structure prediction by ZEFSAII (Michael W. Deem and Ramdas Pophale) SiO2 
 PCOD8221596
Probable space group: P M N A
;
_chemical_formula_sum "Si O2"
_cell_formula_units_Z 48
_cell_length_a 14.187212
_cell_length_b 8.710264
_cell_length_c 17.893633
_cell_angle_alpha 90.000000
_cell_angle_beta 90.000000
_cell_angle_gamma 90.000000
_cell_volume 2211.194281
_symmetry_space_group_name_H-M "P M N A"
_symmetry_group_IT_number 53
_symmetry_cell_setting 'orthorhombic'
loop_
_space_group_symop_operation_xyz
x,y,z
1/2-x,-y,1/2+z
x,-y,-z
1/2-x,y,1/2-z
-x,-y,-z
1/2+x,y,1/2-z
-x,y,z
1/2+x,-y,1/2+z
loop_
_atom_site_type_symbol
_atom_site_label
_atom_site_fract_x
_atom_site_fract_y
_atom_site_fract_z
Si Si1 0.776206 0.706634 0.922067
Si Si2 0.389182 0.869600 0.196164
Si Si3 0.251704 0.407303 0.832706
Si Si4 0.108143 0.037561 0.153268
Si Si5 0.607663 0.254806 0.568946
Si Si6 0.101246 0.897206 0.570396
O O1 0.737749 0.547361 0.889620
O O2 0.679810 0.776748 0.952082
O O3 0.829157 0.810475 0.859718
O O4 0.843775 0.686146 0.993278
O O5 0.500000 0.831606 0.195652
O O6 0.336012 0.716742 0.168392
O O7 0.355720 0.935541 0.276548
O O8 0.361176 0.002941 0.139157
O O9 0.250000 0.478334 0.750000
O O10 0.153781 0.328075 0.856867
O O11 0.114556 0.930160 0.079086
O O12 0.000000 0.089840 0.167053
O O13 0.500000 0.309843 0.566274
O O14 0.000000 0.819420 0.591436
O O15 0.082589 0.000000 0.500000
#
# Coordination Sequence:
#
# PCOD8221596 Si02
#       6
#     8   8   8   8   8   8
#     4  12  25  38  66 102 135 170 218 282 338 401
#     4  10  22  43  68  91 127 180 230 274 331 403
#     4  12  26  41  63  95 134 180 220 266 334 403
#     4  10  21  40  69  99 129 172 224 281 339 400
#     4  11  24  46  70  98 137 181 223 270 338 413
#     4  10  22  40  64  93 126 170 222 276 329 382
#
# _framework density 21.707726000000001
#
# number of rings (size 3 to 8) (size 9 to 14) (size 15 to 20)
#    0.000    1.167    1.667    4.500    2.333    4.000 
#    0.000    0.000    0.000    5.000    0.000    0.000 
#    0.000    0.000    0.000    0.000    0.000    0.000 
#
# Total GULP energy -594953.052195 kJ/mol
# GULP energy per Si atom -12394.855254 kJ/mol
# Density = 2.165832 g / cm^3
# Si number density = 21.707726 Si / 1000 Ang^3
#
#
#
# Elastic Constant Matrix: (Units=GPa)
#
#
# Indices 1 2 3 4 5 6 
#
# 1 111.0954 55.3413 45.9611 0.0000 0.0000 0.0000
# 2 55.3413 71.7296 30.0456 0.0000 0.0000 0.0000
# 3 45.9611 30.0456 120.7762 0.0000 0.0000 0.0000
# 4 0.0000 0.0000 0.0000 35.9459 0.0000 0.0000
# 5 0.0000 0.0000 0.0000 0.0000 35.9882 0.0000
# 6 0.0000 0.0000 0.0000 0.0000 0.0000 14.6101
#
#
#
# Elastic Compliance Matrix: (Units=1/GPa)
#
#
# Indices 1 2 3 4 5 6 
#
# 1 0.015723 -0.010744 -0.003311 0.000000 0.000000 0.000000
# 2 -0.010744 0.022905 -0.001609 0.000000 0.000000 0.000000
# 3 -0.003311 -0.001609 0.009940 0.000000 0.000000 0.000000
# 4 0.000000 0.000000 0.000000 0.027820 0.000000 0.000000
# 5 0.000000 0.000000 0.000000 0.000000 0.027787 0.000000
# 6 0.000000 0.000000 0.000000 0.000000 0.000000 0.068446
#
#
# Mechanical properties :
#
#
# Convention : Reuss Voigt Hill
#
# Bulk Modulus (GPa) = 58.00565 62.92193 60.46379
# Shear Modulus (GPa) = 23.84425 28.79238 26.31832
#
# Velocity S-wave (km/s) = 3.31784 3.64588 3.48572
# Velocity P-wave (km/s) = 6.43868 6.83902 6.64187
#
# Compressibility (1/GPa) = 0.01723970
#
# Stress axis : x y z
#
# Youngs Moduli (GPa) = 63.60160 43.65926 100.60398
#
# Poissons Ratio (x) = 0.46907 0.33305
# Poissons Ratio (y) = 0.68333 0.16191
# Poissons Ratio (z) = 0.21055 0.07027
#
# Static dielectric constant tensor:
#      x y z
#    x 4.058430 0.000000 0.000000 
#    y 0.000000 3.940000 0.000000 
#    z 0.000000 0.000000 4.126170 
# 
# 
# High freq. dielectric constant tensor:
#      x y z
#    x 1.866230 0.000000 0.000000 
#    y 0.000000 1.832670 0.000000 
#    z 0.000000 0.000000 1.862590 
# 
# From -- ./inp_files/28248.got.cif
#   From: 2010.03.12/outbox.cif.g09.slc.cpg/sg53_15_cif.got.tgz:28248.got - 2010.04.16 14:36:59.
