data_PCOD8221443
_publ_section_title
;
Structure prediction by ZEFSAII (Michael W. Deem and Ramdas Pophale) SiO2 
 PCOD8221443
Probable space group: P M N A
;
_chemical_formula_sum "Si O2"
_cell_formula_units_Z 64
_cell_length_a 8.768787
_cell_length_b 12.760157
_cell_length_c 28.051291
_cell_angle_alpha 90.000000
_cell_angle_beta 90.000000
_cell_angle_gamma 90.000000
_cell_volume 3138.689773
_symmetry_space_group_name_H-M "P M N A"
_symmetry_group_IT_number 53
_symmetry_cell_setting 'orthorhombic'
loop_
_space_group_symop_operation_xyz
x,y,z
1/2-x,-y,1/2+z
x,-y,-z
1/2-x,y,1/2-z
-x,-y,-z
1/2+x,y,1/2-z
-x,y,z
1/2+x,-y,1/2+z
loop_
_atom_site_type_symbol
_atom_site_label
_atom_site_fract_x
_atom_site_fract_y
_atom_site_fract_z
Si Si1 0.679982 0.629989 0.644471
Si Si2 0.318781 0.588661 0.136602
Si Si3 0.820727 0.225931 0.802077
Si Si4 0.319713 0.400140 0.971502
Si Si5 0.177314 0.734805 0.952956
Si Si6 0.826941 0.965246 0.351435
Si Si7 0.175427 0.049224 0.450608
Si Si8 0.177857 0.819607 0.699961
O O1 0.500000 0.619539 0.650591
O O2 0.759263 0.520685 0.657851
O O3 0.726463 0.659591 0.590515
O O4 0.739253 0.716990 0.680642
O O5 0.500000 0.591691 0.139241
O O6 0.252316 0.681878 0.167537
O O7 0.258150 0.601705 0.082450
O O8 0.750000 0.225747 0.750000
O O9 0.788505 0.115176 0.827331
O O10 0.000000 0.243182 0.798278
O O11 0.500000 0.403513 0.971191
O O12 0.252121 0.500000 0.000000
O O13 0.265147 0.296448 0.998872
O O14 0.220391 0.851976 0.938589
O O15 0.000000 0.726730 0.963171
O O16 0.000000 0.932572 0.337950
O O17 0.803990 0.963659 0.408640
O O18 0.792233 0.083069 0.334815
O O19 0.000000 0.086199 0.453871
O O20 0.231739 0.000000 0.500000
O O21 0.250000 0.851408 0.750000
O O22 0.000000 0.794960 0.705381
#
# Coordination Sequence:
#
# PCOD8221443 Si02
#       8
#     8   8   8   8   8   8   8   8
#     4  11  23  40  62  93 130 167 208 258 319 381
#     4  11  24  43  68  95 128 170 219 268 318 379
#     4  12  27  47  70  95 128 168 217 272 329 387
#     4  10  21  38  62  91 123 166 213 252 301 370
#     4  11  23  37  59  90 129 167 205 258 315 372
#     4  10  22  42  67  96 129 168 215 261 315 378
#     4  10  22  40  63  92 128 171 213 254 306 374
#     4  11  23  40  65  94 124 159 205 260 316 379
#
# _framework density 20.390674000000001
#
# number of rings (size 3 to 8) (size 9 to 14) (size 15 to 20)
#    0.000    1.250    2.500    3.000    1.750    5.500 
#    0.000    2.500    0.000    0.000    0.000    0.000 
#    0.000    0.000    0.000    0.000    0.000    0.000 
#
# Total GULP energy -793973.039613 kJ/mol
# GULP energy per Si atom -12405.828744 kJ/mol
# Density = 2.034426 g / cm^3
# Si number density = 20.390674 Si / 1000 Ang^3
#
#
#
# Elastic Constant Matrix: (Units=GPa)
#
#
# Indices 1 2 3 4 5 6 
#
# 1 69.4341 34.3834 41.8811 0.0000 0.0000 0.0000
# 2 34.3834 97.0408 43.2299 0.0000 0.0000 0.0000
# 3 41.8811 43.2299 129.4343 0.0000 0.0000 0.0000
# 4 0.0000 0.0000 0.0000 28.0970 0.0000 0.0000
# 5 0.0000 0.0000 0.0000 0.0000 28.4763 0.0000
# 6 0.0000 0.0000 0.0000 0.0000 0.0000 37.7644
#
#
#
# Elastic Compliance Matrix: (Units=1/GPa)
#
#
# Indices 1 2 3 4 5 6 
#
# 1 0.019667 -0.004856 -0.004742 0.000000 0.000000 0.000000
# 2 -0.004856 0.013305 -0.002873 0.000000 0.000000 0.000000
# 3 -0.004742 -0.002873 0.010220 0.000000 0.000000 0.000000
# 4 0.000000 0.000000 0.000000 0.035591 0.000000 0.000000
# 5 0.000000 0.000000 0.000000 0.000000 0.035117 0.000000
# 6 0.000000 0.000000 0.000000 0.000000 0.000000 0.026480
#
#
# Mechanical properties :
#
#
# Convention : Reuss Voigt Hill
#
# Bulk Modulus (GPa) = 54.79125 59.43314 57.11220
# Shear Modulus (GPa) = 29.17084 30.62852 29.89968
#
# Velocity S-wave (km/s) = 3.78643 3.87988 3.83344
# Velocity P-wave (km/s) = 6.78565 7.02010 6.90387
#
# Compressibility (1/GPa) = 0.01825109
#
# Stress axis : x y z
#
# Youngs Moduli (GPa) = 50.84672 75.15860 97.85082
#
# Poissons Ratio (x) = 0.36497 0.46399
# Poissons Ratio (y) = 0.24691 0.28108
# Poissons Ratio (z) = 0.24110 0.21590
#
# Static dielectric constant tensor:
#      x y z
#    x 3.662590 0.000000 0.000000 
#    y 0.000000 3.644820 0.000000 
#    z 0.000000 0.000000 3.978450 
# 
# 
# High freq. dielectric constant tensor:
#      x y z
#    x 1.796110 0.000000 0.000000 
#    y 0.000000 1.800190 0.000000 
#    z 0.000000 0.000000 1.807300 
# 
# From -- ./inp_files/38272.got.cif
#   From: 2010.03.12/outbox.cif.g09.slc.cpg/sg53_20_cif.got.tgz:38272.got - 2010.04.16 14:36:59.
