data_PCOD8221930
_publ_section_title
;
Structure prediction by ZEFSAII (Michael W. Deem and Ramdas Pophale) SiO2 
 PCOD8221930
Probable space group: P M N A
;
_chemical_formula_sum "Si O2"
_cell_formula_units_Z 24
_cell_length_a 13.832371
_cell_length_b 5.056439
_cell_length_c 13.816714
_cell_angle_alpha 90.000000
_cell_angle_beta 90.000000
_cell_angle_gamma 90.000000
_cell_volume 966.376074
_symmetry_space_group_name_H-M "P M N A"
_symmetry_group_IT_number 53
_symmetry_cell_setting 'orthorhombic'
loop_
_space_group_symop_operation_xyz
x,y,z
1/2-x,-y,1/2+z
x,-y,-z
1/2-x,y,1/2-z
-x,-y,-z
1/2+x,y,1/2-z
-x,y,z
1/2+x,-y,1/2+z
loop_
_atom_site_type_symbol
_atom_site_label
_atom_site_fract_x
_atom_site_fract_y
_atom_site_fract_z
Si Si1 0.108928 0.835672 0.904163
Si Si2 0.610992 0.085720 0.800194
Si Si3 0.300615 0.575661 0.894562
O O1 0.183543 0.592429 0.896191
O O2 0.000000 0.717654 0.906891
O O3 0.122758 0.026832 0.812800
O O4 0.133265 0.000000 0.000000
O O5 0.500000 0.117291 0.830481
O O6 0.665904 0.360667 0.817022
O O7 0.658080 0.860339 0.866005
O O8 0.341223 0.500000 0.000000
#
# Coordination Sequence:
#
# PCOD8221930 Si02
#       3
#     8   8   8
#     4  10  24  47  74 105 141 184 235 290 351 416
#     4  11  26  48  74 103 140 186 234 288 347 413
#     4  12  26  45  72 106 142 184 233 287 348 414
#
# _framework density 24.835052999999998
#
# number of rings (size 3 to 8) (size 9 to 14) (size 15 to 20)
#    0.000    1.000    0.000    5.000    0.000   15.333 
#    0.000   11.667    0.000    2.000    0.000    0.000 
#    0.000    0.000    0.000    0.000    0.000    0.000 
#
# Total GULP energy -297781.204607 kJ/mol
# GULP energy per Si atom -12407.550192 kJ/mol
# Density = 2.477853 g / cm^3
# Si number density = 24.835053 Si / 1000 Ang^3
#
#
#
# Elastic Constant Matrix: (Units=GPa)
#
#
# Indices 1 2 3 4 5 6 
#
# 1 184.8905 70.7396 60.1473 0.0000 0.0000 0.0000
# 2 70.7396 92.9215 5.8986 0.0000 0.0000 0.0000
# 3 60.1473 5.8986 125.9088 0.0000 0.0000 0.0000
# 4 0.0000 0.0000 0.0000 26.4114 0.0000 0.0000
# 5 0.0000 0.0000 0.0000 0.0000 33.0438 0.0000
# 6 0.0000 0.0000 0.0000 0.0000 0.0000 31.9820
#
#
#
# Elastic Compliance Matrix: (Units=1/GPa)
#
#
# Indices 1 2 3 4 5 6 
#
# 1 0.009402 -0.006893 -0.004168 0.000000 0.000000 0.000000
# 2 -0.006893 0.015847 0.002550 0.000000 0.000000 0.000000
# 3 -0.004168 0.002550 0.009814 0.000000 0.000000 0.000000
# 4 0.000000 0.000000 0.000000 0.037862 0.000000 0.000000
# 5 0.000000 0.000000 0.000000 0.000000 0.030263 0.000000
# 6 0.000000 0.000000 0.000000 0.000000 0.000000 0.031268
#
#
# Mechanical properties :
#
#
# Convention : Reuss Voigt Hill
#
# Bulk Modulus (GPa) = 55.42823 75.25466 65.34144
# Shear Modulus (GPa) = 31.74769 36.08313 33.91541
#
# Velocity S-wave (km/s) = 3.57927 3.81584 3.69945
# Velocity P-wave (km/s) = 6.28081 7.05562 6.67946
#
# Compressibility (1/GPa) = 0.01804135
#
# Stress axis : x y z
#
# Youngs Moduli (GPa) = 106.36171 63.10214 101.89480
#
# Poissons Ratio (x) = 0.43496 0.42474
# Poissons Ratio (y) = 0.73314 -0.25987
# Poissons Ratio (z) = 0.44336 -0.16093
#
# Static dielectric constant tensor:
#      x y z
#    x 4.952870 0.000000 0.000000 
#    y 0.000000 4.222210 0.000000 
#    z 0.000000 0.000000 4.691030 
# 
# 
# High freq. dielectric constant tensor:
#      x y z
#    x 2.005830 0.000000 0.000000 
#    y 0.000000 1.980310 0.000000 
#    z 0.000000 0.000000 2.011860 
# 
# From -- ./inp_files/22045.got.cif
#   From: 2010.03.12/outbox.cif.g09.slc.cpg/sg53_12_cif.got.tgz:22045.got - 2010.04.16 14:36:59.
