data_PCOD8221097
_publ_section_title
;
Structure prediction by ZEFSAII (Michael W. Deem and Ramdas Pophale) SiO2 
 PCOD8221097
Probable space group: P M N A
;
_chemical_formula_sum "Si O2"
_cell_formula_units_Z 64
_cell_length_a 8.879738
_cell_length_b 14.958285
_cell_length_c 23.686563
_cell_angle_alpha 90.000000
_cell_angle_beta 90.000000
_cell_angle_gamma 90.000000
_cell_volume 3146.183168
_symmetry_space_group_name_H-M "P M N A"
_symmetry_group_IT_number 53
_symmetry_cell_setting 'orthorhombic'
loop_
_space_group_symop_operation_xyz
x,y,z
1/2-x,-y,1/2+z
x,-y,-z
1/2-x,y,1/2-z
-x,-y,-z
1/2+x,y,1/2-z
-x,y,z
1/2+x,-y,1/2+z
loop_
_atom_site_type_symbol
_atom_site_label
_atom_site_fract_x
_atom_site_fract_y
_atom_site_fract_z
Si Si1 0.669629 0.870688 0.012012
Si Si2 0.821316 0.227563 0.808696
Si Si3 0.675855 0.622835 0.117901
Si Si4 0.323630 0.107035 0.398717
Si Si5 0.824202 0.688834 0.883568
Si Si6 0.676199 0.452336 0.190875
Si Si7 0.668914 0.336422 0.004187
Si Si8 0.177337 0.936494 0.365307
O O1 0.500000 0.902109 0.997865
O O2 0.723603 0.907877 0.071743
O O3 0.776464 0.910178 0.963563
O O4 0.679450 0.764945 0.016012
O O5 0.750000 0.261138 0.750000
O O6 0.773039 0.296067 0.857460
O O7 0.760887 0.128188 0.821545
O O8 0.000000 0.225804 0.803602
O O9 0.500000 0.647539 0.125391
O O10 0.719498 0.531182 0.148172
O O11 0.714063 0.607222 0.051523
O O12 0.500000 0.091781 0.392420
O O13 0.275991 0.207355 0.381302
O O14 0.237161 0.037992 0.357450
O O15 0.739339 0.640815 0.832567
O O16 0.779132 0.644771 0.943612
O O17 0.000000 0.676080 0.875041
O O18 0.750000 0.476494 0.250000
O O19 0.500000 0.442591 0.199601
O O20 0.500000 0.360869 0.024438
O O21 0.000000 0.931155 0.353988
#
# Coordination Sequence:
#
# PCOD8221097 Si02
#       8
#     8   8   8   8   8   8   8   8
#     4   9  17  31  53  81 116 158 195 234 283 345
#     4  12  25  40  60  85 119 160 201 247 299 357
#     4  10  21  40  64  92 123 156 196 243 296 360
#     4  10  21  35  54  84 119 154 196 245 295 349
#     4  10  22  40  60  86 124 160 199 250 301 355
#     4  11  24  42  66  90 116 152 200 251 302 358
#     4   9  17  34  59  87 123 161 197 236 290 358
#     4  11  21  36  57  83 116 155 200 244 291 349
#
# _framework density 20.342109000000001
#
# number of rings (size 3 to 8) (size 9 to 14) (size 15 to 20)
#    0.000    1.750    1.250    3.375    0.000    7.000 
#    0.000    3.125    0.000    3.000    0.000    0.000 
#    0.000    0.000    0.000    0.000    0.000    0.000 
#
# Total GULP energy -793827.011429 kJ/mol
# GULP energy per Si atom -12403.547054 kJ/mol
# Density = 2.029581 g / cm^3
# Si number density = 20.342109 Si / 1000 Ang^3
#
#
#
# Elastic Constant Matrix: (Units=GPa)
#
#
# Indices 1 2 3 4 5 6 
#
# 1 92.7799 32.0348 24.3984 0.0000 0.0000 0.0000
# 2 32.0348 61.3538 20.4936 0.0000 0.0000 0.0000
# 3 24.3984 20.4936 42.8451 0.0000 0.0000 0.0000
# 4 0.0000 0.0000 0.0000 26.1892 0.0000 0.0000
# 5 0.0000 0.0000 0.0000 0.0000 35.8580 0.0000
# 6 0.0000 0.0000 0.0000 0.0000 0.0000 0.0131
#
#
#
# Elastic Compliance Matrix: (Units=1/GPa)
#
#
# Indices 1 2 3 4 5 6 
#
# 1 0.014116 -0.005576 -0.005371 0.000000 0.000000 0.000000
# 2 -0.005576 0.021601 -0.007157 0.000000 0.000000 0.000000
# 3 -0.005371 -0.007157 0.029822 0.000000 0.000000 0.000000
# 4 0.000000 0.000000 0.000000 0.038184 0.000000 0.000000
# 5 0.000000 0.000000 0.000000 0.000000 0.027888 0.000000
# 6 0.000000 0.000000 0.000000 0.000000 0.000000 76.520913
#
#
# Mechanical properties :
#
#
# Convention : Reuss Voigt Hill
#
# Bulk Modulus (GPa) = 34.09439 38.98138 36.53789
# Shear Modulus (GPa) = 0.06519 20.41551 10.24035
#
# Velocity S-wave (km/s) = 0.17921 3.17141 2.24611
# Velocity P-wave (km/s) = 4.10362 5.71095 4.97266
#
# Compressibility (1/GPa) = 0.02933034
#
# Stress axis : x y z
#
# Youngs Moduli (GPa) = 70.84127 46.29417 33.53259
#
# Poissons Ratio (x) = 0.25815 0.18011
# Poissons Ratio (y) = 0.39504 0.23998
# Poissons Ratio (z) = 0.38050 0.33131
#
# Static dielectric constant tensor:
#      x y z
#    x 3.628290 0.000000 0.000000 
#    y 0.000000 3.777630 0.000000 
#    z 0.000000 0.000000 3.646670 
# 
# 
# High freq. dielectric constant tensor:
#      x y z
#    x 1.792360 0.000000 0.000000 
#    y 0.000000 1.799770 0.000000 
#    z 0.000000 0.000000 1.783290 
# 
# From -- ./inp_files/34295.got.cif
#   From: 2010.03.12/outbox.cif.g09.slc.cpg/sg53_18_cif.got.tgz:34295.got - 2010.04.16 14:36:59.
