data_PCOD8221319
_publ_section_title
;
Structure prediction by ZEFSAII (Michael W. Deem and Ramdas Pophale) SiO2 
 PCOD8221319
Probable space group: P M N A
;
_chemical_formula_sum "Si O2"
_cell_formula_units_Z 48
_cell_length_a 30.152791
_cell_length_b 9.144414
_cell_length_c 9.470495
_cell_angle_alpha 90.000000
_cell_angle_beta 90.000000
_cell_angle_gamma 90.000000
_cell_volume 2611.295838
_symmetry_space_group_name_H-M "P M N A"
_symmetry_group_IT_number 53
_symmetry_cell_setting 'orthorhombic'
loop_
_space_group_symop_operation_xyz
x,y,z
1/2-x,-y,1/2+z
x,-y,-z
1/2-x,y,1/2-z
-x,-y,-z
1/2+x,y,1/2-z
-x,y,z
1/2+x,-y,1/2+z
loop_
_atom_site_type_symbol
_atom_site_label
_atom_site_fract_x
_atom_site_fract_y
_atom_site_fract_z
Si Si1 0.949401 0.171204 0.019866
Si Si2 0.615263 0.315704 0.278714
Si Si3 0.234095 0.855676 0.411116
Si Si4 0.687081 0.336006 0.497287
Si Si5 0.647911 0.331126 0.976169
Si Si6 0.394486 0.648771 0.305465
O O1 0.932939 0.259275 0.881390
O O2 0.000000 0.216477 0.046824
O O3 0.920714 0.205377 0.158587
O O4 0.944185 0.000000 0.000000
O O5 0.663260 0.299740 0.350230
O O6 0.624119 0.273141 0.117091
O O7 0.595606 0.475945 0.314559
O O8 0.250000 0.885857 0.250000
O O9 0.273141 0.775135 0.492152
O O10 0.190409 0.756886 0.421776
O O11 0.223862 0.000000 0.500000
O O12 0.706436 0.500000 0.500000
O O13 0.652424 0.314226 0.623459
O O14 0.662014 0.500000 0.000000
O O15 0.609591 0.311104 0.858960
#
# Coordination Sequence:
#
# PCOD8221319 Si02
#       6
#     8   8   8   8   8   8
#     4  10  21  37  59  86 115 148 181 217 272 343
#     4   9  20  35  61  85 107 141 185 235 279 332
#     4  12  26  38  51  79 117 153 192 237 273 327
#     4   9  18  36  58  77 103 146 192 232 276 319
#     4  10  21  40  60  81 109 147 191 236 285 328
#     4   9  18  37  59  84 108 140 187 233 279 325
#
# _framework density 18.381678000000001
#
# number of rings (size 3 to 8) (size 9 to 14) (size 15 to 20)
#    0.000    2.167    1.667    2.000    2.333    5.333 
#    0.000    0.833    0.000    5.000    0.000    0.000 
#    0.000    0.000    0.000    0.000    0.000    0.000 
#
# Total GULP energy -595061.983124 kJ/mol
# GULP energy per Si atom -12397.124648 kJ/mol
# Density = 1.833984 g / cm^3
# Si number density = 18.381678 Si / 1000 Ang^3
#
#
#
# Elastic Constant Matrix: (Units=GPa)
#
#
# Indices 1 2 3 4 5 6 
#
# 1 76.2225 36.8397 31.2267 0.0000 0.0000 0.0000
# 2 36.8397 62.9272 28.5140 0.0000 0.0000 0.0000
# 3 31.2267 28.5140 135.0646 0.0000 0.0000 0.0000
# 4 0.0000 0.0000 0.0000 22.5189 0.0000 0.0000
# 5 0.0000 0.0000 0.0000 0.0000 34.0285 0.0000
# 6 0.0000 0.0000 0.0000 0.0000 0.0000 30.2293
#
#
#
# Elastic Compliance Matrix: (Units=1/GPa)
#
#
# Indices 1 2 3 4 5 6 
#
# 1 0.018894 -0.010043 -0.002248 0.000000 0.000000 0.000000
# 2 -0.010043 0.022910 -0.002515 0.000000 0.000000 0.000000
# 3 -0.002248 -0.002515 0.008455 0.000000 0.000000 0.000000
# 4 0.000000 0.000000 0.000000 0.044407 0.000000 0.000000
# 5 0.000000 0.000000 0.000000 0.000000 0.029387 0.000000
# 6 0.000000 0.000000 0.000000 0.000000 0.000000 0.033081
#
#
# Mechanical properties :
#
#
# Convention : Reuss Voigt Hill
#
# Bulk Modulus (GPa) = 48.43138 51.93055 50.18097
# Shear Modulus (GPa) = 25.82275 29.19761 27.51018
#
# Velocity S-wave (km/s) = 3.75214 3.98981 3.87280
# Velocity P-wave (km/s) = 6.72133 7.03828 6.88163
#
# Compressibility (1/GPa) = 0.02064777
#
# Stress axis : x y z
#
# Youngs Moduli (GPa) = 52.92595 43.64864 118.27945
#
# Poissons Ratio (x) = 0.43835 0.26591
# Poissons Ratio (y) = 0.53152 0.29745
# Poissons Ratio (z) = 0.11899 0.10977
#
# Static dielectric constant tensor:
#      x y z
#    x 3.186410 0.000000 0.000000 
#    y 0.000000 3.369640 0.000000 
#    z 0.000000 0.000000 3.984080 
# 
# 
# High freq. dielectric constant tensor:
#      x y z
#    x 1.693910 0.000000 0.000000 
#    y 0.000000 1.711270 0.000000 
#    z 0.000000 0.000000 1.723280 
# 
# From -- ./inp_files/13033.got.cif
#   From: 2010.03.12/outbox.cif.g09.slc.cpg/sg53_7_cif.got.tgz:13033.got - 2010.04.16 14:36:59.
