data_PCOD8221835
_publ_section_title
;
Structure prediction by ZEFSAII (Michael W. Deem and Ramdas Pophale) SiO2 
 PCOD8221835
Probable space group: P M N A
;
_chemical_formula_sum "Si O2"
_cell_formula_units_Z 40
_cell_length_a 14.428667
_cell_length_b 8.887838
_cell_length_c 14.854548
_cell_angle_alpha 90.000000
_cell_angle_beta 90.000000
_cell_angle_gamma 90.000000
_cell_volume 1904.942109
_symmetry_space_group_name_H-M "P M N A"
_symmetry_group_IT_number 53
_symmetry_cell_setting 'orthorhombic'
loop_
_space_group_symop_operation_xyz
x,y,z
1/2-x,-y,1/2+z
x,-y,-z
1/2-x,y,1/2-z
-x,-y,-z
1/2+x,y,1/2-z
-x,y,z
1/2+x,-y,1/2+z
loop_
_atom_site_type_symbol
_atom_site_label
_atom_site_fract_x
_atom_site_fract_y
_atom_site_fract_z
Si Si1 0.000000 0.665520 0.954661
Si Si2 0.165997 0.133120 0.067747
Si Si3 0.500000 0.726492 0.223102
Si Si4 0.000000 0.610146 0.747932
Si Si5 0.356905 0.033869 0.743758
Si Si6 0.500000 0.678133 0.014759
Si Si7 0.363033 0.778094 0.875698
O O1 0.093164 0.756783 0.983427
O O2 0.000000 0.675409 0.847094
O O3 0.000000 0.500000 0.000000
O O4 0.252827 0.231840 0.105751
O O5 0.117452 0.058470 0.154205
O O6 0.198733 0.000000 0.000000
O O7 0.500000 0.565415 0.267451
O O8 0.409216 0.809548 0.258381
O O9 0.500000 0.717250 0.117194
O O10 0.906169 0.653332 0.692658
O O11 0.250000 0.073587 0.750000
O O12 0.388169 0.938538 0.831291
O O13 0.500000 0.500000 0.000000
O O14 0.409853 0.756295 0.972149
#
# Coordination Sequence:
#
# PCOD8221835 Si02
#       7
#     4   8   4   4   8   4   8
#     4  12  27  45  66  98 133 186 231 262 333 405
#     4  11  25  45  70  95 132 172 228 285 322 388
#     4  12  24  41  66  97 139 162 221 280 324 395
#     4  11  23  46  68  95 137 184 208 268 348 414
#     4  10  23  42  65  96 124 173 222 265 332 391
#     4  11  23  39  63 102 133 161 211 275 344 393
#     4  10  22  45  68  93 129 177 215 266 348 400
#
# _framework density 20.998014000000001
#
# number of rings (size 3 to 8) (size 9 to 14) (size 15 to 20)
#    0.000    1.200    4.000    2.100    8.400    1.600 
#    3.600    0.000    0.000    0.000    0.000    0.000 
#    0.000    0.000    0.000    0.000    0.000    0.000 
#
# Total GULP energy -495848.930654 kJ/mol
# GULP energy per Si atom -12396.223266 kJ/mol
# Density = 2.095022 g / cm^3
# Si number density = 20.998014 Si / 1000 Ang^3
#
#
#
# Elastic Constant Matrix: (Units=GPa)
#
#
# Indices 1 2 3 4 5 6 
#
# 1 125.6684 76.6733 25.9810 0.0000 0.0000 0.0000
# 2 76.6733 129.2264 13.1405 0.0000 0.0000 0.0000
# 3 25.9810 13.1405 77.4810 0.0000 0.0000 0.0000
# 4 0.0000 0.0000 0.0000 39.7420 0.0000 0.0000
# 5 0.0000 0.0000 0.0000 0.0000 39.6875 0.0000
# 6 0.0000 0.0000 0.0000 0.0000 0.0000 1.8171
#
#
#
# Elastic Compliance Matrix: (Units=1/GPa)
#
#
# Indices 1 2 3 4 5 6 
#
# 1 0.013187 -0.007504 -0.003149 0.000000 0.000000 0.000000
# 2 -0.007504 0.012144 0.000457 0.000000 0.000000 0.000000
# 3 -0.003149 0.000457 0.013885 0.000000 0.000000 0.000000
# 4 0.000000 0.000000 0.000000 0.025162 0.000000 0.000000
# 5 0.000000 0.000000 0.000000 0.000000 0.025197 0.000000
# 6 0.000000 0.000000 0.000000 0.000000 0.000000 0.550322
#
#
# Mechanical properties :
#
#
# Convention : Reuss Voigt Hill
#
# Bulk Modulus (GPa) = 53.12643 62.66282 57.89462
# Shear Modulus (GPa) = 7.50116 30.68805 19.09461
#
# Velocity S-wave (km/s) = 1.89211 3.82707 3.01882
# Velocity P-wave (km/s) = 5.48899 7.03105 6.30733
#
# Compressibility (1/GPa) = 0.01882302
#
# Stress axis : x y z
#
# Youngs Moduli (GPa) = 75.83347 82.34425 72.02046
#
# Poissons Ratio (x) = 0.61790 0.22681
# Poissons Ratio (y) = 0.56904 -0.03288
# Poissons Ratio (z) = 0.23881 -0.03760
#
# Static dielectric constant tensor:
#      x y z
#    x 3.770970 0.000000 0.000000 
#    y 0.000000 2.333060 0.000000 
#    z 0.000000 0.000000 3.824790 
# 
# 
# High freq. dielectric constant tensor:
#      x y z
#    x 1.823450 0.000000 0.000000 
#    y 0.000000 1.814110 0.000000 
#    z 0.000000 0.000000 1.830860 
# 
# From -- ./inp_files/22520.got.cif
#   From: 2010.03.12/outbox.cif.g09.slc.cpg/sg53_12_cif.got.tgz:22520.got - 2010.04.16 14:36:59.
