data_PCOD8221737
_publ_section_title
;
Structure prediction by ZEFSAII (Michael W. Deem and Ramdas Pophale) SiO2 
 PCOD8221737
Probable space group: P M N A
;
_chemical_formula_sum "Si O2"
_cell_formula_units_Z 48
_cell_length_a 15.384887
_cell_length_b 16.413780
_cell_length_c 9.548040
_cell_angle_alpha 90.000000
_cell_angle_beta 90.000000
_cell_angle_gamma 90.000000
_cell_volume 2411.110690
_symmetry_space_group_name_H-M "P M N A"
_symmetry_group_IT_number 53
_symmetry_cell_setting 'orthorhombic'
loop_
_space_group_symop_operation_xyz
x,y,z
1/2-x,-y,1/2+z
x,-y,-z
1/2-x,y,1/2-z
-x,-y,-z
1/2+x,y,1/2-z
-x,y,z
1/2+x,-y,1/2+z
loop_
_atom_site_type_symbol
_atom_site_label
_atom_site_fract_x
_atom_site_fract_y
_atom_site_fract_z
Si Si1 0.766032 0.423091 0.583614
Si Si2 0.904432 0.719319 0.481556
Si Si3 0.403326 0.345768 0.500325
Si Si4 0.848252 0.784910 0.216651
Si Si5 0.149516 0.222314 0.228249
Si Si6 0.897709 0.093593 0.007148
O O1 0.806860 0.500000 0.500000
O O2 0.750000 0.437242 0.750000
O O3 0.830609 0.348113 0.549953
O O4 0.672012 0.412505 0.510128
O O5 0.899342 0.789565 0.362820
O O6 0.893894 0.772679 0.620794
O O7 0.000000 0.677907 0.481055
O O8 0.500000 0.385593 0.502372
O O9 0.393944 0.286776 0.631828
O O10 0.393127 0.294588 0.359352
O O11 0.750000 0.759953 0.250000
O O12 0.851742 0.867821 0.128724
O O13 0.250000 0.238833 0.250000
O O14 0.134374 0.135384 0.151595
O O15 0.000000 0.106038 0.994038
O O16 0.869824 0.000000 0.000000
#
# Coordination Sequence:
#
# PCOD8221737 Si02
#       6
#     8   8   8   8   8   8
#     4  12  27  44  63  93 128 166 204 261 321 372
#     4  12  22  39  65  93 124 161 210 263 312 364
#     4  11  21  41  66  88 119 165 213 250 303 379
#     4  11  19  38  64  90 118 160 211 255 305 367
#     4  11  21  38  64  93 123 161 210 262 303 369
#     4  10  22  40  60  89 129 169 210 254 305 373
#
# _framework density 19.907837000000001
#
# number of rings (size 3 to 8) (size 9 to 14) (size 15 to 20)
#    0.000    0.833    5.000    5.000    2.333    1.333 
#    0.000    0.833    0.000    3.000    0.000    0.000 
#    0.000    0.000    0.000    0.000    0.000    0.000 
#
# Total GULP energy -594972.782981 kJ/mol
# GULP energy per Si atom -12395.266312 kJ/mol
# Density = 1.986253 g / cm^3
# Si number density = 19.907837 Si / 1000 Ang^3
#
#
#
# Elastic Constant Matrix: (Units=GPa)
#
#
# Indices 1 2 3 4 5 6 
#
# 1 136.5279 21.6702 29.5500 0.0000 0.0000 0.0000
# 2 21.6702 90.6915 55.0075 0.0000 0.0000 0.0000
# 3 29.5500 55.0075 170.7962 0.0000 0.0000 0.0000
# 4 0.0000 0.0000 0.0000 -4.8395 0.0000 0.0000
# 5 0.0000 0.0000 0.0000 0.0000 22.4588 0.0000
# 6 0.0000 0.0000 0.0000 0.0000 0.0000 29.8345
#
#
#
# Elastic Compliance Matrix: (Units=1/GPa)
#
#
# Indices 1 2 3 4 5 6 
#
# 1 0.007728 -0.001287 -0.000923 0.000000 0.000000 0.000000
# 2 -0.001287 0.013918 -0.004260 0.000000 0.000000 0.000000
# 3 -0.000923 -0.004260 0.007386 0.000000 0.000000 0.000000
# 4 0.000000 0.000000 0.000000 -0.206632 0.000000 0.000000
# 5 0.000000 0.000000 0.000000 0.000000 0.044526 0.000000
# 6 0.000000 0.000000 0.000000 0.000000 0.000000 0.033518
#
#
# Mechanical properties :
#
#
# Convention : Reuss Voigt Hill
#
# Bulk Modulus (GPa) = 62.13585 67.83011 64.98298
# Shear Modulus (GPa) = -61.53703 28.94327 -16.29688
#
# Velocity S-wave (km/s) = -5.56579 3.81709 -2.86425
# Velocity P-wave (km/s) = 3.16616 7.31935 4.66628
#
# Compressibility (1/GPa) = 0.01609377
#
# Stress axis : x y z
#
# Youngs Moduli (GPa) = 129.39138 71.85164 135.38310
#
# Poissons Ratio (x) = 0.09248 0.12491
# Poissons Ratio (y) = 0.16654 0.57669
# Poissons Ratio (z) = 0.11938 0.30606
#
# Static dielectric constant tensor:
#      x y z
#    x 3.958610 0.000000 0.000000 
#    y 0.000000 3.416100 0.000000 
#    z 0.000000 0.000000 -3.414910 
# 
# 
# High freq. dielectric constant tensor:
#      x y z
#    x 1.791150 0.000000 0.000000 
#    y 0.000000 1.742760 0.000000 
#    z 0.000000 0.000000 1.795590 
# 
# From -- ./inp_files/8623.got.cif
#   From: 2010.03.12/outbox.cif.g09.slc.cpg/sg53_5_cif.got.tgz:8623.got - 2010.04.16 14:36:59.
