data_PCOD8221725
_publ_section_title
;
Structure prediction by ZEFSAII (Michael W. Deem and Ramdas Pophale) SiO2 
 PCOD8221725
Probable space group: P M N A
;
_chemical_formula_sum "Si O2"
_cell_formula_units_Z 48
_cell_length_a 14.913108
_cell_length_b 7.762803
_cell_length_c 19.775893
_cell_angle_alpha 90.000000
_cell_angle_beta 90.000000
_cell_angle_gamma 90.000000
_cell_volume 2289.406079
_symmetry_space_group_name_H-M "P M N A"
_symmetry_group_IT_number 53
_symmetry_cell_setting 'orthorhombic'
loop_
_space_group_symop_operation_xyz
x,y,z
1/2-x,-y,1/2+z
x,-y,-z
1/2-x,y,1/2-z
-x,-y,-z
1/2+x,y,1/2-z
-x,y,z
1/2+x,-y,1/2+z
loop_
_atom_site_type_symbol
_atom_site_label
_atom_site_fract_x
_atom_site_fract_y
_atom_site_fract_z
Si Si1 0.741699 0.147940 0.050253
Si Si2 0.670051 0.369260 0.550112
Si Si3 0.102535 0.746475 0.656156
Si Si4 0.897931 0.952943 0.119604
Si Si5 0.896856 0.091101 0.728045
Si Si6 0.706856 0.408302 0.821354
O O1 0.655344 0.180643 0.093470
O O2 0.830334 0.101558 0.094948
O O3 0.755176 0.315063 0.004506
O O4 0.714157 0.000000 0.000000
O O5 0.614702 0.500000 0.500000
O O6 0.605936 0.209971 0.568967
O O7 0.721097 0.435457 0.617921
O O8 0.131172 0.554490 0.675368
O O9 0.000000 0.739136 0.635004
O O10 0.119171 0.888021 0.715032
O O11 0.869160 0.882613 0.193556
O O12 0.000000 0.025094 0.120541
O O13 0.837167 0.216113 0.679875
O O14 0.000000 0.142633 0.716043
O O15 0.750000 0.446310 0.750000
#
# Coordination Sequence:
#
# PCOD8221725 Si02
#       6
#     8   8   8   8   8   8
#     4  10  22  39  65  89 131 170 219 269 327 397
#     4  11  22  40  61  95 128 171 221 268 327 399
#     4  11  25  42  66 100 133 173 223 273 328 396
#     4  10  22  41  65  95 132 176 220 276 336 394
#     4  10  22  41  65  97 132 169 222 273 327 397
#     4  12  24  41  70  93 130 180 219 273 334 390
#
# _framework density 20.966137
#
# number of rings (size 3 to 8) (size 9 to 14) (size 15 to 20)
#    0.000    1.333    3.333    2.500    2.333    3.667 
#    0.000    2.500    0.000    0.000    0.000    0.000 
#    0.000    0.000    0.000    0.000    0.000    0.000 
#
# Total GULP energy -594793.841023 kJ/mol
# GULP energy per Si atom -12391.538355 kJ/mol
# Density = 2.091842 g / cm^3
# Si number density = 20.966137 Si / 1000 Ang^3
#
#
#
# Elastic Constant Matrix: (Units=GPa)
#
#
# Indices 1 2 3 4 5 6 
#
# 1 97.3462 30.8926 37.7932 0.0000 0.0000 0.0000
# 2 30.8926 85.4302 16.7627 0.0000 0.0000 0.0000
# 3 37.7932 16.7627 108.8923 0.0000 0.0000 0.0000
# 4 0.0000 0.0000 0.0000 31.1305 0.0000 0.0000
# 5 0.0000 0.0000 0.0000 0.0000 25.5235 0.0000
# 6 0.0000 0.0000 0.0000 0.0000 0.0000 39.7464
#
#
#
# Elastic Compliance Matrix: (Units=1/GPa)
#
#
# Indices 1 2 3 4 5 6 
#
# 1 0.013048 -0.003949 -0.003921 0.000000 0.000000 0.000000
# 2 -0.003949 0.013265 -0.000671 0.000000 0.000000 0.000000
# 3 -0.003921 -0.000671 0.010647 0.000000 0.000000 0.000000
# 4 0.000000 0.000000 0.000000 0.032123 0.000000 0.000000
# 5 0.000000 0.000000 0.000000 0.000000 0.039180 0.000000
# 6 0.000000 0.000000 0.000000 0.000000 0.000000 0.025160
#
#
# Mechanical properties :
#
#
# Convention : Reuss Voigt Hill
#
# Bulk Modulus (GPa) = 50.30570 51.39619 50.85095
# Shear Modulus (GPa) = 31.82059 33.02809 32.42434
#
# Velocity S-wave (km/s) = 3.90001 3.97332 3.93684
# Velocity P-wave (km/s) = 6.65778 6.75402 6.70607
#
# Compressibility (1/GPa) = 0.01987846
#
# Stress axis : x y z
#
# Youngs Moduli (GPa) = 76.64033 75.38508 93.91892
#
# Poissons Ratio (x) = 0.29770 0.36822
# Poissons Ratio (y) = 0.30265 0.06306
# Poissons Ratio (z) = 0.30048 0.05062
#
# Static dielectric constant tensor:
#      x y z
#    x 3.591080 0.000000 0.000000 
#    y 0.000000 3.709290 0.000000 
#    z 0.000000 0.000000 3.967080 
# 
# 
# High freq. dielectric constant tensor:
#      x y z
#    x 1.808660 0.000000 0.000000 
#    y 0.000000 1.828430 0.000000 
#    z 0.000000 0.000000 1.832710 
# 
# From -- ./inp_files/28240.got.cif
#   From: 2010.03.12/outbox.cif.g09.slc.cpg/sg53_15_cif.got.tgz:28240.got - 2010.04.16 14:36:59.
