data_PCOD8221421
_publ_section_title
;
Structure prediction by ZEFSAII (Michael W. Deem and Ramdas Pophale) SiO2 
 PCOD8221421
Probable space group: P M N A
;
_chemical_formula_sum "Si O2"
_cell_formula_units_Z 48
_cell_length_a 8.853337
_cell_length_b 14.675713
_cell_length_c 19.216025
_cell_angle_alpha 90.000000
_cell_angle_beta 90.000000
_cell_angle_gamma 90.000000
_cell_volume 2496.719545
_symmetry_space_group_name_H-M "P M N A"
_symmetry_group_IT_number 53
_symmetry_cell_setting 'orthorhombic'
loop_
_space_group_symop_operation_xyz
x,y,z
1/2-x,-y,1/2+z
x,-y,-z
1/2-x,y,1/2-z
-x,-y,-z
1/2+x,y,1/2-z
-x,y,z
1/2+x,-y,1/2+z
loop_
_atom_site_type_symbol
_atom_site_label
_atom_site_fract_x
_atom_site_fract_y
_atom_site_fract_z
Si Si1 0.823459 0.136118 0.821683
Si Si2 0.674543 0.613018 0.676717
Si Si3 0.826395 0.452679 0.929861
Si Si4 0.177131 0.074647 0.178019
Si Si5 0.178336 0.225339 0.408177
Si Si6 0.677237 0.736167 0.066028
O O1 0.750000 0.170865 0.750000
O O2 0.758892 0.190854 0.886158
O O3 0.000000 0.153557 0.815849
O O4 0.784136 0.030697 0.834682
O O5 0.750000 0.593489 0.750000
O O6 0.500000 0.639899 0.685673
O O7 0.693868 0.520993 0.633601
O O8 0.758612 0.695201 0.639712
O O9 0.727104 0.364849 0.912589
O O10 0.000000 0.422740 0.940241
O O11 0.765138 0.500000 0.000000
O O12 0.250000 0.109395 0.250000
O O13 0.249397 0.129537 0.114233
O O14 0.000000 0.093197 0.181628
O O15 0.226814 0.244192 0.487151
O O16 0.000000 0.220290 0.399435
O O17 0.500000 0.745908 0.076825
#
# Coordination Sequence:
#
# PCOD8221421 Si02
#       6
#     8   8   8   8   8   8
#     4  10  22  41  64  88 118 155 199 248 297 353
#     4  11  23  39  61  88 119 154 196 246 296 352
#     4  10  21  40  63  85 114 156 200 244 295 350
#     4  10  21  38  61  87 117 157 199 245 298 351
#     4  11  23  38  58  87 122 159 197 241 294 353
#     4  11  24  39  61  90 121 158 197 244 299 354
#
# _framework density 19.225227
#
# number of rings (size 3 to 8) (size 9 to 14) (size 15 to 20)
#    0.000    1.500    1.667    3.000    0.000    7.000 
#    0.000    5.000    0.000    0.000    0.000    0.000 
#    0.000    0.000    0.000    0.000    0.000    0.000 
#
# Total GULP energy -595529.888882 kJ/mol
# GULP energy per Si atom -12406.872685 kJ/mol
# Density = 1.918147 g / cm^3
# Si number density = 19.225227 Si / 1000 Ang^3
#
#
#
# Elastic Constant Matrix: (Units=GPa)
#
#
# Indices 1 2 3 4 5 6 
#
# 1 88.3541 47.9900 53.2393 0.0000 0.0000 0.0000
# 2 47.9900 97.4443 56.3401 0.0000 0.0000 0.0000
# 3 53.2393 56.3401 126.7180 0.0000 0.0000 0.0000
# 4 0.0000 0.0000 0.0000 35.0273 0.0000 0.0000
# 5 0.0000 0.0000 0.0000 0.0000 36.0484 0.0000
# 6 0.0000 0.0000 0.0000 0.0000 0.0000 32.9935
#
#
#
# Elastic Compliance Matrix: (Units=1/GPa)
#
#
# Indices 1 2 3 4 5 6 
#
# 1 0.017296 -0.005810 -0.004683 0.000000 0.000000 0.000000
# 2 -0.005810 0.015765 -0.004568 0.000000 0.000000 0.000000
# 3 -0.004683 -0.004568 0.011890 0.000000 0.000000 0.000000
# 4 0.000000 0.000000 0.000000 0.028549 0.000000 0.000000
# 5 0.000000 0.000000 0.000000 0.000000 0.027740 0.000000
# 6 0.000000 0.000000 0.000000 0.000000 0.000000 0.030309
#
#
# Mechanical properties :
#
#
# Convention : Reuss Voigt Hill
#
# Bulk Modulus (GPa) = 67.44171 69.73946 68.59059
# Shear Modulus (GPa) = 30.00911 31.14364 30.57638
#
# Velocity S-wave (km/s) = 3.95514 4.02921 3.99235
# Velocity P-wave (km/s) = 7.48421 7.61576 7.55027
#
# Compressibility (1/GPa) = 0.01482762
#
# Stress axis : x y z
#
# Youngs Moduli (GPa) = 57.81671 63.43202 84.10211
#
# Poissons Ratio (x) = 0.36855 0.39389
# Poissons Ratio (y) = 0.33593 0.38419
# Poissons Ratio (z) = 0.27078 0.28977
#
# Static dielectric constant tensor:
#      x y z
#    x 3.660400 0.000000 0.000000 
#    y 0.000000 3.540050 0.000000 
#    z 0.000000 0.000000 3.687690 
# 
# 
# High freq. dielectric constant tensor:
#      x y z
#    x 1.761370 0.000000 0.000000 
#    y 0.000000 1.754760 0.000000 
#    z 0.000000 0.000000 1.755030 
# 
# From -- ./inp_files/26169.got.cif
#   From: 2010.03.12/outbox.cif.g09.slc.cpg/sg53_14_cif.got.tgz:26169.got - 2010.04.16 14:36:59.
