data_PCOD8221716
_publ_section_title
;
Structure prediction by ZEFSAII (Michael W. Deem and Ramdas Pophale) SiO2 
 PCOD8221716
Probable space group: P M N A
;
_chemical_formula_sum "Si O2"
_cell_formula_units_Z 56
_cell_length_a 15.349707
_cell_length_b 8.317845
_cell_length_c 21.401250
_cell_angle_alpha 90.000000
_cell_angle_beta 90.000000
_cell_angle_gamma 90.000000
_cell_volume 2732.436345
_symmetry_space_group_name_H-M "P M N A"
_symmetry_group_IT_number 53
_symmetry_cell_setting 'orthorhombic'
loop_
_space_group_symop_operation_xyz
x,y,z
1/2-x,-y,1/2+z
x,-y,-z
1/2-x,y,1/2-z
-x,-y,-z
1/2+x,y,1/2-z
-x,y,z
1/2+x,-y,1/2+z
loop_
_atom_site_type_symbol
_atom_site_label
_atom_site_fract_x
_atom_site_fract_y
_atom_site_fract_z
Si Si1 0.307911 0.182514 0.505415
Si Si2 0.239314 0.999263 0.320436
Si Si3 0.098385 0.488016 0.794314
Si Si4 0.218894 0.684849 0.877114
Si Si5 0.596174 0.819979 0.375247
Si Si6 0.402131 0.722135 0.177701
Si Si7 0.832934 0.582829 0.438730
O O1 0.334980 0.260147 0.438983
O O2 0.391976 0.191117 0.550058
O O3 0.228569 0.274540 0.538190
O O4 0.275204 0.000000 0.500000
O O5 0.250000 0.050807 0.250000
O O6 0.220138 0.164085 0.357679
O O7 0.330877 0.930408 0.344481
O O8 0.160472 0.874957 0.326366
O O9 0.156857 0.636971 0.818552
O O10 0.103444 0.358691 0.849140
O O11 0.132807 0.406243 0.729544
O O12 0.000000 0.550954 0.783872
O O13 0.278943 0.537933 0.895737
O O14 0.500000 0.891727 0.361161
O O15 0.500000 0.775796 0.196953
O O16 0.406704 0.647214 0.108152
O O17 0.875599 0.500000 0.500000
#
# Coordination Sequence:
#
# PCOD8221716 Si02
#       7
#     8   8   8   8   8   8   8
#     4  11  20  39  62  91 129 172 216 253 311 377
#     4  12  24  40  65  92 124 170 208 261 320 375
#     4  10  22  39  61  92 129 165 211 260 312 381
#     4  11  23  38  63  93 130 167 211 256 317 383
#     4  11  22  39  63  94 130 172 215 254 307 385
#     4  11  23  43  68  91 123 168 216 266 321 379
#     4  10  22  39  64  94 126 164 214 265 317 380
#
# _framework density 20.494530999999998
#
# number of rings (size 3 to 8) (size 9 to 14) (size 15 to 20)
#    0.000    1.143    5.714    0.000    2.000    1.714 
#    0.000    2.143    0.000    8.143    0.000    0.000 
#    0.000    0.000    0.000    0.000    0.000    0.000 
#
# Total GULP energy -694151.938075 kJ/mol
# GULP energy per Si atom -12395.570323 kJ/mol
# Density = 2.044788 g / cm^3
# Si number density = 20.494531 Si / 1000 Ang^3
#
#
#
# Elastic Constant Matrix: (Units=GPa)
#
#
# Indices 1 2 3 4 5 6 
#
# 1 79.5699 39.6835 42.0529 0.0000 0.0000 0.0000
# 2 39.6835 99.8246 46.5982 0.0000 0.0000 0.0000
# 3 42.0529 46.5982 141.3317 0.0000 0.0000 0.0000
# 4 0.0000 0.0000 0.0000 38.3562 0.0000 0.0000
# 5 0.0000 0.0000 0.0000 0.0000 20.9078 0.0000
# 6 0.0000 0.0000 0.0000 0.0000 0.0000 11.9867
#
#
#
# Elastic Compliance Matrix: (Units=1/GPa)
#
#
# Indices 1 2 3 4 5 6 
#
# 1 0.016902 -0.005167 -0.003326 0.000000 0.000000 0.000000
# 2 -0.005167 0.013419 -0.002887 0.000000 0.000000 0.000000
# 3 -0.003326 -0.002887 0.009017 0.000000 0.000000 0.000000
# 4 0.000000 0.000000 0.000000 0.026071 0.000000 0.000000
# 5 0.000000 0.000000 0.000000 0.000000 0.047829 0.000000
# 6 0.000000 0.000000 0.000000 0.000000 0.000000 0.083426
#
#
# Mechanical properties :
#
#
# Convention : Reuss Voigt Hill
#
# Bulk Modulus (GPa) = 60.31605 64.15504 62.23554
# Shear Modulus (GPa) = 22.22721 27.07626 24.65174
#
# Velocity S-wave (km/s) = 3.29681 3.63870 3.47197
# Velocity P-wave (km/s) = 6.63221 7.00178 6.81950
#
# Compressibility (1/GPa) = 0.01657933
#
# Stress axis : x y z
#
# Youngs Moduli (GPa) = 59.16491 74.52025 110.90184
#
# Poissons Ratio (x) = 0.38502 0.36882
# Poissons Ratio (y) = 0.30568 0.32018
# Poissons Ratio (z) = 0.19676 0.21515
#
# Static dielectric constant tensor:
#      x y z
#    x 3.463640 0.000000 0.000000 
#    y 0.000000 3.768720 0.000000 
#    z 0.000000 0.000000 4.306130 
# 
# 
# High freq. dielectric constant tensor:
#      x y z
#    x 1.767390 0.000000 0.000000 
#    y 0.000000 1.799940 0.000000 
#    z 0.000000 0.000000 1.827870 
# 
# From -- ./inp_files/32459.got.cif
#   From: 2010.03.12/outbox.cif.g09.slc.cpg/sg53_17_cif.got.tgz:32459.got - 2010.04.16 14:36:59.
