data_PCOD8221329
_publ_section_title
;
Structure prediction by ZEFSAII (Michael W. Deem and Ramdas Pophale) SiO2 
 PCOD8221329
Probable space group: P M N A
;
_chemical_formula_sum "Si O2"
_cell_formula_units_Z 64
_cell_length_a 8.947629
_cell_length_b 15.363755
_cell_length_c 23.596241
_cell_angle_alpha 90.000000
_cell_angle_beta 90.000000
_cell_angle_gamma 90.000000
_cell_volume 3243.755896
_symmetry_space_group_name_H-M "P M N A"
_symmetry_group_IT_number 53
_symmetry_cell_setting 'orthorhombic'
loop_
_space_group_symop_operation_xyz
x,y,z
1/2-x,-y,1/2+z
x,-y,-z
1/2-x,y,1/2-z
-x,-y,-z
1/2+x,y,1/2-z
-x,y,z
1/2+x,-y,1/2+z
loop_
_atom_site_type_symbol
_atom_site_label
_atom_site_fract_x
_atom_site_fract_y
_atom_site_fract_z
Si Si1 0.675923 0.651387 0.502980
Si Si2 0.825399 0.910192 0.124691
Si Si3 0.825065 0.246684 0.309734
Si Si4 0.677557 0.753529 0.189592
Si Si5 0.326359 0.850186 0.501792
Si Si6 0.828095 0.595196 0.615728
Si Si7 0.671489 0.598970 0.108719
Si Si8 0.676090 0.913784 0.888529
O O1 0.500000 0.644740 0.501441
O O2 0.729515 0.751053 0.500482
O O3 0.733727 0.606194 0.559231
O O4 0.737070 0.600018 0.449155
O O5 0.737925 0.841835 0.162825
O O6 0.000000 0.905628 0.139751
O O7 0.760420 0.004760 0.139709
O O8 0.795462 0.891913 0.058920
O O9 0.750000 0.229743 0.250000
O O10 0.770453 0.338872 0.335749
O O11 0.777127 0.171056 0.353006
O O12 0.000000 0.246663 0.299257
O O13 0.750000 0.738358 0.250000
O O14 0.500000 0.758478 0.195242
O O15 0.730869 0.672031 0.151632
O O16 0.500000 0.857596 0.518839
O O17 0.229155 0.902658 0.546973
O O18 0.808488 0.496135 0.637431
O O19 0.000000 0.616802 0.601181
O O20 0.500000 0.617059 0.093256
O O21 0.500000 0.930633 0.887438
#
# Coordination Sequence:
#
# PCOD8221329 Si02
#       8
#     8   8   8   8   8   8   8   8
#     4  11  21  35  59  91 124 156 195 243 295 351
#     4  11  23  41  63  89 122 159 194 244 300 355
#     4  10  23  41  61  84 115 153 198 245 292 344
#     4  11  24  42  63  88 117 156 203 250 298 352
#     4  10  21  37  59  88 122 158 194 239 300 356
#     4  10  21  40  61  87 121 158 197 241 295 356
#     4  10  22  39  62  88 120 159 197 240 296 356
#     4  11  23  39  61  91 121 156 199 246 294 356
#
# _framework density 19.730215999999999
#
# number of rings (size 3 to 8) (size 9 to 14) (size 15 to 20)
#    0.000    1.500    2.500    2.250    0.000    8.000 
#    0.000    1.250    0.000    0.000    0.000    0.000 
#    0.000    0.000    0.000    0.000    0.000    0.000 
#
# Total GULP energy -793938.799918 kJ/mol
# GULP energy per Si atom -12405.293749 kJ/mol
# Density = 1.968531 g / cm^3
# Si number density = 19.730216 Si / 1000 Ang^3
#
#
#
# Elastic Constant Matrix: (Units=GPa)
#
#
# Indices 1 2 3 4 5 6 
#
# 1 51.1290 14.9339 22.8269 0.0000 0.0000 0.0000
# 2 14.9339 91.7192 7.0964 0.0000 0.0000 0.0000
# 3 22.8269 7.0964 81.8573 0.0000 0.0000 0.0000
# 4 0.0000 0.0000 0.0000 14.3918 0.0000 0.0000
# 5 0.0000 0.0000 0.0000 0.0000 26.0640 0.0000
# 6 0.0000 0.0000 0.0000 0.0000 0.0000 2228.5518
#
#
#
# Elastic Compliance Matrix: (Units=1/GPa)
#
#
# Indices 1 2 3 4 5 6 
#
# 1 0.023299 -0.003313 -0.006210 0.000000 0.000000 0.000000
# 2 -0.003313 0.011448 -0.000069 0.000000 0.000000 0.000000
# 3 -0.006210 -0.000069 0.013954 0.000000 0.000000 0.000000
# 4 0.000000 0.000000 0.000000 0.069484 0.000000 0.000000
# 5 0.000000 0.000000 0.000000 0.000000 0.038367 0.000000
# 6 0.000000 0.000000 0.000000 0.000000 0.000000 0.000449
#
#
# Mechanical properties :
#
#
# Convention : Reuss Voigt Hill
#
# Bulk Modulus (GPa) = 33.87851 34.93554 34.40702
# Shear Modulus (GPa) = 26.87859 465.79141 246.33500
#
# Velocity S-wave (km/s) = 3.69495 15.38157 11.18583
# Velocity P-wave (km/s) = 5.95077 18.25382 13.57597
#
# Compressibility (1/GPa) = 0.02951723
#
# Stress axis : x y z
#
# Youngs Moduli (GPa) = 42.92121 87.35471 71.66394
#
# Poissons Ratio (x) = 0.28941 0.44502
# Poissons Ratio (y) = 0.14220 0.00491
# Poissons Ratio (z) = 0.26653 0.00599
#
# Static dielectric constant tensor:
#      x y z
#    x 3.573720 0.000000 0.000000 
#    y 0.000000 3.900660 0.000000 
#    z 0.000000 0.000000 3.498910 
# 
# 
# High freq. dielectric constant tensor:
#      x y z
#    x 1.769290 0.000000 0.000000 
#    y 0.000000 1.788470 0.000000 
#    z 0.000000 0.000000 1.760860 
# 
# From -- ./inp_files/34143.got.cif
#   From: 2010.03.12/outbox.cif.g09.slc.cpg/sg53_18_cif.got.tgz:34143.got - 2010.04.16 14:36:59.
