data_PCOD8221704
_publ_section_title
;
Structure prediction by ZEFSAII (Michael W. Deem and Ramdas Pophale) SiO2 
 PCOD8221704
Probable space group: P M N A
;
_chemical_formula_sum "Si O2"
_cell_formula_units_Z 40
_cell_length_a 8.691975
_cell_length_b 26.133247
_cell_length_c 9.169961
_cell_angle_alpha 90.000000
_cell_angle_beta 90.000000
_cell_angle_gamma 90.000000
_cell_volume 2082.952328
_symmetry_space_group_name_H-M "P M N A"
_symmetry_group_IT_number 53
_symmetry_cell_setting 'orthorhombic'
loop_
_space_group_symop_operation_xyz
x,y,z
1/2-x,-y,1/2+z
x,-y,-z
1/2-x,y,1/2-z
-x,-y,-z
1/2+x,y,1/2-z
-x,y,z
1/2+x,-y,1/2+z
loop_
_atom_site_type_symbol
_atom_site_label
_atom_site_fract_x
_atom_site_fract_y
_atom_site_fract_z
Si Si1 0.180122 0.842393 0.908792
Si Si2 0.320394 0.953735 0.592415
Si Si3 0.181975 0.259975 0.412103
Si Si4 0.682257 0.352420 0.590679
Si Si5 0.681369 0.548372 0.590142
O O1 0.250000 0.847388 0.750000
O O2 0.210075 0.897958 0.984294
O O3 0.266897 0.794571 0.984160
O O4 0.000000 0.829557 0.900047
O O5 0.250000 0.955901 0.750000
O O6 0.500000 0.962736 0.610965
O O7 0.246076 0.000000 0.500000
O O8 0.250000 0.266742 0.250000
O O9 0.245633 0.302543 0.519152
O O10 0.000000 0.263791 0.402890
O O11 0.750000 0.360845 0.750000
O O12 0.500000 0.346383 0.600103
O O13 0.732302 0.400548 0.493243
O O14 0.746158 0.500000 0.500000
O O15 0.750000 0.548715 0.750000
O O16 0.500000 0.544662 0.605292
#
# Coordination Sequence:
#
# PCOD8221704 Si02
#       5
#     8   8   8   8   8
#     4   9  16  29  50  74 102 135 174 219 266 317
#     4   9  18  32  50  74 103 135 172 216 264 316
#     4  11  21  35  56  81 108 139 180 226 272 322
#     4  11  23  39  58  82 113 147 184 224 271 324
#     4  10  22  39  60  87 116 147 184 225 269 319
#
# _framework density 19.203513000000001
#
# number of rings (size 3 to 8) (size 9 to 14) (size 15 to 20)
#    0.000    2.000    0.000    5.400    0.000    4.800 
#    0.000    1.000    0.000    2.400    0.000    0.000 
#    0.000    0.000    0.000    0.000    0.000    0.000 
#
# Total GULP energy -495794.897211 kJ/mol
# GULP energy per Si atom -12394.872430 kJ/mol
# Density = 1.915980 g / cm^3
# Si number density = 19.203513 Si / 1000 Ang^3
#
#
#
# Elastic Constant Matrix: (Units=GPa)
#
#
# Indices 1 2 3 4 5 6 
#
# 1 82.6713 59.2253 42.1663 0.0000 0.0000 0.0000
# 2 59.2253 195.6065 81.2092 0.0000 0.0000 0.0000
# 3 42.1663 81.2092 114.8311 0.0000 0.0000 0.0000
# 4 0.0000 0.0000 0.0000 -2.4874 0.0000 0.0000
# 5 0.0000 0.0000 0.0000 0.0000 28.5588 0.0000
# 6 0.0000 0.0000 0.0000 0.0000 0.0000 58.8449
#
#
#
# Elastic Compliance Matrix: (Units=1/GPa)
#
#
# Indices 1 2 3 4 5 6 
#
# 1 0.016412 -0.003493 -0.003557 0.000000 0.000000 0.000000
# 2 -0.003493 0.007980 -0.004361 0.000000 0.000000 0.000000
# 3 -0.003557 -0.004361 0.013099 0.000000 0.000000 0.000000
# 4 0.000000 0.000000 0.000000 -0.402019 0.000000 0.000000
# 5 0.000000 0.000000 0.000000 0.000000 0.035015 0.000000
# 6 0.000000 0.000000 0.000000 0.000000 0.000000 0.016994
#
#
# Mechanical properties :
#
#
# Convention : Reuss Voigt Hill
#
# Bulk Modulus (GPa) = 68.16469 84.25670 76.21069
# Shear Modulus (GPa) = -17.55573 31.01713 6.73070
#
# Velocity S-wave (km/s) = -3.02684 4.02329 1.87418
# Velocity P-wave (km/s) = 4.83294 8.09651 6.66748
#
# Compressibility (1/GPa) = 0.01467035
#
# Stress axis : x y z
#
# Youngs Moduli (GPa) = 60.93005 125.30561 76.34303
#
# Poissons Ratio (x) = 0.43765 0.27152
# Poissons Ratio (y) = 0.21281 0.33296
# Poissons Ratio (z) = 0.21670 0.54650
#
# Static dielectric constant tensor:
#      x y z
#    x 3.573130 0.000000 0.000000 
#    y 0.000000 4.484120 0.000000 
#    z 0.000000 0.000000 3.330910 
# 
# 
# High freq. dielectric constant tensor:
#      x y z
#    x 1.753030 0.000000 0.000000 
#    y 0.000000 1.778380 0.000000 
#    z 0.000000 0.000000 1.716500 
# 
# From -- ./inp_files/6292.got.cif
#   From: 2010.03.12/outbox.cif.g09.slc.cpg/sg53_4_cif.got.tgz:6292.got - 2010.04.16 14:36:59.
