data_PCOD8221750
_publ_section_title
;
Structure prediction by ZEFSAII (Michael W. Deem and Ramdas Pophale) SiO2 
 PCOD8221750
Probable space group: P M N A
;
_chemical_formula_sum "Si O2"
_cell_formula_units_Z 48
_cell_length_a 8.693310
_cell_length_b 16.581067
_cell_length_c 15.689088
_cell_angle_alpha 90.000000
_cell_angle_beta 90.000000
_cell_angle_gamma 90.000000
_cell_volume 2261.493479
_symmetry_space_group_name_H-M "P M N A"
_symmetry_group_IT_number 53
_symmetry_cell_setting 'orthorhombic'
loop_
_space_group_symop_operation_xyz
x,y,z
1/2-x,-y,1/2+z
x,-y,-z
1/2-x,y,1/2-z
-x,-y,-z
1/2+x,y,1/2-z
-x,y,z
1/2+x,-y,1/2+z
loop_
_atom_site_type_symbol
_atom_site_label
_atom_site_fract_x
_atom_site_fract_y
_atom_site_fract_z
Si Si1 0.318378 0.007762 0.340287
Si Si2 0.180089 0.840562 0.582452
Si Si3 0.324625 0.163528 0.591856
Si Si4 0.322387 0.594590 0.995176
Si Si5 0.824322 0.667554 0.162285
Si Si6 0.818099 0.687589 0.838636
O O1 0.250000 0.032326 0.250000
O O2 0.500000 0.013156 0.336596
O O3 0.254115 0.071042 0.408504
O O4 0.262685 0.918326 0.365390
O O5 0.216776 0.811602 0.486930
O O6 0.253464 0.777651 0.648261
O O7 0.000000 0.844446 0.599011
O O8 0.500000 0.152578 0.559177
O O9 0.314449 0.235221 0.660197
O O10 0.500000 0.617221 0.981098
O O11 0.267052 0.631328 0.083608
O O12 0.294739 0.500000 0.000000
O O13 0.227824 0.629297 0.915864
O O14 0.750000 0.636488 0.250000
O O15 0.000000 0.637768 0.158146
O O16 0.750000 0.653239 0.750000
O O17 0.000000 0.691200 0.832531
#
# Coordination Sequence:
#
# PCOD8221750 Si02
#       6
#     8   8   8   8   8   8
#     4  11  23  39  58  85 125 167 217 270 321 378
#     4  12  24  39  62  91 126 169 218 269 325 384
#     4  10  22  40  62  90 125 170 216 268 324 381
#     4  11  25  46  71 101 135 170 213 267 327 392
#     4  11  23  41  68  99 134 176 221 268 324 387
#     4  12  25  44  70  99 133 173 220 269 328 391
#
# _framework density 21.224913000000001
#
# number of rings (size 3 to 8) (size 9 to 14) (size 15 to 20)
#    0.000    0.833    1.667    6.000    0.000    6.000 
#    0.000    0.000    0.000    0.000    0.000    0.000 
#    0.000    0.000    0.000    0.000    0.000    0.000 
#
# Total GULP energy -595544.427363 kJ/mol
# GULP energy per Si atom -12407.175570 kJ/mol
# Density = 2.117660 g / cm^3
# Si number density = 21.224913 Si / 1000 Ang^3
#
#
#
# Elastic Constant Matrix: (Units=GPa)
#
#
# Indices 1 2 3 4 5 6 
#
# 1 128.6357 43.5709 38.7261 0.0000 0.0000 0.0000
# 2 43.5709 87.6464 27.3204 0.0000 0.0000 0.0000
# 3 38.7261 27.3204 124.5711 0.0000 0.0000 0.0000
# 4 0.0000 0.0000 0.0000 13.5727 0.0000 0.0000
# 5 0.0000 0.0000 0.0000 0.0000 40.2588 0.0000
# 6 0.0000 0.0000 0.0000 0.0000 0.0000 24.8582
#
#
#
# Elastic Compliance Matrix: (Units=1/GPa)
#
#
# Indices 1 2 3 4 5 6 
#
# 1 0.009850 -0.004231 -0.002134 0.000000 0.000000 0.000000
# 2 -0.004231 0.014064 -0.001769 0.000000 0.000000 0.000000
# 3 -0.002134 -0.001769 0.009079 0.000000 0.000000 0.000000
# 4 0.000000 0.000000 0.000000 0.073677 0.000000 0.000000
# 5 0.000000 0.000000 0.000000 0.000000 0.024839 0.000000
# 6 0.000000 0.000000 0.000000 0.000000 0.000000 0.040228
#
#
# Mechanical properties :
#
#
# Convention : Reuss Voigt Hill
#
# Bulk Modulus (GPa) = 59.79394 62.23199 61.01297
# Shear Modulus (GPa) = 25.82899 31.15366 28.49133
#
# Velocity S-wave (km/s) = 3.49222 3.83533 3.66779
# Velocity P-wave (km/s) = 6.67035 6.99978 6.83705
#
# Compressibility (1/GPa) = 0.01672410
#
# Stress axis : x y z
#
# Youngs Moduli (GPa) = 101.52778 71.10160 110.14487
#
# Poissons Ratio (x) = 0.30085 0.23505
# Poissons Ratio (y) = 0.42959 0.19486
# Poissons Ratio (z) = 0.21666 0.12579
#
# Static dielectric constant tensor:
#      x y z
#    x 3.873450 0.000000 0.000000 
#    y 0.000000 3.972300 0.000000 
#    z 0.000000 0.000000 3.817290 
# 
# 
# High freq. dielectric constant tensor:
#      x y z
#    x 1.841750 0.000000 0.000000 
#    y 0.000000 1.834600 0.000000 
#    z 0.000000 0.000000 1.839610 
# 
# From -- ./inp_files/20161.got.cif
#   From: 2010.03.12/outbox.cif.g09.slc.cpg/sg53_11_cif.got.tgz:20161.got - 2010.04.16 14:36:59.
