data_PCOD8221806
_publ_section_title
;
Structure prediction by ZEFSAII (Michael W. Deem and Ramdas Pophale) SiO2 
 PCOD8221806
Probable space group: P M N A
;
_chemical_formula_sum "Si O2"
_cell_formula_units_Z 48
_cell_length_a 27.796601
_cell_length_b 8.242628
_cell_length_c 9.657913
_cell_angle_alpha 90.000000
_cell_angle_beta 90.000000
_cell_angle_gamma 90.000000
_cell_volume 2212.792456
_symmetry_space_group_name_H-M "P M N A"
_symmetry_group_IT_number 53
_symmetry_cell_setting 'orthorhombic'
loop_
_space_group_symop_operation_xyz
x,y,z
1/2-x,-y,1/2+z
x,-y,-z
1/2-x,y,1/2-z
-x,-y,-z
1/2+x,y,1/2-z
-x,y,z
1/2+x,-y,1/2+z
loop_
_atom_site_type_symbol
_atom_site_label
_atom_site_fract_x
_atom_site_fract_y
_atom_site_fract_z
Si Si1 0.500000 0.494841 0.665164
Si Si2 0.605574 0.643846 0.299398
Si Si3 0.741587 0.136887 0.100242
Si Si4 0.500000 0.321442 0.068726
Si Si5 0.095358 0.178429 0.537102
Si Si6 0.848895 0.823022 0.955421
Si Si7 0.154709 0.661808 0.679266
O O1 0.500000 0.500000 0.500000
O O2 0.549984 0.409786 0.704993
O O3 0.500000 0.658445 0.761800
O O4 0.622995 0.691232 0.452205
O O5 0.644761 0.515565 0.241215
O O6 0.605571 0.799885 0.199822
O O7 0.750000 0.051756 0.250000
O O8 0.791133 0.195104 0.027603
O O9 0.709404 0.297435 0.131107
O O10 0.717310 0.000000 0.000000
O O11 0.458033 0.208467 0.013798
O O12 0.500000 0.500000 0.000000
O O13 0.124583 0.317640 0.458539
O O14 0.113323 0.000000 0.500000
O O15 0.862621 0.790581 0.796217
O O16 0.866798 0.000000 0.000000
#
# Coordination Sequence:
#
# PCOD8221806 Si02
#       7
#     4   8   8   4   8   8   8
#     4  12  24  42  69  97 132 177 215 268 341 391
#     4  12  24  43  67  96 132 176 224 277 333 397
#     4   9  20  39  64  93 131 173 214 271 336 395
#     4  12  21  44  65  93 135 170 215 273 328 389
#     4  12  24  40  64  94 128 171 219 271 327 390
#     4  10  22  42  65  93 132 171 215 274 335 399
#     4  11  21  39  64  93 126 171 222 267 326 397
#
# _framework density 21.692048
#
# number of rings (size 3 to 8) (size 9 to 14) (size 15 to 20)
#    0.000    1.000    3.333    3.750    0.000    2.667 
#    0.000   10.417    0.000    0.000    0.000    0.000 
#    0.000    0.000    0.000    0.000    0.000    0.000 
#
# Total GULP energy -594713.137281 kJ/mol
# GULP energy per Si atom -12389.857027 kJ/mol
# Density = 2.164268 g / cm^3
# Si number density = 21.692048 Si / 1000 Ang^3
#
#
#
# Elastic Constant Matrix: (Units=GPa)
#
#
# Indices 1 2 3 4 5 6 
#
# 1 93.2119 21.8620 20.1769 0.0000 0.0000 0.0000
# 2 21.8620 70.1319 5.1913 0.0000 0.0000 0.0000
# 3 20.1769 5.1913 100.0466 0.0000 0.0000 0.0000
# 4 0.0000 0.0000 0.0000 40.7199 0.0000 0.0000
# 5 0.0000 0.0000 0.0000 0.0000 17.7054 0.0000
# 6 0.0000 0.0000 0.0000 0.0000 0.0000 21.1461
#
#
#
# Elastic Compliance Matrix: (Units=1/GPa)
#
#
# Indices 1 2 3 4 5 6 
#
# 1 0.012057 -0.003592 -0.002245 0.000000 0.000000 0.000000
# 2 -0.003592 0.015384 -0.000074 0.000000 0.000000 0.000000
# 3 -0.002245 -0.000074 0.010452 0.000000 0.000000 0.000000
# 4 0.000000 0.000000 0.000000 0.024558 0.000000 0.000000
# 5 0.000000 0.000000 0.000000 0.000000 0.056480 0.000000
# 6 0.000000 0.000000 0.000000 0.000000 0.000000 0.047290
#
#
# Mechanical properties :
#
#
# Convention : Reuss Voigt Hill
#
# Bulk Modulus (GPa) = 38.35757 39.76120 39.05939
# Shear Modulus (GPa) = 26.77615 30.32496 28.55056
#
# Velocity S-wave (km/s) = 3.51718 3.74301 3.63185
# Velocity P-wave (km/s) = 5.84938 6.08685 5.96930
#
# Compressibility (1/GPa) = 0.02607047
#
# Stress axis : x y z
#
# Youngs Moduli (GPa) = 82.94108 65.00216 95.67580
#
# Poissons Ratio (x) = 0.23350 0.21481
# Poissons Ratio (y) = 0.29794 0.00706
# Poissons Ratio (z) = 0.18622 0.00480
#
# Static dielectric constant tensor:
#      x y z
#    x 4.205560 0.000000 0.000000 
#    y 0.000000 3.670050 0.000000 
#    z 0.000000 0.000000 4.299500 
# 
# 
# High freq. dielectric constant tensor:
#      x y z
#    x 1.856080 0.000000 0.000000 
#    y 0.000000 1.826870 0.000000 
#    z 0.000000 0.000000 1.873740 
# 
# From -- ./inp_files/13096.got.cif
#   From: 2010.03.12/outbox.cif.g09.slc.cpg/sg53_7_cif.got.tgz:13096.got - 2010.04.16 14:36:59.
