data_PCOD8221275
_publ_section_title
;
Structure prediction by ZEFSAII (Michael W. Deem and Ramdas Pophale) SiO2 
 PCOD8221275
Probable space group: P M N A
;
_chemical_formula_sum "Si O2"
_cell_formula_units_Z 56
_cell_length_a 14.136947
_cell_length_b 9.786339
_cell_length_c 17.861428
_cell_angle_alpha 90.000000
_cell_angle_beta 90.000000
_cell_angle_gamma 90.000000
_cell_volume 2471.109912
_symmetry_space_group_name_H-M "P M N A"
_symmetry_group_IT_number 53
_symmetry_cell_setting 'orthorhombic'
loop_
_space_group_symop_operation_xyz
x,y,z
1/2-x,-y,1/2+z
x,-y,-z
1/2-x,y,1/2-z
-x,-y,-z
1/2+x,y,1/2-z
-x,y,z
1/2+x,-y,1/2+z
loop_
_atom_site_type_symbol
_atom_site_label
_atom_site_fract_x
_atom_site_fract_y
_atom_site_fract_z
Si Si1 0.708616 0.852856 0.016185
Si Si2 0.888752 0.072182 0.224820
Si Si3 0.609458 0.870133 0.405833
Si Si4 0.389942 0.360062 0.707027
Si Si5 0.389356 0.366190 0.232384
Si Si6 0.890075 0.382286 0.439822
Si Si7 0.388518 0.838435 0.167876
O O1 0.823421 0.867887 0.021136
O O2 0.668112 0.801108 0.094340
O O3 0.676926 0.747784 0.953180
O O4 0.662719 0.000000 0.000000
O O5 0.843290 0.222733 0.238624
O O6 0.000000 0.076620 0.214845
O O7 0.853275 0.989842 0.150764
O O8 0.863341 0.988198 0.299890
O O9 0.500000 0.891719 0.429443
O O10 0.624119 0.718586 0.370753
O O11 0.500000 0.372996 0.725145
O O12 0.348835 0.515192 0.711911
O O13 0.346992 0.270598 0.773778
O O14 0.500000 0.342987 0.241663
O O15 0.368622 0.416195 0.147063
O O16 0.862834 0.500000 0.500000
O O17 0.000000 0.342720 0.450928
O O18 0.500000 0.823407 0.152836
#
# Coordination Sequence:
#
# PCOD8221275 Si02
#       7
#     8   8   8   8   8   8   8
#     4  12  24  35  54  81 110 151 196 228 263 323
#     4   8  15  29  51  77 105 135 172 229 289 328
#     4   9  20  39  57  76 106 145 193 243 283 318
#     4   8  15  30  55  82 105 137 181 227 281 339
#     4   9  15  27  52  84 111 136 171 219 281 345
#     4  10  21  37  57  84 122 156 175 208 270 345
#     4   9  17  31  50  75 108 139 169 213 273 339
#
# _framework density 22.66188
#
# number of rings (size 3 to 8) (size 9 to 14) (size 15 to 20)
#    0.000    2.714    0.000    3.857    0.000    7.143 
#    0.000    1.429    0.000    3.857    0.000    0.000 
#    0.000    2.286    0.000    0.000    0.000    0.000 
#
# Total GULP energy -693804.690636 kJ/mol
# GULP energy per Si atom -12389.369476 kJ/mol
# Density = 2.261030 g / cm^3
# Si number density = 22.661880 Si / 1000 Ang^3
#
#
#
# Elastic Constant Matrix: (Units=GPa)
#
#
# Indices 1 2 3 4 5 6 
#
# 1 59.9858 12.8921 8.5753 0.0000 0.0000 0.0000
# 2 12.8921 160.9060 22.4197 0.0000 0.0000 0.0000
# 3 8.5753 22.4197 31.3354 0.0000 0.0000 0.0000
# 4 0.0000 0.0000 0.0000 16.6118 0.0000 0.0000
# 5 0.0000 0.0000 0.0000 0.0000 22.0670 0.0000
# 6 0.0000 0.0000 0.0000 0.0000 0.0000 9.6012
#
#
#
# Elastic Compliance Matrix: (Units=1/GPa)
#
#
# Indices 1 2 3 4 5 6 
#
# 1 0.017445 -0.000814 -0.004192 0.000000 0.000000 0.000000
# 2 -0.000814 0.006941 -0.004743 0.000000 0.000000 0.000000
# 3 -0.004192 -0.004743 0.036454 0.000000 0.000000 0.000000
# 4 0.000000 0.000000 0.000000 0.060198 0.000000 0.000000
# 5 0.000000 0.000000 0.000000 0.000000 0.045316 0.000000
# 6 0.000000 0.000000 0.000000 0.000000 0.000000 0.104154
#
#
# Mechanical properties :
#
#
# Convention : Reuss Voigt Hill
#
# Bulk Modulus (GPa) = 24.18867 37.77795 30.98331
# Shear Modulus (GPa) = 16.45893 23.54533 20.00213
#
# Velocity S-wave (km/s) = 2.69789 3.22682 2.97414
# Velocity P-wave (km/s) = 4.51682 5.53079 5.04932
#
# Compressibility (1/GPa) = 0.04134167
#
# Stress axis : x y z
#
# Youngs Moduli (GPa) = 57.32390 144.07314 27.43200
#
# Poissons Ratio (x) = 0.11722 0.11499
# Poissons Ratio (y) = 0.04664 0.13012
# Poissons Ratio (z) = 0.24029 0.68340
#
# Static dielectric constant tensor:
#      x y z
#    x 3.911770 0.000000 0.000000 
#    y 0.000000 4.645340 0.000000 
#    z 0.000000 0.000000 3.721960 
# 
# 
# High freq. dielectric constant tensor:
#      x y z
#    x 1.881650 0.000000 0.000000 
#    y 0.000000 1.901150 0.000000 
#    z 0.000000 0.000000 1.864600 
# 
# From -- ./inp_files/32409.got.cif
#   From: 2010.03.12/outbox.cif.g09.slc.cpg/sg53_17_cif.got.tgz:32409.got - 2010.04.16 14:36:59.
