data_PCOD8221186
_publ_section_title
;
Structure prediction by ZEFSAII (Michael W. Deem and Ramdas Pophale) SiO2 
 PCOD8221186
Probable space group: P M N A
;
_chemical_formula_sum "Si O2"
_cell_formula_units_Z 32
_cell_length_a 16.398320
_cell_length_b 10.203443
_cell_length_c 9.294270
_cell_angle_alpha 90.000000
_cell_angle_beta 90.000000
_cell_angle_gamma 90.000000
_cell_volume 1555.110968
_symmetry_space_group_name_H-M "P M N A"
_symmetry_group_IT_number 53
_symmetry_cell_setting 'orthorhombic'
loop_
_space_group_symop_operation_xyz
x,y,z
1/2-x,-y,1/2+z
x,-y,-z
1/2-x,y,1/2-z
-x,-y,-z
1/2+x,y,1/2-z
-x,y,z
1/2+x,-y,1/2+z
loop_
_atom_site_type_symbol
_atom_site_label
_atom_site_fract_x
_atom_site_fract_y
_atom_site_fract_z
Si Si1 0.907044 0.996782 0.843106
Si Si2 0.594925 0.215292 0.119230
Si Si3 0.840097 0.767327 0.308704
Si Si4 0.171277 0.477264 0.336400
O O1 0.869055 0.887546 0.735879
O O2 0.000000 0.954543 0.864855
O O3 0.902503 0.141308 0.776416
O O4 0.863478 0.000000 0.000000
O O5 0.500000 0.188032 0.082736
O O6 0.603307 0.364074 0.178555
O O7 0.650643 0.199416 0.977630
O O8 0.750000 0.799108 0.250000
O O9 0.863351 0.615645 0.276364
O O10 0.199006 0.500000 0.500000
O O11 0.250000 0.429957 0.250000
#
# Coordination Sequence:
#
# PCOD8221186 Si02
#       4
#     8   8   8   8
#     4  10  22  38  55  80 114 149 189 236 283 337
#     4  10  21  38  61  86 114 153 196 237 285 344
#     4  10  21  36  56  84 112 146 190 235 287 340
#     4   9  20  36  56  83 114 146 186 236 288 342
#
# _framework density 20.577309
#
# number of rings (size 3 to 8) (size 9 to 14) (size 15 to 20)
#    0.000    2.250    0.000    1.500    0.000   16.500 
#    0.000    0.000    0.000    5.250    0.000    0.000 
#    0.000    0.000    0.000    0.000    0.000    0.000 
#
# Total GULP energy -396680.988948 kJ/mol
# GULP energy per Si atom -12396.280905 kJ/mol
# Density = 2.053047 g / cm^3
# Si number density = 20.577309 Si / 1000 Ang^3
#
#
#
# Elastic Constant Matrix: (Units=GPa)
#
#
# Indices 1 2 3 4 5 6 
#
# 1 52.0757 28.1297 38.8563 0.0000 0.0000 0.0000
# 2 28.1297 137.6140 79.1746 0.0000 0.0000 0.0000
# 3 38.8563 79.1746 127.3420 0.0000 0.0000 0.0000
# 4 0.0000 0.0000 0.0000 29.0758 0.0000 0.0000
# 5 0.0000 0.0000 0.0000 0.0000 32.6527 0.0000
# 6 0.0000 0.0000 0.0000 0.0000 0.0000 29.2321
#
#
#
# Elastic Compliance Matrix: (Units=1/GPa)
#
#
# Indices 1 2 3 4 5 6 
#
# 1 0.024974 -0.001122 -0.006923 0.000000 0.000000 0.000000
# 2 -0.001122 0.011364 -0.006723 0.000000 0.000000 0.000000
# 3 -0.006923 -0.006723 0.014146 0.000000 0.000000 0.000000
# 4 0.000000 0.000000 0.000000 0.034393 0.000000 0.000000
# 5 0.000000 0.000000 0.000000 0.000000 0.030625 0.000000
# 6 0.000000 0.000000 0.000000 0.000000 0.000000 0.034209
#
#
# Mechanical properties :
#
#
# Convention : Reuss Voigt Hill
#
# Bulk Modulus (GPa) = 47.73807 67.70588 57.72198
# Shear Modulus (GPa) = 26.84845 29.58352 28.21598
#
# Velocity S-wave (km/s) = 3.61607 3.79578 3.70701
# Velocity P-wave (km/s) = 6.37843 7.22394 6.81431
#
# Compressibility (1/GPa) = 0.02094764
#
# Stress axis : x y z
#
# Youngs Moduli (GPa) = 40.04095 87.99538 70.69380
#
# Poissons Ratio (x) = 0.09873 0.48941
# Poissons Ratio (y) = 0.04493 0.47530
# Poissons Ratio (z) = 0.27720 0.59162
#
# Static dielectric constant tensor:
#      x y z
#    x 3.343730 0.000000 0.000000 
#    y 0.000000 4.020100 0.000000 
#    z 0.000000 0.000000 3.953420 
# 
# 
# High freq. dielectric constant tensor:
#      x y z
#    x 1.771170 0.000000 0.000000 
#    y 0.000000 1.821140 0.000000 
#    z 0.000000 0.000000 1.808560 
# 
# From -- ./inp_files/7983.got.cif
#   From: 2010.03.12/outbox.cif.g09.slc.cpg/sg53_4_cif.got.tgz:7983.got - 2010.04.16 14:36:59.
