data_PCOD8221391
_publ_section_title
;
Structure prediction by ZEFSAII (Michael W. Deem and Ramdas Pophale) SiO2 
 PCOD8221391
Probable space group: P M N A
;
_chemical_formula_sum "Si O2"
_cell_formula_units_Z 48
_cell_length_a 9.154292
_cell_length_b 16.559377
_cell_length_c 15.668873
_cell_angle_alpha 90.000000
_cell_angle_beta 90.000000
_cell_angle_gamma 90.000000
_cell_volume 2375.234624
_symmetry_space_group_name_H-M "P M N A"
_symmetry_group_IT_number 53
_symmetry_cell_setting 'orthorhombic'
loop_
_space_group_symop_operation_xyz
x,y,z
1/2-x,-y,1/2+z
x,-y,-z
1/2-x,y,1/2-z
-x,-y,-z
1/2+x,y,1/2-z
-x,y,z
1/2+x,-y,1/2+z
loop_
_atom_site_type_symbol
_atom_site_label
_atom_site_fract_x
_atom_site_fract_y
_atom_site_fract_z
Si Si1 0.167673 0.685374 0.164249
Si Si2 0.169136 0.594795 0.995088
Si Si3 0.669222 0.998284 0.666066
Si Si4 0.667901 0.669330 0.834968
Si Si5 0.833524 0.843622 0.599582
Si Si6 0.334283 0.842016 0.432655
O O1 0.250000 0.659871 0.250000
O O2 0.225979 0.634133 0.083437
O O3 0.191497 0.780655 0.145704
O O4 0.000000 0.664376 0.180582
O O5 0.000000 0.617900 0.980238
O O6 0.193384 0.500000 0.000000
O O7 0.261527 0.628744 0.917192
O O8 0.750000 0.029119 0.750000
O O9 0.500000 0.985517 0.687167
O O10 0.732913 0.913827 0.635766
O O11 0.693475 0.065976 0.594612
O O12 0.750000 0.639412 0.750000
O O13 0.500000 0.641780 0.829401
O O14 0.679818 0.766171 0.840025
O O15 0.778194 0.818660 0.506215
O O16 0.000000 0.874102 0.593847
O O17 0.500000 0.832205 0.467063
#
# Coordination Sequence:
#
# PCOD8221391 Si02
#       6
#     8   8   8   8   8   8
#     4  10  21  38  62  90 123 161 201 249 302 362
#     4  10  22  42  67  94 125 161 202 251 310 370
#     4  11  23  37  55  82 117 157 204 251 303 360
#     4  11  24  41  64  93 124 164 208 254 307 366
#     4  11  23  38  59  87 118 158 206 253 305 358
#     4  10  21  38  59  84 116 159 203 250 306 360
#
# _framework density 20.208528000000001
#
# number of rings (size 3 to 8) (size 9 to 14) (size 15 to 20)
#    0.000    1.500    1.667    3.000    0.000    9.000 
#    0.000    1.667    0.000    0.000    0.000    0.000 
#    0.000    0.000    0.000    0.000    0.000    0.000 
#
# Total GULP energy -595403.113969 kJ/mol
# GULP energy per Si atom -12404.231541 kJ/mol
# Density = 2.016253 g / cm^3
# Si number density = 20.208528 Si / 1000 Ang^3
#
#
#
# Elastic Constant Matrix: (Units=GPa)
#
#
# Indices 1 2 3 4 5 6 
#
# 1 122.0022 40.3555 74.6487 0.0000 0.0000 0.0000
# 2 40.3555 86.2582 33.0809 0.0000 0.0000 0.0000
# 3 74.6487 33.0809 142.9509 0.0000 0.0000 0.0000
# 4 0.0000 0.0000 0.0000 18.2137 0.0000 0.0000
# 5 0.0000 0.0000 0.0000 0.0000 43.1377 0.0000
# 6 0.0000 0.0000 0.0000 0.0000 0.0000 26.2530
#
#
#
# Elastic Compliance Matrix: (Units=1/GPa)
#
#
# Indices 1 2 3 4 5 6 
#
# 1 0.013116 -0.003851 -0.005958 0.000000 0.000000 0.000000
# 2 -0.003851 0.013853 -0.001195 0.000000 0.000000 0.000000
# 3 -0.005958 -0.001195 0.010383 0.000000 0.000000 0.000000
# 4 0.000000 0.000000 0.000000 0.054904 0.000000 0.000000
# 5 0.000000 0.000000 0.000000 0.000000 0.023182 0.000000
# 6 0.000000 0.000000 0.000000 0.000000 0.000000 0.038091
#
#
# Mechanical properties :
#
#
# Convention : Reuss Voigt Hill
#
# Bulk Modulus (GPa) = 65.17039 71.93128 68.55084
# Shear Modulus (GPa) = 27.67772 31.06262 29.37017
#
# Velocity S-wave (km/s) = 3.70483 3.92485 3.81643
# Velocity P-wave (km/s) = 7.11477 7.49740 7.30859
#
# Compressibility (1/GPa) = 0.01534439
#
# Stress axis : x y z
#
# Youngs Moduli (GPa) = 76.24337 72.18611 96.31085
#
# Poissons Ratio (x) = 0.27801 0.57381
# Poissons Ratio (y) = 0.29364 0.11506
# Poissons Ratio (z) = 0.45425 0.08624
#
# Static dielectric constant tensor:
#      x y z
#    x 3.765330 0.000000 0.000000 
#    y 0.000000 3.656980 0.000000 
#    z 0.000000 0.000000 3.708560 
# 
# 
# High freq. dielectric constant tensor:
#      x y z
#    x 1.790770 0.000000 0.000000 
#    y 0.000000 1.790960 0.000000 
#    z 0.000000 0.000000 1.793800 
# 
# From -- ./inp_files/20151.got.cif
#   From: 2010.03.12/outbox.cif.g09.slc.cpg/sg53_11_cif.got.tgz:20151.got - 2010.04.16 14:36:59.
