data_PCOD8221158
_publ_section_title
;
Structure prediction by ZEFSAII (Michael W. Deem and Ramdas Pophale) SiO2 
 PCOD8221158
Probable space group: P M N A
;
_chemical_formula_sum "Si O2"
_cell_formula_units_Z 48
_cell_length_a 9.017648
_cell_length_b 30.772470
_cell_length_c 8.879852
_cell_angle_alpha 90.000000
_cell_angle_beta 90.000000
_cell_angle_gamma 90.000000
_cell_volume 2464.117217
_symmetry_space_group_name_H-M "P M N A"
_symmetry_group_IT_number 53
_symmetry_cell_setting 'orthorhombic'
loop_
_space_group_symop_operation_xyz
x,y,z
1/2-x,-y,1/2+z
x,-y,-z
1/2-x,y,1/2-z
-x,-y,-z
1/2+x,y,1/2-z
-x,y,z
1/2+x,-y,1/2+z
loop_
_atom_site_type_symbol
_atom_site_label
_atom_site_fract_x
_atom_site_fract_y
_atom_site_fract_z
Si Si1 0.673114 0.126955 0.093598
Si Si2 0.172225 0.288529 0.092272
Si Si3 0.675155 0.627985 0.411028
Si Si4 0.825278 0.457514 0.089065
Si Si5 0.325755 0.797624 0.410817
Si Si6 0.671180 0.959540 0.093022
O O1 0.750000 0.116370 0.250000
O O2 0.500000 0.137520 0.116346
O O3 0.753306 0.167908 0.021470
O O4 0.698849 0.085082 0.992340
O O5 0.250000 0.279847 0.250000
O O6 0.000000 0.292506 0.127989
O O7 0.231890 0.332477 0.014951
O O8 0.206431 0.249670 0.977903
O O9 0.750000 0.631190 0.250000
O O10 0.500000 0.630205 0.386913
O O11 0.725256 0.583774 0.491722
O O12 0.750000 0.455691 0.250000
O O13 0.000000 0.458111 0.114970
O O14 0.770747 0.500000 0.000000
O O15 0.250000 0.801267 0.250000
O O16 0.500000 0.807101 0.394506
O O17 0.750000 0.955689 0.250000
O O18 0.500000 0.968434 0.124459
O O19 0.738828 0.000000 0.000000
#
# Coordination Sequence:
#
# PCOD8221158 Si02
#       6
#     8   8   8   8   8   8
#     4  11  23  39  60  86 116 150 189 232 280 333
#     4  10  22  38  57  82 111 145 185 229 276 329
#     4  10  21  37  56  81 111 143 183 227 273 327
#     4  10  21  36  55  81 111 143 182 226 272 326
#     4  11  23  39  59  84 114 148 188 232 280 333
#     4  10  22  39  59  85 115 148 187 230 277 330
#
# _framework density 19.479593000000001
#
# number of rings (size 3 to 8) (size 9 to 14) (size 15 to 20)
#    0.000    1.667    0.000    4.000    0.000    7.333 
#    0.000    0.000    0.000    0.000    0.000    0.000 
#    0.000    0.000    0.000    0.000    0.000    0.000 
#
# Total GULP energy -595448.547690 kJ/mol
# GULP energy per Si atom -12405.178077 kJ/mol
# Density = 1.943526 g / cm^3
# Si number density = 19.479593 Si / 1000 Ang^3
#
#
#
# Elastic Constant Matrix: (Units=GPa)
#
#
# Indices 1 2 3 4 5 6 
#
# 1 70.8922 48.2417 59.4320 0.0000 0.0000 0.0000
# 2 48.2417 104.2890 21.0263 0.0000 0.0000 0.0000
# 3 59.4320 21.0263 127.3804 0.0000 0.0000 0.0000
# 4 0.0000 0.0000 0.0000 46.3558 0.0000 0.0000
# 5 0.0000 0.0000 0.0000 0.0000 34.2943 0.0000
# 6 0.0000 0.0000 0.0000 0.0000 0.0000 27.3391
#
#
#
# Elastic Compliance Matrix: (Units=1/GPa)
#
#
# Indices 1 2 3 4 5 6 
#
# 1 0.035072 -0.013369 -0.014157 0.000000 0.000000 0.000000
# 2 -0.013369 0.015015 0.003759 0.000000 0.000000 0.000000
# 3 -0.014157 0.003759 0.013835 0.000000 0.000000 0.000000
# 4 0.000000 0.000000 0.000000 0.021572 0.000000 0.000000
# 5 0.000000 0.000000 0.000000 0.000000 0.029159 0.000000
# 6 0.000000 0.000000 0.000000 0.000000 0.000000 0.036578
#
#
# Mechanical properties :
#
#
# Convention : Reuss Voigt Hill
#
# Bulk Modulus (GPa) = 61.01802 62.21797 61.61799
# Shear Modulus (GPa) = 24.48254 33.18862 28.83558
#
# Velocity S-wave (km/s) = 3.54903 4.13214 3.85164
# Velocity P-wave (km/s) = 6.94163 7.40105 7.17502
#
# Compressibility (1/GPa) = 0.01638860
#
# Stress axis : x y z
#
# Youngs Moduli (GPa) = 28.51304 66.59965 72.28016
#
# Poissons Ratio (x) = 0.89038 1.02324
# Poissons Ratio (y) = 0.38119 -0.27171
# Poissons Ratio (z) = 0.40365 -0.25036
#
# Static dielectric constant tensor:
#      x y z
#    x 3.560590 0.000000 0.000000 
#    y 0.000000 7.376930 0.000000 
#    z 0.000000 0.000000 3.531640 
# 
# 
# High freq. dielectric constant tensor:
#      x y z
#    x 1.755830 0.000000 0.000000 
#    y 0.000000 1.780880 0.000000 
#    z 0.000000 0.000000 1.774850 
# 
# From -- ./inp_files/6631.got.cif
#   From: 2010.03.12/outbox.cif.g09.slc.cpg/sg53_4_cif.got.tgz:6631.got - 2010.04.16 14:36:59.
