data_PCOD8221096
_publ_section_title
;
Structure prediction by ZEFSAII (Michael W. Deem and Ramdas Pophale) SiO2 
 PCOD8221096
Probable space group: P M N A
;
_chemical_formula_sum "Si O2"
_cell_formula_units_Z 48
_cell_length_a 14.460328
_cell_length_b 15.720323
_cell_length_c 10.119535
_cell_angle_alpha 90.000000
_cell_angle_beta 90.000000
_cell_angle_gamma 90.000000
_cell_volume 2300.383087
_symmetry_space_group_name_H-M "P M N A"
_symmetry_group_IT_number 53
_symmetry_cell_setting 'orthorhombic'
loop_
_space_group_symop_operation_xyz
x,y,z
1/2-x,-y,1/2+z
x,-y,-z
1/2-x,y,1/2-z
-x,-y,-z
1/2+x,y,1/2-z
-x,y,z
1/2+x,-y,1/2+z
loop_
_atom_site_type_symbol
_atom_site_label
_atom_site_fract_x
_atom_site_fract_y
_atom_site_fract_z
Si Si1 0.287416 0.593079 0.048284
Si Si2 0.102599 0.374106 0.807591
Si Si3 0.723670 0.764109 0.903145
Si Si4 0.165360 0.799901 0.152208
Si Si5 0.390309 0.072639 0.100184
Si Si6 0.392878 0.985191 0.357542
O O1 0.306068 0.667579 0.940586
O O2 0.312398 0.500000 0.000000
O O3 0.360384 0.606498 0.163334
O O4 0.179006 0.593049 0.088315
O O5 0.089908 0.272640 0.822860
O O6 0.000000 0.414859 0.830241
O O7 0.750000 0.765085 0.750000
O O8 0.642548 0.832224 0.932960
O O9 0.807006 0.795094 0.997430
O O10 0.250000 0.778367 0.250000
O O11 0.121136 0.889159 0.190244
O O12 0.500000 0.072461 0.096691
O O13 0.351084 0.047003 0.245686
O O14 0.352552 0.000000 0.000000
O O15 0.500000 0.006389 0.371328
O O16 0.343811 0.000000 0.500000
#
# Coordination Sequence:
#
# PCOD8221096 Si02
#       6
#     8   8   8   8   8   8
#     4  10  23  43  66  95 129 163 211 268 321 384
#     4  10  21  41  68  95 123 163 215 264 312 379
#     4  11  23  38  60  90 123 166 201 256 326 370
#     4  11  20  38  58  90 121 162 216 257 307 368
#     4  10  22  38  56  85 123 164 208 257 312 370
#     4  10  21  35  54  81 118 162 208 259 308 366
#
# _framework density 20.86609
#
# number of rings (size 3 to 8) (size 9 to 14) (size 15 to 20)
#    0.000    1.667    3.333    2.500    2.333    5.333 
#    0.000    3.333    0.000    0.000    0.000    0.000 
#    0.000    0.000    0.000    0.000    0.000    0.000 
#
# Total GULP energy -594887.183114 kJ/mol
# GULP energy per Si atom -12393.482982 kJ/mol
# Density = 2.081860 g / cm^3
# Si number density = 20.866090 Si / 1000 Ang^3
#
#
#
# Elastic Constant Matrix: (Units=GPa)
#
#
# Indices 1 2 3 4 5 6 
#
# 1 67.4046 20.8927 41.5326 0.0000 0.0000 0.0000
# 2 20.8927 154.8527 49.0125 0.0000 0.0000 0.0000
# 3 41.5326 49.0125 135.1954 0.0000 0.0000 0.0000
# 4 0.0000 0.0000 0.0000 16.7306 0.0000 0.0000
# 5 0.0000 0.0000 0.0000 0.0000 8.5637 0.0000
# 6 0.0000 0.0000 0.0000 0.0000 0.0000 -29.4175
#
#
#
# Elastic Compliance Matrix: (Units=1/GPa)
#
#
# Indices 1 2 3 4 5 6 
#
# 1 0.018383 -0.000783 -0.005364 0.000000 0.000000 0.000000
# 2 -0.000783 0.007328 -0.002416 0.000000 0.000000 0.000000
# 3 -0.005364 -0.002416 0.009920 0.000000 0.000000 0.000000
# 4 0.000000 0.000000 0.000000 0.059771 0.000000 0.000000
# 5 0.000000 0.000000 0.000000 0.000000 0.116772 0.000000
# 6 0.000000 0.000000 0.000000 0.000000 0.000000 -0.033993
#
#
# Mechanical properties :
#
#
# Convention : Reuss Voigt Hill
#
# Bulk Modulus (GPa) = 54.03447 64.48093 59.25770
# Shear Modulus (GPa) = 24.81701 15.57637 20.19669
#
# Velocity S-wave (km/s) = 3.45243 2.73516 3.11452
# Velocity P-wave (km/s) = 6.46873 6.39876 6.43384
#
# Compressibility (1/GPa) = 0.01850671
#
# Stress axis : x y z
#
# Youngs Moduli (GPa) = 54.39720 136.46098 100.80224
#
# Poissons Ratio (x) = 0.10680 0.54067
# Poissons Ratio (y) = 0.04257 0.24356
# Poissons Ratio (z) = 0.29177 0.32972
#
# Static dielectric constant tensor:
#      x y z
#    x 3.486210 0.000000 0.000000 
#    y 0.000000 3.997000 0.000000 
#    z 0.000000 0.000000 4.167340 
# 
# 
# High freq. dielectric constant tensor:
#      x y z
#    x 1.800420 0.000000 0.000000 
#    y 0.000000 1.819190 0.000000 
#    z 0.000000 0.000000 1.824810 
# 
# From -- ./inp_files/8693.got.cif
#   From: 2010.03.12/outbox.cif.g09.slc.cpg/sg53_5_cif.got.tgz:8693.got - 2010.04.16 14:36:59.
