data_PCOD8221079
_publ_section_title
;
Structure prediction by ZEFSAII (Michael W. Deem and Ramdas Pophale) SiO2 
 PCOD8221079
Probable space group: P M N A
;
_chemical_formula_sum "Si O2"
_cell_formula_units_Z 48
_cell_length_a 9.563107
_cell_length_b 30.625440
_cell_length_c 9.276083
_cell_angle_alpha 90.000000
_cell_angle_beta 90.000000
_cell_angle_gamma 90.000000
_cell_volume 2716.726869
_symmetry_space_group_name_H-M "P M N A"
_symmetry_group_IT_number 53
_symmetry_cell_setting 'orthorhombic'
loop_
_space_group_symop_operation_xyz
x,y,z
1/2-x,-y,1/2+z
x,-y,-z
1/2-x,y,1/2-z
-x,-y,-z
1/2+x,y,1/2-z
-x,y,z
1/2+x,-y,1/2+z
loop_
_atom_site_type_symbol
_atom_site_label
_atom_site_fract_x
_atom_site_fract_y
_atom_site_fract_z
Si Si1 0.159917 0.133498 0.109765
Si Si2 0.838470 0.304641 0.890822
Si Si3 0.839402 0.963536 0.891508
Si Si4 0.838390 0.794542 0.112239
Si Si5 0.163588 0.540218 0.101861
Si Si6 0.836888 0.379783 0.103852
O O1 0.250000 0.137993 0.250000
O O2 0.178538 0.085085 0.040895
O O3 0.000000 0.141830 0.152604
O O4 0.214227 0.171157 0.005078
O O5 0.750000 0.317628 0.750000
O O6 0.808993 0.254924 0.939344
O O7 0.000000 0.312142 0.849060
O O8 0.796877 0.334075 0.027812
O O9 0.750000 0.968260 0.750000
O O10 0.000000 0.972677 0.851292
O O11 0.782436 0.000000 0.000000
O O12 0.750000 0.806237 0.250000
O O13 0.000000 0.801526 0.150060
O O14 0.250000 0.538800 0.250000
O O15 0.000000 0.538813 0.142435
O O16 0.205809 0.500000 0.000000
O O17 0.202390 0.583250 0.011862
O O18 0.750000 0.385652 0.250000
O O19 0.000000 0.382126 0.145324
#
# Coordination Sequence:
#
# PCOD8221079 Si02
#       6
#     8   8   8   8   8   8
#     4   9  18  32  48  67  93 123 154 190 232 278
#     4   9  18  33  51  71  96 126 160 197 237 282
#     4   9  18  32  48  67  92 121 153 190 232 277
#     4   9  18  32  49  70  96 124 156 195 236 279
#     4  10  21  36  54  77 103 131 165 203 242 286
#     4  10  21  35  51  74 102 130 163 201 240 285
#
# _framework density 17.668320999999999
#
# number of rings (size 3 to 8) (size 9 to 14) (size 15 to 20)
#    0.000    2.667    0.000    1.000    0.000    4.000 
#    0.000    0.000    0.000    0.000    0.000    0.000 
#    0.000    0.000    0.000    0.000    0.000    0.000 
#
# Total GULP energy -595132.547527 kJ/mol
# GULP energy per Si atom -12398.594740 kJ/mol
# Density = 1.762811 g / cm^3
# Si number density = 17.668321 Si / 1000 Ang^3
#
#
#
# Elastic Constant Matrix: (Units=GPa)
#
#
# Indices 1 2 3 4 5 6 
#
# 1 55.7168 48.2447 58.9581 0.0000 0.0000 0.0000
# 2 48.2447 132.0344 84.4139 0.0000 0.0000 0.0000
# 3 58.9581 84.4139 125.1885 0.0000 0.0000 0.0000
# 4 0.0000 0.0000 0.0000 31.7348 0.0000 0.0000
# 5 0.0000 0.0000 0.0000 0.0000 35.9680 0.0000
# 6 0.0000 0.0000 0.0000 0.0000 0.0000 23.3833
#
#
#
# Elastic Compliance Matrix: (Units=1/GPa)
#
#
# Indices 1 2 3 4 5 6 
#
# 1 0.037050 -0.004187 -0.014625 0.000000 0.000000 0.000000
# 2 -0.004187 0.013786 -0.007324 0.000000 0.000000 0.000000
# 3 -0.014625 -0.007324 0.019814 0.000000 0.000000 0.000000
# 4 0.000000 0.000000 0.000000 0.031511 0.000000 0.000000
# 5 0.000000 0.000000 0.000000 0.000000 0.027802 0.000000
# 6 0.000000 0.000000 0.000000 0.000000 0.000000 0.042766
#
#
# Mechanical properties :
#
#
# Convention : Reuss Voigt Hill
#
# Bulk Modulus (GPa) = 54.41531 77.35258 65.88395
# Shear Modulus (GPa) = 21.63301 26.30542 23.96921
#
# Velocity S-wave (km/s) = 3.50293 3.86274 3.68723
# Velocity P-wave (km/s) = 6.87210 7.98560 7.44969
#
# Compressibility (1/GPa) = 0.01837718
#
# Stress axis : x y z
#
# Youngs Moduli (GPa) = 26.99070 72.53602 50.46885
#
# Poissons Ratio (x) = 0.30374 0.73812
# Poissons Ratio (y) = 0.11302 0.36963
# Poissons Ratio (z) = 0.39474 0.53125
#
# Static dielectric constant tensor:
#      x y z
#    x 3.255220 0.000000 0.000000 
#    y 0.000000 3.669840 0.000000 
#    z 0.000000 0.000000 3.274630 
# 
# 
# High freq. dielectric constant tensor:
#      x y z
#    x 1.681360 0.000000 0.000000 
#    y 0.000000 1.703230 0.000000 
#    z 0.000000 0.000000 1.670050 
# 
# From -- ./inp_files/6580.got.cif
#   From: 2010.03.12/outbox.cif.g09.slc.cpg/sg53_4_cif.got.tgz:6580.got - 2010.04.16 14:36:59.
