data_PCOD8221070
_publ_section_title
;
Structure prediction by ZEFSAII (Michael W. Deem and Ramdas Pophale) SiO2 
 PCOD8221070
Probable space group: P M N A
;
_chemical_formula_sum "Si O2"
_cell_formula_units_Z 48
_cell_length_a 9.536968
_cell_length_b 31.430686
_cell_length_c 8.964594
_cell_angle_alpha 90.000000
_cell_angle_beta 90.000000
_cell_angle_gamma 90.000000
_cell_volume 2687.167949
_symmetry_space_group_name_H-M "P M N A"
_symmetry_group_IT_number 53
_symmetry_cell_setting 'orthorhombic'
loop_
_space_group_symop_operation_xyz
x,y,z
1/2-x,-y,1/2+z
x,-y,-z
1/2-x,y,1/2-z
-x,-y,-z
1/2+x,y,1/2-z
-x,y,z
1/2+x,-y,1/2+z
loop_
_atom_site_type_symbol
_atom_site_label
_atom_site_fract_x
_atom_site_fract_y
_atom_site_fract_z
Si Si1 0.341694 0.709555 0.393745
Si Si2 0.661995 0.540366 0.602808
Si Si3 0.662900 0.039735 0.599842
Si Si4 0.663185 0.801793 0.401899
Si Si5 0.163252 0.120490 0.101258
Si Si6 0.663220 0.382522 0.598292
O O1 0.250000 0.709087 0.250000
O O2 0.500000 0.709790 0.336098
O O3 0.312212 0.754596 0.477313
O O4 0.313662 0.664592 0.478660
O O5 0.689184 0.500000 0.500000
O O6 0.750000 0.533749 0.750000
O O7 0.500000 0.544750 0.647223
O O8 0.716285 0.582656 0.519008
O O9 0.750000 0.039517 0.750000
O O10 0.500000 0.036449 0.642170
O O11 0.697178 0.082570 0.511406
O O12 0.710338 0.000000 0.500000
O O13 0.750000 0.807289 0.250000
O O14 0.500000 0.809385 0.362432
O O15 0.713506 0.835831 0.523503
O O16 0.250000 0.113192 0.250000
O O17 0.000000 0.121802 0.143859
O O18 0.750000 0.387160 0.750000
O O19 0.500000 0.390427 0.636995
#
# Coordination Sequence:
#
# PCOD8221070 Si02
#       6
#     8   8   8   8   8   8
#     4   8  14  26  45  68  94 122 153 192 234 276
#     4  10  21  35  50  70  95 123 156 193 234 280
#     4  10  21  36  54  77 102 128 161 199 239 285
#     4   9  17  30  49  72  96 124 160 199 238 281
#     4  10  21  35  50  71  99 130 164 200 239 284
#     4   9  17  30  49  72  96 123 156 193 234 280
#
# _framework density 17.862672
#
# number of rings (size 3 to 8) (size 9 to 14) (size 15 to 20)
#    0.000    2.667    0.000    1.500    0.000    2.667 
#    0.000    0.833    0.000    0.000    0.000    0.000 
#    0.000    0.000    0.000    0.000    0.000    0.000 
#
# Total GULP energy -594811.504355 kJ/mol
# GULP energy per Si atom -12391.906341 kJ/mol
# Density = 1.782202 g / cm^3
# Si number density = 17.862672 Si / 1000 Ang^3
#
#
#
# Elastic Constant Matrix: (Units=GPa)
#
#
# Indices 1 2 3 4 5 6 
#
# 1 54.2717 42.3065 53.9421 0.0000 0.0000 0.0000
# 2 42.3065 160.1922 59.9236 0.0000 0.0000 0.0000
# 3 53.9421 59.9236 105.0973 0.0000 0.0000 0.0000
# 4 0.0000 0.0000 0.0000 -21.6710 0.0000 0.0000
# 5 0.0000 0.0000 0.0000 0.0000 31.4506 0.0000
# 6 0.0000 0.0000 0.0000 0.0000 0.0000 -18.4131
#
#
#
# Elastic Compliance Matrix: (Units=1/GPa)
#
#
# Indices 1 2 3 4 5 6 
#
# 1 0.039174 -0.003590 -0.018060 0.000000 0.000000 0.000000
# 2 -0.003590 0.008264 -0.002869 0.000000 0.000000 0.000000
# 3 -0.018060 -0.002869 0.020420 0.000000 0.000000 0.000000
# 4 0.000000 0.000000 0.000000 -0.046145 0.000000 0.000000
# 5 0.000000 0.000000 0.000000 0.000000 0.031796 0.000000
# 6 0.000000 0.000000 0.000000 0.000000 0.000000 -0.054309
#
#
# Mechanical properties :
#
#
# Convention : Reuss Voigt Hill
#
# Bulk Modulus (GPa) = 53.13341 70.21175 61.67258
# Shear Modulus (GPa) = 91.72262 9.16588 50.44425
#
# Velocity S-wave (km/s) = 7.17358 2.26770 5.31990
# Velocity P-wave (km/s) = 9.92087 6.80061 8.50506
#
# Compressibility (1/GPa) = 0.01882055
#
# Stress axis : x y z
#
# Youngs Moduli (GPa) = 25.52687 121.00735 48.97138
#
# Poissons Ratio (x) = 0.43446 0.88440
# Poissons Ratio (y) = 0.09165 0.14050
# Poissons Ratio (z) = 0.46100 0.34718
#
# Static dielectric constant tensor:
#      x y z
#    x 3.268340 0.000000 0.000000 
#    y 0.000000 4.148090 0.000000 
#    z 0.000000 0.000000 2.364300 
# 
# 
# High freq. dielectric constant tensor:
#      x y z
#    x 1.690390 0.000000 0.000000 
#    y 0.000000 1.725770 0.000000 
#    z 0.000000 0.000000 1.654520 
# 
# From -- ./inp_files/6700.got.cif
#   From: 2010.03.12/outbox.cif.g09.slc.cpg/sg53_4_cif.got.tgz:6700.got - 2010.04.16 14:36:59.
