data_PCOD8221354
_publ_section_title
;
Structure prediction by ZEFSAII (Michael W. Deem and Ramdas Pophale) SiO2 
 PCOD8221354
Probable space group: P M N A
;
_chemical_formula_sum "Si O2"
_cell_formula_units_Z 48
_cell_length_a 17.210671
_cell_length_b 14.985978
_cell_length_c 9.412708
_cell_angle_alpha 90.000000
_cell_angle_beta 90.000000
_cell_angle_gamma 90.000000
_cell_volume 2427.713759
_symmetry_space_group_name_H-M "P M N A"
_symmetry_group_IT_number 53
_symmetry_cell_setting 'orthorhombic'
loop_
_space_group_symop_operation_xyz
x,y,z
1/2-x,-y,1/2+z
x,-y,-z
1/2-x,y,1/2-z
-x,-y,-z
1/2+x,y,1/2-z
-x,y,z
1/2+x,-y,1/2+z
loop_
_atom_site_type_symbol
_atom_site_label
_atom_site_fract_x
_atom_site_fract_y
_atom_site_fract_z
Si Si1 0.590092 0.163153 0.303794
Si Si2 0.307684 0.240183 0.541328
Si Si3 0.761820 0.588071 0.585743
Si Si4 0.085182 0.308954 0.426865
Si Si5 0.355346 0.197636 0.837428
Si Si6 0.830109 0.997428 0.333744
O O1 0.500000 0.155667 0.347442
O O2 0.642601 0.172855 0.444084
O O3 0.606196 0.250611 0.210337
O O4 0.613324 0.076564 0.213958
O O5 0.297119 0.335018 0.464554
O O6 0.350193 0.254825 0.692327
O O7 0.224815 0.195109 0.571964
O O8 0.740529 0.500000 0.500000
O O9 0.750000 0.567537 0.750000
O O10 0.851011 0.614368 0.553793
O O11 0.080667 0.244312 0.564528
O O12 0.000000 0.353050 0.410029
O O13 0.374663 0.095304 0.798317
O O14 0.750000 0.004232 0.250000
O O15 0.812791 0.000000 0.500000
#
# Coordination Sequence:
#
# PCOD8221354 Si02
#       6
#     8   8   8   8   8   8
#     4  11  24  39  61  88 125 171 206 244 304 364
#     4  10  21  42  61  88 123 157 208 247 303 364
#     4  11  24  40  68  97 118 152 195 257 302 366
#     4  10  22  41  63  90 125 165 199 238 307 370
#     4  10  21  37  62  90 120 167 206 257 293 346
#     4  12  23  36  59  89 122 161 214 265 296 341
#
# _framework density 19.771688000000001
#
# number of rings (size 3 to 8) (size 9 to 14) (size 15 to 20)
#    0.000    1.333    5.000    1.000    7.000    2.000 
#    0.000    0.833    0.000    1.000    0.000    0.000 
#    0.000    0.000    0.000    0.000    0.000    0.000 
#
# Total GULP energy -595262.856456 kJ/mol
# GULP energy per Si atom -12401.309509 kJ/mol
# Density = 1.972669 g / cm^3
# Si number density = 19.771688 Si / 1000 Ang^3
#
#
#
# Elastic Constant Matrix: (Units=GPa)
#
#
# Indices 1 2 3 4 5 6 
#
# 1 62.5231 30.8186 45.5992 0.0000 0.0000 0.0000
# 2 30.8186 94.2724 36.8516 0.0000 0.0000 0.0000
# 3 45.5992 36.8516 138.1559 0.0000 0.0000 0.0000
# 4 0.0000 0.0000 0.0000 35.9582 0.0000 0.0000
# 5 0.0000 0.0000 0.0000 0.0000 19.5618 0.0000
# 6 0.0000 0.0000 0.0000 0.0000 0.0000 16.8423
#
#
#
# Elastic Compliance Matrix: (Units=1/GPa)
#
#
# Indices 1 2 3 4 5 6 
#
# 1 0.023067 -0.005096 -0.006254 0.000000 0.000000 0.000000
# 2 -0.005096 0.012968 -0.001777 0.000000 0.000000 0.000000
# 3 -0.006254 -0.001777 0.009776 0.000000 0.000000 0.000000
# 4 0.000000 0.000000 0.000000 0.027810 0.000000 0.000000
# 5 0.000000 0.000000 0.000000 0.000000 0.051120 0.000000
# 6 0.000000 0.000000 0.000000 0.000000 0.000000 0.059374
#
#
# Mechanical properties :
#
#
# Convention : Reuss Voigt Hill
#
# Bulk Modulus (GPa) = 51.13224 57.94336 54.53780
# Shear Modulus (GPa) = 23.05311 26.58459 24.81885
#
# Velocity S-wave (km/s) = 3.41833 3.67083 3.54683
# Velocity P-wave (km/s) = 6.44185 6.88015 6.66461
#
# Compressibility (1/GPa) = 0.01955713
#
# Stress axis : x y z
#
# Youngs Moduli (GPa) = 43.35131 77.11152 102.28658
#
# Poissons Ratio (x) = 0.39297 0.63972
# Poissons Ratio (y) = 0.22093 0.18178
# Poissons Ratio (z) = 0.27113 0.13704
#
# Static dielectric constant tensor:
#      x y z
#    x 3.389250 0.000000 0.000000 
#    y 0.000000 3.502900 0.000000 
#    z 0.000000 0.000000 3.751220 
# 
# 
# High freq. dielectric constant tensor:
#      x y z
#    x 1.752810 0.000000 0.000000 
#    y 0.000000 1.758280 0.000000 
#    z 0.000000 0.000000 1.787600 
# 
# From -- ./inp_files/9996.got.cif
#   From: 2010.03.12/outbox.cif.g09.slc.cpg/sg53_5_cif.got.tgz:9996.got - 2010.04.16 14:36:59.
