data_PCOD8221476
_publ_section_title
;
Structure prediction by ZEFSAII (Michael W. Deem and Ramdas Pophale) SiO2 
 PCOD8221476
Probable space group: P M N A
;
_chemical_formula_sum "Si O2"
_cell_formula_units_Z 64
_cell_length_a 8.524732
_cell_length_b 19.708369
_cell_length_c 20.091829
_cell_angle_alpha 90.000000
_cell_angle_beta 90.000000
_cell_angle_gamma 90.000000
_cell_volume 3375.599336
_symmetry_space_group_name_H-M "P M N A"
_symmetry_group_IT_number 53
_symmetry_cell_setting 'orthorhombic'
loop_
_space_group_symop_operation_xyz
x,y,z
1/2-x,-y,1/2+z
x,-y,-z
1/2-x,y,1/2-z
-x,-y,-z
1/2+x,y,1/2-z
-x,y,z
1/2+x,-y,1/2+z
loop_
_atom_site_type_symbol
_atom_site_label
_atom_site_fract_x
_atom_site_fract_y
_atom_site_fract_z
Si Si1 0.815553 0.817590 0.439414
Si Si2 0.184066 0.946294 0.680159
Si Si3 0.316234 0.568461 0.821070
Si Si4 0.819940 0.698530 0.604894
Si Si5 0.681747 0.472243 0.570627
Si Si6 0.822221 0.666030 0.453542
Si Si7 0.814738 0.093045 0.821931
Si Si8 0.181612 0.839922 0.918514
O O1 0.768391 0.739348 0.425887
O O2 0.769031 0.860115 0.375643
O O3 0.726011 0.845691 0.504044
O O4 0.000000 0.822557 0.454505
O O5 0.250000 0.917285 0.750000
O O6 0.214479 0.893293 0.621807
O O7 0.000000 0.961176 0.687075
O O8 0.272738 0.015595 0.662003
O O9 0.250000 0.548632 0.750000
O O10 0.500000 0.574167 0.817016
O O11 0.252061 0.642164 0.844439
O O12 0.273945 0.508940 0.871186
O O13 0.805680 0.665148 0.532745
O O14 0.714482 0.765355 0.610808
O O15 0.000000 0.718872 0.619682
O O16 0.744814 0.500000 0.500000
O O17 0.500000 0.488559 0.579235
O O18 0.710981 0.391703 0.576798
O O19 0.000000 0.650033 0.432029
O O20 0.750000 0.114638 0.750000
O O21 0.000000 0.103865 0.824900
O O22 0.000000 0.857622 0.909089
#
# Coordination Sequence:
#
# PCOD8221476 Si02
#       8
#     8   8   8   8   8   8   8   8
#     4  10  21  39  60  87 119 152 192 240 290 342
#     4  11  22  39  60  83 114 153 196 241 287 344
#     4  11  23  39  58  81 115 152 192 238 288 342
#     4   9  19  36  56  79 110 151 190 230 281 341
#     4  11  22  35  57  87 115 147 190 237 283 340
#     4   9  18  35  59  84 111 146 190 233 280 337
#     4  11  22  39  62  88 116 151 193 238 291 350
#     4  11  22  36  57  87 120 154 192 239 288 341
#
# _framework density 18.959596000000001
#
# number of rings (size 3 to 8) (size 9 to 14) (size 15 to 20)
#    0.000    1.625    1.250    6.000    0.000    5.000 
#    0.000    4.375    0.000    3.000    0.000    0.000 
#    0.000    0.000    0.000    0.000    0.000    0.000 
#
# Total GULP energy -793834.800113 kJ/mol
# GULP energy per Si atom -12403.668752 kJ/mol
# Density = 1.891644 g / cm^3
# Si number density = 18.959596 Si / 1000 Ang^3
#
#
#
# Elastic Constant Matrix: (Units=GPa)
#
#
# Indices 1 2 3 4 5 6 
#
# 1 51.5868 9.3772 9.3553 0.0000 0.0000 0.0000
# 2 9.3772 93.6185 58.9093 0.0000 0.0000 0.0000
# 3 9.3553 58.9093 98.5509 0.0000 0.0000 0.0000
# 4 0.0000 0.0000 0.0000 32.9812 0.0000 0.0000
# 5 0.0000 0.0000 0.0000 0.0000 29.3777 0.0000
# 6 0.0000 0.0000 0.0000 0.0000 0.0000 30.7483
#
#
#
# Elastic Compliance Matrix: (Units=1/GPa)
#
#
# Indices 1 2 3 4 5 6 
#
# 1 0.019820 -0.001284 -0.001114 0.000000 0.000000 0.000000
# 2 -0.001284 0.017205 -0.010162 0.000000 0.000000 0.000000
# 3 -0.001114 -0.010162 0.016327 0.000000 0.000000 0.000000
# 4 0.000000 0.000000 0.000000 0.030320 0.000000 0.000000
# 5 0.000000 0.000000 0.000000 0.000000 0.034039 0.000000
# 6 0.000000 0.000000 0.000000 0.000000 0.000000 0.032522
#
#
# Mechanical properties :
#
#
# Convention : Reuss Voigt Hill
#
# Bulk Modulus (GPa) = 35.42153 44.33776 39.87964
# Shear Modulus (GPa) = 27.06123 29.69575 28.37849
#
# Velocity S-wave (km/s) = 3.78207 3.96190 3.87303
# Velocity P-wave (km/s) = 6.14779 6.66071 6.40938
#
# Compressibility (1/GPa) = 0.02823142
#
# Stress axis : x y z
#
# Youngs Moduli (GPa) = 50.45347 58.12262 61.24666
#
# Poissons Ratio (x) = 0.07466 0.06821
# Poissons Ratio (y) = 0.06481 0.62242
# Poissons Ratio (z) = 0.05619 0.59067
#
# Static dielectric constant tensor:
#      x y z
#    x 3.464940 0.000000 0.000000 
#    y 0.000000 3.492500 0.000000 
#    z 0.000000 0.000000 3.353760 
# 
# 
# High freq. dielectric constant tensor:
#      x y z
#    x 1.745070 0.000000 0.000000 
#    y 0.000000 1.741540 0.000000 
#    z 0.000000 0.000000 1.726210 
# 
# From -- ./inp_files/31240.got.cif
#   From: 2010.03.12/outbox.cif.g09.slc.cpg/sg53_16_cif.got.tgz:31240.got - 2010.04.16 14:36:59.
