data_PCOD8221304
_publ_section_title
;
Structure prediction by ZEFSAII (Michael W. Deem and Ramdas Pophale) SiO2 
 PCOD8221304
Probable space group: P M N A
;
_chemical_formula_sum "Si O2"
_cell_formula_units_Z 64
_cell_length_a 25.006182
_cell_length_b 14.227953
_cell_length_c 9.188164
_cell_angle_alpha 90.000000
_cell_angle_beta 90.000000
_cell_angle_gamma 90.000000
_cell_volume 3269.027304
_symmetry_space_group_name_H-M "P M N A"
_symmetry_group_IT_number 53
_symmetry_cell_setting 'orthorhombic'
loop_
_space_group_symop_operation_xyz
x,y,z
1/2-x,-y,1/2+z
x,-y,-z
1/2-x,y,1/2-z
-x,-y,-z
1/2+x,y,1/2-z
-x,y,z
1/2+x,-y,1/2+z
loop_
_atom_site_type_symbol
_atom_site_label
_atom_site_fract_x
_atom_site_fract_y
_atom_site_fract_z
Si Si1 0.060863 0.709431 0.420327
Si Si2 0.437622 0.711519 0.417018
Si Si3 0.148845 0.596304 0.583115
Si Si4 0.608711 0.089987 0.586482
Si Si5 0.766295 0.092086 0.916524
Si Si6 0.438829 0.919406 0.109915
Si Si7 0.649657 0.597415 0.575501
Si Si8 0.250692 0.275261 0.082185
O O1 0.077706 0.696864 0.251935
O O2 0.095959 0.647062 0.526408
O O3 0.068241 0.818252 0.466211
O O4 0.000000 0.676792 0.442507
O O5 0.500000 0.694780 0.444925
O O6 0.422983 0.817484 0.465687
O O7 0.405975 0.636134 0.512700
O O8 0.156559 0.500000 0.500000
O O9 0.142841 0.578309 0.753975
O O10 0.200610 0.656730 0.546566
O O11 0.670944 0.104587 0.557717
O O12 0.600687 0.070016 0.755875
O O13 0.586344 0.000000 0.500000
O O14 0.750000 0.083190 0.750000
O O15 0.738972 0.183924 0.984531
O O16 0.745011 0.000000 0.000000
O O17 0.500000 0.930768 0.164114
O O18 0.421675 0.000000 0.000000
O O19 0.665271 0.500000 0.500000
O O20 0.695880 0.672405 0.540577
O O21 0.250000 0.244140 0.250000
#
# Coordination Sequence:
#
# PCOD8221304 Si02
#       8
#     8   8   8   8   8   8   8   8
#     4   9  20  39  60  87 124 159 199 248 296 355
#     4  10  21  39  61  87 121 159 202 250 302 356
#     4  11  24  40  64  92 116 156 200 248 305 359
#     4  10  21  37  58  87 120 158 201 244 296 353
#     4  11  24  40  61  91 126 163 199 244 297 356
#     4   9  19  36  57  86 121 157 200 247 293 346
#     4  11  23  41  63  88 122 153 197 252 303 364
#     4  10  23  43  64  90 123 155 200 251 298 357
#
# _framework density 19.577688999999999
#
# number of rings (size 3 to 8) (size 9 to 14) (size 15 to 20)
#    0.000    1.875    1.250    2.625    3.500    4.500 
#    2.250    1.250    0.000    0.000    0.000    0.000 
#    0.000    0.000    0.000    0.000    0.000    0.000 
#
# Total GULP energy -793888.063080 kJ/mol
# GULP energy per Si atom -12404.500986 kJ/mol
# Density = 1.953313 g / cm^3
# Si number density = 19.577689 Si / 1000 Ang^3
#
#
#
# Elastic Constant Matrix: (Units=GPa)
#
#
# Indices 1 2 3 4 5 6 
#
# 1 76.9547 39.7089 40.6241 0.0000 0.0000 0.0000
# 2 39.7089 137.2474 80.7889 0.0000 0.0000 0.0000
# 3 40.6241 80.7889 106.0900 0.0000 0.0000 0.0000
# 4 0.0000 0.0000 0.0000 42.6378 0.0000 0.0000
# 5 0.0000 0.0000 0.0000 0.0000 32.7546 0.0000
# 6 0.0000 0.0000 0.0000 0.0000 0.0000 21.4830
#
#
#
# Elastic Compliance Matrix: (Units=1/GPa)
#
#
# Indices 1 2 3 4 5 6 
#
# 1 0.016561 -0.001919 -0.004881 0.000000 0.000000 0.000000
# 2 -0.001919 0.013428 -0.009491 0.000000 0.000000 0.000000
# 3 -0.004881 -0.009491 0.018522 0.000000 0.000000 0.000000
# 4 0.000000 0.000000 0.000000 0.023453 0.000000 0.000000
# 5 0.000000 0.000000 0.000000 0.000000 0.030530 0.000000
# 6 0.000000 0.000000 0.000000 0.000000 0.000000 0.046548
#
#
# Mechanical properties :
#
#
# Convention : Reuss Voigt Hill
#
# Bulk Modulus (GPa) = 62.76995 71.39289 67.08142
# Shear Modulus (GPa) = 26.74750 29.98641 28.36696
#
# Velocity S-wave (km/s) = 3.70026 3.91789 3.81063
# Velocity P-wave (km/s) = 7.09841 7.55064 7.32801
#
# Compressibility (1/GPa) = 0.01593119
#
# Stress axis : x y z
#
# Youngs Moduli (GPa) = 60.38249 74.47202 53.98938
#
# Poissons Ratio (x) = 0.14289 0.26350
# Poissons Ratio (y) = 0.11585 0.51240
# Poissons Ratio (z) = 0.29470 0.70680
#
# Static dielectric constant tensor:
#      x y z
#    x 3.542470 0.000000 0.000000 
#    y 0.000000 3.668880 0.000000 
#    z 0.000000 0.000000 3.519070 
# 
# 
# High freq. dielectric constant tensor:
#      x y z
#    x 1.767540 0.000000 0.000000 
#    y 0.000000 1.773500 0.000000 
#    z 0.000000 0.000000 1.758750 
# 
# From -- ./inp_files/11950.got.cif
#   From: 2010.03.12/outbox.cif.g09.slc.cpg/sg53_6_cif.got.tgz:11950.got - 2010.04.16 14:36:59.
