data_PCOD8221368
_publ_section_title
;
Structure prediction by ZEFSAII (Michael W. Deem and Ramdas Pophale) SiO2 
 PCOD8221368
Probable space group: P M N A
;
_chemical_formula_sum "Si O2"
_cell_formula_units_Z 48
_cell_length_a 19.117645
_cell_length_b 5.116760
_cell_length_c 22.881777
_cell_angle_alpha 90.000000
_cell_angle_beta 90.000000
_cell_angle_gamma 90.000000
_cell_volume 2238.304607
_symmetry_space_group_name_H-M "P M N A"
_symmetry_group_IT_number 53
_symmetry_cell_setting 'orthorhombic'
loop_
_space_group_symop_operation_xyz
x,y,z
1/2-x,-y,1/2+z
x,-y,-z
1/2-x,y,1/2-z
-x,-y,-z
1/2+x,y,1/2-z
-x,y,z
1/2+x,-y,1/2+z
loop_
_atom_site_type_symbol
_atom_site_label
_atom_site_fract_x
_atom_site_fract_y
_atom_site_fract_z
Si Si1 0.860365 0.068141 0.568023
Si Si2 0.780151 0.256155 0.962641
Si Si3 0.419393 0.555428 0.875396
Si Si4 0.076014 0.138069 0.938113
Si Si5 0.916573 0.411613 0.753516
Si Si6 0.080617 0.091911 0.183101
O O1 0.781517 0.174625 0.582249
O O2 0.912569 0.306756 0.581666
O O3 0.867310 0.000000 0.500000
O O4 0.875274 0.808726 0.605272
O O5 0.856497 0.332970 0.935343
O O6 0.751668 0.500000 0.000000
O O7 0.796944 0.000000 0.000000
O O8 0.500000 0.643368 0.873542
O O9 0.391198 0.460496 0.812580
O O10 0.090087 0.929441 0.886640
O O11 0.000000 0.281362 0.925970
O O12 0.069039 0.000000 0.000000
O O13 0.884543 0.146302 0.780415
O O14 0.000000 0.401804 0.755567
O O15 0.885336 0.639543 0.794792
O O16 0.000000 0.096487 0.200830
#
# Coordination Sequence:
#
# PCOD8221368 Si02
#       6
#     8   8   8   8   8   8
#     4  11  22  37  56  81 114 150 184 226 290 350
#     4  10  21  38  57  78 113 156 186 214 269 347
#     4  11  22  36  58  84 110 144 191 242 279 325
#     4   9  19  35  59  91 118 143 185 239 285 326
#     4   9  18  33  52  76 106 145 187 223 273 334
#     4   9  17  31  52  78 111 145 179 225 277 332
#
# _framework density 21.444804000000001
#
# number of rings (size 3 to 8) (size 9 to 14) (size 15 to 20)
#    0.000    2.167    0.000    4.000    0.000    7.667 
#    0.000    5.000    0.000    6.000    0.000    0.000 
#    0.000    0.000    0.000    0.000    0.000    0.000 
#
# Total GULP energy -594672.568312 kJ/mol
# GULP energy per Si atom -12389.011840 kJ/mol
# Density = 2.139599 g / cm^3
# Si number density = 21.444804 Si / 1000 Ang^3
#
#
#
# Elastic Constant Matrix: (Units=GPa)
#
#
# Indices 1 2 3 4 5 6 
#
# 1 74.8778 10.1860 26.1551 0.0000 0.0000 0.0000
# 2 10.1860 110.9202 19.9681 0.0000 0.0000 0.0000
# 3 26.1551 19.9681 93.5949 0.0000 0.0000 0.0000
# 4 0.0000 0.0000 0.0000 29.4306 0.0000 0.0000
# 5 0.0000 0.0000 0.0000 0.0000 -7.8201 0.0000
# 6 0.0000 0.0000 0.0000 0.0000 0.0000 18.4936
#
#
#
# Elastic Compliance Matrix: (Units=1/GPa)
#
#
# Indices 1 2 3 4 5 6 
#
# 1 0.014843 -0.000641 -0.004011 0.000000 0.000000 0.000000
# 2 -0.000641 0.009403 -0.001827 0.000000 0.000000 0.000000
# 3 -0.004011 -0.001827 0.012195 0.000000 0.000000 0.000000
# 4 0.000000 0.000000 0.000000 0.033978 0.000000 0.000000
# 5 0.000000 0.000000 0.000000 0.000000 -0.127876 0.000000
# 6 0.000000 0.000000 0.000000 0.000000 0.000000 0.054073
#
#
# Mechanical properties :
#
#
# Convention : Reuss Voigt Hill
#
# Bulk Modulus (GPa) = 42.58352 43.55679 43.07016
# Shear Modulus (GPa) = 287.31031 22.89309 155.10170
#
# Velocity S-wave (km/s) = 11.58739 3.27086 8.51370
# Velocity P-wave (km/s) = 14.10403 5.88387 10.80610
#
# Compressibility (1/GPa) = 0.02348326
#
# Stress axis : x y z
#
# Youngs Moduli (GPa) = 67.36987 106.34613 82.00038
#
# Poissons Ratio (x) = 0.06817 0.32892
# Poissons Ratio (y) = 0.04318 0.14982
# Poissons Ratio (z) = 0.27024 0.19430
#
# Static dielectric constant tensor:
#      x y z
#    x 4.122600 0.000000 0.000000 
#    y 0.000000 3.961410 0.000000 
#    z 0.000000 0.000000 3.880960 
# 
# 
# High freq. dielectric constant tensor:
#      x y z
#    x 1.812270 0.000000 0.000000 
#    y 0.000000 1.843230 0.000000 
#    z 0.000000 0.000000 1.834200 
# 
# From -- ./inp_files/35494.got.cif
#   From: 2010.03.12/outbox.cif.g09.slc.cpg/sg53_18_cif.got.tgz:35494.got - 2010.04.16 14:36:59.
