data_PCOD8221997
_publ_section_title
;
Structure prediction by ZEFSAII (Michael W. Deem and Ramdas Pophale) SiO2 
 PCOD8221997
Probable space group: P M N A
;
_chemical_formula_sum "Si O2"
_cell_formula_units_Z 40
_cell_length_a 9.056554
_cell_length_b 16.226923
_cell_length_c 14.345612
_cell_angle_alpha 90.000000
_cell_angle_beta 90.000000
_cell_angle_gamma 90.000000
_cell_volume 2108.231203
_symmetry_space_group_name_H-M "P M N A"
_symmetry_group_IT_number 53
_symmetry_cell_setting 'orthorhombic'
loop_
_space_group_symop_operation_xyz
x,y,z
1/2-x,-y,1/2+z
x,-y,-z
1/2-x,y,1/2-z
-x,-y,-z
1/2+x,y,1/2-z
-x,y,z
1/2+x,-y,1/2+z
loop_
_atom_site_type_symbol
_atom_site_label
_atom_site_fract_x
_atom_site_fract_y
_atom_site_fract_z
Si Si1 0.838248 0.468780 0.395200
Si Si2 0.325979 0.877740 0.972702
Si Si3 0.673394 0.379452 0.659665
Si Si4 0.326715 0.306405 0.017444
Si Si5 0.175033 0.025315 0.651374
O O1 0.849712 0.500000 0.500000
O O2 0.716419 0.523094 0.342593
O O3 0.794064 0.371623 0.398858
O O4 0.000000 0.480290 0.347537
O O5 0.500000 0.886371 0.973144
O O6 0.275630 0.784408 0.950561
O O7 0.268094 0.937472 0.890335
O O8 0.272821 0.905826 0.075932
O O9 0.750000 0.339217 0.750000
O O10 0.500000 0.370321 0.666610
O O11 0.731393 0.329968 0.571681
O O12 0.500000 0.308933 0.990636
O O13 0.250000 0.043663 0.750000
O O14 0.000000 0.026542 0.666516
#
# Coordination Sequence:
#
# PCOD8221997 Si02
#       5
#     8   8   8   8   8
#     4   8  15  29  48  67  89 120 154 188 232 283
#     4   8  16  32  53  74 100 135 168 198 245 307
#     4  11  21  32  47  68  96 127 161 201 243 288
#     4   9  17  32  52  71  94 125 160 198 242 292
#     4   9  17  32  53  75 100 133 169 203 244 296
#
# _framework density 18.973251999999999
#
# number of rings (size 3 to 8) (size 9 to 14) (size 15 to 20)
#    0.000    3.000    0.000    4.200    0.000    4.400 
#    0.000    7.000    0.000    2.400    0.000    0.000 
#    0.000    0.000    0.000    0.000    0.000    0.000 
#
# Total GULP energy -495636.469176 kJ/mol
# GULP energy per Si atom -12390.911729 kJ/mol
# Density = 1.893007 g / cm^3
# Si number density = 18.973252 Si / 1000 Ang^3
#
#
#
# Elastic Constant Matrix: (Units=GPa)
#
#
# Indices 1 2 3 4 5 6 
#
# 1 67.5538 1.1839 6.5676 0.0000 0.0000 0.0000
# 2 1.1839 96.9779 -13.5268 0.0000 0.0000 0.0000
# 3 6.5676 -13.5268 39.6000 0.0000 0.0000 0.0000
# 4 0.0000 0.0000 0.0000 13.7445 0.0000 0.0000
# 5 0.0000 0.0000 0.0000 0.0000 27.2678 0.0000
# 6 0.0000 0.0000 0.0000 0.0000 0.0000 -42.0303
#
#
#
# Elastic Compliance Matrix: (Units=1/GPa)
#
#
# Indices 1 2 3 4 5 6 
#
# 1 0.015074 -0.000559 -0.002691 0.000000 0.000000 0.000000
# 2 -0.000559 0.010848 0.003798 0.000000 0.000000 0.000000
# 3 -0.002691 0.003798 0.026996 0.000000 0.000000 0.000000
# 4 0.000000 0.000000 0.000000 0.072756 0.000000 0.000000
# 5 0.000000 0.000000 0.000000 0.000000 0.036673 0.000000
# 6 0.000000 0.000000 0.000000 0.000000 0.000000 -0.023792
#
#
# Mechanical properties :
#
#
# Convention : Reuss Voigt Hill
#
# Bulk Modulus (GPa) = 18.51350 21.39793 19.95571
# Shear Modulus (GPa) = 32.16145 13.79020 22.97582
#
# Velocity S-wave (km/s) = 4.12162 2.69889 3.48366
# Velocity P-wave (km/s) = 5.69466 4.58415 5.16931
#
# Compressibility (1/GPa) = 0.05401464
#
# Stress axis : x y z
#
# Youngs Moduli (GPa) = 66.33740 92.18067 37.04213
#
# Poissons Ratio (x) = 0.05157 0.09969
# Poissons Ratio (y) = 0.03711 -0.14070
# Poissons Ratio (z) = 0.17852 -0.35014
#
# Static dielectric constant tensor:
#      x y z
#    x 3.158010 0.000000 0.000000 
#    y 0.000000 4.026390 0.000000 
#    z 0.000000 0.000000 3.347430 
# 
# 
# High freq. dielectric constant tensor:
#      x y z
#    x 1.708690 0.000000 0.000000 
#    y 0.000000 1.739130 0.000000 
#    z 0.000000 0.000000 1.719720 
# 
# From -- ./inp_files/20019.got.cif
#   From: 2010.03.12/outbox.cif.g09.slc.cpg/sg53_11_cif.got.tgz:20019.got - 2010.04.16 14:36:59.
