data_PCOD8221294
_publ_section_title
;
Structure prediction by ZEFSAII (Michael W. Deem and Ramdas Pophale) SiO2 
 PCOD8221294
Probable space group: P M N A
;
_chemical_formula_sum "Si O2"
_cell_formula_units_Z 48
_cell_length_a 8.969870
_cell_length_b 16.205161
_cell_length_c 17.933995
_cell_angle_alpha 90.000000
_cell_angle_beta 90.000000
_cell_angle_gamma 90.000000
_cell_volume 2606.853008
_symmetry_space_group_name_H-M "P M N A"
_symmetry_group_IT_number 53
_symmetry_cell_setting 'orthorhombic'
loop_
_space_group_symop_operation_xyz
x,y,z
1/2-x,-y,1/2+z
x,-y,-z
1/2-x,y,1/2-z
-x,-y,-z
1/2+x,y,1/2-z
-x,y,z
1/2+x,-y,1/2+z
loop_
_atom_site_type_symbol
_atom_site_label
_atom_site_fract_x
_atom_site_fract_y
_atom_site_fract_z
Si Si1 0.173826 0.589687 0.969567
Si Si2 0.170411 0.733187 0.455920
Si Si3 0.173832 0.855978 0.328228
Si Si4 0.325003 0.995507 0.586116
Si Si5 0.825229 0.659956 0.673126
Si Si6 0.170903 0.169134 0.398180
O O1 0.261304 0.603684 0.892833
O O2 0.000000 0.600564 0.953510
O O3 0.213749 0.500000 0.000000
O O4 0.223250 0.654819 0.032830
O O5 0.202265 0.773355 0.376004
O O6 0.204450 0.802457 0.517669
O O7 0.000000 0.703074 0.464390
O O8 0.250000 0.839350 0.250000
O O9 0.243114 0.934549 0.368010
O O10 0.000000 0.873241 0.317195
O O11 0.500000 0.007450 0.595812
O O12 0.275456 0.000000 0.500000
O O13 0.277144 0.907567 0.620635
O O14 0.750000 0.632775 0.750000
O O15 0.790292 0.756125 0.657611
O O16 0.000000 0.643524 0.677914
O O17 0.000000 0.141042 0.389344
#
# Coordination Sequence:
#
# PCOD8221294 Si02
#       6
#     8   8   8   8   8   8
#     4  10  21  37  60  89 117 147 185 227 274 333
#     4   9  19  36  58  81 107 144 184 225 277 332
#     4  11  23  39  57  79 111 148 189 236 284 330
#     4  11  22  34  53  82 112 148 192 234 280 330
#     4  10  21  37  58  85 116 150 186 229 284 335
#     4   9  18  34  55  79 107 145 188 227 275 331
#
# _framework density 18.413004999999998
#
# number of rings (size 3 to 8) (size 9 to 14) (size 15 to 20)
#    0.000    2.000    1.667    3.000    0.000    7.333 
#    0.000    2.500    0.000    2.000    0.000    0.000 
#    0.000    0.000    0.000    0.000    0.000    0.000 
#
# Total GULP energy -595366.399054 kJ/mol
# GULP energy per Si atom -12403.466647 kJ/mol
# Density = 1.837110 g / cm^3
# Si number density = 18.413005 Si / 1000 Ang^3
#
#
#
# Elastic Constant Matrix: (Units=GPa)
#
#
# Indices 1 2 3 4 5 6 
#
# 1 104.5863 63.7874 66.6814 0.0000 0.0000 0.0000
# 2 63.7874 108.7568 54.6103 0.0000 0.0000 0.0000
# 3 66.6814 54.6103 126.3232 0.0000 0.0000 0.0000
# 4 0.0000 0.0000 0.0000 18.2081 0.0000 0.0000
# 5 0.0000 0.0000 0.0000 0.0000 24.1205 0.0000
# 6 0.0000 0.0000 0.0000 0.0000 0.0000 29.8485
#
#
#
# Elastic Compliance Matrix: (Units=1/GPa)
#
#
# Indices 1 2 3 4 5 6 
#
# 1 0.018171 -0.007461 -0.006366 0.000000 0.000000 0.000000
# 2 -0.007461 0.014807 -0.002463 0.000000 0.000000 0.000000
# 3 -0.006366 -0.002463 0.012342 0.000000 0.000000 0.000000
# 4 0.000000 0.000000 0.000000 0.054921 0.000000 0.000000
# 5 0.000000 0.000000 0.000000 0.000000 0.041458 0.000000
# 6 0.000000 0.000000 0.000000 0.000000 0.000000 0.033503
#
#
# Mechanical properties :
#
#
# Convention : Reuss Voigt Hill
#
# Bulk Modulus (GPa) = 78.49631 78.86938 78.68285
# Shear Modulus (GPa) = 23.58176 24.74124 24.16150
#
# Velocity S-wave (km/s) = 3.58259 3.66960 3.62636
# Velocity P-wave (km/s) = 7.73542 7.80264 7.76910
#
# Compressibility (1/GPa) = 0.01273945
#
# Stress axis : x y z
#
# Youngs Moduli (GPa) = 55.03340 67.53368 81.02657
#
# Poissons Ratio (x) = 0.50384 0.51585
# Poissons Ratio (y) = 0.41058 0.19958
# Poissons Ratio (z) = 0.35037 0.16635
#
# Static dielectric constant tensor:
#      x y z
#    x 3.437000 0.000000 0.000000 
#    y 0.000000 3.266940 0.000000 
#    z 0.000000 0.000000 3.613550 
# 
# 
# High freq. dielectric constant tensor:
#      x y z
#    x 1.724520 0.000000 0.000000 
#    y 0.000000 1.705100 0.000000 
#    z 0.000000 0.000000 1.709100 
# 
# From -- ./inp_files/26197.got.cif
#   From: 2010.03.12/outbox.cif.g09.slc.cpg/sg53_14_cif.got.tgz:26197.got - 2010.04.16 14:36:59.
