data_PCOD8221110
_publ_section_title
;
Structure prediction by ZEFSAII (Michael W. Deem and Ramdas Pophale) SiO2 
 PCOD8221110
Probable space group: P M N A
;
_chemical_formula_sum "Si O2"
_cell_formula_units_Z 48
_cell_length_a 14.394786
_cell_length_b 11.878838
_cell_length_c 14.707124
_cell_angle_alpha 90.000000
_cell_angle_beta 90.000000
_cell_angle_gamma 90.000000
_cell_volume 2514.820121
_symmetry_space_group_name_H-M "P M N A"
_symmetry_group_IT_number 53
_symmetry_cell_setting 'orthorhombic'
loop_
_space_group_symop_operation_xyz
x,y,z
1/2-x,-y,1/2+z
x,-y,-z
1/2-x,y,1/2-z
-x,-y,-z
1/2+x,y,1/2-z
-x,y,z
1/2+x,-y,1/2+z
loop_
_atom_site_type_symbol
_atom_site_label
_atom_site_fract_x
_atom_site_fract_y
_atom_site_fract_z
Si Si1 0.500000 0.236116 0.767882
Si Si2 0.000000 0.731264 0.054146
Si Si3 0.802278 0.631772 0.008756
Si Si4 0.000000 0.980867 0.708879
Si Si5 0.202565 0.217236 0.156403
Si Si6 0.000000 0.837824 0.871258
Si Si7 0.307064 0.247417 0.837564
Si Si8 0.819928 0.990964 0.605907
O O1 0.500000 0.230781 0.658379
O O2 0.410003 0.291927 0.812817
O O3 0.500000 0.111726 0.806580
O O4 0.091363 0.658260 0.035039
O O5 0.000000 0.838592 0.982701
O O6 0.730293 0.677818 0.081613
O O7 0.790036 0.500000 0.000000
O O8 0.768154 0.689521 0.916205
O O9 0.000000 0.957066 0.817865
O O10 0.092878 0.934414 0.659145
O O11 0.250000 0.251685 0.250000
O O12 0.091209 0.225521 0.165401
O O13 0.232295 0.091351 0.123599
O O14 0.250000 0.277610 0.750000
O O15 0.295774 0.114595 0.857454
O O16 0.843974 0.000000 0.500000
#
# Coordination Sequence:
#
# PCOD8221110 Si02
#       8
#     4   4   8   4   8   4   8   8
#     4  10  22  37  61  92 126 162 203 251 296 374
#     4  10  21  41  62  89 121 156 205 258 314 362
#     4  11  24  42  66  90 119 162 211 260 305 363
#     4  10  21  35  58  91 125 161 203 238 301 379
#     4  11  22  41  61  88 127 158 206 250 310 369
#     4  10  22  35  56  90 122 158 195 255 303 363
#     4  11  22  39  62  91 126 160 203 250 309 367
#     4  11  21  37  61  90 122 166 198 247 306 368
#
# _framework density 19.086852
#
# number of rings (size 3 to 8) (size 9 to 14) (size 15 to 20)
#    0.000    1.333    5.000    1.000    2.333    1.000 
#    0.000    1.250    0.000    0.000    0.000    0.000 
#    0.000    0.000    0.000    0.000    0.000    0.000 
#
# Total GULP energy -594950.842674 kJ/mol
# GULP energy per Si atom -12394.809222 kJ/mol
# Density = 1.904341 g / cm^3
# Si number density = 19.086852 Si / 1000 Ang^3
#
#
#
# Elastic Constant Matrix: (Units=GPa)
#
#
# Indices 1 2 3 4 5 6 
#
# 1 151.1495 48.8001 76.0961 0.0000 0.0000 0.0000
# 2 48.8001 79.6673 44.5977 0.0000 0.0000 0.0000
# 3 76.0961 44.5977 155.3543 0.0000 0.0000 0.0000
# 4 0.0000 0.0000 0.0000 -193.0403 0.0000 0.0000
# 5 0.0000 0.0000 0.0000 0.0000 47.5369 0.0000
# 6 0.0000 0.0000 0.0000 0.0000 0.0000 16.7332
#
#
#
# Elastic Compliance Matrix: (Units=1/GPa)
#
#
# Indices 1 2 3 4 5 6 
#
# 1 0.009708 -0.003914 -0.003632 0.000000 0.000000 0.000000
# 2 -0.003914 0.016533 -0.002829 0.000000 0.000000 0.000000
# 3 -0.003632 -0.002829 0.009028 0.000000 0.000000 0.000000
# 4 0.000000 0.000000 0.000000 -0.005180 0.000000 0.000000
# 5 0.000000 0.000000 0.000000 0.000000 0.021036 0.000000
# 6 0.000000 0.000000 0.000000 0.000000 0.000000 0.059762
#
#
# Mechanical properties :
#
#
# Convention : Reuss Voigt Hill
#
# Bulk Modulus (GPa) = 68.86989 80.57321 74.72155
# Shear Modulus (GPa) = 36.63658 -11.30890 12.66384
#
# Velocity S-wave (km/s) = 4.38593 -2.43677 2.57861
# Velocity P-wave (km/s) = 7.86188 5.86417 6.93533
#
# Compressibility (1/GPa) = 0.01452013
#
# Stress axis : x y z
#
# Youngs Moduli (GPa) = 103.00945 60.48413 110.76678
#
# Poissons Ratio (x) = 0.23671 0.40227
# Poissons Ratio (y) = 0.40313 0.31339
# Poissons Ratio (z) = 0.37410 0.17113
#
# Static dielectric constant tensor:
#      x y z
#    x 3.908580 0.000000 0.000000 
#    y 0.000000 3.135330 0.000000 
#    z 0.000000 0.000000 3.774080 
# 
# 
# High freq. dielectric constant tensor:
#      x y z
#    x 1.758910 0.000000 0.000000 
#    y 0.000000 1.700660 0.000000 
#    z 0.000000 0.000000 1.760710 
# 
# From -- ./inp_files/22743.got.cif
#   From: 2010.03.12/outbox.cif.g09.slc.cpg/sg53_12_cif.got.tgz:22743.got - 2010.04.16 14:36:59.
