data_PCOD8221792
_publ_section_title
;
Structure prediction by ZEFSAII (Michael W. Deem and Ramdas Pophale) SiO2 
 PCOD8221792
Probable space group: P M N A
;
_chemical_formula_sum "Si O2"
_cell_formula_units_Z 40
_cell_length_a 8.504019
_cell_length_b 12.530339
_cell_length_c 18.312133
_cell_angle_alpha 90.000000
_cell_angle_beta 90.000000
_cell_angle_gamma 90.000000
_cell_volume 1951.308680
_symmetry_space_group_name_H-M "P M N A"
_symmetry_group_IT_number 53
_symmetry_cell_setting 'orthorhombic'
loop_
_space_group_symop_operation_xyz
x,y,z
1/2-x,-y,1/2+z
x,-y,-z
1/2-x,y,1/2-z
-x,-y,-z
1/2+x,y,1/2-z
-x,y,z
1/2+x,-y,1/2+z
loop_
_atom_site_type_symbol
_atom_site_label
_atom_site_fract_x
_atom_site_fract_y
_atom_site_fract_z
Si Si1 0.817096 0.300673 0.170832
Si Si2 0.817053 0.891881 0.080056
Si Si3 0.816363 0.295481 0.671305
Si Si4 0.681634 0.491995 0.084306
Si Si5 0.683089 0.879924 0.926211
O O1 0.750000 0.327689 0.250000
O O2 0.790044 0.402319 0.119687
O O3 0.731081 0.196887 0.139430
O O4 0.000000 0.275595 0.176286
O O5 0.774698 0.806962 0.141541
O O6 0.000000 0.919250 0.083276
O O7 0.721024 0.999322 0.096732
O O8 0.774337 0.846711 0.999988
O O9 0.750000 0.325222 0.750000
O O10 0.779853 0.394584 0.619423
O O11 0.000000 0.269421 0.675051
O O12 0.500000 0.459598 0.095782
O O13 0.725958 0.500000 0.000000
O O14 0.500000 0.867839 0.942711
#
# Coordination Sequence:
#
# PCOD8221792 Si02
#       5
#     8   8   8   8   8
#     4  12  25  41  62  90 124 160 201 249 303 360
#     4  11  22  39  63  92 123 157 202 250 299 355
#     4  11  23  39  60  88 123 162 203 248 301 358
#     4  10  22  41  65  91 121 158 200 246 298 358
#     4  11  22  40  64  90 122 160 202 246 298 356
#
# _framework density 20.499064000000001
#
# number of rings (size 3 to 8) (size 9 to 14) (size 15 to 20)
#    0.000    1.000    0.000    9.000    0.000    6.000 
#    0.000    4.000    0.000    0.000    0.000    0.000 
#    0.000    0.000    0.000    0.000    0.000    0.000 
#
# Total GULP energy -496346.592926 kJ/mol
# GULP energy per Si atom -12408.664823 kJ/mol
# Density = 2.045241 g / cm^3
# Si number density = 20.499064 Si / 1000 Ang^3
#
#
#
# Elastic Constant Matrix: (Units=GPa)
#
#
# Indices 1 2 3 4 5 6 
#
# 1 97.8671 27.7671 23.7493 0.0000 0.0000 0.0000
# 2 27.7671 89.4842 53.2683 0.0000 0.0000 0.0000
# 3 23.7493 53.2683 130.1253 0.0000 0.0000 0.0000
# 4 0.0000 0.0000 0.0000 876.1011 0.0000 0.0000
# 5 0.0000 0.0000 0.0000 0.0000 32.9517 0.0000
# 6 0.0000 0.0000 0.0000 0.0000 0.0000 30.3784
#
#
#
# Elastic Compliance Matrix: (Units=1/GPa)
#
#
# Indices 1 2 3 4 5 6 
#
# 1 0.011271 -0.003005 -0.000827 0.000000 0.000000 0.000000
# 2 -0.003005 0.015577 -0.005828 0.000000 0.000000 0.000000
# 3 -0.000827 -0.005828 0.010222 0.000000 0.000000 0.000000
# 4 0.000000 0.000000 0.000000 0.001141 0.000000 0.000000
# 5 0.000000 0.000000 0.000000 0.000000 0.030347 0.000000
# 6 0.000000 0.000000 0.000000 0.000000 0.000000 0.032918
#
#
# Mechanical properties :
#
#
# Convention : Reuss Voigt Hill
#
# Bulk Modulus (GPa) = 56.34005 58.56065 57.45035
# Shear Modulus (GPa) = 39.45893 202.06571 120.76232
#
# Velocity S-wave (km/s) = 4.39214 9.93917 7.68369
# Velocity P-wave (km/s) = 7.29829 12.66277 10.33467
#
# Compressibility (1/GPa) = 0.01774936
#
# Stress axis : x y z
#
# Youngs Moduli (GPa) = 88.72120 64.19682 97.83162
#
# Poissons Ratio (x) = 0.19293 0.08090
# Poissons Ratio (y) = 0.26663 0.57018
# Poissons Ratio (z) = 0.07336 0.37415
#
# Static dielectric constant tensor:
#      x y z
#    x 3.861960 0.000000 0.000000 
#    y 0.000000 3.708740 0.000000 
#    z 0.000000 0.000000 3.696230 
# 
# 
# High freq. dielectric constant tensor:
#      x y z
#    x 1.813010 0.000000 0.000000 
#    y 0.000000 1.811140 0.000000 
#    z 0.000000 0.000000 1.807740 
# 
# From -- ./inp_files/25846.got.cif
#   From: 2010.03.12/outbox.cif.g09.slc.cpg/sg53_13_cif.got.tgz:25846.got - 2010.04.16 14:36:59.
