data_PCOD8221947
_publ_section_title
;
Structure prediction by ZEFSAII (Michael W. Deem and Ramdas Pophale) SiO2 
 PCOD8221947
Probable space group: P M N A
;
_chemical_formula_sum "Si O2"
_cell_formula_units_Z 48
_cell_length_a 20.751598
_cell_length_b 9.292192
_cell_length_c 15.171033
_cell_angle_alpha 90.000000
_cell_angle_beta 90.000000
_cell_angle_gamma 90.000000
_cell_volume 2925.397417
_symmetry_space_group_name_H-M "P M N A"
_symmetry_group_IT_number 53
_symmetry_cell_setting 'orthorhombic'
loop_
_space_group_symop_operation_xyz
x,y,z
1/2-x,-y,1/2+z
x,-y,-z
1/2-x,y,1/2-z
-x,-y,-z
1/2+x,y,1/2-z
-x,y,z
1/2+x,-y,1/2+z
loop_
_atom_site_type_symbol
_atom_site_label
_atom_site_fract_x
_atom_site_fract_y
_atom_site_fract_z
Si Si1 0.311250 0.323737 0.311334
Si Si2 0.119559 0.838225 0.518700
Si Si3 0.733177 0.418097 0.591463
Si Si4 0.125067 0.417756 0.591436
Si Si5 0.427882 0.673968 0.814111
Si Si6 0.727605 0.838294 0.518884
O O1 0.250000 0.292365 0.250000
O O2 0.312515 0.491245 0.343271
O O3 0.377653 0.289045 0.262493
O O4 0.308496 0.216676 0.394252
O O5 0.099808 0.742790 0.432489
O O6 0.083278 0.781691 0.604773
O O7 0.195954 0.825193 0.534779
O O8 0.097256 0.000000 0.500000
O O9 0.740007 0.500000 0.500000
O O10 0.804094 0.411057 0.636258
O O11 0.707759 0.257691 0.567314
O O12 0.130906 0.500000 0.500000
O O13 0.078712 0.506552 0.656192
O O14 0.500000 0.696185 0.777711
O O15 0.705352 0.000000 0.500000
#
# Coordination Sequence:
#
# PCOD8221947 Si02
#       6
#     8   8   8   8   8   8
#     4  11  17  31  52  71  96 126 159 203 245 276
#     4   9  17  30  48  72 101 132 160 185 231 299
#     4   8  14  27  49  70  90 120 153 191 237 281
#     4   8  14  27  45  67  92 122 158 186 224 283
#     4  11  21  31  46  70  98 130 164 200 237 279
#     4   9  17  31  52  76  98 122 159 201 241 289
#
# _framework density 16.408027000000001
#
# number of rings (size 3 to 8) (size 9 to 14) (size 15 to 20)
#    0.000    2.667    3.333    2.000    0.000    3.333 
#    0.000    2.500    0.000    5.000    0.000    0.000 
#    0.000    0.000    0.000    0.000    0.000    0.000 
#
# Total GULP energy -594794.303468 kJ/mol
# GULP energy per Si atom -12391.547989 kJ/mol
# Density = 1.637068 g / cm^3
# Si number density = 16.408027 Si / 1000 Ang^3
#
#
#
# Elastic Constant Matrix: (Units=GPa)
#
#
# Indices 1 2 3 4 5 6 
#
# 1 87.4549 30.3876 41.1483 0.0000 0.0000 0.0000
# 2 30.3876 132.1510 33.9630 0.0000 0.0000 0.0000
# 3 41.1483 33.9630 59.3484 0.0000 0.0000 0.0000
# 4 0.0000 0.0000 0.0000 18.9806 0.0000 0.0000
# 5 0.0000 0.0000 0.0000 0.0000 18.1519 0.0000
# 6 0.0000 0.0000 0.0000 0.0000 0.0000 9.4187
#
#
#
# Elastic Compliance Matrix: (Units=1/GPa)
#
#
# Indices 1 2 3 4 5 6 
#
# 1 0.017091 -0.001037 -0.011256 0.000000 0.000000 0.000000
# 2 -0.001037 0.008935 -0.004394 0.000000 0.000000 0.000000
# 3 -0.011256 -0.004394 0.027169 0.000000 0.000000 0.000000
# 4 0.000000 0.000000 0.000000 0.052685 0.000000 0.000000
# 5 0.000000 0.000000 0.000000 0.000000 0.055091 0.000000
# 6 0.000000 0.000000 0.000000 0.000000 0.000000 0.106171
#
#
# Mechanical properties :
#
#
# Convention : Reuss Voigt Hill
#
# Bulk Modulus (GPa) = 50.45516 54.43911 52.44714
# Shear Modulus (GPa) = 16.28011 20.87395 18.57703
#
# Velocity S-wave (km/s) = 3.15334 3.57063 3.36846
# Velocity P-wave (km/s) = 6.63891 7.08869 6.86749
#
# Compressibility (1/GPa) = 0.01981958
#
# Stress axis : x y z
#
# Youngs Moduli (GPa) = 58.51027 111.92122 36.80721
#
# Poissons Ratio (x) = 0.11608 0.41431
# Poissons Ratio (y) = 0.06068 0.16173
# Poissons Ratio (z) = 0.65861 0.49178
#
# Static dielectric constant tensor:
#      x y z
#    x 2.734760 0.000000 0.000000 
#    y 0.000000 3.521980 0.000000 
#    z 0.000000 0.000000 2.944510 
# 
# 
# High freq. dielectric constant tensor:
#      x y z
#    x 1.590870 0.000000 0.000000 
#    y 0.000000 1.634020 0.000000 
#    z 0.000000 0.000000 1.608980 
# 
# From -- ./inp_files/24188.got.cif
#   From: 2010.03.12/outbox.cif.g09.slc.cpg/sg53_13_cif.got.tgz:24188.got - 2010.04.16 14:36:59.
