data_PCOD8221381
_publ_section_title
;
Structure prediction by ZEFSAII (Michael W. Deem and Ramdas Pophale) SiO2 
 PCOD8221381
Probable space group: P M N A
;
_chemical_formula_sum "Si O2"
_cell_formula_units_Z 32
_cell_length_a 8.909252
_cell_length_b 6.900511
_cell_length_c 28.307882
_cell_angle_alpha 90.000000
_cell_angle_beta 90.000000
_cell_angle_gamma 90.000000
_cell_volume 1740.323050
_symmetry_space_group_name_H-M "P M N A"
_symmetry_group_IT_number 53
_symmetry_cell_setting 'orthorhombic'
loop_
_space_group_symop_operation_xyz
x,y,z
1/2-x,-y,1/2+z
x,-y,-z
1/2-x,y,1/2-z
-x,-y,-z
1/2+x,y,1/2-z
-x,y,z
1/2+x,-y,1/2+z
loop_
_atom_site_type_symbol
_atom_site_label
_atom_site_fract_x
_atom_site_fract_y
_atom_site_fract_z
Si Si1 0.674155 0.987516 0.053838
Si Si2 0.829531 0.678956 0.624713
Si Si3 0.175905 0.721842 0.127423
Si Si4 0.325913 0.005090 0.799988
O O1 0.500000 0.928103 0.057877
O O2 0.702004 0.195112 0.077912
O O3 0.769059 0.821258 0.079265
O O4 0.728189 0.000000 0.000000
O O5 0.713324 0.504386 0.625335
O O6 0.800195 0.809771 0.670570
O O7 0.000000 0.600000 0.624410
O O8 0.000000 0.751209 0.132573
O O9 0.254405 0.812855 0.173205
O O10 0.250000 0.973917 0.750000
O O11 0.500000 0.051510 0.793154
#
# Coordination Sequence:
#
# PCOD8221381 Si02
#       4
#     8   8   8   8
#     4   9  19  37  59  80 105 141 183 225 268 316
#     4   9  19  36  56  78 107 142 180 221 263 314
#     4  11  22  35  54  80 112 145 177 219 267 318
#     4  10  21  38  59  81 107 140 179 223 268 316
#
# _framework density 18.387391000000001
#
# number of rings (size 3 to 8) (size 9 to 14) (size 15 to 20)
#    0.000    2.250    0.000    4.500    0.000    7.500 
#    0.000    7.500    0.000    0.000    0.000    0.000 
#    0.000    0.000    0.000    0.000    0.000    0.000 
#
# Total GULP energy -396936.782749 kJ/mol
# GULP energy per Si atom -12404.274461 kJ/mol
# Density = 1.834554 g / cm^3
# Si number density = 18.387391 Si / 1000 Ang^3
#
#
#
# Elastic Constant Matrix: (Units=GPa)
#
#
# Indices 1 2 3 4 5 6 
#
# 1 125.0994 58.0092 65.8589 0.0000 0.0000 0.0000
# 2 58.0092 102.3808 50.0779 0.0000 0.0000 0.0000
# 3 65.8589 50.0779 158.3714 0.0000 0.0000 0.0000
# 4 0.0000 0.0000 0.0000 10.3942 0.0000 0.0000
# 5 0.0000 0.0000 0.0000 0.0000 31.6612 0.0000
# 6 0.0000 0.0000 0.0000 0.0000 0.0000 27.8710
#
#
#
# Elastic Compliance Matrix: (Units=1/GPa)
#
#
# Indices 1 2 3 4 5 6 
#
# 1 0.012235 -0.005257 -0.003426 0.000000 0.000000 0.000000
# 2 -0.005257 0.013813 -0.002182 0.000000 0.000000 0.000000
# 3 -0.003426 -0.002182 0.008429 0.000000 0.000000 0.000000
# 4 0.000000 0.000000 0.000000 0.096208 0.000000 0.000000
# 5 0.000000 0.000000 0.000000 0.000000 0.031584 0.000000
# 6 0.000000 0.000000 0.000000 0.000000 0.000000 0.035880
#
#
# Mechanical properties :
#
#
# Convention : Reuss Voigt Hill
#
# Bulk Modulus (GPa) = 78.44144 81.52708 79.98426
# Shear Modulus (GPa) = 22.30893 28.11230 25.21061
#
# Velocity S-wave (km/s) = 3.48699 3.91434 3.70683
# Velocity P-wave (km/s) = 7.67888 8.05384 7.86859
#
# Compressibility (1/GPa) = 0.01274836
#
# Stress axis : x y z
#
# Youngs Moduli (GPa) = 81.73580 72.39541 118.64206
#
# Poissons Ratio (x) = 0.38055 0.40642
# Poissons Ratio (y) = 0.42965 0.25886
# Poissons Ratio (z) = 0.27999 0.15795
#
# Static dielectric constant tensor:
#      x y z
#    x 3.354000 0.000000 0.000000 
#    y 0.000000 3.235900 0.000000 
#    z 0.000000 0.000000 3.526040 
# 
# 
# High freq. dielectric constant tensor:
#      x y z
#    x 1.714480 0.000000 0.000000 
#    y 0.000000 1.710520 0.000000 
#    z 0.000000 0.000000 1.719150 
# 
# From -- ./inp_files/37394.got.cif
#   From: 2010.03.12/outbox.cif.g09.slc.cpg/sg53_19_cif.got.tgz:37394.got - 2010.04.16 14:36:59.
