data_PCOD8221653
_publ_section_title
;
Structure prediction by ZEFSAII (Michael W. Deem and Ramdas Pophale) SiO2 
 PCOD8221653
Probable space group: P M N A
;
_chemical_formula_sum "Si O2"
_cell_formula_units_Z 64
_cell_length_a 15.594336
_cell_length_b 16.366886
_cell_length_c 12.044804
_cell_angle_alpha 90.000000
_cell_angle_beta 90.000000
_cell_angle_gamma 90.000000
_cell_volume 3074.203992
_symmetry_space_group_name_H-M "P M N A"
_symmetry_group_IT_number 53
_symmetry_cell_setting 'orthorhombic'
loop_
_space_group_symop_operation_xyz
x,y,z
1/2-x,-y,1/2+z
x,-y,-z
1/2-x,y,1/2-z
-x,-y,-z
1/2+x,y,1/2-z
-x,y,z
1/2+x,-y,1/2+z
loop_
_atom_site_type_symbol
_atom_site_label
_atom_site_fract_x
_atom_site_fract_y
_atom_site_fract_z
Si Si1 0.904546 0.096175 0.513233
Si Si2 0.907482 0.480488 0.377344
Si Si3 0.242951 0.354433 0.376265
Si Si4 0.093404 0.828072 0.015949
Si Si5 0.847637 0.818060 0.263699
Si Si6 0.905834 0.362349 0.000708
Si Si7 0.600142 0.361732 0.752219
Si Si8 0.755022 0.826624 0.617445
O O1 0.885170 0.126598 0.638074
O O2 0.839993 0.129064 0.421543
O O3 0.000000 0.126712 0.482782
O O4 0.898596 0.000000 0.500000
O O5 0.933435 0.500000 0.500000
O O6 0.841514 0.407205 0.387277
O O7 0.864494 0.559943 0.319603
O O8 0.000000 0.457160 0.318861
O O9 0.250000 0.332529 0.250000
O O10 0.329598 0.399329 0.422013
O O11 0.234303 0.265400 0.432160
O O12 0.105221 0.838132 0.148176
O O13 0.088778 0.733858 0.981907
O O14 0.000000 0.867661 0.986523
O O15 0.170429 0.866826 0.942018
O O16 0.750000 0.843237 0.250000
O O17 0.853806 0.721231 0.292477
O O18 0.880394 0.382403 0.875082
O O19 0.000000 0.400452 0.030802
O O20 0.500000 0.348527 0.774477
O O21 0.750000 0.834850 0.750000
#
# Coordination Sequence:
#
# PCOD8221653 Si02
#       8
#     8   8   8   8   8   8   8   8
#     4  11  25  43  64  93 129 165 200 249 314 378
#     4  10  23  38  52  79 121 161 197 244 298 351
#     4  10  22  37  57  83 114 157 203 242 293 355
#     4   9  17  34  61  94 126 153 195 258 315 366
#     4  11  20  35  66  99 124 157 202 258 316 368
#     4   8  16  33  58  85 112 143 189 251 307 351
#     4   9  19  36  59  88 118 151 198 255 311 364
#     4  10  22  41  62  90 124 165 215 254 299 374
#
# _framework density 20.818396
#
# number of rings (size 3 to 8) (size 9 to 14) (size 15 to 20)
#    0.000    2.250    1.250    1.875    1.750    3.500 
#    0.000    2.500    0.000    3.000    0.000    0.000 
#    0.000    0.000    0.000    0.000    0.000    0.000 
#
# Total GULP energy -793006.686492 kJ/mol
# GULP energy per Si atom -12390.729476 kJ/mol
# Density = 2.077101 g / cm^3
# Si number density = 20.818396 Si / 1000 Ang^3
#
#
#
# Elastic Constant Matrix: (Units=GPa)
#
#
# Indices 1 2 3 4 5 6 
#
# 1 178.6651 61.1929 59.7661 0.0000 0.0000 0.0000
# 2 61.1929 57.7053 35.6024 0.0000 0.0000 0.0000
# 3 59.7661 35.6024 101.6223 0.0000 0.0000 0.0000
# 4 0.0000 0.0000 0.0000 13.0639 0.0000 0.0000
# 5 0.0000 0.0000 0.0000 0.0000 20.0978 0.0000
# 6 0.0000 0.0000 0.0000 0.0000 0.0000 22.3101
#
#
#
# Elastic Compliance Matrix: (Units=1/GPa)
#
#
# Indices 1 2 3 4 5 6 
#
# 1 0.009286 -0.008264 -0.002566 0.000000 0.000000 0.000000
# 2 -0.008264 0.029463 -0.005462 0.000000 0.000000 0.000000
# 3 -0.002566 -0.005462 0.013263 0.000000 0.000000 0.000000
# 4 0.000000 0.000000 0.000000 0.076547 0.000000 0.000000
# 5 0.000000 0.000000 0.000000 0.000000 0.049757 0.000000
# 6 0.000000 0.000000 0.000000 0.000000 0.000000 0.044823
#
#
# Mechanical properties :
#
#
# Convention : Reuss Voigt Hill
#
# Bulk Modulus (GPa) = 51.47209 72.34617 61.90913
# Shear Modulus (GPa) = 19.06965 23.18979 21.12972
#
# Velocity S-wave (km/s) = 3.02983 3.34115 3.18929
# Velocity P-wave (km/s) = 6.08423 7.05059 6.58516
#
# Compressibility (1/GPa) = 0.01942801
#
# Stress axis : x y z
#
# Youngs Moduli (GPa) = 107.69102 33.94143 75.39810
#
# Poissons Ratio (x) = 0.28049 0.19347
# Poissons Ratio (y) = 0.88995 0.41180
# Poissons Ratio (z) = 0.27634 0.18538
#
# Static dielectric constant tensor:
#      x y z
#    x 4.099460 0.000000 0.000000 
#    y 0.000000 3.358450 0.000000 
#    z 0.000000 0.000000 3.748490 
# 
# 
# High freq. dielectric constant tensor:
#      x y z
#    x 1.835150 0.000000 0.000000 
#    y 0.000000 1.778810 0.000000 
#    z 0.000000 0.000000 1.813400 
# 
# From -- ./inp_files/16239.got.cif
#   From: 2010.03.12/outbox.cif.g09.slc.cpg/sg53_9_cif.got.tgz:16239.got - 2010.04.16 14:36:59.
