data_PCOD8221782
_publ_section_title
;
Structure prediction by ZEFSAII (Michael W. Deem and Ramdas Pophale) SiO2 
 PCOD8221782
Probable space group: P M N A
;
_chemical_formula_sum "Si O2"
_cell_formula_units_Z 32
_cell_length_a 18.068704
_cell_length_b 12.197518
_cell_length_c 7.285019
_cell_angle_alpha 90.000000
_cell_angle_beta 90.000000
_cell_angle_gamma 90.000000
_cell_volume 1605.569686
_symmetry_space_group_name_H-M "P M N A"
_symmetry_group_IT_number 53
_symmetry_cell_setting 'orthorhombic'
loop_
_space_group_symop_operation_xyz
x,y,z
1/2-x,-y,1/2+z
x,-y,-z
1/2-x,y,1/2-z
-x,-y,-z
1/2+x,y,1/2-z
-x,y,z
1/2+x,-y,1/2+z
loop_
_atom_site_type_symbol
_atom_site_label
_atom_site_fract_x
_atom_site_fract_y
_atom_site_fract_z
Si Si1 0.918521 0.498775 0.717944
Si Si2 0.085743 0.875101 0.014798
Si Si3 0.914049 0.734543 0.355344
Si Si4 0.337192 0.713778 0.761622
O O1 0.920250 0.500000 0.500000
O O2 0.893075 0.374437 0.765459
O O3 0.864367 0.591762 0.796800
O O4 0.000000 0.523611 0.799242
O O5 0.133154 0.804052 0.876229
O O6 0.000000 0.862018 0.960780
O O7 0.099812 0.838209 0.224682
O O8 0.112173 0.000000 0.000000
O O9 0.863486 0.745976 0.534377
O O10 0.000000 0.726225 0.418202
O O11 0.250000 0.713737 0.750000
#
# Coordination Sequence:
#
# PCOD8221782 Si02
#       4
#     8   8   8   8
#     4   8  15  33  59  84 114 152 194 234 283 350
#     4  10  22  41  63  87 111 151 213 252 276 339
#     4   9  19  39  64  87 116 155 196 245 294 339
#     4  11  22  37  55  89 123 159 187 238 304 355
#
# _framework density 19.930620000000001
#
# number of rings (size 3 to 8) (size 9 to 14) (size 15 to 20)
#    0.000    2.500    0.000    3.750    0.000    3.000 
#   18.000    7.500    0.000    0.000    0.000    0.000 
#    0.000    0.000    0.000    0.000    0.000    0.000 
#
# Total GULP energy -396702.140167 kJ/mol
# GULP energy per Si atom -12396.941880 kJ/mol
# Density = 1.988526 g / cm^3
# Si number density = 19.930620 Si / 1000 Ang^3
#
#
#
# Elastic Constant Matrix: (Units=GPa)
#
#
# Indices 1 2 3 4 5 6 
#
# 1 125.5253 55.0102 53.3379 0.0000 0.0000 0.0000
# 2 55.0102 114.1066 41.3300 0.0000 0.0000 0.0000
# 3 53.3379 41.3300 76.8779 0.0000 0.0000 0.0000
# 4 0.0000 0.0000 0.0000 29.0251 0.0000 0.0000
# 5 0.0000 0.0000 0.0000 0.0000 13.4694 0.0000
# 6 0.0000 0.0000 0.0000 0.0000 0.0000 15.7699
#
#
#
# Elastic Compliance Matrix: (Units=1/GPa)
#
#
# Indices 1 2 3 4 5 6 
#
# 1 0.012350 -0.003540 -0.006666 0.000000 0.000000 0.000000
# 2 -0.003540 0.011897 -0.003940 0.000000 0.000000 0.000000
# 3 -0.006666 -0.003940 0.019751 0.000000 0.000000 0.000000
# 4 0.000000 0.000000 0.000000 0.034453 0.000000 0.000000
# 5 0.000000 0.000000 0.000000 0.000000 0.074243 0.000000
# 6 0.000000 0.000000 0.000000 0.000000 0.000000 0.063412
#
#
# Mechanical properties :
#
#
# Convention : Reuss Voigt Hill
#
# Bulk Modulus (GPa) = 63.66586 68.42954 66.04770
# Shear Modulus (GPa) = 20.02948 22.77498 21.40223
#
# Velocity S-wave (km/s) = 3.17355 3.38407 3.28050
# Velocity P-wave (km/s) = 6.74104 7.04824 6.89635
#
# Compressibility (1/GPa) = 0.01570701
#
# Stress axis : x y z
#
# Youngs Moduli (GPa) = 80.97162 84.05227 50.63158
#
# Poissons Ratio (x) = 0.29751 0.33749
# Poissons Ratio (y) = 0.28661 0.19951
# Poissons Ratio (z) = 0.53972 0.33119
#
# Static dielectric constant tensor:
#      x y z
#    x 3.421090 0.000000 0.000000 
#    y 0.000000 4.186140 0.000000 
#    z 0.000000 0.000000 3.436270 
# 
# 
# High freq. dielectric constant tensor:
#      x y z
#    x 1.754010 0.000000 0.000000 
#    y 0.000000 1.786150 0.000000 
#    z 0.000000 0.000000 1.771450 
# 
# From -- ./inp_files/8038.got.cif
#   From: 2010.03.12/outbox.cif.g09.slc.cpg/sg53_5_cif.got.tgz:8038.got - 2010.04.16 14:36:59.
