data_PCOD8221466
_publ_section_title
;
Structure prediction by ZEFSAII (Michael W. Deem and Ramdas Pophale) SiO2 
 PCOD8221466
Probable space group: P M N A
;
_chemical_formula_sum "Si O2"
_cell_formula_units_Z 48
_cell_length_a 8.472578
_cell_length_b 21.151363
_cell_length_c 14.144913
_cell_angle_alpha 90.000000
_cell_angle_beta 90.000000
_cell_angle_gamma 90.000000
_cell_volume 2534.861382
_symmetry_space_group_name_H-M "P M N A"
_symmetry_group_IT_number 53
_symmetry_cell_setting 'orthorhombic'
loop_
_space_group_symop_operation_xyz
x,y,z
1/2-x,-y,1/2+z
x,-y,-z
1/2-x,y,1/2-z
-x,-y,-z
1/2+x,y,1/2-z
-x,y,z
1/2+x,-y,1/2+z
loop_
_atom_site_type_symbol
_atom_site_label
_atom_site_fract_x
_atom_site_fract_y
_atom_site_fract_z
Si Si1 0.684058 0.829002 0.854017
Si Si2 0.816792 0.592878 0.006433
Si Si3 0.184728 0.505862 0.645689
Si Si4 0.185786 0.072321 0.505935
Si Si5 0.184964 0.830215 0.146082
Si Si6 0.685517 0.269409 0.992865
O O1 0.750000 0.827921 0.750000
O O2 0.500000 0.822969 0.845557
O O3 0.730757 0.894050 0.906827
O O4 0.745389 0.769539 0.915363
O O5 0.768702 0.565386 0.904283
O O6 0.000000 0.579856 0.024920
O O7 0.717797 0.558301 0.088174
O O8 0.783527 0.666706 0.009939
O O9 0.250000 0.497687 0.750000
O O10 0.000000 0.519136 0.648603
O O11 0.280940 0.105019 0.590299
O O12 0.000000 0.079307 0.527021
O O13 0.239646 0.000000 0.500000
O O14 0.250000 0.839887 0.250000
O O15 0.276837 0.771367 0.099951
O O16 0.000000 0.815788 0.146726
O O17 0.500000 0.284102 0.996463
#
# Coordination Sequence:
#
# PCOD8221466 Si02
#       6
#     8   8   8   8   8   8
#     4   9  19  34  54  78 107 141 178 222 270 321
#     4  11  22  38  59  86 115 146 184 229 280 334
#     4  11  22  39  60  84 114 150 188 230 276 326
#     4   9  19  37  57  79 110 146 183 227 277 327
#     4  11  22  37  57  82 111 145 185 230 279 332
#     4  10  21  39  58  80 110 146 186 229 277 328
#
# _framework density 18.935948
#
# number of rings (size 3 to 8) (size 9 to 14) (size 15 to 20)
#    0.000    1.833    0.000    7.000    0.000    5.667 
#    0.000    6.667    0.000    0.000    0.000    0.000 
#    0.000    0.000    0.000    0.000    0.000    0.000 
#
# Total GULP energy -595332.646133 kJ/mol
# GULP energy per Si atom -12402.763461 kJ/mol
# Density = 1.889285 g / cm^3
# Si number density = 18.935948 Si / 1000 Ang^3
#
#
#
# Elastic Constant Matrix: (Units=GPa)
#
#
# Indices 1 2 3 4 5 6 
#
# 1 62.0804 14.6951 16.5884 0.0000 0.0000 0.0000
# 2 14.6951 127.9481 39.2040 0.0000 0.0000 0.0000
# 3 16.5884 39.2040 126.7937 0.0000 0.0000 0.0000
# 4 0.0000 0.0000 0.0000 9.8511 0.0000 0.0000
# 5 0.0000 0.0000 0.0000 0.0000 35.8713 0.0000
# 6 0.0000 0.0000 0.0000 0.0000 0.0000 29.8130
#
#
#
# Elastic Compliance Matrix: (Units=1/GPa)
#
#
# Indices 1 2 3 4 5 6 
#
# 1 0.016915 -0.001397 -0.001781 0.000000 0.000000 0.000000
# 2 -0.001397 0.008749 -0.002522 0.000000 0.000000 0.000000
# 3 -0.001781 -0.002522 0.008900 0.000000 0.000000 0.000000
# 4 0.000000 0.000000 0.000000 0.101511 0.000000 0.000000
# 5 0.000000 0.000000 0.000000 0.000000 0.027877 0.000000
# 6 0.000000 0.000000 0.000000 0.000000 0.000000 0.033542
#
#
# Mechanical properties :
#
#
# Convention : Reuss Voigt Hill
#
# Bulk Modulus (GPa) = 43.17283 50.86636 47.01960
# Shear Modulus (GPa) = 23.08232 31.52939 27.30585
#
# Velocity S-wave (km/s) = 3.49516 4.08493 3.80150
# Velocity P-wave (km/s) = 6.25596 7.01210 6.64480
#
# Compressibility (1/GPa) = 0.02316272
#
# Stress axis : x y z
#
# Youngs Moduli (GPa) = 59.12003 114.29900 112.36275
#
# Poissons Ratio (x) = 0.15967 0.20012
# Poissons Ratio (y) = 0.08259 0.28342
# Poissons Ratio (z) = 0.10529 0.28830
#
# Static dielectric constant tensor:
#      x y z
#    x 3.538980 0.000000 0.000000 
#    y 0.000000 3.511800 0.000000 
#    z 0.000000 0.000000 3.314260 
# 
# 
# High freq. dielectric constant tensor:
#      x y z
#    x 1.744060 0.000000 0.000000 
#    y 0.000000 1.738690 0.000000 
#    z 0.000000 0.000000 1.738810 
# 
# From -- ./inp_files/20358.got.cif
#   From: 2010.03.12/outbox.cif.g09.slc.cpg/sg53_11_cif.got.tgz:20358.got - 2010.04.16 14:36:59.
