data_PCOD8221089
_publ_section_title
;
Structure prediction by ZEFSAII (Michael W. Deem and Ramdas Pophale) SiO2 
 PCOD8221089
Probable space group: P M N A
;
_chemical_formula_sum "Si O2"
_cell_formula_units_Z 48
_cell_length_a 10.019574
_cell_length_b 29.024660
_cell_length_c 8.901070
_cell_angle_alpha 90.000000
_cell_angle_beta 90.000000
_cell_angle_gamma 90.000000
_cell_volume 2588.562257
_symmetry_space_group_name_H-M "P M N A"
_symmetry_group_IT_number 53
_symmetry_cell_setting 'orthorhombic'
loop_
_space_group_symop_operation_xyz
x,y,z
1/2-x,-y,1/2+z
x,-y,-z
1/2-x,y,1/2-z
-x,-y,-z
1/2+x,y,1/2-z
-x,y,z
1/2+x,-y,1/2+z
loop_
_atom_site_type_symbol
_atom_site_label
_atom_site_fract_x
_atom_site_fract_y
_atom_site_fract_z
Si Si1 0.653327 0.620310 0.884038
Si Si2 0.652538 0.458203 0.888481
Si Si3 0.500000 0.951037 0.925103
Si Si4 0.653240 0.801915 0.119397
Si Si5 0.255188 0.098391 0.927206
Si Si6 0.852599 0.724740 0.627039
Si Si7 0.500000 0.948511 0.565735
O O1 0.750000 0.604446 0.750000
O O2 0.500000 0.612957 0.832131
O O3 0.683078 0.673280 0.928961
O O4 0.684847 0.589838 0.029335
O O5 0.750000 0.463665 0.750000
O O6 0.500000 0.459205 0.830871
O O7 0.680345 0.500000 0.000000
O O8 0.500000 0.952816 0.745126
O O9 0.371355 0.926072 0.985062
O O10 0.500000 0.000000 0.000000
O O11 0.750000 0.784786 0.250000
O O12 0.500000 0.812804 0.171877
O O13 0.721311 0.847283 0.048741
O O14 0.653350 0.759707 0.008058
O O15 0.250000 0.085958 0.750000
O O16 0.122986 0.081286 0.007870
O O17 0.750000 0.742596 0.750000
O O18 0.000000 0.724785 0.699753
O O19 0.500000 0.000000 0.500000
#
# Coordination Sequence:
#
# PCOD8221089 Si02
#       7
#     8   8   4   8   8   8   4
#     4   9  18  34  55  78 110 148 188 234 284 336
#     4  10  21  35  52  78 110 145 188 237 288 342
#     4  12  24  42  64  88 122 152 190 236 281 338
#     4  10  22  39  60  85 115 150 187 230 281 333
#     4  11  23  42  63  87 119 155 192 235 285 339
#     4   9  19  36  56  83 115 149 188 234 283 334
#     4  12  26  42  64  94 118 154 194 234 285 338
#
# _framework density 18.543109999999999
#
# number of rings (size 3 to 8) (size 9 to 14) (size 15 to 20)
#    0.000    1.833    0.833    3.000    3.500    3.667 
#    0.000    0.000    0.000    0.000    0.000    0.000 
#    0.000    0.000    0.000    0.000    0.000    0.000 
#
# Total GULP energy -595108.090261 kJ/mol
# GULP energy per Si atom -12398.085214 kJ/mol
# Density = 1.850091 g / cm^3
# Si number density = 18.543110 Si / 1000 Ang^3
#
#
#
# Elastic Constant Matrix: (Units=GPa)
#
#
# Indices 1 2 3 4 5 6 
#
# 1 148.9372 57.2827 79.2878 0.0000 0.0000 0.0000
# 2 57.2827 86.1589 56.6316 0.0000 0.0000 0.0000
# 3 79.2878 56.6316 130.2664 0.0000 0.0000 0.0000
# 4 0.0000 0.0000 0.0000 24.5953 0.0000 0.0000
# 5 0.0000 0.0000 0.0000 0.0000 43.4203 0.0000
# 6 0.0000 0.0000 0.0000 0.0000 0.0000 31.3124
#
#
#
# Elastic Compliance Matrix: (Units=1/GPa)
#
#
# Indices 1 2 3 4 5 6 
#
# 1 0.010844 -0.004020 -0.004852 0.000000 0.000000 0.000000
# 2 -0.004020 0.017740 -0.005266 0.000000 0.000000 0.000000
# 3 -0.004852 -0.005266 0.012919 0.000000 0.000000 0.000000
# 4 0.000000 0.000000 0.000000 0.040658 0.000000 0.000000
# 5 0.000000 0.000000 0.000000 0.000000 0.023031 0.000000
# 6 0.000000 0.000000 0.000000 0.000000 0.000000 0.031936
#
#
# Mechanical properties :
#
#
# Convention : Reuss Voigt Hill
#
# Bulk Modulus (GPa) = 75.60221 83.52961 79.56591
# Shear Modulus (GPa) = 29.44424 31.34298 30.39361
#
# Velocity S-wave (km/s) = 3.98914 4.11576 4.05295
# Velocity P-wave (km/s) = 7.87891 8.22982 8.05628
#
# Compressibility (1/GPa) = 0.01322713
#
# Stress axis : x y z
#
# Youngs Moduli (GPa) = 92.22075 56.36959 77.40431
#
# Poissons Ratio (x) = 0.22660 0.37560
# Poissons Ratio (y) = 0.37071 0.40758
# Poissons Ratio (z) = 0.44750 0.29682
#
# Static dielectric constant tensor:
#      x y z
#    x 3.740490 0.000000 0.000000 
#    y 0.000000 3.470170 0.000000 
#    z 0.000000 0.000000 3.381050 
# 
# 
# High freq. dielectric constant tensor:
#      x y z
#    x 1.738340 0.000000 0.000000 
#    y 0.000000 1.737050 0.000000 
#    z 0.000000 0.000000 1.706790 
# 
# From -- ./inp_files/6790.got.cif
#   From: 2010.03.12/outbox.cif.g09.slc.cpg/sg53_4_cif.got.tgz:6790.got - 2010.04.16 14:36:59.
