data_PCOD8221430
_publ_section_title
;
Structure prediction by ZEFSAII (Michael W. Deem and Ramdas Pophale) SiO2 
 PCOD8221430
Probable space group: P M N A
;
_chemical_formula_sum "Si O2"
_cell_formula_units_Z 44
_cell_length_a 14.351947
_cell_length_b 5.487290
_cell_length_c 26.174185
_cell_angle_alpha 90.000000
_cell_angle_beta 90.000000
_cell_angle_gamma 90.000000
_cell_volume 2061.303319
_symmetry_space_group_name_H-M "P M N A"
_symmetry_group_IT_number 53
_symmetry_cell_setting 'orthorhombic'
loop_
_space_group_symop_operation_xyz
x,y,z
1/2-x,-y,1/2+z
x,-y,-z
1/2-x,y,1/2-z
-x,-y,-z
1/2+x,y,1/2-z
-x,y,z
1/2+x,-y,1/2+z
loop_
_atom_site_type_symbol
_atom_site_label
_atom_site_fract_x
_atom_site_fract_y
_atom_site_fract_z
Si Si1 0.609633 0.315123 0.728062
Si Si2 0.898754 0.883160 0.435441
Si Si3 0.258646 0.736064 0.903746
Si Si4 0.813048 0.500000 0.500000
Si Si5 0.110369 0.819289 0.826342
Si Si6 0.895757 0.544902 0.338504
O O1 0.500000 0.295134 0.725835
O O2 0.641525 0.566477 0.700813
O O3 0.643853 0.329827 0.786796
O O4 0.647850 0.063169 0.702851
O O5 0.883354 0.719847 0.486022
O O6 0.901399 0.738748 0.382783
O O7 0.000000 0.013826 0.441131
O O8 0.809614 0.052233 0.433874
O O9 0.158329 0.815576 0.882257
O O10 0.324138 0.663398 0.855751
O O11 0.248530 0.536132 0.949179
O O12 0.000000 0.829943 0.834393
O O13 0.000000 0.433841 0.328178
#
# Coordination Sequence:
#
# PCOD8221430 Si02
#       6
#     8   8   8   4   8   8
#     4   9  20  40  63  89 126 169 207 253 314 372
#     4  10  21  38  61  89 124 164 205 254 318 386
#     4  11  23  38  61  90 122 163 213 265 314 381
#     4  10  23  40  59  88 124 160 207 266 325 380
#     4  10  23  42  65  90 126 170 214 263 314 371
#     4   9  20  37  58  90 128 162 202 252 309 375
#
# _framework density 21.345717
#
# number of rings (size 3 to 8) (size 9 to 14) (size 15 to 20)
#    0.000    2.182    0.000    1.364    7.636    3.636 
#    0.000    0.455    0.000    2.182    0.000    0.000 
#    0.000    0.000    0.000    0.000    0.000    0.000 
#
# Total GULP energy -545164.943378 kJ/mol
# GULP energy per Si atom -12390.112350 kJ/mol
# Density = 2.129713 g / cm^3
# Si number density = 21.345717 Si / 1000 Ang^3
#
#
#
# Elastic Constant Matrix: (Units=GPa)
#
#
# Indices 1 2 3 4 5 6 
#
# 1 66.1602 29.9357 52.6218 0.0000 0.0000 0.0000
# 2 29.9357 104.7076 37.2637 0.0000 0.0000 0.0000
# 3 52.6218 37.2637 140.6615 0.0000 0.0000 0.0000
# 4 0.0000 0.0000 0.0000 30.0017 0.0000 0.0000
# 5 0.0000 0.0000 0.0000 0.0000 16.4757 0.0000
# 6 0.0000 0.0000 0.0000 0.0000 0.0000 17.3525
#
#
#
# Elastic Compliance Matrix: (Units=1/GPa)
#
#
# Indices 1 2 3 4 5 6 
#
# 1 0.022843 -0.003853 -0.007525 0.000000 0.000000 0.000000
# 2 -0.003853 0.011194 -0.001524 0.000000 0.000000 0.000000
# 3 -0.007525 -0.001524 0.010328 0.000000 0.000000 0.000000
# 4 0.000000 0.000000 0.000000 0.033331 0.000000 0.000000
# 5 0.000000 0.000000 0.000000 0.000000 0.060696 0.000000
# 6 0.000000 0.000000 0.000000 0.000000 0.000000 0.057628
#
#
# Mechanical properties :
#
#
# Convention : Reuss Voigt Hill
#
# Bulk Modulus (GPa) = 53.87446 61.24128 57.55787
# Shear Modulus (GPa) = 21.92860 25.54653 23.73756
#
# Velocity S-wave (km/s) = 3.20864 3.46323 3.33836
# Velocity P-wave (km/s) = 6.24668 6.68913 6.47168
#
# Compressibility (1/GPa) = 0.01856167
#
# Stress axis : x y z
#
# Youngs Moduli (GPa) = 43.77647 89.33058 96.82228
#
# Poissons Ratio (x) = 0.34418 0.72859
# Poissons Ratio (y) = 0.16866 0.14758
# Poissons Ratio (z) = 0.32942 0.13616
#
# Static dielectric constant tensor:
#      x y z
#    x 3.654860 0.000000 0.000000 
#    y 0.000000 4.045510 0.000000 
#    z 0.000000 0.000000 4.088550 
# 
# 
# High freq. dielectric constant tensor:
#      x y z
#    x 1.811540 0.000000 0.000000 
#    y 0.000000 1.836290 0.000000 
#    z 0.000000 0.000000 1.847640 
# 
# From -- ./inp_files/36934.got.cif
#   From: 2010.03.12/outbox.cif.g09.slc.cpg/sg53_19_cif.got.tgz:36934.got - 2010.04.16 14:36:59.
