data_PCOD8221774
_publ_section_title
;
Structure prediction by ZEFSAII (Michael W. Deem and Ramdas Pophale) SiO2 
 PCOD8221774
Probable space group: P M N A
;
_chemical_formula_sum "Si O2"
_cell_formula_units_Z 40
_cell_length_a 15.061524
_cell_length_b 13.896478
_cell_length_c 9.229004
_cell_angle_alpha 90.000000
_cell_angle_beta 90.000000
_cell_angle_gamma 90.000000
_cell_volume 1931.650259
_symmetry_space_group_name_H-M "P M N A"
_symmetry_group_IT_number 53
_symmetry_cell_setting 'orthorhombic'
loop_
_space_group_symop_operation_xyz
x,y,z
1/2-x,-y,1/2+z
x,-y,-z
1/2-x,y,1/2-z
-x,-y,-z
1/2+x,y,1/2-z
-x,y,z
1/2+x,-y,1/2+z
loop_
_atom_site_type_symbol
_atom_site_label
_atom_site_fract_x
_atom_site_fract_y
_atom_site_fract_z
Si Si1 0.681956 0.432939 0.136152
Si Si2 0.766201 0.222513 0.409943
Si Si3 0.396137 0.900854 0.065340
Si Si4 0.000000 0.427557 0.205146
Si Si5 0.661005 0.217227 0.677224
Si Si6 0.000000 0.646795 0.111460
O O1 0.750000 0.484000 0.250000
O O2 0.733142 0.337744 0.084281
O O3 0.588248 0.402551 0.205737
O O4 0.664042 0.500000 0.000000
O O5 0.750000 0.181755 0.250000
O O6 0.860809 0.185313 0.465711
O O7 0.686440 0.184742 0.513978
O O8 0.500000 0.902785 0.050473
O O9 0.368766 0.877996 0.232267
O O10 0.355719 0.000000 0.000000
O O11 0.000000 0.540463 0.174234
O O12 0.000000 0.360383 0.062565
O O13 0.750000 0.262415 0.750000
O O14 0.585511 0.298174 0.673443
#
# Coordination Sequence:
#
# PCOD8221774 Si02
#       6
#     8   8   8   4   8   4
#     4  11  26  41  63  92 132 175 225 279 328 390
#     4  10  23  41  62  94 128 172 214 270 335 387
#     4  10  22  41  67  97 125 161 214 271 327 397
#     4  11  27  38  62  95 130 181 231 276 338 367
#     4  10  22  40  68  95 127 175 221 264 340 391
#     4  11  22  40  63  95 133 175 232 283 315 405
#
# _framework density 20.707681999999998
#
# number of rings (size 3 to 8) (size 9 to 14) (size 15 to 20)
#    0.000    1.600    1.000    2.700   12.600    2.400 
#    1.800    0.000    0.000    2.400    0.000    0.000 
#    0.000    0.000    0.000    0.000    0.000    0.000 
#
# Total GULP energy -495908.200994 kJ/mol
# GULP energy per Si atom -12397.705025 kJ/mol
# Density = 2.066055 g / cm^3
# Si number density = 20.707682 Si / 1000 Ang^3
#
#
#
# Elastic Constant Matrix: (Units=GPa)
#
#
# Indices 1 2 3 4 5 6 
#
# 1 120.3822 24.0909 39.5982 0.0000 0.0000 0.0000
# 2 24.0909 79.1239 47.1531 0.0000 0.0000 0.0000
# 3 39.5982 47.1531 144.3171 0.0000 0.0000 0.0000
# 4 0.0000 0.0000 0.0000 40.0276 0.0000 0.0000
# 5 0.0000 0.0000 0.0000 0.0000 32.8380 0.0000
# 6 0.0000 0.0000 0.0000 0.0000 0.0000 20.8870
#
#
#
# Elastic Compliance Matrix: (Units=1/GPa)
#
#
# Indices 1 2 3 4 5 6 
#
# 1 0.009297 -0.001627 -0.002019 0.000000 0.000000 0.000000
# 2 -0.001627 0.015979 -0.004774 0.000000 0.000000 0.000000
# 3 -0.002019 -0.004774 0.009043 0.000000 0.000000 0.000000
# 4 0.000000 0.000000 0.000000 0.024983 0.000000 0.000000
# 5 0.000000 0.000000 0.000000 0.000000 0.030453 0.000000
# 6 0.000000 0.000000 0.000000 0.000000 0.000000 0.047877
#
#
# Mechanical properties :
#
#
# Convention : Reuss Voigt Hill
#
# Bulk Modulus (GPa) = 57.21712 62.83421 60.02566
# Shear Modulus (GPa) = 31.19182 34.28258 32.73720
#
# Velocity S-wave (km/s) = 3.88531 4.07326 3.98039
# Velocity P-wave (km/s) = 6.91508 7.24784 7.08342
#
# Compressibility (1/GPa) = 0.01747729
#
# Stress axis : x y z
#
# Youngs Moduli (GPa) = 107.56497 62.58172 110.58076
#
# Poissons Ratio (x) = 0.10184 0.22328
# Poissons Ratio (y) = 0.17504 0.52796
# Poissons Ratio (z) = 0.21719 0.29879
#
# Static dielectric constant tensor:
#      x y z
#    x 3.835780 0.000000 0.000000 
#    y 0.000000 3.671330 0.000000 
#    z 0.000000 0.000000 4.154940 
# 
# 
# High freq. dielectric constant tensor:
#      x y z
#    x 1.820310 0.000000 0.000000 
#    y 0.000000 1.785250 0.000000 
#    z 0.000000 0.000000 1.825340 
# 
# From -- ./inp_files/8457.got.cif
#   From: 2010.03.12/outbox.cif.g09.slc.cpg/sg53_5_cif.got.tgz:8457.got - 2010.04.16 14:36:59.
