data_PCOD8221002
_publ_section_title
;
Structure prediction by ZEFSAII (Michael W. Deem and Ramdas Pophale) SiO2 
 PCOD8221002
Probable space group: P M N A
;
_chemical_formula_sum "Si O2"
_cell_formula_units_Z 64
_cell_length_a 8.708740
_cell_length_b 14.505532
_cell_length_c 24.866549
_cell_angle_alpha 90.000000
_cell_angle_beta 90.000000
_cell_angle_gamma 90.000000
_cell_volume 3141.264484
_symmetry_space_group_name_H-M "P M N A"
_symmetry_group_IT_number 53
_symmetry_cell_setting 'orthorhombic'
loop_
_space_group_symop_operation_xyz
x,y,z
1/2-x,-y,1/2+z
x,-y,-z
1/2-x,y,1/2-z
-x,-y,-z
1/2+x,y,1/2-z
-x,y,z
1/2+x,-y,1/2+z
loop_
_atom_site_type_symbol
_atom_site_label
_atom_site_fract_x
_atom_site_fract_y
_atom_site_fract_z
Si Si1 0.819268 0.707832 0.806256
Si Si2 0.319277 0.779615 0.411613
Si Si3 0.822301 0.459186 0.056935
Si Si4 0.181562 0.677213 0.196256
Si Si5 0.680199 0.028107 0.940433
Si Si6 0.827900 0.841242 0.609929
Si Si7 0.180083 0.489802 0.336542
Si Si8 0.173043 0.288794 0.483225
O O1 0.750000 0.742720 0.750000
O O2 0.784170 0.785535 0.850906
O O3 0.751540 0.607910 0.820131
O O4 0.000000 0.696858 0.801318
O O5 0.500000 0.769239 0.418844
O O6 0.264873 0.738571 0.354453
O O7 0.239908 0.718306 0.457290
O O8 0.271474 0.885198 0.417326
O O9 0.720223 0.510045 0.101305
O O10 0.000000 0.473010 0.071583
O O11 0.776111 0.500000 0.000000
O O12 0.779369 0.352095 0.054595
O O13 0.250000 0.725024 0.250000
O O14 0.248389 0.573695 0.196287
O O15 0.000000 0.671854 0.199383
O O16 0.500000 0.052215 0.943005
O O17 0.715548 0.948593 0.896227
O O18 0.739109 0.000000 0.000000
O O19 0.823045 0.808176 0.547647
O O20 0.000000 0.828257 0.632930
O O21 0.000000 0.485699 0.326526
O O22 0.000000 0.328158 0.486523
#
# Coordination Sequence:
#
# PCOD8221002 Si02
#       8
#     8   8   8   8   8   8   8   8
#     4  12  25  42  65  91 125 166 210 259 311 366
#     4  11  24  40  62  94 129 161 204 257 312 373
#     4  11  23  37  54  83 124 165 206 254 308 363
#     4  11  25  45  65  89 122 162 209 262 310 361
#     4  10  20  39  65  93 126 163 203 249 305 369
#     4  10  21  39  62  91 126 161 203 254 305 364
#     4  12  24  40  63  91 123 162 210 256 305 368
#     4  11  21  36  60  88 124 163 203 248 304 369
#
# _framework density 20.373961999999999
#
# number of rings (size 3 to 8) (size 9 to 14) (size 15 to 20)
#    0.000    1.000    2.500    4.875    0.000    7.250 
#    0.000    0.625    0.000    1.500    0.000    0.000 
#    0.000    0.000    0.000    0.000    0.000    0.000 
#
# Total GULP energy -793709.428429 kJ/mol
# GULP energy per Si atom -12401.709819 kJ/mol
# Density = 2.032759 g / cm^3
# Si number density = 20.373962 Si / 1000 Ang^3
#
#
#
# Elastic Constant Matrix: (Units=GPa)
#
#
# Indices 1 2 3 4 5 6 
#
# 1 92.9850 22.1904 46.4949 0.0000 0.0000 0.0000
# 2 22.1904 73.2693 34.5046 0.0000 0.0000 0.0000
# 3 46.4949 34.5046 132.3234 0.0000 0.0000 0.0000
# 4 0.0000 0.0000 0.0000 21.6994 0.0000 0.0000
# 5 0.0000 0.0000 0.0000 0.0000 36.1935 0.0000
# 6 0.0000 0.0000 0.0000 0.0000 0.0000 6.1122
#
#
#
# Elastic Compliance Matrix: (Units=1/GPa)
#
#
# Indices 1 2 3 4 5 6 
#
# 1 0.013321 -0.002086 -0.004137 0.000000 0.000000 0.000000
# 2 -0.002086 0.015886 -0.003409 0.000000 0.000000 0.000000
# 3 -0.004137 -0.003409 0.009900 0.000000 0.000000 0.000000
# 4 0.000000 0.000000 0.000000 0.046084 0.000000 0.000000
# 5 0.000000 0.000000 0.000000 0.000000 0.027629 0.000000
# 6 0.000000 0.000000 0.000000 0.000000 0.000000 0.163606
#
#
# Mechanical properties :
#
#
# Convention : Reuss Voigt Hill
#
# Bulk Modulus (GPa) = 50.39848 56.10640 53.25244
# Shear Modulus (GPa) = 16.53964 25.82686 21.18325
#
# Velocity S-wave (km/s) = 2.85231 3.56426 3.22797
# Velocity P-wave (km/s) = 5.96975 6.67358 6.33145
#
# Compressibility (1/GPa) = 0.01984187
#
# Stress axis : x y z
#
# Youngs Moduli (GPa) = 75.07125 62.94977 101.01310
#
# Poissons Ratio (x) = 0.13133 0.41784
# Poissons Ratio (y) = 0.15662 0.34438
# Poissons Ratio (z) = 0.31053 0.21461
#
# Static dielectric constant tensor:
#      x y z
#    x 3.663820 0.000000 0.000000 
#    y 0.000000 3.679080 0.000000 
#    z 0.000000 0.000000 3.911910 
# 
# 
# High freq. dielectric constant tensor:
#      x y z
#    x 1.799730 0.000000 0.000000 
#    y 0.000000 1.791140 0.000000 
#    z 0.000000 0.000000 1.802150 
# 
# From -- ./inp_files/34245.got.cif
#   From: 2010.03.12/outbox.cif.g09.slc.cpg/sg53_18_cif.got.tgz:34245.got - 2010.04.16 14:36:59.
