data_PCOD8221557
_publ_section_title
;
Structure prediction by ZEFSAII (Michael W. Deem and Ramdas Pophale) SiO2 
 PCOD8221557
Probable space group: P M N A
;
_chemical_formula_sum "Si O2"
_cell_formula_units_Z 56
_cell_length_a 8.601161
_cell_length_b 21.580411
_cell_length_c 15.006892
_cell_angle_alpha 90.000000
_cell_angle_beta 90.000000
_cell_angle_gamma 90.000000
_cell_volume 2785.528111
_symmetry_space_group_name_H-M "P M N A"
_symmetry_group_IT_number 53
_symmetry_cell_setting 'orthorhombic'
loop_
_space_group_symop_operation_xyz
x,y,z
1/2-x,-y,1/2+z
x,-y,-z
1/2-x,y,1/2-z
-x,-y,-z
1/2+x,y,1/2-z
-x,y,z
1/2+x,-y,1/2+z
loop_
_atom_site_type_symbol
_atom_site_label
_atom_site_fract_x
_atom_site_fract_y
_atom_site_fract_z
Si Si1 0.316056 0.498015 0.649763
Si Si2 0.680551 0.187123 0.661917
Si Si3 0.181674 0.266840 0.009688
Si Si4 0.318592 0.061963 0.900216
Si Si5 0.818227 0.185699 0.338446
Si Si6 0.681827 0.064065 0.406859
Si Si7 0.315773 0.592928 0.502196
O O1 0.250000 0.497159 0.750000
O O2 0.500000 0.497228 0.659660
O O3 0.260221 0.558365 0.592990
O O4 0.256929 0.439740 0.589539
O O5 0.750000 0.219466 0.750000
O O6 0.500000 0.172586 0.670403
O O7 0.715279 0.234835 0.583822
O O8 0.769676 0.122347 0.653205
O O9 0.284135 0.231119 0.080806
O O10 0.000000 0.263505 0.035565
O O11 0.244764 0.336863 0.004626
O O12 0.500000 0.049819 0.888769
O O13 0.227023 0.001737 0.862459
O O14 0.278417 0.072807 0.003046
O O15 0.750000 0.218317 0.250000
O O16 0.727678 0.120499 0.343825
O O17 0.000000 0.173110 0.331653
O O18 0.500000 0.066161 0.429279
O O19 0.500000 0.590634 0.499504
#
# Coordination Sequence:
#
# PCOD8221557 Si02
#       7
#     8   8   8   8   8   8   8
#     4   9  17  33  58  87 120 154 194 237 282 335
#     4  11  23  38  58  83 114 152 197 246 299 356
#     4  10  21  40  62  83 115 156 199 243 292 347
#     4  11  21  36  59  86 115 149 192 242 299 356
#     4  12  25  41  61  86 116 152 196 244 298 355
#     4  11  21  37  60  86 115 149 191 239 298 358
#     4   8  17  35  58  83 115 159 196 230 284 347
#
# _framework density 20.103907
#
# number of rings (size 3 to 8) (size 9 to 14) (size 15 to 20)
#    0.000    1.714    1.429    6.000    0.000    2.286 
#    0.000    7.143    0.000    0.000    0.000    0.000 
#    0.000    0.000    0.000    0.000    0.000    0.000 
#
# Total GULP energy -694339.413845 kJ/mol
# GULP energy per Si atom -12398.918104 kJ/mol
# Density = 2.005815 g / cm^3
# Si number density = 20.103907 Si / 1000 Ang^3
#
#
#
# Elastic Constant Matrix: (Units=GPa)
#
#
# Indices 1 2 3 4 5 6 
#
# 1 78.5003 43.1647 43.9255 0.0000 0.0000 0.0000
# 2 43.1647 134.6762 44.9472 0.0000 0.0000 0.0000
# 3 43.9255 44.9472 117.3790 0.0000 0.0000 0.0000
# 4 0.0000 0.0000 0.0000-1348.4371 0.0000 0.0000
# 5 0.0000 0.0000 0.0000 0.0000 35.0189 0.0000
# 6 0.0000 0.0000 0.0000 0.0000 0.0000 14.4802
#
#
#
# Elastic Compliance Matrix: (Units=1/GPa)
#
#
# Indices 1 2 3 4 5 6 
#
# 1 0.017808 -0.003994 -0.005135 0.000000 0.000000 0.000000
# 2 -0.003994 0.009409 -0.002108 0.000000 0.000000 0.000000
# 3 -0.005135 -0.002108 0.011248 0.000000 0.000000 0.000000
# 4 0.000000 0.000000 0.000000 -0.000742 0.000000 0.000000
# 5 0.000000 0.000000 0.000000 0.000000 0.028556 0.000000
# 6 0.000000 0.000000 0.000000 0.000000 0.000000 0.069060
#
#
# Mechanical properties :
#
#
# Convention : Reuss Voigt Hill
#
# Bulk Modulus (GPa) = 62.53395 66.07002 64.30198
# Shear Modulus (GPa) = 30.64776 -246.55306 -107.95265
#
# Velocity S-wave (km/s) = 3.90868 -11.08628 -7.33580
# Velocity P-wave (km/s) = 7.17936 11.44284 6.30061
#
# Compressibility (1/GPa) = 0.01599131
#
# Stress axis : x y z
#
# Youngs Moduli (GPa) = 56.15405 106.28208 88.90267
#
# Poissons Ratio (x) = 0.42448 0.45650
# Poissons Ratio (y) = 0.22428 0.18743
# Poissons Ratio (z) = 0.28834 0.22407
#
# Static dielectric constant tensor:
#      x y z
#    x 3.473240 0.000000 0.000000 
#    y 0.000000 3.965910 0.000000 
#    z 0.000000 0.000000 4.070810 
# 
# 
# High freq. dielectric constant tensor:
#      x y z
#    x 1.774270 0.000000 0.000000 
#    y 0.000000 1.782680 0.000000 
#    z 0.000000 0.000000 1.790880 
# 
# From -- ./inp_files/20560.got.cif
#   From: 2010.03.12/outbox.cif.g09.slc.cpg/sg53_11_cif.got.tgz:20560.got - 2010.04.16 14:36:59.
