data_PCOD8221210
_publ_section_title
;
Structure prediction by ZEFSAII (Michael W. Deem and Ramdas Pophale) SiO2 
 PCOD8221210
Probable space group: P M N A
;
_chemical_formula_sum "Si O2"
_cell_formula_units_Z 28
_cell_length_a 13.627274
_cell_length_b 8.843741
_cell_length_c 10.426460
_cell_angle_alpha 90.000000
_cell_angle_beta 90.000000
_cell_angle_gamma 90.000000
_cell_volume 1256.556106
_symmetry_space_group_name_H-M "P M N A"
_symmetry_group_IT_number 53
_symmetry_cell_setting 'orthorhombic'
loop_
_space_group_symop_operation_xyz
x,y,z
1/2-x,-y,1/2+z
x,-y,-z
1/2-x,y,1/2-z
-x,-y,-z
1/2+x,y,1/2-z
-x,y,z
1/2+x,-y,1/2+z
loop_
_atom_site_type_symbol
_atom_site_label
_atom_site_fract_x
_atom_site_fract_y
_atom_site_fract_z
Si Si1 0.612056 0.245680 0.189160
Si Si2 0.783061 0.720866 0.422314
Si Si3 0.610716 0.435248 0.695578
Si Si4 0.250000 0.992580 0.250000
O O1 0.500000 0.217028 0.148240
O O2 0.622462 0.385589 0.285327
O O3 0.653486 0.098069 0.261043
O O4 0.676861 0.279948 0.064616
O O5 0.864804 0.650605 0.328159
O O6 0.684119 0.619690 0.415921
O O7 0.757331 0.890876 0.377610
O O8 0.500000 0.394860 0.654254
#
# Coordination Sequence:
#
# PCOD8221210 Si02
#       4
#     8   8   8   4
#     4  11  22  39  64  89 116 156 201 242 290 350
#     4  10  21  36  60  88 122 156 195 244 294 349
#     4   9  19  36  59  86 115 150 195 247 297 345
#     4  10  22  36  54  88 124 154 192 244 290 338
#
# _framework density 22.283125999999999
#
# number of rings (size 3 to 8) (size 9 to 14) (size 15 to 20)
#    0.000    2.286    0.000    4.286    0.000    9.143 
#    0.000    1.429    0.000   30.857    0.000    0.000 
#    0.000    0.000    0.000    0.000    0.000    0.000 
#
# Total GULP energy -347229.294099 kJ/mol
# GULP energy per Si atom -12401.046218 kJ/mol
# Density = 2.223241 g / cm^3
# Si number density = 22.283126 Si / 1000 Ang^3
#
#
#
# Elastic Constant Matrix: (Units=GPa)
#
#
# Indices 1 2 3 4 5 6 
#
# 1 208.9365 78.0545 48.6487 0.0000 0.0000 0.0000
# 2 78.0545 148.5347 28.9723 0.0000 0.0000 0.0000
# 3 48.6487 28.9723 42.4061 0.0000 0.0000 0.0000
# 4 0.0000 0.0000 0.0000 24.7546 0.0000 0.0000
# 5 0.0000 0.0000 0.0000 0.0000 28.8481 0.0000
# 6 0.0000 0.0000 0.0000 0.0000 0.0000 -16.6118
#
#
#
# Elastic Compliance Matrix: (Units=1/GPa)
#
#
# Indices 1 2 3 4 5 6 
#
# 1 0.007271 -0.002531 -0.006612 0.000000 0.000000 0.000000
# 2 -0.002531 0.008649 -0.003005 0.000000 0.000000 0.000000
# 3 -0.006612 -0.003005 0.033220 0.000000 0.000000 0.000000
# 4 0.000000 0.000000 0.000000 0.040397 0.000000 0.000000
# 5 0.000000 0.000000 0.000000 0.000000 0.034664 0.000000
# 6 0.000000 0.000000 0.000000 0.000000 0.000000 -0.060198
#
#
# Mechanical properties :
#
#
# Convention : Reuss Voigt Hill
#
# Bulk Modulus (GPa) = 40.25253 79.02538 59.63895
# Shear Modulus (GPa) = 51.76966 23.67831 37.72398
#
# Velocity S-wave (km/s) = 4.82526 3.26331 4.11900
# Velocity P-wave (km/s) = 7.01053 7.05267 7.03163
#
# Compressibility (1/GPa) = 0.02484316
#
# Stress axis : x y z
#
# Youngs Moduli (GPa) = 137.52437 115.62340 30.10198
#
# Poissons Ratio (x) = 0.29268 0.19905
# Poissons Ratio (y) = 0.34812 0.09045
# Poissons Ratio (z) = 0.90937 0.34744
#
# Static dielectric constant tensor:
#      x y z
#    x 4.269410 0.000000 0.000000 
#    y 0.000000 4.312810 0.000000 
#    z 0.000000 0.000000 3.590580 
# 
# 
# High freq. dielectric constant tensor:
#      x y z
#    x 1.882710 0.000000 0.000000 
#    y 0.000000 1.893520 0.000000 
#    z 0.000000 0.000000 1.858800 
# 
# From -- ./inp_files/15285.got.cif
#   From: 2010.03.12/outbox.cif.g09.slc.cpg/sg53_8_cif.got.tgz:15285.got - 2010.04.16 14:36:59.
