data_PCOD8221677
_publ_section_title
;
Structure prediction by ZEFSAII (Michael W. Deem and Ramdas Pophale) SiO2 
 PCOD8221677
Probable space group: P M N A
;
_chemical_formula_sum "Si O2"
_cell_formula_units_Z 40
_cell_length_a 19.403198
_cell_length_b 18.224384
_cell_length_c 5.341011
_cell_angle_alpha 90.000000
_cell_angle_beta 90.000000
_cell_angle_gamma 90.000000
_cell_volume 1888.642010
_symmetry_space_group_name_H-M "P M N A"
_symmetry_group_IT_number 53
_symmetry_cell_setting 'orthorhombic'
loop_
_space_group_symop_operation_xyz
x,y,z
1/2-x,-y,1/2+z
x,-y,-z
1/2-x,y,1/2-z
-x,-y,-z
1/2+x,y,1/2-z
-x,y,z
1/2+x,-y,1/2+z
loop_
_atom_site_type_symbol
_atom_site_label
_atom_site_fract_x
_atom_site_fract_y
_atom_site_fract_z
Si Si1 0.146295 0.659051 0.597346
Si Si2 0.330560 0.036488 0.249571
Si Si3 0.500000 0.767783 0.416454
Si Si4 0.750000 0.547380 0.750000
Si Si5 0.750000 0.266017 0.750000
Si Si6 0.000000 0.677774 0.578049
Si Si7 0.141552 0.804897 0.904962
O O1 0.182577 0.599014 0.773840
O O2 0.195537 0.676550 0.364818
O O3 0.069601 0.629624 0.526998
O O4 0.132295 0.736516 0.724788
O O5 0.250000 0.019991 0.250000
O O6 0.345723 0.122933 0.242043
O O7 0.363237 0.000000 0.500000
O O8 0.363584 0.000000 0.000000
O O9 0.500000 0.705595 0.633372
O O10 0.429595 0.815304 0.440391
O O11 0.500000 0.740639 0.131820
O O12 0.754879 0.500000 0.500000
O O13 0.709837 0.210707 0.568069
#
# Coordination Sequence:
#
# PCOD8221677 Si02
#       7
#     8   8   4   4   4   4   8
#     4  11  23  41  66  99 127 174 217 273 329 390
#     4  10  23  38  56  88 131 165 209 270 328 374
#     4  10  22  38  60  96 134 164 211 281 328 371
#     4  12  27  44  66  99 138 168 216 278 331 396
#     4  12  19  34  72  95 128 156 234 272 327 378
#     4  10  22  40  64  96 134 164 215 271 330 387
#     4  11  23  38  65  96 127 170 225 271 325 395
#
# _framework density 21.179238000000002
#
# number of rings (size 3 to 8) (size 9 to 14) (size 15 to 20)
#    0.000    1.200    4.000    1.800    7.000    0.000 
#    0.000    2.000    0.000    0.000    0.000    0.000 
#    0.000    0.000    0.000    0.000    0.000    0.000 
#
# Total GULP energy -495719.969338 kJ/mol
# GULP energy per Si atom -12392.999233 kJ/mol
# Density = 2.113103 g / cm^3
# Si number density = 21.179238 Si / 1000 Ang^3
#
#
#
# Elastic Constant Matrix: (Units=GPa)
#
#
# Indices 1 2 3 4 5 6 
#
# 1 162.4613 26.7200 29.2496 0.0000 0.0000 0.0000
# 2 26.7200 90.8750 30.6748 0.0000 0.0000 0.0000
# 3 29.2496 30.6748 98.1591 0.0000 0.0000 0.0000
# 4 0.0000 0.0000 0.0000 16.6722 0.0000 0.0000
# 5 0.0000 0.0000 0.0000 0.0000 25.3568 0.0000
# 6 0.0000 0.0000 0.0000 0.0000 0.0000 -9.4104
#
#
#
# Elastic Compliance Matrix: (Units=1/GPa)
#
#
# Indices 1 2 3 4 5 6 
#
# 1 0.006669 -0.001442 -0.001537 0.000000 0.000000 0.000000
# 2 -0.001442 0.012614 -0.003512 0.000000 0.000000 0.000000
# 3 -0.001537 -0.003512 0.011743 0.000000 0.000000 0.000000
# 4 0.000000 0.000000 0.000000 0.059980 0.000000 0.000000
# 5 0.000000 0.000000 0.000000 0.000000 0.039437 0.000000
# 6 0.000000 0.000000 0.000000 0.000000 0.000000 -0.106266
#
#
# Mechanical properties :
#
#
# Convention : Reuss Voigt Hill
#
# Bulk Modulus (GPa) = 55.41995 58.30935 56.86465
# Shear Modulus (GPa) = 115.81067 24.18045 69.99556
#
# Velocity S-wave (km/s) = 7.40270 3.38258 5.75507
# Velocity P-wave (km/s) = 9.96446 6.54576 8.43023
#
# Compressibility (1/GPa) = 0.01804404
#
# Stress axis : x y z
#
# Youngs Moduli (GPa) = 149.94371 79.27900 85.15764
#
# Poissons Ratio (x) = 0.11434 0.13085
# Poissons Ratio (y) = 0.21626 0.29908
# Poissons Ratio (z) = 0.23040 0.27843
#
# Static dielectric constant tensor:
#      x y z
#    x 5.056430 0.000000 0.000000 
#    y 0.000000 3.562730 0.000000 
#    z 0.000000 0.000000 3.966610 
# 
# 
# High freq. dielectric constant tensor:
#      x y z
#    x 1.839820 0.000000 0.000000 
#    y 0.000000 1.795720 0.000000 
#    z 0.000000 0.000000 1.836040 
# 
# From -- ./inp_files/2918.got.cif
#   From: 2010.03.12/outbox.cif.g09.slc.cpg/sg53_2_cif.got.tgz:2918.got - 2010.04.16 14:36:59.
