data_PCOD8221714
_publ_section_title
;
Structure prediction by ZEFSAII (Michael W. Deem and Ramdas Pophale) SiO2 
 PCOD8221714
Probable space group: P M N A
;
_chemical_formula_sum "Si O2"
_cell_formula_units_Z 64
_cell_length_a 8.932323
_cell_length_b 21.588899
_cell_length_c 16.028979
_cell_angle_alpha 90.000000
_cell_angle_beta 90.000000
_cell_angle_gamma 90.000000
_cell_volume 3091.012587
_symmetry_space_group_name_H-M "P M N A"
_symmetry_group_IT_number 53
_symmetry_cell_setting 'orthorhombic'
loop_
_space_group_symop_operation_xyz
x,y,z
1/2-x,-y,1/2+z
x,-y,-z
1/2-x,y,1/2-z
-x,-y,-z
1/2+x,y,1/2-z
-x,y,z
1/2+x,-y,1/2+z
loop_
_atom_site_type_symbol
_atom_site_label
_atom_site_fract_x
_atom_site_fract_y
_atom_site_fract_z
Si Si1 0.826016 0.378667 0.334858
Si Si2 0.827699 0.926990 0.995921
Si Si3 0.670518 0.500722 0.401579
Si Si4 0.672634 0.135860 0.664679
Si Si5 0.671021 0.263550 0.587481
Si Si6 0.323338 0.376674 0.836885
Si Si7 0.827526 0.868684 0.663836
Si Si8 0.330828 0.252757 0.074456
O O1 0.750000 0.357293 0.250000
O O2 0.744057 0.438812 0.368460
O O3 0.801080 0.322948 0.398531
O O4 0.000000 0.393603 0.321090
O O5 0.738055 0.904055 0.915686
O O6 0.000000 0.906238 0.985923
O O7 0.761563 0.898458 0.082485
O O8 0.810231 0.000000 0.000000
O O9 0.677195 0.500000 0.500000
O O10 0.500000 0.505487 0.369105
O O11 0.763768 0.557911 0.367598
O O12 0.750000 0.113178 0.750000
O O13 0.500000 0.118048 0.673281
O O14 0.695209 0.209940 0.655728
O O15 0.500000 0.286643 0.587270
O O16 0.779116 0.322072 0.600312
O O17 0.713727 0.235107 0.497765
O O18 0.250000 0.358248 0.750000
O O19 0.500000 0.380649 0.828178
O O20 0.750000 0.888938 0.750000
O O21 0.805267 0.794847 0.650553
O O22 0.000000 0.887094 0.671807
O O23 0.500000 0.245484 0.040396
#
# Coordination Sequence:
#
# PCOD8221714 Si02
#       8
#     8   8   8   8   8   8   8   8
#     4  11  23  39  59  85 118 155 199 249 308 368
#     4  10  22  43  67  94 131 172 216 266 319 378
#     4  11  24  42  62  85 114 152 199 248 307 371
#     4  10  22  39  62  93 126 167 210 260 318 375
#     4  11  22  38  62  91 123 160 206 257 315 374
#     4  12  25  41  61  86 119 157 201 252 309 370
#     4  11  23  40  65  96 132 173 219 268 322 381
#     4  10  22  39  61  91 124 163 207 258 314 372
#
# _framework density 20.705189000000001
#
# number of rings (size 3 to 8) (size 9 to 14) (size 15 to 20)
#    0.000    1.250    1.250    4.500    0.000    7.750 
#    0.000    1.250    0.000    0.000    0.000    0.000 
#    0.000    0.000    0.000    0.000    0.000    0.000 
#
# Total GULP energy -793827.838556 kJ/mol
# GULP energy per Si atom -12403.559977 kJ/mol
# Density = 2.065806 g / cm^3
# Si number density = 20.705189 Si / 1000 Ang^3
#
#
#
# Elastic Constant Matrix: (Units=GPa)
#
#
# Indices 1 2 3 4 5 6 
#
# 1 138.6473 45.4017 67.7861 0.0000 0.0000 0.0000
# 2 45.4017 84.4398 35.1226 0.0000 0.0000 0.0000
# 3 67.7861 35.1226 143.2474 0.0000 0.0000 0.0000
# 4 0.0000 0.0000 0.0000 23.1204 0.0000 0.0000
# 5 0.0000 0.0000 0.0000 0.0000 38.7282 0.0000
# 6 0.0000 0.0000 0.0000 0.0000 0.0000 27.4812
#
#
#
# Elastic Compliance Matrix: (Units=1/GPa)
#
#
# Indices 1 2 3 4 5 6 
#
# 1 0.010455 -0.003968 -0.003975 0.000000 0.000000 0.000000
# 2 -0.003968 0.014694 -0.001725 0.000000 0.000000 0.000000
# 3 -0.003975 -0.001725 0.009285 0.000000 0.000000 0.000000
# 4 0.000000 0.000000 0.000000 0.043252 0.000000 0.000000
# 5 0.000000 0.000000 0.000000 0.000000 0.025821 0.000000
# 6 0.000000 0.000000 0.000000 0.000000 0.000000 0.036388
#
#
# Mechanical properties :
#
#
# Convention : Reuss Voigt Hill
#
# Bulk Modulus (GPa) = 66.23305 73.66171 69.94738
# Shear Modulus (GPa) = 30.43891 32.40090 31.41991
#
# Velocity S-wave (km/s) = 3.83836 3.96013 3.89972
# Velocity P-wave (km/s) = 7.19042 7.52090 7.35751
#
# Compressibility (1/GPa) = 0.01509820
#
# Stress axis : x y z
#
# Youngs Moduli (GPa) = 95.64601 68.05518 107.70473
#
# Poissons Ratio (x) = 0.27007 0.42807
# Poissons Ratio (y) = 0.37956 0.18578
# Poissons Ratio (z) = 0.38015 0.11739
#
# Static dielectric constant tensor:
#      x y z
#    x 3.839320 0.000000 0.000000 
#    y 0.000000 3.718140 0.000000 
#    z 0.000000 0.000000 3.849490 
# 
# 
# High freq. dielectric constant tensor:
#      x y z
#    x 1.814400 0.000000 0.000000 
#    y 0.000000 1.815910 0.000000 
#    z 0.000000 0.000000 1.818620 
# 
# From -- ./inp_files/20944.got.cif
#   From: 2010.03.12/outbox.cif.g09.slc.cpg/sg53_11_cif.got.tgz:20944.got - 2010.04.16 14:36:59.
