data_PCOD8221071
_publ_section_title
;
Structure prediction by ZEFSAII (Michael W. Deem and Ramdas Pophale) SiO2 
 PCOD8221071
Probable space group: P M N A
;
_chemical_formula_sum "Si O2"
_cell_formula_units_Z 48
_cell_length_a 8.933463
_cell_length_b 31.352724
_cell_length_c 9.094034
_cell_angle_alpha 90.000000
_cell_angle_beta 90.000000
_cell_angle_gamma 90.000000
_cell_volume 2547.133431
_symmetry_space_group_name_H-M "P M N A"
_symmetry_group_IT_number 53
_symmetry_cell_setting 'orthorhombic'
loop_
_space_group_symop_operation_xyz
x,y,z
1/2-x,-y,1/2+z
x,-y,-z
1/2-x,y,1/2-z
-x,-y,-z
1/2+x,y,1/2-z
-x,y,z
1/2+x,-y,1/2+z
loop_
_atom_site_type_symbol
_atom_site_label
_atom_site_fract_x
_atom_site_fract_y
_atom_site_fract_z
Si Si1 0.173670 0.788070 0.095554
Si Si2 0.172750 0.542167 0.404421
Si Si3 0.176544 0.959297 0.906393
Si Si4 0.823778 0.120029 0.908487
Si Si5 0.175792 0.304141 0.908296
Si Si6 0.177751 0.615315 0.908375
O O1 0.250000 0.789609 0.250000
O O2 0.214541 0.833243 0.016591
O O3 0.219365 0.742684 0.021111
O O4 0.000000 0.787106 0.127403
O O5 0.185798 0.500000 0.500000
O O6 0.250000 0.532513 0.250000
O O7 0.262002 0.579661 0.482753
O O8 0.000000 0.555540 0.381664
O O9 0.250000 0.963627 0.750000
O O10 0.000000 0.957449 0.886454
O O11 0.238374 0.916460 0.984170
O O12 0.227048 0.000000 0.000000
O O13 0.750000 0.114820 0.750000
O O14 0.000000 0.114346 0.885617
O O15 0.250000 0.311825 0.750000
O O16 0.000000 0.308315 0.881597
O O17 0.229044 0.339157 0.025527
O O18 0.250000 0.609325 0.750000
O O19 0.000000 0.611179 0.893784
#
# Coordination Sequence:
#
# PCOD8221071 Si02
#       6
#     8   8   8   8   8   8
#     4   8  14  27  47  71  99 129 164 206 251 299
#     4  11  24  41  62  87 114 144 178 217 261 310
#     4  10  21  35  50  71  98 128 164 205 250 300
#     4   9  17  30  50  74  99 129 165 206 251 301
#     4   9  18  32  52  77 103 134 172 214 258 305
#     4  11  23  38  56  79 109 144 181 221 266 313
#
# _framework density 18.844712999999999
#
# number of rings (size 3 to 8) (size 9 to 14) (size 15 to 20)
#    0.000    2.333    0.000    2.500    0.000    6.333 
#    0.000    0.833    0.000    0.000    0.000    0.000 
#    0.000    0.000    0.000    0.000    0.000    0.000 
#
# Total GULP energy -594774.046725 kJ/mol
# GULP energy per Si atom -12391.125973 kJ/mol
# Density = 1.880182 g / cm^3
# Si number density = 18.844713 Si / 1000 Ang^3
#
#
#
# Elastic Constant Matrix: (Units=GPa)
#
#
# Indices 1 2 3 4 5 6 
#
# 1 50.2968 43.4974 37.7592 0.0000 0.0000 0.0000
# 2 43.4974 156.8422 56.5855 0.0000 0.0000 0.0000
# 3 37.7592 56.5855 108.8560 0.0000 0.0000 0.0000
# 4 0.0000 0.0000 0.0000 38.5998 0.0000 0.0000
# 5 0.0000 0.0000 0.0000 0.0000 27.5154 0.0000
# 6 0.0000 0.0000 0.0000 0.0000 0.0000 285.6010
#
#
#
# Elastic Compliance Matrix: (Units=1/GPa)
#
#
# Indices 1 2 3 4 5 6 
#
# 1 0.030555 -0.005723 -0.007623 0.000000 0.000000 0.000000
# 2 -0.005723 0.008920 -0.002651 0.000000 0.000000 0.000000
# 3 -0.007623 -0.002651 0.013209 0.000000 0.000000 0.000000
# 4 0.000000 0.000000 0.000000 0.025907 0.000000 0.000000
# 5 0.000000 0.000000 0.000000 0.000000 0.036343 0.000000
# 6 0.000000 0.000000 0.000000 0.000000 0.000000 0.003501
#
#
# Mechanical properties :
#
#
# Convention : Reuss Voigt Hill
#
# Bulk Modulus (GPa) = 48.33936 65.74212 57.04074
# Shear Modulus (GPa) = 31.78089 82.22011 57.00050
#
# Velocity S-wave (km/s) = 4.11111 6.61249 5.50574
# Velocity P-wave (km/s) = 6.94565 9.65723 8.41142
#
# Compressibility (1/GPa) = 0.02068708
#
# Stress axis : x y z
#
# Youngs Moduli (GPa) = 32.72802 112.11176 75.70579
#
# Poissons Ratio (x) = 0.64166 0.57714
# Poissons Ratio (y) = 0.18732 0.20072
# Poissons Ratio (z) = 0.24950 0.29724
#
# Static dielectric constant tensor:
#      x y z
#    x 3.326400 0.000000 0.000000 
#    y 0.000000 4.406460 0.000000 
#    z 0.000000 0.000000 3.042810 
# 
# 
# High freq. dielectric constant tensor:
#      x y z
#    x 1.731370 0.000000 0.000000 
#    y 0.000000 1.765000 0.000000 
#    z 0.000000 0.000000 1.704760 
# 
# From -- ./inp_files/6751.got.cif
#   From: 2010.03.12/outbox.cif.g09.slc.cpg/sg53_4_cif.got.tgz:6751.got - 2010.04.16 14:36:59.
