data_PCOD8221803
_publ_section_title
;
Structure prediction by ZEFSAII (Michael W. Deem and Ramdas Pophale) SiO2 
 PCOD8221803
Probable space group: P M N A
;
_chemical_formula_sum "Si O2"
_cell_formula_units_Z 32
_cell_length_a 27.012981
_cell_length_b 9.257728
_cell_length_c 6.313693
_cell_angle_alpha 90.000000
_cell_angle_beta 90.000000
_cell_angle_gamma 90.000000
_cell_volume 1578.920962
_symmetry_space_group_name_H-M "P M N A"
_symmetry_group_IT_number 53
_symmetry_cell_setting 'orthorhombic'
loop_
_space_group_symop_operation_xyz
x,y,z
1/2-x,-y,1/2+z
x,-y,-z
1/2-x,y,1/2-z
-x,-y,-z
1/2+x,y,1/2-z
-x,y,z
1/2+x,-y,1/2+z
loop_
_atom_site_type_symbol
_atom_site_label
_atom_site_fract_x
_atom_site_fract_y
_atom_site_fract_z
Si Si1 0.444933 0.121915 0.174356
Si Si2 0.832644 0.500000 0.000000
Si Si3 0.805481 0.766050 0.254554
Si Si4 0.630941 0.000000 0.500000
Si Si5 0.872463 0.649529 0.607854
O O1 0.500000 0.144471 0.270794
O O2 0.404501 0.090934 0.350896
O O3 0.424561 0.268892 0.071884
O O4 0.446990 0.000000 0.000000
O O5 0.801082 0.392416 0.853758
O O6 0.863029 0.613678 0.854824
O O7 0.750000 0.828597 0.250000
O O8 0.828219 0.741337 0.491456
O O9 0.836899 0.886166 0.131468
O O10 0.881579 0.500000 0.500000
#
# Coordination Sequence:
#
# PCOD8221803 Si02
#       5
#     8   4   8   4   8
#     4  11  23  42  67  90 121 168 212 263 322 378
#     4  10  22  42  65  88 130 168 213 260 312 366
#     4  11  25  39  64  94 128 171 208 255 314 384
#     4  12  23  44  62  92 132 162 211 264 314 378
#     4  10  22  42  63  93 125 161 211 264 312 374
#
# _framework density 20.267004
#
# number of rings (size 3 to 8) (size 9 to 14) (size 15 to 20)
#    0.000    1.250    5.000    0.375    5.250    2.500 
#    0.000    0.625    0.000    0.000    0.000    0.000 
#    0.000    0.000    0.000    0.000    0.000    0.000 
#
# Total GULP energy -396496.557487 kJ/mol
# GULP energy per Si atom -12390.517421 kJ/mol
# Density = 2.022088 g / cm^3
# Si number density = 20.267004 Si / 1000 Ang^3
#
#
#
# Elastic Constant Matrix: (Units=GPa)
#
#
# Indices 1 2 3 4 5 6 
#
# 1 180.4445 68.4496 55.4141 0.0000 0.0000 0.0000
# 2 68.4496 90.3420 34.0415 0.0000 0.0000 0.0000
# 3 55.4141 34.0415 101.8433 0.0000 0.0000 0.0000
# 4 0.0000 0.0000 0.0000 32.7499 0.0000 0.0000
# 5 0.0000 0.0000 0.0000 0.0000 22.0809 0.0000
# 6 0.0000 0.0000 0.0000 0.0000 0.0000 27.1827
#
#
#
# Elastic Compliance Matrix: (Units=1/GPa)
#
#
# Indices 1 2 3 4 5 6 
#
# 1 0.008423 -0.005326 -0.002803 0.000000 0.000000 0.000000
# 2 -0.005326 0.016031 -0.002461 0.000000 0.000000 0.000000
# 3 -0.002803 -0.002461 0.012167 0.000000 0.000000 0.000000
# 4 0.000000 0.000000 0.000000 0.030534 0.000000 0.000000
# 5 0.000000 0.000000 0.000000 0.000000 0.045288 0.000000
# 6 0.000000 0.000000 0.000000 0.000000 0.000000 0.036788
#
#
# Mechanical properties :
#
#
# Convention : Reuss Voigt Hill
#
# Bulk Modulus (GPa) = 64.75740 76.49335 70.62538
# Shear Modulus (GPa) = 28.48070 30.71766 29.59918
#
# Velocity S-wave (km/s) = 3.75277 3.89736 3.82574
# Velocity P-wave (km/s) = 7.12735 7.62084 7.37823
#
# Compressibility (1/GPa) = 0.01544225
#
# Stress axis : x y z
#
# Youngs Moduli (GPa) = 118.72490 62.37766 82.19218
#
# Poissons Ratio (x) = 0.33220 0.23037
# Poissons Ratio (y) = 0.63228 0.20226
# Poissons Ratio (z) = 0.33277 0.15350
#
# Static dielectric constant tensor:
#      x y z
#    x 3.740120 0.000000 0.000000 
#    y 0.000000 4.192650 0.000000 
#    z 0.000000 0.000000 4.548150 
# 
# 
# High freq. dielectric constant tensor:
#      x y z
#    x 1.778290 0.000000 0.000000 
#    y 0.000000 1.811670 0.000000 
#    z 0.000000 0.000000 1.794960 
# 
# From -- ./inp_files/4970.got.cif
#   From: 2010.03.12/outbox.cif.g09.slc.cpg/sg53_3_cif.got.tgz:4970.got - 2010.04.16 14:36:59.
