data_PCOD8221830
_publ_section_title
;
Structure prediction by ZEFSAII (Michael W. Deem and Ramdas Pophale) SiO2 
 PCOD8221830
Probable space group: P M N A
;
_chemical_formula_sum "Si O2"
_cell_formula_units_Z 60
_cell_length_a 18.643319
_cell_length_b 14.220511
_cell_length_c 11.466625
_cell_angle_alpha 90.000000
_cell_angle_beta 90.000000
_cell_angle_gamma 90.000000
_cell_volume 3040.003216
_symmetry_space_group_name_H-M "P M N A"
_symmetry_group_IT_number 53
_symmetry_cell_setting 'orthorhombic'
loop_
_space_group_symop_operation_xyz
x,y,z
1/2-x,-y,1/2+z
x,-y,-z
1/2-x,y,1/2-z
-x,-y,-z
1/2+x,y,1/2-z
-x,y,z
1/2+x,-y,1/2+z
loop_
_atom_site_type_symbol
_atom_site_label
_atom_site_fract_x
_atom_site_fract_y
_atom_site_fract_z
Si Si1 0.203359 0.305162 0.988643
Si Si2 0.361368 0.681032 0.105619
Si Si3 0.124488 0.500000 0.000000
Si Si4 0.417980 0.990957 0.637283
Si Si5 0.918940 0.683637 0.636409
Si Si6 0.668741 0.169456 0.716464
Si Si7 0.826593 0.814962 0.787479
Si Si8 0.419590 0.488661 0.757055
O O1 0.285521 0.320644 0.958178
O O2 0.172094 0.408224 0.991954
O O3 0.165336 0.237522 0.895058
O O4 0.190455 0.260991 0.114265
O O5 0.369605 0.777237 0.177193
O O6 0.368385 0.594168 0.195773
O O7 0.420438 0.678812 0.004152
O O8 0.077450 0.499785 0.882768
O O9 0.500000 0.989296 0.682496
O O10 0.379069 0.895134 0.668871
O O11 0.415566 0.000000 0.500000
O O12 0.376430 0.076231 0.696691
O O13 0.865886 0.765184 0.679269
O O14 0.890816 0.584882 0.686955
O O15 0.000000 0.703495 0.680250
O O16 0.750000 0.142184 0.750000
O O17 0.750000 0.859143 0.750000
O O18 0.500000 0.466802 0.800211
#
# Coordination Sequence:
#
# PCOD8221830 Si02
#       8
#     8   8   4   8   8   8   8   8
#     4  11  23  40  65  93 130 166 220 267 318 368
#     4  11  23  41  63  93 126 172 218 263 317 381
#     4  12  23  40  62  98 131 166 218 274 308 376
#     4  11  24  42  68  99 127 161 208 266 329 388
#     4  11  24  41  61  91 132 175 218 260 314 386
#     4  10  22  44  66  94 127 166 214 269 318 380
#     4  12  23  43  68  95 126 169 212 267 322 385
#     4  11  24  40  60  89 131 178 218 260 320 380
#
# _framework density 19.736820999999999
#
# number of rings (size 3 to 8) (size 9 to 14) (size 15 to 20)
#    0.000    0.933    5.333    1.800    1.867    2.133 
#    0.000    0.667    0.000    1.600    0.000    0.000 
#    0.000    0.000    0.000    0.000    0.000    0.000 
#
# Total GULP energy -744089.652763 kJ/mol
# GULP energy per Si atom -12401.494213 kJ/mol
# Density = 1.969190 g / cm^3
# Si number density = 19.736821 Si / 1000 Ang^3
#
#
#
# Elastic Constant Matrix: (Units=GPa)
#
#
# Indices 1 2 3 4 5 6 
#
# 1 80.3569 23.0852 7.4238 0.0000 0.0000 0.0000
# 2 23.0852 -1.9311 -47.7501 0.0000 0.0000 0.0000
# 3 7.4238 -47.7501 55.5880 0.0000 0.0000 0.0000
# 4 0.0000 0.0000 0.0000 33.3458 0.0000 0.0000
# 5 0.0000 0.0000 0.0000 0.0000 22.9531 0.0000
# 6 0.0000 0.0000 0.0000 0.0000 0.0000 29.3633
#
#
#
# Elastic Compliance Matrix: (Units=1/GPa)
#
#
# Indices 1 2 3 4 5 6 
#
# 1 0.010043 0.006889 0.004577 0.000000 0.000000 0.000000
# 2 0.006889 -0.018558 -0.016861 0.000000 0.000000 0.000000
# 3 0.004577 -0.016861 0.002894 0.000000 0.000000 0.000000
# 4 0.000000 0.000000 0.000000 0.029989 0.000000 0.000000
# 5 0.000000 0.000000 0.000000 0.000000 0.043567 0.000000
# 6 0.000000 0.000000 0.000000 0.000000 0.000000 0.034056
#
#
# Mechanical properties :
#
#
# Convention : Reuss Voigt Hill
#
# Bulk Modulus (GPa) = -60.93052 11.05907 -24.93572
# Shear Modulus (GPa) = 46.59331 27.21611 36.90471
#
# Velocity S-wave (km/s) = 4.86401 3.71745 4.32886
# Velocity P-wave (km/s) = 0.77860 4.90320 3.51053
#
# Compressibility (1/GPa) = -0.01641214
#
# Stress axis : x y z
#
# Youngs Moduli (GPa) = 99.57631 -53.88539 345.48652
#
# Poissons Ratio (x) = 0.37122 -1.58114
# Poissons Ratio (y) = -0.68599 5.82534
# Poissons Ratio (z) = -0.45572 -0.90858
#
# Static dielectric constant tensor:
#      x y z
#    x 3.548550 0.000000 0.000000 
#    y 0.000000 3.530850 0.000000 
#    z 0.000000 0.000000 3.805900 
# 
# 
# High freq. dielectric constant tensor:
#      x y z
#    x 1.772130 0.000000 0.000000 
#    y 0.000000 1.770690 0.000000 
#    z 0.000000 0.000000 1.781830 
# 
# From -- ./inp_files/17047.got.cif
#   From: 2010.03.12/outbox.cif.g09.slc.cpg/sg53_9_cif.got.tgz:17047.got - 2010.04.16 14:36:59.
