data_PCOD8221062
_publ_section_title
;
Structure prediction by ZEFSAII (Michael W. Deem and Ramdas Pophale) SiO2 
 PCOD8221062
Probable space group: P M N A
;
_chemical_formula_sum "Si O2"
_cell_formula_units_Z 32
_cell_length_a 20.020003
_cell_length_b 8.066775
_cell_length_c 9.734030
_cell_angle_alpha 90.000000
_cell_angle_beta 90.000000
_cell_angle_gamma 90.000000
_cell_volume 1572.015277
_symmetry_space_group_name_H-M "P M N A"
_symmetry_group_IT_number 53
_symmetry_cell_setting 'orthorhombic'
loop_
_space_group_symop_operation_xyz
x,y,z
1/2-x,-y,1/2+z
x,-y,-z
1/2-x,y,1/2-z
-x,-y,-z
1/2+x,y,1/2-z
-x,y,z
1/2+x,-y,1/2+z
loop_
_atom_site_type_symbol
_atom_site_label
_atom_site_fract_x
_atom_site_fract_y
_atom_site_fract_z
Si Si1 0.575752 0.689915 0.454277
Si Si2 0.326794 0.648873 0.219968
Si Si3 0.208620 0.181155 0.454733
Si Si4 0.161538 0.720481 0.811030
O O1 0.584920 0.500000 0.500000
O O2 0.500000 0.736994 0.417521
O O3 0.622998 0.740365 0.326514
O O4 0.599611 0.780471 0.594593
O O5 0.250000 0.692683 0.250000
O O6 0.344502 0.455895 0.232753
O O7 0.336727 0.719849 0.065757
O O8 0.273763 0.288396 0.411611
O O9 0.166254 0.150416 0.314488
O O10 0.231884 0.000000 0.500000
#
# Coordination Sequence:
#
# PCOD8221062 Si02
#       4
#     8   8   8   8
#     4   9  19  35  57  85 113 143 184 236 283 331
#     4  11  19  34  60  86 110 145 190 236 277 336
#     4  11  23  34  53  87 118 143 185 245 288 323
#     4  10  21  34  56  83 113 147 188 230 285 335
#
# _framework density 20.356036
#
# number of rings (size 3 to 8) (size 9 to 14) (size 15 to 20)
#    0.000    1.750    5.000    0.750    3.500    0.000 
#    0.000    1.250    0.000   14.250    0.000    0.000 
#    0.000    0.000    0.000    0.000    0.000    0.000 
#
# Total GULP energy -396451.176559 kJ/mol
# GULP energy per Si atom -12389.099267 kJ/mol
# Density = 2.030970 g / cm^3
# Si number density = 20.356036 Si / 1000 Ang^3
#
#
#
# Elastic Constant Matrix: (Units=GPa)
#
#
# Indices 1 2 3 4 5 6 
#
# 1 117.3646 0.7135 73.1775 0.0000 0.0000 0.0000
# 2 0.7135 46.6471 26.4808 0.0000 0.0000 0.0000
# 3 73.1775 26.4808 164.2908 0.0000 0.0000 0.0000
# 4 0.0000 0.0000 0.0000 25.3737 0.0000 0.0000
# 5 0.0000 0.0000 0.0000 0.0000 36.2890 0.0000
# 6 0.0000 0.0000 0.0000 0.0000 0.0000 7.1040
#
#
#
# Elastic Compliance Matrix: (Units=1/GPa)
#
#
# Indices 1 2 3 4 5 6 
#
# 1 0.012214 0.003194 -0.005955 0.000000 0.000000 0.000000
# 2 0.003194 0.024432 -0.005361 0.000000 0.000000 0.000000
# 3 -0.005955 -0.005361 0.009603 0.000000 0.000000 0.000000
# 4 0.000000 0.000000 0.000000 0.039411 0.000000 0.000000
# 5 0.000000 0.000000 0.000000 0.000000 0.027557 0.000000
# 6 0.000000 0.000000 0.000000 0.000000 0.000000 0.140766
#
#
# Mechanical properties :
#
#
# Convention : Reuss Voigt Hill
#
# Bulk Modulus (GPa) = 33.32731 58.78289 46.05510
# Shear Modulus (GPa) = 17.84263 28.94873 23.39568
#
# Velocity S-wave (km/s) = 2.96383 3.77519 3.39385
# Velocity P-wave (km/s) = 5.30284 6.92408 6.16697
#
# Compressibility (1/GPa) = 0.03000542
#
# Stress axis : x y z
#
# Youngs Moduli (GPa) = 81.87268 40.93033 104.13107
#
# Poissons Ratio (x) = -0.13072 0.62011
# Poissons Ratio (y) = -0.26148 0.55820
# Poissons Ratio (z) = 0.48756 0.21941
#
# Static dielectric constant tensor:
#      x y z
#    x 3.480610 0.000000 0.000000 
#    y 0.000000 3.277270 0.000000 
#    z 0.000000 0.000000 4.292370 
# 
# 
# High freq. dielectric constant tensor:
#      x y z
#    x 1.750660 0.000000 0.000000 
#    y 0.000000 1.764810 0.000000 
#    z 0.000000 0.000000 1.820480 
# 
# From -- ./inp_files/10434.got.cif
#   From: 2010.03.12/outbox.cif.g09.slc.cpg/sg53_6_cif.got.tgz:10434.got - 2010.04.16 14:36:59.
