data_PCOD8221386
_publ_section_title
;
Structure prediction by ZEFSAII (Michael W. Deem and Ramdas Pophale) SiO2 
 PCOD8221386
Probable space group: P M N A
;
_chemical_formula_sum "Si O2"
_cell_formula_units_Z 56
_cell_length_a 8.433037
_cell_length_b 20.944589
_cell_length_c 15.379947
_cell_angle_alpha 90.000000
_cell_angle_beta 90.000000
_cell_angle_gamma 90.000000
_cell_volume 2716.506116
_symmetry_space_group_name_H-M "P M N A"
_symmetry_group_IT_number 53
_symmetry_cell_setting 'orthorhombic'
loop_
_space_group_symop_operation_xyz
x,y,z
1/2-x,-y,1/2+z
x,-y,-z
1/2-x,y,1/2-z
-x,-y,-z
1/2+x,y,1/2-z
-x,y,z
1/2+x,-y,1/2+z
loop_
_atom_site_type_symbol
_atom_site_label
_atom_site_fract_x
_atom_site_fract_y
_atom_site_fract_z
Si Si1 0.312565 0.418363 0.341144
Si Si2 0.684414 0.998780 0.899563
Si Si3 0.187550 0.561869 0.158707
Si Si4 0.315621 0.126699 0.658128
Si Si5 0.188501 0.343910 0.990966
Si Si6 0.816184 0.205784 0.500374
Si Si7 0.314711 0.865574 0.659068
O O1 0.250000 0.390589 0.250000
O O2 0.500000 0.420233 0.340125
O O3 0.246145 0.490109 0.356714
O O4 0.252553 0.371962 0.417078
O O5 0.500000 0.015326 0.887536
O O6 0.719831 0.930066 0.860185
O O7 0.787808 0.050842 0.848361
O O8 0.734709 0.000000 0.000000
O O9 0.250000 0.589254 0.250000
O O10 0.000000 0.560933 0.159279
O O11 0.249583 0.607512 0.082637
O O12 0.250000 0.152292 0.750000
O O13 0.500000 0.143254 0.650383
O O14 0.221173 0.160187 0.580850
O O15 0.273212 0.277347 0.973180
O O16 0.000000 0.334880 0.987956
O O17 0.715752 0.186180 0.415879
O O18 0.000000 0.199018 0.477305
O O19 0.250000 0.837365 0.750000
O O20 0.500000 0.880320 0.664651
#
# Coordination Sequence:
#
# PCOD8221386 Si02
#       7
#     8   8   8   8   8   8   8
#     4   9  18  34  58  87 118 152 193 242 295 352
#     4  11  22  39  66  96 129 161 197 247 304 360
#     4   9  18  34  58  87 118 152 193 242 295 352
#     4  12  25  43  67  93 123 160 204 251 306 363
#     4  10  21  38  59  83 116 159 202 241 295 359
#     4  12  26  44  62  87 122 161 207 255 304 360
#     4  12  25  43  67  93 123 160 204 251 306 363
#
# _framework density 20.614716000000001
#
# number of rings (size 3 to 8) (size 9 to 14) (size 15 to 20)
#    0.000    1.286    1.429    5.143    0.000    4.571 
#    0.000    2.857    0.000    4.286    0.000    0.000 
#    0.000    0.000    0.000    0.000    0.000    0.000 
#
# Total GULP energy -694746.177366 kJ/mol
# GULP energy per Si atom -12406.181739 kJ/mol
# Density = 2.056780 g / cm^3
# Si number density = 20.614716 Si / 1000 Ang^3
#
#
#
# Elastic Constant Matrix: (Units=GPa)
#
#
# Indices 1 2 3 4 5 6 
#
# 1 61.8836 12.2731 22.4431 0.0000 0.0000 0.0000
# 2 12.2731 68.3172 17.2869 0.0000 0.0000 0.0000
# 3 22.4431 17.2869 120.2372 0.0000 0.0000 0.0000
# 4 0.0000 0.0000 0.0000 5.9100 0.0000 0.0000
# 5 0.0000 0.0000 0.0000 0.0000 33.8134 0.0000
# 6 0.0000 0.0000 0.0000 0.0000 0.0000 24.0071
#
#
#
# Elastic Compliance Matrix: (Units=1/GPa)
#
#
# Indices 1 2 3 4 5 6 
#
# 1 0.017714 -0.002434 -0.002957 0.000000 0.000000 0.000000
# 2 -0.002434 0.015525 -0.001778 0.000000 0.000000 0.000000
# 3 -0.002957 -0.001778 0.009124 0.000000 0.000000 0.000000
# 4 0.000000 0.000000 0.000000 0.169204 0.000000 0.000000
# 5 0.000000 0.000000 0.000000 0.000000 0.029574 0.000000
# 6 0.000000 0.000000 0.000000 0.000000 0.000000 0.041654
#
#
# Mechanical properties :
#
#
# Convention : Reuss Voigt Hill
#
# Bulk Modulus (GPa) = 35.68046 39.38268 37.53157
# Shear Modulus (GPa) = 16.31455 25.97508 21.14481
#
# Velocity S-wave (km/s) = 2.81624 3.55354 3.20615
# Velocity P-wave (km/s) = 5.28401 5.99854 5.65258
#
# Compressibility (1/GPa) = 0.02802655
#
# Stress axis : x y z
#
# Youngs Moduli (GPa) = 56.45126 64.41334 109.59704
#
# Poissons Ratio (x) = 0.15680 0.32403
# Poissons Ratio (y) = 0.13742 0.19483
# Poissons Ratio (z) = 0.16690 0.11451
#
# Static dielectric constant tensor:
#      x y z
#    x 3.594980 0.000000 0.000000 
#    y 0.000000 3.695340 0.000000 
#    z 0.000000 0.000000 3.917340 
# 
# 
# High freq. dielectric constant tensor:
#      x y z
#    x 1.802670 0.000000 0.000000 
#    y 0.000000 1.798870 0.000000 
#    z 0.000000 0.000000 1.822090 
# 
# From -- ./inp_files/20527.got.cif
#   From: 2010.03.12/outbox.cif.g09.slc.cpg/sg53_11_cif.got.tgz:20527.got - 2010.04.16 14:36:59.
