data_PCOD8221395
_publ_section_title
;
Structure prediction by ZEFSAII (Michael W. Deem and Ramdas Pophale) SiO2 
 PCOD8221395
Probable space group: P M N A
;
_chemical_formula_sum "Si O2"
_cell_formula_units_Z 56
_cell_length_a 19.965223
_cell_length_b 14.922776
_cell_length_c 9.069646
_cell_angle_alpha 90.000000
_cell_angle_beta 90.000000
_cell_angle_gamma 90.000000
_cell_volume 2702.179045
_symmetry_space_group_name_H-M "P M N A"
_symmetry_group_IT_number 53
_symmetry_cell_setting 'orthorhombic'
loop_
_space_group_symop_operation_xyz
x,y,z
1/2-x,-y,1/2+z
x,-y,-z
1/2-x,y,1/2-z
-x,-y,-z
1/2+x,y,1/2-z
-x,y,z
1/2+x,-y,1/2+z
loop_
_atom_site_type_symbol
_atom_site_label
_atom_site_fract_x
_atom_site_fract_y
_atom_site_fract_z
Si Si1 0.182172 0.472403 0.669931
Si Si2 0.074675 0.924950 0.759806
Si Si3 0.927222 0.321757 0.738654
Si Si4 0.114076 0.206335 0.494713
Si Si5 0.577025 0.235080 0.455899
Si Si6 0.813276 0.946883 0.353628
Si Si7 0.172218 0.332025 0.264438
O O1 0.195700 0.500000 0.500000
O O2 0.250000 0.439386 0.750000
O O3 0.126820 0.397046 0.699045
O O4 0.155910 0.563023 0.744519
O O5 0.076736 0.856320 0.622316
O O6 0.089531 0.869738 0.911400
O O7 0.000000 0.966980 0.765019
O O8 0.127356 0.004088 0.736814
O O9 0.938074 0.254616 0.601983
O O10 0.000000 0.367146 0.768578
O O11 0.906611 0.257509 0.875039
O O12 0.165267 0.151571 0.597349
O O13 0.154030 0.286797 0.418477
O O14 0.500000 0.259181 0.414807
O O15 0.628983 0.293883 0.367162
O O16 0.750000 0.939028 0.250000
O O17 0.792817 0.000000 0.500000
O O18 0.250000 0.311174 0.250000
#
# Coordination Sequence:
#
# PCOD8221395 Si02
#       7
#     8   8   8   8   8   8   8
#     4  11  25  43  63  90 126 164 206 253 309 370
#     4   9  19  39  63  84 116 161 206 249 302 371
#     4  11  24  40  62  93 126 158 202 258 310 363
#     4  10  21  38  59  88 119 157 204 256 310 362
#     4   9  21  39  60  88 120 158 201 248 304 367
#     4  10  23  38  59  89 122 158 201 254 311 369
#     4  10  22  40  63  85 115 162 208 250 304 371
#
# _framework density 20.724015999999999
#
# number of rings (size 3 to 8) (size 9 to 14) (size 15 to 20)
#    0.000    2.000    1.429    0.429    4.000   12.571 
#    0.000    1.429    0.000    3.000    0.000    0.000 
#    0.000    0.000    0.000    0.000    0.000    0.000 
#
# Total GULP energy -694053.017917 kJ/mol
# GULP energy per Si atom -12393.803891 kJ/mol
# Density = 2.067685 g / cm^3
# Si number density = 20.724016 Si / 1000 Ang^3
#
#
#
# Elastic Constant Matrix: (Units=GPa)
#
#
# Indices 1 2 3 4 5 6 
#
# 1 88.9751 38.3684 54.1209 0.0000 0.0000 0.0000
# 2 38.3684 66.1352 31.5199 0.0000 0.0000 0.0000
# 3 54.1209 31.5199 116.6487 0.0000 0.0000 0.0000
# 4 0.0000 0.0000 0.0000 26.7758 0.0000 0.0000
# 5 0.0000 0.0000 0.0000 0.0000 19.7418 0.0000
# 6 0.0000 0.0000 0.0000 0.0000 0.0000 9.9243
#
#
#
# Elastic Compliance Matrix: (Units=1/GPa)
#
#
# Indices 1 2 3 4 5 6 
#
# 1 0.018491 -0.007620 -0.006520 0.000000 0.000000 0.000000
# 2 -0.007620 0.020496 -0.002003 0.000000 0.000000 0.000000
# 3 -0.006520 -0.002003 0.012139 0.000000 0.000000 0.000000
# 4 0.000000 0.000000 0.000000 0.037347 0.000000 0.000000
# 5 0.000000 0.000000 0.000000 0.000000 0.050654 0.000000
# 6 0.000000 0.000000 0.000000 0.000000 0.000000 0.100763
#
#
# Mechanical properties :
#
#
# Convention : Reuss Voigt Hill
#
# Bulk Modulus (GPa) = 53.07882 57.75304 55.41593
# Shear Modulus (GPa) = 17.95615 21.13836 19.54725
#
# Velocity S-wave (km/s) = 2.94673 3.19720 3.07452
# Velocity P-wave (km/s) = 6.10291 6.44652 6.27706
#
# Compressibility (1/GPa) = 0.01883991
#
# Stress axis : x y z
#
# Youngs Moduli (GPa) = 54.07994 48.79025 82.37878
#
# Poissons Ratio (x) = 0.37179 0.53712
# Poissons Ratio (y) = 0.41210 0.16498
# Poissons Ratio (z) = 0.35261 0.09771
#
# Static dielectric constant tensor:
#      x y z
#    x 3.645500 0.000000 0.000000 
#    y 0.000000 3.854670 0.000000 
#    z 0.000000 0.000000 3.962800 
# 
# 
# High freq. dielectric constant tensor:
#      x y z
#    x 1.812290 0.000000 0.000000 
#    y 0.000000 1.807600 0.000000 
#    z 0.000000 0.000000 1.822250 
# 
# From -- ./inp_files/11062.got.cif
#   From: 2010.03.12/outbox.cif.g09.slc.cpg/sg53_6_cif.got.tgz:11062.got - 2010.04.16 14:36:59.
