data_PCOD8221232
_publ_section_title
;
Structure prediction by ZEFSAII (Michael W. Deem and Ramdas Pophale) SiO2 
 PCOD8221232
Probable space group: P M N A
;
_chemical_formula_sum "Si O2"
_cell_formula_units_Z 48
_cell_length_a 8.996757
_cell_length_b 20.971480
_cell_length_c 14.159029
_cell_angle_alpha 90.000000
_cell_angle_beta 90.000000
_cell_angle_gamma 90.000000
_cell_volume 2671.459179
_symmetry_space_group_name_H-M "P M N A"
_symmetry_group_IT_number 53
_symmetry_cell_setting 'orthorhombic'
loop_
_space_group_symop_operation_xyz
x,y,z
1/2-x,-y,1/2+z
x,-y,-z
1/2-x,y,1/2-z
-x,-y,-z
1/2+x,y,1/2-z
-x,y,z
1/2+x,-y,1/2+z
loop_
_atom_site_type_symbol
_atom_site_label
_atom_site_fract_x
_atom_site_fract_y
_atom_site_fract_z
Si Si1 0.675779 0.500000 0.850392
Si Si2 0.325536 0.840521 0.350579
Si Si3 0.175154 0.399235 0.499999
Si Si4 0.828474 0.075280 0.500000
Si Si5 0.668771 0.733893 0.500000
Si Si6 0.174463 0.840521 0.850579
O O1 0.750000 0.499998 0.750000
O O2 0.500000 0.499999 0.838125
O O3 0.729665 0.562923 0.906944
O O4 0.729666 0.437077 0.906946
O O5 0.250000 0.832911 0.250000
O O6 0.500000 0.854753 0.339947
O O7 0.251411 0.899018 0.406114
O O8 0.296811 0.775320 0.407210
O O9 0.229655 0.327507 0.499999
O O10 0.000000 0.398046 0.500000
O O11 0.748590 0.100982 0.406113
O O12 0.000000 0.097168 0.500000
O O13 0.813145 0.000000 0.500000
O O14 0.500000 0.710438 0.499998
O O15 0.703185 0.775320 0.592790
O O16 0.250000 0.832910 0.750000
O O17 0.000000 0.854754 0.839946
#
# Coordination Sequence:
#
# PCOD8221232 Si02
#       6
#     8   8   8   8   8   8
#     4   9  19  35  52  74 102 133 171 211 254 306
#     4  10  21  37  56  79 108 141 177 218 262 312
#     4   9  19  35  53  73 102 137 170 208 257 311
#     4  10  21  37  57  81 108 139 176 218 264 313
#     4   9  20  36  53  77 106 135 173 217 259 307
#     4  10  21  37  56  79 108 141 177 218 262 312
#
# _framework density 17.967708999999999
#
# number of rings (size 3 to 8) (size 9 to 14) (size 15 to 20)
#    0.000    2.500    0.000    3.500    0.000    8.667 
#    0.000    8.333    0.000    0.000    0.000    0.000 
#    0.000    0.000    0.000    0.000    0.000    0.000 
#
# Total GULP energy -595216.355005 kJ/mol
# GULP energy per Si atom -12400.340729 kJ/mol
# Density = 1.792681 g / cm^3
# Si number density = 17.967709 Si / 1000 Ang^3
#
#
#
# Elastic Constant Matrix: (Units=GPa)
#
#
# Indices 1 2 3 4 5 6 
#
# 1 99.8843 55.3147 71.0652 0.0000 0.0000 0.0000
# 2 55.3147 107.5032 58.8553 0.0000 0.0000 0.0000
# 3 71.0652 58.8553 174.9984 0.0000 0.0000 0.0000
# 4 0.0000 0.0000 0.0000 12.5548 0.0000 0.0000
# 5 0.0000 0.0000 0.0000 0.0000 38.7967 0.0000
# 6 0.0000 0.0000 0.0000 0.0000 0.0000 34.8193
#
#
#
# Elastic Compliance Matrix: (Units=1/GPa)
#
#
# Indices 1 2 3 4 5 6 
#
# 1 0.016730 -0.005992 -0.004779 0.000000 0.000000 0.000000
# 2 -0.005992 0.013547 -0.002123 0.000000 0.000000 0.000000
# 3 -0.004779 -0.002123 0.008369 0.000000 0.000000 0.000000
# 4 0.000000 0.000000 0.000000 0.079651 0.000000 0.000000
# 5 0.000000 0.000000 0.000000 0.000000 0.025775 0.000000
# 6 0.000000 0.000000 0.000000 0.000000 0.000000 0.028720
#
#
# Mechanical properties :
#
#
# Convention : Reuss Voigt Hill
#
# Bulk Modulus (GPa) = 77.76660 83.65070 80.70865
# Shear Modulus (GPa) = 24.64695 30.37755 27.51225
#
# Velocity S-wave (km/s) = 3.70771 4.11624 3.91731
# Velocity P-wave (km/s) = 7.85524 8.32157 8.09176
#
# Compressibility (1/GPa) = 0.01285899
#
# Stress axis : x y z
#
# Youngs Moduli (GPa) = 59.77403 73.81479 119.49054
#
# Poissons Ratio (x) = 0.44229 0.57099
# Poissons Ratio (y) = 0.35816 0.25368
# Poissons Ratio (z) = 0.28563 0.15671
#
# Static dielectric constant tensor:
#      x y z
#    x 3.385290 0.000000 0.000000 
#    y 0.000000 3.326150 0.000000 
#    z 0.000000 0.000000 3.482830 
# 
# 
# High freq. dielectric constant tensor:
#      x y z
#    x 1.702790 0.000000 0.000000 
#    y 0.000000 1.695690 0.000000 
#    z 0.000000 0.000000 1.703080 
# 
# From -- ./inp_files/20355.got.cif
#   From: 2010.03.12/outbox.cif.g09.slc.cpg/sg53_11_cif.got.tgz:20355.got - 2010.04.16 14:36:59.
