data_PCOD8221046
_publ_section_title
;
Structure prediction by ZEFSAII (Michael W. Deem and Ramdas Pophale) SiO2 
 PCOD8221046
Probable space group: P M N A
;
_chemical_formula_sum "Si O2"
_cell_formula_units_Z 40
_cell_length_a 17.851268
_cell_length_b 11.822658
_cell_length_c 8.239986
_cell_angle_alpha 90.000000
_cell_angle_beta 90.000000
_cell_angle_gamma 90.000000
_cell_volume 1739.044401
_symmetry_space_group_name_H-M "P M N A"
_symmetry_group_IT_number 53
_symmetry_cell_setting 'orthorhombic'
loop_
_space_group_symop_operation_xyz
x,y,z
1/2-x,-y,1/2+z
x,-y,-z
1/2-x,y,1/2-z
-x,-y,-z
1/2+x,y,1/2-z
-x,y,z
1/2+x,-y,1/2+z
loop_
_atom_site_type_symbol
_atom_site_label
_atom_site_fract_x
_atom_site_fract_y
_atom_site_fract_z
Si Si1 0.585217 0.463131 0.239649
Si Si2 0.691195 0.896718 0.108727
Si Si3 0.586792 0.899075 0.378944
Si Si4 0.638563 0.653701 0.445358
Si Si5 0.790793 0.324716 0.418469
O O1 0.500000 0.461178 0.174221
O O2 0.610164 0.592065 0.281293
O O3 0.589870 0.389074 0.402990
O O4 0.640167 0.411945 0.102598
O O5 0.750000 0.868426 0.250000
O O6 0.613367 0.931197 0.197408
O O7 0.676131 0.788810 0.996281
O O8 0.720501 0.000000 0.000000
O O9 0.500000 0.870971 0.377942
O O10 0.631399 0.788135 0.436075
O O11 0.607139 0.000000 0.500000
O O12 0.726396 0.621716 0.466575
O O13 0.750000 0.293777 0.250000
#
# Coordination Sequence:
#
# PCOD8221046 Si02
#       5
#     8   8   8   8   8
#     4  10  21  40  71 102 138 183 229 288 347 416
#     4  12  25  43  69  97 138 181 233 291 360 423
#     4  11  25  44  70 102 139 185 235 289 353 429
#     4  10  20  43  67 100 139 189 233 277 347 432
#     4  10  23  42  67 107 134 179 237 292 347 418
#
# _framework density 23.001138999999998
#
# number of rings (size 3 to 8) (size 9 to 14) (size 15 to 20)
#    0.000    1.400    2.000    3.600    5.600    1.200 
#   21.600    0.000    0.000    2.400    0.000    0.000 
#    0.000    0.000    0.000    0.000    0.000    0.000 
#
# Total GULP energy -496077.123418 kJ/mol
# GULP energy per Si atom -12401.928085 kJ/mol
# Density = 2.294879 g / cm^3
# Si number density = 23.001139 Si / 1000 Ang^3
#
#
#
# Elastic Constant Matrix: (Units=GPa)
#
#
# Indices 1 2 3 4 5 6 
#
# 1 180.2126 65.0596 48.9195 0.0000 0.0000 0.0000
# 2 65.0596 146.4491 47.1420 0.0000 0.0000 0.0000
# 3 48.9195 47.1420 79.0729 0.0000 0.0000 0.0000
# 4 0.0000 0.0000 0.0000 45.3105 0.0000 0.0000
# 5 0.0000 0.0000 0.0000 0.0000 31.1784 0.0000
# 6 0.0000 0.0000 0.0000 0.0000 0.0000 24.5482
#
#
#
# Elastic Compliance Matrix: (Units=1/GPa)
#
#
# Indices 1 2 3 4 5 6 
#
# 1 0.007191 -0.002181 -0.003149 0.000000 0.000000 0.000000
# 2 -0.002181 0.009112 -0.004083 0.000000 0.000000 0.000000
# 3 -0.003149 -0.004083 0.017028 0.000000 0.000000 0.000000
# 4 0.000000 0.000000 0.000000 0.022070 0.000000 0.000000
# 5 0.000000 0.000000 0.000000 0.000000 0.032073 0.000000
# 6 0.000000 0.000000 0.000000 0.000000 0.000000 0.040736
#
#
# Mechanical properties :
#
#
# Convention : Reuss Voigt Hill
#
# Bulk Modulus (GPa) = 68.93548 80.88631 74.91089
# Shear Modulus (GPa) = 32.92271 36.51501 34.71886
#
# Velocity S-wave (km/s) = 3.78742 3.98871 3.88937
# Velocity P-wave (km/s) = 7.01154 7.51369 7.26695
#
# Compressibility (1/GPa) = 0.01450632
#
# Stress axis : x y z
#
# Youngs Moduli (GPa) = 139.06082 109.75139 58.72510
#
# Poissons Ratio (x) = 0.23938 0.18490
# Poissons Ratio (y) = 0.30331 0.23976
# Poissons Ratio (z) = 0.43784 0.44809
#
# Static dielectric constant tensor:
#      x y z
#    x 4.268490 0.000000 0.000000 
#    y 0.000000 4.082080 0.000000 
#    z 0.000000 0.000000 4.326740 
# 
# 
# High freq. dielectric constant tensor:
#      x y z
#    x 1.911560 0.000000 0.000000 
#    y 0.000000 1.911680 0.000000 
#    z 0.000000 0.000000 1.906320 
# 
# From -- ./inp_files/9639.got.cif
#   From: 2010.03.12/outbox.cif.g09.slc.cpg/sg53_5_cif.got.tgz:9639.got - 2010.04.16 14:36:59.
