data_PCOD8221849
_publ_section_title
;
Structure prediction by ZEFSAII (Michael W. Deem and Ramdas Pophale) SiO2 
 PCOD8221849
Probable space group: P M N A
;
_chemical_formula_sum "Si O2"
_cell_formula_units_Z 56
_cell_length_a 14.413318
_cell_length_b 12.312676
_cell_length_c 14.366105
_cell_angle_alpha 90.000000
_cell_angle_beta 90.000000
_cell_angle_gamma 90.000000
_cell_volume 2549.502583
_symmetry_space_group_name_H-M "P M N A"
_symmetry_group_IT_number 53
_symmetry_cell_setting 'orthorhombic'
loop_
_space_group_symop_operation_xyz
x,y,z
1/2-x,-y,1/2+z
x,-y,-z
1/2-x,y,1/2-z
-x,-y,-z
1/2+x,y,1/2-z
-x,y,z
1/2+x,-y,1/2+z
loop_
_atom_site_type_symbol
_atom_site_label
_atom_site_fract_x
_atom_site_fract_y
_atom_site_fract_z
Si Si1 0.352437 0.454539 0.271535
Si Si2 0.898662 0.276222 0.089719
Si Si3 0.745026 0.096123 0.358931
Si Si4 0.603188 0.418188 0.069770
Si Si5 0.611946 0.815158 0.986459
Si Si6 0.759483 0.850269 0.141962
Si Si7 0.894163 0.659299 0.106395
O O1 0.250000 0.415748 0.250000
O O2 0.400144 0.353295 0.320768
O O3 0.401395 0.470227 0.172310
O O4 0.349208 0.564011 0.332386
O O5 0.823633 0.180186 0.090618
O O6 0.000000 0.219988 0.083762
O O7 0.885944 0.361793 0.004333
O O8 0.750000 0.124751 0.250000
O O9 0.845632 0.100456 0.410887
O O10 0.708596 0.974206 0.374482
O O11 0.500000 0.404454 0.030086
O O12 0.645632 0.298510 0.060589
O O13 0.657767 0.500000 0.000000
O O14 0.500000 0.831662 0.996024
O O15 0.662811 0.825574 0.086779
O O16 0.750000 0.826502 0.250000
O O17 0.843614 0.774267 0.113316
O O18 0.000000 0.670860 0.139963
#
# Coordination Sequence:
#
# PCOD8221849 Si02
#       7
#     8   8   8   8   8   8   8
#     4  12  25  39  65  99 136 173 219 279 341 413
#     4  11  23  42  69  99 133 178 229 283 344 408
#     4  11  24  44  68 101 139 177 235 295 349 418
#     4  10  23  40  61  92 131 175 219 268 331 408
#     4  11  24  45  73 102 140 186 236 293 360 430
#     4  11  26  45  67  99 138 181 234 293 354 419
#     4  11  25  43  67  96 133 179 226 278 347 419
#
# _framework density 21.965067999999999
#
# number of rings (size 3 to 8) (size 9 to 14) (size 15 to 20)
#    0.000    1.000    1.429    4.714    4.000    5.143 
#    0.000    4.286    0.000    0.000    0.000    0.000 
#    0.000    0.000    0.000    0.000    0.000    0.000 
#
# Total GULP energy -694021.020515 kJ/mol
# GULP energy per Si atom -12393.232509 kJ/mol
# Density = 2.191507 g / cm^3
# Si number density = 21.965068 Si / 1000 Ang^3
#
#
#
# Elastic Constant Matrix: (Units=GPa)
#
#
# Indices 1 2 3 4 5 6 
#
# 1 95.1601 19.5135 37.0160 0.0000 0.0000 0.0000
# 2 19.5135 87.9236 31.7417 0.0000 0.0000 0.0000
# 3 37.0160 31.7417 147.6063 0.0000 0.0000 0.0000
# 4 0.0000 0.0000 0.0000 33.8653 0.0000 0.0000
# 5 0.0000 0.0000 0.0000 0.0000 28.0358 0.0000
# 6 0.0000 0.0000 0.0000 0.0000 0.0000 21.4316
#
#
#
# Elastic Compliance Matrix: (Units=1/GPa)
#
#
# Indices 1 2 3 4 5 6 
#
# 1 0.011872 -0.001691 -0.002614 0.000000 0.000000 0.000000
# 2 -0.001691 0.012572 -0.002279 0.000000 0.000000 0.000000
# 3 -0.002614 -0.002279 0.007920 0.000000 0.000000 0.000000
# 4 0.000000 0.000000 0.000000 0.029529 0.000000 0.000000
# 5 0.000000 0.000000 0.000000 0.000000 0.035669 0.000000
# 6 0.000000 0.000000 0.000000 0.000000 0.000000 0.046660
#
#
# Mechanical properties :
#
#
# Convention : Reuss Voigt Hill
#
# Bulk Modulus (GPa) = 52.09471 56.35915 54.22693
# Shear Modulus (GPa) = 30.52716 32.82779 31.67747
#
# Velocity S-wave (km/s) = 3.73205 3.87013 3.80172
# Velocity P-wave (km/s) = 6.50688 6.75905 6.63416
#
# Compressibility (1/GPa) = 0.01919581
#
# Stress axis : x y z
#
# Youngs Moduli (GPa) = 84.23142 79.54347 126.25735
#
# Poissons Ratio (x) = 0.13453 0.32997
# Poissons Ratio (y) = 0.14246 0.28778
# Poissons Ratio (z) = 0.22014 0.18130
#
# Static dielectric constant tensor:
#      x y z
#    x 3.833050 0.000000 0.000000 
#    y 0.000000 4.060330 0.000000 
#    z 0.000000 0.000000 4.466560 
# 
# 
# High freq. dielectric constant tensor:
#      x y z
#    x 1.861400 0.000000 0.000000 
#    y 0.000000 1.864420 0.000000 
#    z 0.000000 0.000000 1.882420 
# 
# From -- ./inp_files/22771.got.cif
#   From: 2010.03.12/outbox.cif.g09.slc.cpg/sg53_12_cif.got.tgz:22771.got - 2010.04.16 14:36:59.
