data_PCOD8221600
_publ_section_title
;
Structure prediction by ZEFSAII (Michael W. Deem and Ramdas Pophale) SiO2 
 PCOD8221600
Probable space group: P M N A
;
_chemical_formula_sum "Si O2"
_cell_formula_units_Z 56
_cell_length_a 19.818063
_cell_length_b 15.352428
_cell_length_c 8.707385
_cell_angle_alpha 90.000000
_cell_angle_beta 90.000000
_cell_angle_gamma 90.000000
_cell_volume 2649.268778
_symmetry_space_group_name_H-M "P M N A"
_symmetry_group_IT_number 53
_symmetry_cell_setting 'orthorhombic'
loop_
_space_group_symop_operation_xyz
x,y,z
1/2-x,-y,1/2+z
x,-y,-z
1/2-x,y,1/2-z
-x,-y,-z
1/2+x,y,1/2-z
-x,y,z
1/2+x,-y,1/2+z
loop_
_atom_site_type_symbol
_atom_site_label
_atom_site_fract_x
_atom_site_fract_y
_atom_site_fract_z
Si Si1 0.820905 0.154734 0.173873
Si Si2 0.142105 0.493136 0.830457
Si Si3 0.576937 0.993056 0.681559
Si Si4 0.357324 0.326280 0.159767
Si Si5 0.500000 0.636596 0.950574
Si Si6 0.000000 0.464396 0.741971
Si Si7 0.324774 0.146326 0.690275
Si Si8 0.681943 0.683434 0.174640
O O1 0.750000 0.124914 0.250000
O O2 0.882352 0.093906 0.231854
O O3 0.837358 0.253794 0.219421
O O4 0.816542 0.152460 0.991963
O O5 0.156158 0.580448 0.736668
O O6 0.063570 0.470903 0.853331
O O7 0.169422 0.413409 0.732685
O O8 0.175003 0.500000 0.000000
O O9 0.500000 0.992159 0.749779
O O10 0.571821 0.000000 0.500000
O O11 0.621334 0.073556 0.742711
O O12 0.434031 0.312061 0.103503
O O13 0.311266 0.319130 0.008729
O O14 0.500000 0.542393 0.877010
O O15 0.500000 0.623701 0.136650
O O16 0.250000 0.120836 0.750000
O O17 0.361225 0.234310 0.762210
O O18 0.750000 0.716926 0.250000
#
# Coordination Sequence:
#
# PCOD8221600 Si02
#       8
#     8   8   8   8   4   4   8   8
#     4  11  22  38  66  96 125 169 209 254 316 381
#     4  11  22  37  59  90 123 164 211 261 311 374
#     4   9  20  40  65  95 127 159 204 262 317 368
#     4  11  23  40  63  90 128 166 212 262 317 373
#     4   9  18  36  62  84 117 165 200 262 319 361
#     4   9  17  36  58  82 115 158 211 249 313 374
#     4  10  21  41  64  89 128 168 210 256 311 382
#     4  11  23  39  59  86 123 167 209 260 314 373
#
# _framework density 21.137907999999999
#
# number of rings (size 3 to 8) (size 9 to 14) (size 15 to 20)
#    0.000    1.714    1.429    3.643    1.000    1.714 
#    2.571    2.143    0.000    3.429    0.000    0.000 
#    0.000    0.000    0.000    0.000    0.000    0.000 
#
# Total GULP energy -693901.829620 kJ/mol
# GULP energy per Si atom -12391.104100 kJ/mol
# Density = 2.108980 g / cm^3
# Si number density = 21.137908 Si / 1000 Ang^3
#
#
#
# Elastic Constant Matrix: (Units=GPa)
#
#
# Indices 1 2 3 4 5 6 
#
# 1 115.2402 50.6231 27.0166 0.0000 0.0000 0.0000
# 2 50.6231 151.5903 42.4627 0.0000 0.0000 0.0000
# 3 27.0166 42.4627 108.0145 0.0000 0.0000 0.0000
# 4 0.0000 0.0000 0.0000 23.6523 0.0000 0.0000
# 5 0.0000 0.0000 0.0000 0.0000 -6.3112 0.0000
# 6 0.0000 0.0000 0.0000 0.0000 0.0000 126.8712
#
#
#
# Elastic Compliance Matrix: (Units=1/GPa)
#
#
# Indices 1 2 3 4 5 6 
#
# 1 0.010350 -0.003069 -0.001382 0.000000 0.000000 0.000000
# 2 -0.003069 0.008323 -0.002504 0.000000 0.000000 0.000000
# 3 -0.001382 -0.002504 0.010588 0.000000 0.000000 0.000000
# 4 0.000000 0.000000 0.000000 0.042279 0.000000 0.000000
# 5 0.000000 0.000000 0.000000 0.000000 -0.158448 0.000000
# 6 0.000000 0.000000 0.000000 0.000000 0.000000 0.007882
#
#
# Mechanical properties :
#
#
# Convention : Reuss Voigt Hill
#
# Bulk Modulus (GPa) = 65.14693 68.33887 66.74290
# Shear Modulus (GPa) = -83.33595 45.82529 -18.75533
#
# Velocity S-wave (km/s) = -6.28574 4.66114 -2.98196
# Velocity P-wave (km/s) = 4.66838 7.83381 4.44830
#
# Compressibility (1/GPa) = 0.01534992
#
# Stress axis : x y z
#
# Youngs Moduli (GPa) = 96.62050 120.14666 94.44441
#
# Poissons Ratio (x) = 0.36874 0.13054
# Poissons Ratio (y) = 0.29654 0.23652
# Poissons Ratio (z) = 0.13354 0.30089
#
# Static dielectric constant tensor:
#      x y z
#    x 3.338390 0.000000 0.000000 
#    y 0.000000 3.907230 0.000000 
#    z 0.000000 0.000000 3.658440 
# 
# 
# High freq. dielectric constant tensor:
#      x y z
#    x 1.827720 0.000000 0.000000 
#    y 0.000000 1.834400 0.000000 
#    z 0.000000 0.000000 1.821900 
# 
# From -- ./inp_files/11119.got.cif
#   From: 2010.03.12/outbox.cif.g09.slc.cpg/sg53_6_cif.got.tgz:11119.got - 2010.04.16 14:36:59.
