data_PCOD8221664
_publ_section_title
;
Structure prediction by ZEFSAII (Michael W. Deem and Ramdas Pophale) SiO2 
 PCOD8221664
Probable space group: P M N A
;
_chemical_formula_sum "Si O2"
_cell_formula_units_Z 32
_cell_length_a 20.488167
_cell_length_b 8.610646
_cell_length_c 9.416111
_cell_angle_alpha 90.000000
_cell_angle_beta 90.000000
_cell_angle_gamma 90.000000
_cell_volume 1661.155964
_symmetry_space_group_name_H-M "P M N A"
_symmetry_group_IT_number 53
_symmetry_cell_setting 'orthorhombic'
loop_
_space_group_symop_operation_xyz
x,y,z
1/2-x,-y,1/2+z
x,-y,-z
1/2-x,y,1/2-z
-x,-y,-z
1/2+x,y,1/2-z
-x,y,z
1/2+x,-y,1/2+z
loop_
_atom_site_type_symbol
_atom_site_label
_atom_site_fract_x
_atom_site_fract_y
_atom_site_fract_z
Si Si1 0.424654 0.828393 0.328721
Si Si2 0.424044 0.538622 0.153438
Si Si3 0.691685 0.056856 0.350238
Si Si4 0.873814 0.646992 0.911275
O O1 0.500000 0.879322 0.306146
O O2 0.399688 0.705375 0.210700
O O3 0.419732 0.749938 0.485012
O O4 0.377813 0.976993 0.311288
O O5 0.500000 0.552045 0.129280
O O6 0.412009 0.406869 0.271217
O O7 0.390710 0.500000 0.000000
O O8 0.750000 0.005941 0.250000
O O9 0.684332 0.243612 0.354816
O O10 0.717036 0.000000 0.500000
O O11 0.845793 0.500000 0.000000
#
# Coordination Sequence:
#
# PCOD8221664 Si02
#       4
#     8   8   8   8
#     4   9  18  34  57  82 107 140 181 222 265 317
#     4   9  17  30  50  80 113 141 174 221 273 318
#     4  10  22  38  56  79 109 142 178 221 271 324
#     4   9  18  34  54  77 103 138 181 223 266 316
#
# _framework density 19.263694000000001
#
# number of rings (size 3 to 8) (size 9 to 14) (size 15 to 20)
#    0.000    2.750    0.000    0.750    0.000   10.500 
#    0.000   12.500    0.000    5.250    0.000    0.000 
#    0.000    0.000    0.000    0.000    0.000    0.000 
#
# Total GULP energy -396517.934732 kJ/mol
# GULP energy per Si atom -12391.185460 kJ/mol
# Density = 1.921985 g / cm^3
# Si number density = 19.263694 Si / 1000 Ang^3
#
#
#
# Elastic Constant Matrix: (Units=GPa)
#
#
# Indices 1 2 3 4 5 6 
#
# 1 86.3665 42.2414 31.5735 0.0000 0.0000 0.0000
# 2 42.2414 106.6718 34.8440 0.0000 0.0000 0.0000
# 3 31.5735 34.8440 109.2281 0.0000 0.0000 0.0000
# 4 0.0000 0.0000 0.0000 20.7312 0.0000 0.0000
# 5 0.0000 0.0000 0.0000 0.0000 15.9044 0.0000
# 6 0.0000 0.0000 0.0000 0.0000 0.0000 -28.1009
#
#
#
# Elastic Compliance Matrix: (Units=1/GPa)
#
#
# Indices 1 2 3 4 5 6 
#
# 1 0.015058 -0.005069 -0.002736 0.000000 0.000000 0.000000
# 2 -0.005069 0.012172 -0.002417 0.000000 0.000000 0.000000
# 3 -0.002736 -0.002417 0.010717 0.000000 0.000000 0.000000
# 4 0.000000 0.000000 0.000000 0.048236 0.000000 0.000000
# 5 0.000000 0.000000 0.000000 0.000000 0.062876 0.000000
# 6 0.000000 0.000000 0.000000 0.000000 0.000000 -0.035586
#
#
# Mechanical properties :
#
#
# Convention : Reuss Voigt Hill
#
# Bulk Modulus (GPa) = 57.13611 57.73159 57.43385
# Shear Modulus (GPa) = 35.77777 14.61409 25.19593
#
# Velocity S-wave (km/s) = 4.31427 2.75732 3.62048
# Velocity P-wave (km/s) = 7.38523 6.33808 6.88160
#
# Compressibility (1/GPa) = 0.01750207
#
# Stress axis : x y z
#
# Youngs Moduli (GPa) = 66.40986 82.15834 93.30924
#
# Poissons Ratio (x) = 0.41649 0.25525
# Poissons Ratio (y) = 0.33665 0.22557
# Poissons Ratio (z) = 0.18167 0.19861
#
# Static dielectric constant tensor:
#      x y z
#    x 3.091660 0.000000 0.000000 
#    y 0.000000 3.780180 0.000000 
#    z 0.000000 0.000000 3.984110 
# 
# 
# High freq. dielectric constant tensor:
#      x y z
#    x 1.711570 0.000000 0.000000 
#    y 0.000000 1.755810 0.000000 
#    z 0.000000 0.000000 1.754880 
# 
# From -- ./inp_files/10426.got.cif
#   From: 2010.03.12/outbox.cif.g09.slc.cpg/sg53_6_cif.got.tgz:10426.got - 2010.04.16 14:36:59.
