data_PCOD8221995
_publ_section_title
;
Structure prediction by ZEFSAII (Michael W. Deem and Ramdas Pophale) SiO2 
 PCOD8221995
Probable space group: P M N A
;
_chemical_formula_sum "Si O2"
_cell_formula_units_Z 32
_cell_length_a 15.014804
_cell_length_b 9.734799
_cell_length_c 9.962014
_cell_angle_alpha 90.000000
_cell_angle_beta 90.000000
_cell_angle_gamma 90.000000
_cell_volume 1456.108724
_symmetry_space_group_name_H-M "P M N A"
_symmetry_group_IT_number 53
_symmetry_cell_setting 'orthorhombic'
loop_
_space_group_symop_operation_xyz
x,y,z
1/2-x,-y,1/2+z
x,-y,-z
1/2-x,y,1/2-z
-x,-y,-z
1/2+x,y,1/2-z
-x,y,z
1/2+x,-y,1/2+z
loop_
_atom_site_type_symbol
_atom_site_label
_atom_site_fract_x
_atom_site_fract_y
_atom_site_fract_z
Si Si1 0.399545 0.928763 0.209087
Si Si2 0.150927 0.814223 0.568050
Si Si3 0.500000 0.609687 0.881902
Si Si4 0.347816 0.162773 0.520817
Si Si5 0.000000 0.638271 0.918397
O O1 0.500000 0.953296 0.259429
O O2 0.351091 0.828132 0.316214
O O3 0.351252 0.076687 0.191765
O O4 0.401249 0.863204 0.063166
O O5 0.095120 0.683967 0.610870
O O6 0.252893 0.785454 0.532076
O O7 0.500000 0.565922 0.727395
O O8 0.500000 0.500000 0.000000
O O9 0.415981 0.263883 0.448046
O O10 0.366952 0.000000 0.500000
O O11 0.000000 0.500000 0.000000
#
# Coordination Sequence:
#
# PCOD8221995 Si02
#       5
#     8   8   4   8   4
#     4  11  20  40  71 106 143 179 228 300 366 416
#     4  11  23  42  69 112 143 179 236 303 360 431
#     4  12  28  48  73  98 143 204 244 285 357 444
#     4  12  25  43  75 107 144 188 236 304 371 430
#     4  12  31  51  69 101 148 194 244 299 362 436
#
# _framework density 21.976379999999999
#
# number of rings (size 3 to 8) (size 9 to 14) (size 15 to 20)
#    0.000    0.500    6.250    3.375    3.500    4.000 
#    0.000    0.000    0.000    0.000    0.000    0.000 
#    0.000    0.000    0.000    0.000    0.000    0.000 
#
# Total GULP energy -396428.723216 kJ/mol
# GULP energy per Si atom -12388.397600 kJ/mol
# Density = 2.192636 g / cm^3
# Si number density = 21.976380 Si / 1000 Ang^3
#
#
#
# Elastic Constant Matrix: (Units=GPa)
#
#
# Indices 1 2 3 4 5 6 
#
# 1 188.2067 43.5440 55.8108 0.0000 0.0000 0.0000
# 2 43.5440 85.4919 61.0271 0.0000 0.0000 0.0000
# 3 55.8108 61.0271 129.9110 0.0000 0.0000 0.0000
# 4 0.0000 0.0000 0.0000 36.3876 0.0000 0.0000
# 5 0.0000 0.0000 0.0000 0.0000 41.0385 0.0000
# 6 0.0000 0.0000 0.0000 0.0000 0.0000 4.8980
#
#
#
# Elastic Compliance Matrix: (Units=1/GPa)
#
#
# Indices 1 2 3 4 5 6 
#
# 1 0.006291 -0.001918 -0.001802 0.000000 0.000000 0.000000
# 2 -0.001918 0.018183 -0.007718 0.000000 0.000000 0.000000
# 3 -0.001802 -0.007718 0.012097 0.000000 0.000000 0.000000
# 4 0.000000 0.000000 0.000000 0.027482 0.000000 0.000000
# 5 0.000000 0.000000 0.000000 0.000000 0.024367 0.000000
# 6 0.000000 0.000000 0.000000 0.000000 0.000000 0.204165
#
#
# Mechanical properties :
#
#
# Convention : Reuss Voigt Hill
#
# Bulk Modulus (GPa) = 73.01211 80.48596 76.74903
# Shear Modulus (GPa) = 15.62371 32.68000 24.15186
#
# Velocity S-wave (km/s) = 2.66922 3.86041 3.31870
# Velocity P-wave (km/s) = 6.54177 7.52155 7.04871
#
# Compressibility (1/GPa) = 0.01369636
#
# Stress axis : x y z
#
# Youngs Moduli (GPa) = 158.94693 54.99586 82.66495
#
# Poissons Ratio (x) = 0.10550 0.14894
# Poissons Ratio (y) = 0.30491 0.63798
# Poissons Ratio (z) = 0.28637 0.42444
#
# Static dielectric constant tensor:
#      x y z
#    x 3.896100 0.000000 0.000000 
#    y 0.000000 3.743720 0.000000 
#    z 0.000000 0.000000 4.526790 
# 
# 
# High freq. dielectric constant tensor:
#      x y z
#    x 1.879720 0.000000 0.000000 
#    y 0.000000 1.818930 0.000000 
#    z 0.000000 0.000000 1.896340 
# 
# From -- ./inp_files/15532.got.cif
#   From: 2010.03.12/outbox.cif.g09.slc.cpg/sg53_8_cif.got.tgz:15532.got - 2010.04.16 14:36:59.
