data_PCOD8221490
_publ_section_title
;
Structure prediction by ZEFSAII (Michael W. Deem and Ramdas Pophale) SiO2 
 PCOD8221490
Probable space group: P M N A
;
_chemical_formula_sum "Si O2"
_cell_formula_units_Z 32
_cell_length_a 20.961669
_cell_length_b 8.047291
_cell_length_c 9.060098
_cell_angle_alpha 90.000000
_cell_angle_beta 90.000000
_cell_angle_gamma 90.000000
_cell_volume 1528.299463
_symmetry_space_group_name_H-M "P M N A"
_symmetry_group_IT_number 53
_symmetry_cell_setting 'orthorhombic'
loop_
_space_group_symop_operation_xyz
x,y,z
1/2-x,-y,1/2+z
x,-y,-z
1/2-x,y,1/2-z
-x,-y,-z
1/2+x,y,1/2-z
-x,y,z
1/2+x,-y,1/2+z
loop_
_atom_site_type_symbol
_atom_site_label
_atom_site_fract_x
_atom_site_fract_y
_atom_site_fract_z
Si Si1 0.111933 0.749095 0.398229
Si Si2 0.286975 0.000000 0.000000
Si Si3 0.115486 0.387649 0.286759
Si Si4 0.750000 0.219256 0.250000
Si Si5 0.500000 0.879158 0.289422
Si Si6 0.000000 0.254144 0.105156
O O1 0.172318 0.870088 0.403359
O O2 0.124943 0.584016 0.304383
O O3 0.090103 0.698787 0.563471
O O4 0.059700 0.855530 0.315613
O O5 0.242203 0.104488 0.107073
O O6 0.186167 0.326894 0.248424
O O7 0.063715 0.348980 0.160058
O O8 0.500000 0.749360 0.426540
O O9 0.500000 0.066746 0.341372
#
# Coordination Sequence:
#
# PCOD8221490 Si02
#       6
#     8   4   8   4   4   4
#     4  10  21  39  62  86 115 156 202 242 296 361
#     4  10  22  39  62  87 116 158 204 248 296 356
#     4  10  22  40  61  89 120 154 198 248 297 354
#     4  10  22  40  62  88 122 158 198 244 298 358
#     4  11  22  37  60  88 120 159 198 243 300 356
#     4  11  24  39  58  89 124 154 196 251 300 349
#
# _framework density 20.938303999999999
#
# number of rings (size 3 to 8) (size 9 to 14) (size 15 to 20)
#    0.000    1.750    0.000    4.500    0.000   10.500 
#    0.000    7.500    0.000    0.000    0.000    0.000 
#    0.000    0.000    0.000    0.000    0.000    0.000 
#
# Total GULP energy -396784.949249 kJ/mol
# GULP energy per Si atom -12399.529664 kJ/mol
# Density = 2.089065 g / cm^3
# Si number density = 20.938304 Si / 1000 Ang^3
#
#
#
# Elastic Constant Matrix: (Units=GPa)
#
#
# Indices 1 2 3 4 5 6 
#
# 1 108.1713 33.8424 47.8864 0.0000 0.0000 0.0000
# 2 33.8424 105.7968 25.5950 0.0000 0.0000 0.0000
# 3 47.8864 25.5950 82.7770 0.0000 0.0000 0.0000
# 4 0.0000 0.0000 0.0000 35.7630 0.0000 0.0000
# 5 0.0000 0.0000 0.0000 0.0000 42.8181 0.0000
# 6 0.0000 0.0000 0.0000 0.0000 0.0000 -14.2051
#
#
#
# Elastic Compliance Matrix: (Units=1/GPa)
#
#
# Indices 1 2 3 4 5 6 
#
# 1 0.013026 -0.002533 -0.006752 0.000000 0.000000 0.000000
# 2 -0.002533 0.010709 -0.001846 0.000000 0.000000 0.000000
# 3 -0.006752 -0.001846 0.016558 0.000000 0.000000 0.000000
# 4 0.000000 0.000000 0.000000 0.027962 0.000000 0.000000
# 5 0.000000 0.000000 0.000000 0.000000 0.023355 0.000000
# 6 0.000000 0.000000 0.000000 0.000000 0.000000 -0.070397
#
#
# Mechanical properties :
#
#
# Convention : Reuss Voigt Hill
#
# Bulk Modulus (GPa) = 55.46304 56.82139 56.14222
# Shear Modulus (GPa) = 101.04004 25.50330 63.27167
#
# Velocity S-wave (km/s) = 6.95420 3.49380 5.50307
# Velocity P-wave (km/s) = 9.54083 6.59333 8.20059
#
# Compressibility (1/GPa) = 0.01803003
#
# Stress axis : x y z
#
# Youngs Moduli (GPa) = 76.76719 93.37963 60.39507
#
# Poissons Ratio (x) = 0.23656 0.40781
# Poissons Ratio (y) = 0.19447 0.11147
# Poissons Ratio (z) = 0.51837 0.17236
#
# Static dielectric constant tensor:
#      x y z
#    x 3.411690 0.000000 0.000000 
#    y 0.000000 4.009240 0.000000 
#    z 0.000000 0.000000 3.987140 
# 
# 
# High freq. dielectric constant tensor:
#      x y z
#    x 1.811350 0.000000 0.000000 
#    y 0.000000 1.841900 0.000000 
#    z 0.000000 0.000000 1.823210 
# 
# From -- ./inp_files/10543.got.cif
#   From: 2010.03.12/outbox.cif.g09.slc.cpg/sg53_6_cif.got.tgz:10543.got - 2010.04.16 14:36:59.
