data_PCOD8221141
_publ_section_title
;
Structure prediction by ZEFSAII (Michael W. Deem and Ramdas Pophale) SiO2 
 PCOD8221141
Probable space group: P M N A
;
_chemical_formula_sum "Si O2"
_cell_formula_units_Z 48
_cell_length_a 9.021988
_cell_length_b 30.741937
_cell_length_c 8.872562
_cell_angle_alpha 90.000000
_cell_angle_beta 90.000000
_cell_angle_gamma 90.000000
_cell_volume 2460.835120
_symmetry_space_group_name_H-M "P M N A"
_symmetry_group_IT_number 53
_symmetry_cell_setting 'orthorhombic'
loop_
_space_group_symop_operation_xyz
x,y,z
1/2-x,-y,1/2+z
x,-y,-z
1/2-x,y,1/2-z
-x,-y,-z
1/2+x,y,1/2-z
-x,y,z
1/2+x,-y,1/2+z
loop_
_atom_site_type_symbol
_atom_site_label
_atom_site_fract_x
_atom_site_fract_y
_atom_site_fract_z
Si Si1 0.174159 0.617643 0.410467
Si Si2 0.825491 0.127694 0.410404
Si Si3 0.674786 0.957314 0.089065
Si Si4 0.674974 0.212913 0.910547
Si Si5 0.827561 0.296385 0.407658
Si Si6 0.669328 0.543280 0.596309
O O1 0.250000 0.614179 0.250000
O O2 0.209075 0.664690 0.478853
O O3 0.242379 0.581884 0.518794
O O4 0.000000 0.609135 0.392675
O O5 0.750000 0.131298 0.250000
O O6 0.771631 0.084090 0.493366
O O7 0.774855 0.168085 0.512453
O O8 0.000000 0.127612 0.384223
O O9 0.750000 0.956289 0.250000
O O10 0.500000 0.956863 0.114219
O O11 0.727271 0.000000 0.000000
O O12 0.750000 0.217184 0.750000
O O13 0.500000 0.215179 0.886417
O O14 0.731243 0.252072 0.016538
O O15 0.750000 0.305030 0.250000
O O16 0.000000 0.292986 0.373153
O O17 0.675188 0.500000 0.500000
O O18 0.750000 0.531689 0.750000
O O19 0.500000 0.558071 0.624548
#
# Coordination Sequence:
#
# PCOD8221141 Si02
#       6
#     8   8   8   8   8   8
#     4  11  23  39  60  86 116 150 189 232 280 333
#     4  10  21  36  55  80 109 142 182 226 272 326
#     4  10  21  36  54  79 109 141 181 226 272 326
#     4  10  21  37  56  81 111 143 183 227 273 327
#     4  10  22  38  57  83 113 146 185 229 276 329
#     4  11  24  41  62  88 118 152 190 233 280 331
#
# _framework density 19.505572999999998
#
# number of rings (size 3 to 8) (size 9 to 14) (size 15 to 20)
#    0.000    1.667    0.000    4.000    0.000    7.667 
#    0.000    0.000    0.000    0.000    0.000    0.000 
#    0.000    0.000    0.000    0.000    0.000    0.000 
#
# Total GULP energy -595464.069936 kJ/mol
# GULP energy per Si atom -12405.501457 kJ/mol
# Density = 1.946118 g / cm^3
# Si number density = 19.505573 Si / 1000 Ang^3
#
#
#
# Elastic Constant Matrix: (Units=GPa)
#
#
# Indices 1 2 3 4 5 6 
#
# 1 68.2345 43.6214 54.6863 0.0000 0.0000 0.0000
# 2 43.6214 108.9621 21.5265 0.0000 0.0000 0.0000
# 3 54.6863 21.5265 123.5764 0.0000 0.0000 0.0000
# 4 0.0000 0.0000 0.0000 36.2026 0.0000 0.0000
# 5 0.0000 0.0000 0.0000 0.0000 43.1931 0.0000
# 6 0.0000 0.0000 0.0000 0.0000 0.0000 36.9950
#
#
#
# Elastic Compliance Matrix: (Units=1/GPa)
#
#
# Indices 1 2 3 4 5 6 
#
# 1 0.030317 -0.009824 -0.011705 0.000000 0.000000 0.000000
# 2 -0.009824 0.012688 0.002137 0.000000 0.000000 0.000000
# 3 -0.011705 0.002137 0.012899 0.000000 0.000000 0.000000
# 4 0.000000 0.000000 0.000000 0.027622 0.000000 0.000000
# 5 0.000000 0.000000 0.000000 0.000000 0.023152 0.000000
# 6 0.000000 0.000000 0.000000 0.000000 0.000000 0.027031
#
#
# Mechanical properties :
#
#
# Convention : Reuss Voigt Hill
#
# Bulk Modulus (GPa) = 58.40787 60.04903 59.22845
# Shear Modulus (GPa) = 28.05839 35.34073 31.69956
#
# Velocity S-wave (km/s) = 3.79685 4.26117 4.03569
# Velocity P-wave (km/s) = 7.01645 7.42041 7.22126
#
# Compressibility (1/GPa) = 0.01712098
#
# Stress axis : x y z
#
# Youngs Moduli (GPa) = 32.98517 78.81251 77.52243
#
# Poissons Ratio (x) = 0.77429 0.90737
# Poissons Ratio (y) = 0.32406 -0.16569
# Poissons Ratio (z) = 0.38608 -0.16845
#
# Static dielectric constant tensor:
#      x y z
#    x 3.583250 0.000000 0.000000 
#    y 0.000000 4.686250 0.000000 
#    z 0.000000 0.000000 3.526020 
# 
# 
# High freq. dielectric constant tensor:
#      x y z
#    x 1.757270 0.000000 0.000000 
#    y 0.000000 1.781220 0.000000 
#    z 0.000000 0.000000 1.775550 
# 
# From -- ./inp_files/6583.got.cif
#   From: 2010.03.12/outbox.cif.g09.slc.cpg/sg53_4_cif.got.tgz:6583.got - 2010.04.16 14:36:59.
