data_PCOD8221485
_publ_section_title
;
Structure prediction by ZEFSAII (Michael W. Deem and Ramdas Pophale) SiO2 
 PCOD8221485
Probable space group: P M N A
;
_chemical_formula_sum "Si O2"
_cell_formula_units_Z 52
_cell_length_a 15.687373
_cell_length_b 7.749904
_cell_length_c 21.097996
_cell_angle_alpha 90.000000
_cell_angle_beta 90.000000
_cell_angle_gamma 90.000000
_cell_volume 2565.002256
_symmetry_space_group_name_H-M "P M N A"
_symmetry_group_IT_number 53
_symmetry_cell_setting 'orthorhombic'
loop_
_space_group_symop_operation_xyz
x,y,z
1/2-x,-y,1/2+z
x,-y,-z
1/2-x,y,1/2-z
-x,-y,-z
1/2+x,y,1/2-z
-x,y,z
1/2+x,-y,1/2+z
loop_
_atom_site_type_symbol
_atom_site_label
_atom_site_fract_x
_atom_site_fract_y
_atom_site_fract_z
Si Si1 0.272765 0.744065 0.450371
Si Si2 0.097057 0.303037 0.841414
Si Si3 0.593244 0.309483 0.117472
Si Si4 0.263028 0.125732 0.414245
Si Si5 0.850561 0.403646 0.255152
Si Si6 0.097829 0.081757 0.185130
Si Si7 0.860569 0.500000 0.500000
O O1 0.348781 0.673567 0.406011
O O2 0.295773 0.769079 0.524443
O O3 0.195791 0.609561 0.449897
O O4 0.242623 0.926940 0.424970
O O5 0.109763 0.461495 0.793973
O O6 0.000000 0.300257 0.864470
O O7 0.119016 0.122170 0.804760
O O8 0.500000 0.222581 0.130699
O O9 0.673612 0.182694 0.115748
O O10 0.614879 0.445987 0.174126
O O11 0.581688 0.391517 0.047687
O O12 0.341819 0.159715 0.368597
O O13 0.750000 0.419834 0.250000
O O14 0.881947 0.204381 0.244990
O O15 0.000000 0.103195 0.164059
#
# Coordination Sequence:
#
# PCOD8221485 Si02
#       7
#     8   8   8   8   8   8   4
#     4   9  19  36  61  85 122 158 199 249 298 366
#     4  10  22  39  60  93 129 161 203 252 305 368
#     4  11  22  39  61  85 117 156 204 256 309 365
#     4   9  19  38  59  87 118 160 204 247 304 360
#     4  12  23  40  63  88 123 165 203 254 309 367
#     4  10  21  39  61  88 125 161 202 253 303 362
#     4  10  21  40  59  86 116 154 203 250 304 364
#
# _framework density 20.272887000000001
#
# number of rings (size 3 to 8) (size 9 to 14) (size 15 to 20)
#    0.000    1.846    1.538    2.538    2.154    1.231 
#    2.769   10.385    0.000    0.000    0.000    0.000 
#    0.000    0.000    0.000    0.000    0.000    0.000 
#
# Total GULP energy -644229.098411 kJ/mol
# GULP energy per Si atom -12389.021123 kJ/mol
# Density = 2.022674 g / cm^3
# Si number density = 20.272887 Si / 1000 Ang^3
#
#
#
# Elastic Constant Matrix: (Units=GPa)
#
#
# Indices 1 2 3 4 5 6 
#
# 1 116.3927 12.4625 43.9349 0.0000 0.0000 0.0000
# 2 12.4625 57.7703 28.7843 0.0000 0.0000 0.0000
# 3 43.9349 28.7843 100.5405 0.0000 0.0000 0.0000
# 4 0.0000 0.0000 0.0000 21.2188 0.0000 0.0000
# 5 0.0000 0.0000 0.0000 0.0000 25.1267 0.0000
# 6 0.0000 0.0000 0.0000 0.0000 0.0000 3.1305
#
#
#
# Elastic Compliance Matrix: (Units=1/GPa)
#
#
# Indices 1 2 3 4 5 6 
#
# 1 0.010289 0.000024 -0.004503 0.000000 0.000000 0.000000
# 2 0.000024 0.020190 -0.005791 0.000000 0.000000 0.000000
# 3 -0.004503 -0.005791 0.013572 0.000000 0.000000 0.000000
# 4 0.000000 0.000000 0.000000 0.047128 0.000000 0.000000
# 5 0.000000 0.000000 0.000000 0.000000 0.039798 0.000000
# 6 0.000000 0.000000 0.000000 0.000000 0.000000 0.319440
#
#
# Mechanical properties :
#
#
# Convention : Reuss Voigt Hill
#
# Bulk Modulus (GPa) = 42.53285 49.45188 45.99236
# Shear Modulus (GPa) = 10.44292 22.52997 16.48645
#
# Velocity S-wave (km/s) = 2.27208 3.33729 2.85481
# Velocity P-wave (km/s) = 5.28288 6.26866 5.79676
#
# Compressibility (1/GPa) = 0.02351124
#
# Stress axis : x y z
#
# Youngs Moduli (GPa) = 97.19347 49.52930 73.68186
#
# Poissons Ratio (x) = -0.00119 0.33178
# Poissons Ratio (y) = -0.00234 0.42668
# Poissons Ratio (z) = 0.43766 0.28682
#
# Static dielectric constant tensor:
#      x y z
#    x 3.709630 0.000000 0.000000 
#    y 0.000000 3.771790 0.000000 
#    z 0.000000 0.000000 3.908130 
# 
# 
# High freq. dielectric constant tensor:
#      x y z
#    x 1.798490 0.000000 0.000000 
#    y 0.000000 1.784340 0.000000 
#    z 0.000000 0.000000 1.796530 
# 
# From -- ./inp_files/32360.got.cif
#   From: 2010.03.12/outbox.cif.g09.slc.cpg/sg53_17_cif.got.tgz:32360.got - 2010.04.16 14:36:59.
