data_PCOD8221994
_publ_section_title
;
Structure prediction by ZEFSAII (Michael W. Deem and Ramdas Pophale) SiO2 
 PCOD8221994
Probable space group: P M N A
;
_chemical_formula_sum "Si O2"
_cell_formula_units_Z 36
_cell_length_a 16.093797
_cell_length_b 8.331019
_cell_length_c 12.597100
_cell_angle_alpha 90.000000
_cell_angle_beta 90.000000
_cell_angle_gamma 90.000000
_cell_volume 1688.990555
_symmetry_space_group_name_H-M "P M N A"
_symmetry_group_IT_number 53
_symmetry_cell_setting 'orthorhombic'
loop_
_space_group_symop_operation_xyz
x,y,z
1/2-x,-y,1/2+z
x,-y,-z
1/2-x,y,1/2-z
-x,-y,-z
1/2+x,y,1/2-z
-x,y,z
1/2+x,-y,1/2+z
loop_
_atom_site_type_symbol
_atom_site_label
_atom_site_fract_x
_atom_site_fract_y
_atom_site_fract_z
Si Si1 0.250000 0.619838 0.250000
Si Si2 0.095540 0.173629 0.691639
Si Si3 0.406809 0.816074 0.754152
Si Si4 0.362612 0.682079 0.976605
Si Si5 0.192125 0.615032 0.916830
O O1 0.337063 0.715677 0.250804
O O2 0.249258 0.506815 0.351731
O O3 0.098726 0.199009 0.564691
O O4 0.000000 0.207053 0.729801
O O5 0.125023 0.995121 0.722993
O O6 0.500000 0.821224 0.713492
O O7 0.400566 0.716686 0.861532
O O8 0.360106 0.732177 0.656282
O O9 0.262768 0.716563 0.978840
O O10 0.388649 0.500000 0.000000
O O11 0.140192 0.500000 0.000000
#
# Coordination Sequence:
#
# PCOD8221994 Si02
#       5
#     4   8   8   8   8
#     4  12  22  42  68  94 132 176 218 276 330 400
#     4  11  25  42  65 101 133 171 223 278 344 400
#     4  11  24  41  64  95 135 174 219 280 340 404
#     4  11  20  40  65  95 131 167 222 278 331 396
#     4  11  22  42  64  97 128 175 232 266 334 406
#
# _framework density 21.314508
#
# number of rings (size 3 to 8) (size 9 to 14) (size 15 to 20)
#    0.000    0.889    6.667    1.333    3.111    6.667 
#    0.000    1.111    0.000    2.667    0.000    0.000 
#    0.000    0.000    0.000    0.000    0.000    0.000 
#
# Total GULP energy -446100.413165 kJ/mol
# GULP energy per Si atom -12391.678143 kJ/mol
# Density = 2.126600 g / cm^3
# Si number density = 21.314508 Si / 1000 Ang^3
#
#
#
# Elastic Constant Matrix: (Units=GPa)
#
#
# Indices 1 2 3 4 5 6 
#
# 1 104.6720 52.2047 24.9678 0.0000 0.0000 0.0000
# 2 52.2047 123.6873 38.9467 0.0000 0.0000 0.0000
# 3 24.9678 38.9467 74.1751 0.0000 0.0000 0.0000
# 4 0.0000 0.0000 0.0000 44.9246 0.0000 0.0000
# 5 0.0000 0.0000 0.0000 0.0000 30.8252 0.0000
# 6 0.0000 0.0000 0.0000 0.0000 0.0000 32.8051
#
#
#
# Elastic Compliance Matrix: (Units=1/GPa)
#
#
# Indices 1 2 3 4 5 6 
#
# 1 0.012276 -0.004649 -0.001691 0.000000 0.000000 0.000000
# 2 -0.004649 0.011447 -0.004446 0.000000 0.000000 0.000000
# 3 -0.001691 -0.004446 0.016385 0.000000 0.000000 0.000000
# 4 0.000000 0.000000 0.000000 0.022260 0.000000 0.000000
# 5 0.000000 0.000000 0.000000 0.000000 0.032441 0.000000
# 6 0.000000 0.000000 0.000000 0.000000 0.000000 0.030483
#
#
# Mechanical properties :
#
#
# Convention : Reuss Voigt Hill
#
# Bulk Modulus (GPa) = 53.94708 59.41918 56.68313
# Shear Modulus (GPa) = 32.67110 34.13867 33.40488
#
# Velocity S-wave (km/s) = 3.91936 4.00642 3.96313
# Velocity P-wave (km/s) = 6.77103 7.02422 6.89879
#
# Compressibility (1/GPa) = 0.01853668
#
# Stress axis : x y z
#
# Youngs Moduli (GPa) = 81.46285 87.36105 61.03115
#
# Poissons Ratio (x) = 0.40611 0.10322
# Poissons Ratio (y) = 0.37869 0.27132
# Poissons Ratio (z) = 0.13777 0.38837
#
# Static dielectric constant tensor:
#      x y z
#    x 3.744010 0.000000 0.000000 
#    y 0.000000 3.923950 0.000000 
#    z 0.000000 0.000000 3.932660 
# 
# 
# High freq. dielectric constant tensor:
#      x y z
#    x 1.831470 0.000000 0.000000 
#    y 0.000000 1.836390 0.000000 
#    z 0.000000 0.000000 1.838870 
# 
# From -- ./inp_files/22310.got.cif
#   From: 2010.03.12/outbox.cif.g09.slc.cpg/sg53_12_cif.got.tgz:22310.got - 2010.04.16 14:36:59.
