data_PCOD8221355
_publ_section_title
;
Structure prediction by ZEFSAII (Michael W. Deem and Ramdas Pophale) SiO2 
 PCOD8221355
Probable space group: P M N A
;
_chemical_formula_sum "Si O2"
_cell_formula_units_Z 48
_cell_length_a 8.881403
_cell_length_b 9.745921
_cell_length_c 27.604223
_cell_angle_alpha 90.000000
_cell_angle_beta 90.000000
_cell_angle_gamma 90.000000
_cell_volume 2389.351208
_symmetry_space_group_name_H-M "P M N A"
_symmetry_group_IT_number 53
_symmetry_cell_setting 'orthorhombic'
loop_
_space_group_symop_operation_xyz
x,y,z
1/2-x,-y,1/2+z
x,-y,-z
1/2-x,y,1/2-z
-x,-y,-z
1/2+x,y,1/2-z
-x,y,z
1/2+x,-y,1/2+z
loop_
_atom_site_type_symbol
_atom_site_label
_atom_site_fract_x
_atom_site_fract_y
_atom_site_fract_z
Si Si1 0.826373 0.705399 0.702002
Si Si2 0.320805 0.593315 0.543998
Si Si3 0.329323 0.034608 0.138703
Si Si4 0.177861 0.095724 0.042693
Si Si5 0.821305 0.529817 0.145927
Si Si6 0.676756 0.772630 0.197932
O O1 0.750000 0.766625 0.750000
O O2 0.807321 0.814573 0.659687
O O3 0.735423 0.570009 0.688012
O O4 0.000000 0.669315 0.711633
O O5 0.258797 0.500000 0.500000
O O6 0.500000 0.597701 0.543179
O O7 0.256555 0.748801 0.539105
O O8 0.264180 0.524912 0.593899
O O9 0.500000 0.009872 0.121531
O O10 0.222226 0.021730 0.092531
O O11 0.285869 0.926128 0.180220
O O12 0.000000 0.102571 0.039450
O O13 0.243566 0.000000 0.000000
O O14 0.747730 0.676421 0.156575
O O15 0.000000 0.542144 0.147579
O O16 0.750000 0.746545 0.250000
O O17 0.500000 0.744560 0.202475
#
# Coordination Sequence:
#
# PCOD8221355 Si02
#       6
#     8   8   8   8   8   8
#     4  11  22  38  61  87 117 154 196 245 297 356
#     4   9  19  36  58  88 121 152 193 244 294 347
#     4  10  23  41  61  86 122 159 195 246 301 355
#     4  10  21  37  62  92 120 154 199 247 294 352
#     4  11  22  38  62  89 120 159 197 244 298 353
#     4  11  24  42  61  87 121 159 203 249 297 354
#
# _framework density 20.089134000000001
#
# number of rings (size 3 to 8) (size 9 to 14) (size 15 to 20)
#    0.000    1.667    1.667    2.500    2.333    2.333 
#    0.000    0.000    0.000    2.500    0.000    0.000 
#    0.000    0.000    0.000    0.000    0.000    0.000 
#
# Total GULP energy -595347.729295 kJ/mol
# GULP energy per Si atom -12403.077694 kJ/mol
# Density = 2.004341 g / cm^3
# Si number density = 20.089134 Si / 1000 Ang^3
#
#
#
# Elastic Constant Matrix: (Units=GPa)
#
#
# Indices 1 2 3 4 5 6 
#
# 1 61.6795 31.6407 34.3124 0.0000 0.0000 0.0000
# 2 31.6407 97.8050 35.3989 0.0000 0.0000 0.0000
# 3 34.3124 35.3989 123.9158 0.0000 0.0000 0.0000
# 4 0.0000 0.0000 0.0000 36.3184 0.0000 0.0000
# 5 0.0000 0.0000 0.0000 0.0000 29.9869 0.0000
# 6 0.0000 0.0000 0.0000 0.0000 0.0000 27.2753
#
#
#
# Elastic Compliance Matrix: (Units=1/GPa)
#
#
# Indices 1 2 3 4 5 6 
#
# 1 0.021395 -0.005328 -0.004402 0.000000 0.000000 0.000000
# 2 -0.005328 0.012730 -0.002161 0.000000 0.000000 0.000000
# 3 -0.004402 -0.002161 0.009906 0.000000 0.000000 0.000000
# 4 0.000000 0.000000 0.000000 0.027534 0.000000 0.000000
# 5 0.000000 0.000000 0.000000 0.000000 0.033348 0.000000
# 6 0.000000 0.000000 0.000000 0.000000 0.000000 0.036663
#
#
# Mechanical properties :
#
#
# Convention : Reuss Voigt Hill
#
# Bulk Modulus (GPa) = 49.38647 54.01160 51.69904
# Shear Modulus (GPa) = 29.05117 30.85267 29.95192
#
# Velocity S-wave (km/s) = 3.80691 3.92317 3.86547
# Velocity P-wave (km/s) = 6.63027 6.88956 6.76115
#
# Compressibility (1/GPa) = 0.02024846
#
# Stress axis : x y z
#
# Youngs Moduli (GPa) = 46.73968 78.55230 100.94489
#
# Poissons Ratio (x) = 0.41854 0.44438
# Poissons Ratio (y) = 0.24904 0.21817
# Poissons Ratio (z) = 0.20576 0.16977
#
# Static dielectric constant tensor:
#      x y z
#    x 3.453900 0.000000 0.000000 
#    y 0.000000 3.822910 0.000000 
#    z 0.000000 0.000000 3.666390 
# 
# 
# High freq. dielectric constant tensor:
#      x y z
#    x 1.765830 0.000000 0.000000 
#    y 0.000000 1.794930 0.000000 
#    z 0.000000 0.000000 1.792040 
# 
# From -- ./inp_files/37715.got.cif
#   From: 2010.03.12/outbox.cif.g09.slc.cpg/sg53_19_cif.got.tgz:37715.got - 2010.04.16 14:36:59.
