data_PCOD8221711
_publ_section_title
;
Structure prediction by ZEFSAII (Michael W. Deem and Ramdas Pophale) SiO2 
 PCOD8221711
Probable space group: P M N A
;
_chemical_formula_sum "Si O2"
_cell_formula_units_Z 40
_cell_length_a 18.886560
_cell_length_b 17.482299
_cell_length_c 5.799602
_cell_angle_alpha 90.000000
_cell_angle_beta 90.000000
_cell_angle_gamma 90.000000
_cell_volume 1914.915424
_symmetry_space_group_name_H-M "P M N A"
_symmetry_group_IT_number 53
_symmetry_cell_setting 'orthorhombic'
loop_
_space_group_symop_operation_xyz
x,y,z
1/2-x,-y,1/2+z
x,-y,-z
1/2-x,y,1/2-z
-x,-y,-z
1/2+x,y,1/2-z
-x,y,z
1/2+x,-y,1/2+z
loop_
_atom_site_type_symbol
_atom_site_label
_atom_site_fract_x
_atom_site_fract_y
_atom_site_fract_z
Si Si1 0.419399 0.652260 0.482682
Si Si2 0.676530 0.435459 0.837968
Si Si3 0.079060 0.797226 0.341011
Si Si4 0.821366 0.292493 0.367486
Si Si5 0.081902 0.030212 0.751796
O O1 0.500000 0.630175 0.537472
O O2 0.384067 0.581664 0.348172
O O3 0.414560 0.732913 0.352521
O O4 0.376337 0.660421 0.715294
O O5 0.750000 0.472767 0.750000
O O6 0.641893 0.500000 0.000000
O O7 0.701282 0.354545 0.944507
O O8 0.138068 0.781557 0.534593
O O9 0.094400 0.879233 0.231143
O O10 0.000000 0.795549 0.451761
O O11 0.750000 0.261372 0.250000
O O12 0.000000 0.006078 0.750682
O O13 0.113498 0.000000 0.500000
O O14 0.114799 0.000000 0.000000
#
# Coordination Sequence:
#
# PCOD8221711 Si02
#       5
#     8   8   8   8   8
#     4  10  22  39  60  89 120 153 197 255 309 360
#     4  11  23  39  61  86 117 158 201 246 303 373
#     4   9  20  35  56  88 124 157 197 256 312 362
#     4  11  21  37  60  86 114 158 208 250 302 373
#     4   9  18  32  54  88 125 161 203 252 310 374
#
# _framework density 20.888649999999998
#
# number of rings (size 3 to 8) (size 9 to 14) (size 15 to 20)
#    0.000    2.000    2.000    1.200    2.800    1.200 
#    0.000    1.000    0.000    0.000    5.200    0.000 
#    0.000    0.000    0.000    0.000    0.000    0.000 
#
# Total GULP energy -495684.153412 kJ/mol
# GULP energy per Si atom -12392.103835 kJ/mol
# Density = 2.084111 g / cm^3
# Si number density = 20.888650 Si / 1000 Ang^3
#
#
#
# Elastic Constant Matrix: (Units=GPa)
#
#
# Indices 1 2 3 4 5 6 
#
# 1 112.4952 19.6308 33.8351 0.0000 0.0000 0.0000
# 2 19.6308 82.5546 21.4989 0.0000 0.0000 0.0000
# 3 33.8351 21.4989 103.6067 0.0000 0.0000 0.0000
# 4 0.0000 0.0000 0.0000 23.1644 0.0000 0.0000
# 5 0.0000 0.0000 0.0000 0.0000 27.8173 0.0000
# 6 0.0000 0.0000 0.0000 0.0000 0.0000 61.8258
#
#
#
# Elastic Compliance Matrix: (Units=1/GPa)
#
#
# Indices 1 2 3 4 5 6 
#
# 1 0.010059 -0.001624 -0.002948 0.000000 0.000000 0.000000
# 2 -0.001624 0.013067 -0.002181 0.000000 0.000000 0.000000
# 3 -0.002948 -0.002181 0.011067 0.000000 0.000000 0.000000
# 4 0.000000 0.000000 0.000000 0.043170 0.000000 0.000000
# 5 0.000000 0.000000 0.000000 0.000000 0.035949 0.000000
# 6 0.000000 0.000000 0.000000 0.000000 0.000000 0.016174
#
#
# Mechanical properties :
#
#
# Convention : Reuss Voigt Hill
#
# Bulk Modulus (GPa) = 48.33926 49.84290 49.09108
# Shear Modulus (GPa) = 33.35787 37.47430 35.41608
#
# Velocity S-wave (km/s) = 4.00051 4.24016 4.12208
# Velocity P-wave (km/s) = 6.67311 6.91990 6.79762
#
# Compressibility (1/GPa) = 0.02068712
#
# Stress axis : x y z
#
# Youngs Moduli (GPa) = 99.40952 76.52604 90.35681
#
# Poissons Ratio (x) = 0.12430 0.26638
# Poissons Ratio (y) = 0.16147 0.19708
# Poissons Ratio (z) = 0.29307 0.16691
#
# Static dielectric constant tensor:
#      x y z
#    x 3.646480 0.000000 0.000000 
#    y 0.000000 3.596040 0.000000 
#    z 0.000000 0.000000 3.984680 
# 
# 
# High freq. dielectric constant tensor:
#      x y z
#    x 1.794810 0.000000 0.000000 
#    y 0.000000 1.811790 0.000000 
#    z 0.000000 0.000000 1.822620 
# 
# From -- ./inp_files/2081.got.cif
#   From: 2010.03.12/outbox.cif.g09.slc.cpg/sg53_2_cif.got.tgz:2081.got - 2010.04.16 14:36:59.
