data_PCOD8221545
_publ_section_title
;
Structure prediction by ZEFSAII (Michael W. Deem and Ramdas Pophale) SiO2 
 PCOD8221545
Probable space group: P M N A
;
_chemical_formula_sum "Si O2"
_cell_formula_units_Z 40
_cell_length_a 14.492481
_cell_length_b 8.972077
_cell_length_c 15.028475
_cell_angle_alpha 90.000000
_cell_angle_beta 90.000000
_cell_angle_gamma 90.000000
_cell_volume 1954.117369
_symmetry_space_group_name_H-M "P M N A"
_symmetry_group_IT_number 53
_symmetry_cell_setting 'orthorhombic'
loop_
_space_group_symop_operation_xyz
x,y,z
1/2-x,-y,1/2+z
x,-y,-z
1/2-x,y,1/2-z
-x,-y,-z
1/2+x,y,1/2-z
-x,y,z
1/2+x,-y,1/2+z
loop_
_atom_site_type_symbol
_atom_site_label
_atom_site_fract_x
_atom_site_fract_y
_atom_site_fract_z
Si Si1 0.639066 0.784290 0.372738
Si Si2 0.500000 0.660242 0.050016
Si Si3 0.500000 0.608515 0.258473
Si Si4 0.164335 0.130832 0.569345
Si Si5 0.000000 0.173684 0.014319
Si Si6 0.500000 0.735577 0.715038
Si Si7 0.644006 0.960802 0.757432
O O1 0.595557 0.664476 0.304132
O O2 0.748464 0.773790 0.392368
O O3 0.590987 0.761849 0.467231
O O4 0.614841 0.945194 0.329820
O O5 0.500000 0.646887 0.155497
O O6 0.408403 0.755535 0.023438
O O7 0.500000 0.500000 0.000000
O O8 0.500000 0.434063 0.263651
O O9 0.194360 0.000000 0.500000
O O10 0.117862 0.053068 0.654506
O O11 0.000000 0.236615 0.111313
O O12 0.000000 0.000000 0.000000
O O13 0.589873 0.806859 0.759813
O O14 0.750000 0.918517 0.750000
#
# Coordination Sequence:
#
# PCOD8221545 Si02
#       7
#     8   4   4   8   4   4   8
#     4  10  21  43  69  94 127 172 214 272 348 392
#     4  12  27  46  63  96 139 187 222 268 332 405
#     4  11  25  45  66  93 141 185 208 260 355 425
#     4  11  24  43  72  97 126 170 232 282 320 387
#     4  11  19  36  69  97 124 155 214 285 333 367
#     4  12  24  40  64  99 135 167 222 275 322 409
#     4  10  21  39  66  97 123 169 220 272 330 384
#
# _framework density 20.469598999999999
#
# number of rings (size 3 to 8) (size 9 to 14) (size 15 to 20)
#    0.000    1.200    4.000    2.100    5.600    1.600 
#    7.200    0.000    0.000    0.000    0.000    0.000 
#    0.000    0.000    0.000    0.000    0.000    0.000 
#
# Total GULP energy -495823.802228 kJ/mol
# GULP energy per Si atom -12395.595056 kJ/mol
# Density = 2.042301 g / cm^3
# Si number density = 20.469599 Si / 1000 Ang^3
#
#
#
# Elastic Constant Matrix: (Units=GPa)
#
#
# Indices 1 2 3 4 5 6 
#
# 1 123.2994 61.0813 25.9889 0.0000 0.0000 0.0000
# 2 61.0813 113.1574 6.1380 0.0000 0.0000 0.0000
# 3 25.9889 6.1380 76.9049 0.0000 0.0000 0.0000
# 4 0.0000 0.0000 0.0000 31.7808 0.0000 0.0000
# 5 0.0000 0.0000 0.0000 0.0000 12.7191 0.0000
# 6 0.0000 0.0000 0.0000 0.0000 0.0000 -0.6759
#
#
#
# Elastic Compliance Matrix: (Units=1/GPa)
#
#
# Indices 1 2 3 4 5 6 
#
# 1 0.011960 -0.006264 -0.003542 0.000000 0.000000 0.000000
# 2 -0.006264 0.012156 0.001147 0.000000 0.000000 0.000000
# 3 -0.003542 0.001147 0.014108 0.000000 0.000000 0.000000
# 4 0.000000 0.000000 0.000000 0.031466 0.000000 0.000000
# 5 0.000000 0.000000 0.000000 0.000000 0.078622 0.000000
# 6 0.000000 0.000000 0.000000 0.000000 0.000000 -1.479534
#
#
# Mechanical properties :
#
#
# Convention : Reuss Voigt Hill
#
# Bulk Modulus (GPa) = 47.83182 55.53091 51.68137
# Shear Modulus (GPa) = -3.82574 23.44170 9.80798
#
# Velocity S-wave (km/s) = -1.36859 3.38775 2.19132
# Velocity P-wave (km/s) = 4.57390 6.51842 5.63074
#
# Compressibility (1/GPa) = 0.02090658
#
# Stress axis : x y z
#
# Youngs Moduli (GPa) = 83.61319 82.26289 70.87957
#
# Poissons Ratio (x) = 0.51527 0.25104
# Poissons Ratio (y) = 0.52373 -0.08126
# Poissons Ratio (z) = 0.29614 -0.09432
#
# Static dielectric constant tensor:
#      x y z
#    x 3.797630 0.000000 0.000000 
#    y 0.000000 3.387360 0.000000 
#    z 0.000000 0.000000 3.824980 
# 
# 
# High freq. dielectric constant tensor:
#      x y z
#    x 1.807630 0.000000 0.000000 
#    y 0.000000 1.774920 0.000000 
#    z 0.000000 0.000000 1.812330 
# 
# From -- ./inp_files/22502.got.cif
#   From: 2010.03.12/outbox.cif.g09.slc.cpg/sg53_12_cif.got.tgz:22502.got - 2010.04.16 14:36:59.
