data_PCOD8221006
_publ_section_title
;
Structure prediction by ZEFSAII (Michael W. Deem and Ramdas Pophale) SiO2 
 PCOD8221006
Probable space group: P M N A
;
_chemical_formula_sum "Si O2"
_cell_formula_units_Z 40
_cell_length_a 15.416568
_cell_length_b 5.157805
_cell_length_c 21.888179
_cell_angle_alpha 90.000000
_cell_angle_beta 90.000000
_cell_angle_gamma 90.000000
_cell_volume 1740.452814
_symmetry_space_group_name_H-M "P M N A"
_symmetry_group_IT_number 53
_symmetry_cell_setting 'orthorhombic'
loop_
_space_group_symop_operation_xyz
x,y,z
1/2-x,-y,1/2+z
x,-y,-z
1/2-x,y,1/2-z
-x,-y,-z
1/2+x,y,1/2-z
-x,y,z
1/2+x,-y,1/2+z
loop_
_atom_site_type_symbol
_atom_site_label
_atom_site_fract_x
_atom_site_fract_y
_atom_site_fract_z
Si Si1 0.900990 0.614364 0.860719
Si Si2 0.262564 0.850803 0.560132
Si Si3 0.593326 0.381215 0.089516
Si Si4 0.599874 0.876752 0.282986
Si Si5 0.648727 0.099027 0.849012
O O1 0.840049 0.660792 0.919636
O O2 0.888422 0.842655 0.812248
O O3 0.000000 0.599990 0.884162
O O4 0.871194 0.346080 0.830164
O O5 0.241215 0.047995 0.616634
O O6 0.293427 0.000000 0.500000
O O7 0.174280 0.685731 0.544353
O O8 0.500000 0.375000 0.054610
O O9 0.602422 0.657041 0.120947
O O10 0.590581 0.159521 0.142069
O O11 0.500000 0.828565 0.263585
O O12 0.660923 0.856200 0.223173
#
# Coordination Sequence:
#
# PCOD8221006 Si02
#       5
#     8   8   8   8   8
#     4  10  23  42  67  96 126 171 216 269 331 380
#     4  10  26  45  63  95 135 172 226 271 312 389
#     4  10  21  39  62  92 127 168 214 256 318 384
#     4  10  20  39  66  95 129 161 211 271 326 394
#     4  10  22  39  65  93 129 170 206 263 333 374
#
# _framework density 22.982524999999999
#
# number of rings (size 3 to 8) (size 9 to 14) (size 15 to 20)
#    1.200    0.800    0.000    3.000    2.800    4.000 
#    0.000    1.000    0.000    3.600    0.000    0.000 
#    0.000    0.000    0.000    0.000    0.000    0.000 
#
# Total GULP energy -495681.953024 kJ/mol
# GULP energy per Si atom -12392.048826 kJ/mol
# Density = 2.293022 g / cm^3
# Si number density = 22.982525 Si / 1000 Ang^3
#
#
#
# Elastic Constant Matrix: (Units=GPa)
#
#
# Indices 1 2 3 4 5 6 
#
# 1 89.2172 19.0014 40.6012 0.0000 0.0000 0.0000
# 2 19.0014 115.4708 -6.8246 0.0000 0.0000 0.0000
# 3 40.6012 -6.8246 44.4348 0.0000 0.0000 0.0000
# 4 0.0000 0.0000 0.0000 27.9095 0.0000 0.0000
# 5 0.0000 0.0000 0.0000 0.0000 12.1380 0.0000
# 6 0.0000 0.0000 0.0000 0.0000 0.0000 5.2843
#
#
#
# Elastic Compliance Matrix: (Units=1/GPa)
#
#
# Indices 1 2 3 4 5 6 
#
# 1 0.021481 -0.004738 -0.020355 0.000000 0.000000 0.000000
# 2 -0.004738 0.009785 0.005832 0.000000 0.000000 0.000000
# 3 -0.020355 0.005832 0.042000 0.000000 0.000000 0.000000
# 4 0.000000 0.000000 0.000000 0.035830 0.000000 0.000000
# 5 0.000000 0.000000 0.000000 0.000000 0.082386 0.000000
# 6 0.000000 0.000000 0.000000 0.000000 0.000000 0.189239
#
#
# Mechanical properties :
#
#
# Convention : Reuss Voigt Hill
#
# Bulk Modulus (GPa) = 28.78311 39.40874 34.09593
# Shear Modulus (GPa) = 11.60567 22.15603 16.88085
#
# Velocity S-wave (km/s) = 2.24961 3.10826 2.71312
# Velocity P-wave (km/s) = 4.39303 5.48327 4.96815
#
# Compressibility (1/GPa) = 0.03474260
#
# Stress axis : x y z
#
# Youngs Moduli (GPa) = 46.55256 102.20222 23.80955
#
# Poissons Ratio (x) = 0.48422 0.48466
# Poissons Ratio (y) = 0.22056 -0.13886
# Poissons Ratio (z) = 0.94760 -0.59603
#
# Static dielectric constant tensor:
#      x y z
#    x 3.564150 0.000000 0.000000 
#    y 0.000000 4.162330 0.000000 
#    z 0.000000 0.000000 3.644260 
# 
# 
# High freq. dielectric constant tensor:
#      x y z
#    x 1.905540 0.000000 0.000000 
#    y 0.000000 1.922130 0.000000 
#    z 0.000000 0.000000 1.874970 
# 
# From -- ./inp_files/32681.got.cif
#   From: 2010.03.12/outbox.cif.g09.slc.cpg/sg53_17_cif.got.tgz:32681.got - 2010.04.16 14:36:59.
