data_PCOD8221621
_publ_section_title
;
Structure prediction by ZEFSAII (Michael W. Deem and Ramdas Pophale) SiO2 
 PCOD8221621
Probable space group: P M N A
;
_chemical_formula_sum "Si O2"
_cell_formula_units_Z 48
_cell_length_a 15.382751
_cell_length_b 17.306504
_cell_length_c 8.775119
_cell_angle_alpha 90.000000
_cell_angle_beta 90.000000
_cell_angle_gamma 90.000000
_cell_volume 2336.126586
_symmetry_space_group_name_H-M "P M N A"
_symmetry_group_IT_number 53
_symmetry_cell_setting 'orthorhombic'
loop_
_space_group_symop_operation_xyz
x,y,z
1/2-x,-y,1/2+z
x,-y,-z
1/2-x,y,1/2-z
-x,-y,-z
1/2+x,y,1/2-z
-x,y,z
1/2+x,-y,1/2+z
loop_
_atom_site_type_symbol
_atom_site_label
_atom_site_fract_x
_atom_site_fract_y
_atom_site_fract_z
Si Si1 0.404532 0.205819 0.985700
Si Si2 0.500000 0.231890 0.571195
Si Si3 0.500000 0.944526 0.354777
Si Si4 0.000000 0.271055 0.271116
Si Si5 0.850279 0.311351 0.748008
Si Si6 0.833862 0.056344 0.643804
Si Si7 0.000000 0.554865 0.651280
Si Si8 0.341751 0.486906 0.678470
O O1 0.500000 0.181608 0.916341
O O2 0.378929 0.290379 0.922320
O O3 0.336340 0.141261 0.933914
O O4 0.415436 0.221636 0.167331
O O5 0.500000 0.139969 0.569215
O O6 0.500000 0.273614 0.407630
O O7 0.590823 0.258807 0.642835
O O8 0.583601 0.961227 0.249733
O O9 0.500000 0.000000 0.500000
O O10 0.000000 0.352543 0.363526
O O11 0.750000 0.288542 0.750000
O O12 0.867846 0.399694 0.784547
O O13 0.750000 0.048680 0.750000
O O14 0.829763 0.000000 0.500000
O O15 0.000000 0.500000 0.500000
O O16 0.914616 0.539974 0.749926
O O17 0.336554 0.500000 0.500000
O O18 0.250000 0.510276 0.750000
#
# Coordination Sequence:
#
# PCOD8221621 Si02
#       8
#     8   4   4   4   8   8   4   8
#     4  10  21  43  66  90 126 173 218 253 333 392
#     4  12  22  42  64  98 132 162 229 270 327 402
#     4  12  26  41  71  98 134 178 216 278 339 402
#     4  10  24  39  64 101 127 176 214 279 331 392
#     4  11  21  40  67  88 123 177 221 267 327 404
#     4  12  25  46  69 100 134 175 224 278 332 405
#     4  12  22  40  67  94 137 171 220 286 340 394
#     4  11  24  40  62  94 127 173 224 275 338 402
#
# _framework density 20.546831000000001
#
# number of rings (size 3 to 8) (size 9 to 14) (size 15 to 20)
#    0.500    0.333    3.333    4.500    2.333    1.333 
#    0.000    0.833    0.000    0.000    0.000    0.000 
#    0.000    0.000    0.000    0.000    0.000    0.000 
#
# Total GULP energy -594665.396032 kJ/mol
# GULP energy per Si atom -12388.862417 kJ/mol
# Density = 2.050007 g / cm^3
# Si number density = 20.546831 Si / 1000 Ang^3
#
#
#
# Elastic Constant Matrix: (Units=GPa)
#
#
# Indices 1 2 3 4 5 6 
#
# 1 128.3040 42.4942 51.9187 0.0000 0.0000 0.0000
# 2 42.4942 101.4501 32.3215 0.0000 0.0000 0.0000
# 3 51.9187 32.3215 105.9141 0.0000 0.0000 0.0000
# 4 0.0000 0.0000 0.0000 35.5526 0.0000 0.0000
# 5 0.0000 0.0000 0.0000 0.0000 45.2642 0.0000
# 6 0.0000 0.0000 0.0000 0.0000 0.0000 37.0344
#
#
#
# Elastic Compliance Matrix: (Units=1/GPa)
#
#
# Indices 1 2 3 4 5 6 
#
# 1 0.010515 -0.003060 -0.004221 0.000000 0.000000 0.000000
# 2 -0.003060 0.011809 -0.002104 0.000000 0.000000 0.000000
# 3 -0.004221 -0.002104 0.012153 0.000000 0.000000 0.000000
# 4 0.000000 0.000000 0.000000 0.028127 0.000000 0.000000
# 5 0.000000 0.000000 0.000000 0.000000 0.022093 0.000000
# 6 0.000000 0.000000 0.000000 0.000000 0.000000 0.027002
#
#
# Mechanical properties :
#
#
# Convention : Reuss Voigt Hill
#
# Bulk Modulus (GPa) = 63.66141 65.45967 64.56054
# Shear Modulus (GPa) = 36.84497 37.49916 37.17206
#
# Velocity S-wave (km/s) = 4.23924 4.27670 4.25801
# Velocity P-wave (km/s) = 7.41703 7.50432 7.46080
#
# Compressibility (1/GPa) = 0.01570810
#
# Stress axis : x y z
#
# Youngs Moduli (GPa) = 95.09875 84.68130 82.28647
#
# Poissons Ratio (x) = 0.25911 0.34732
# Poissons Ratio (y) = 0.29098 0.17311
# Poissons Ratio (z) = 0.40140 0.17815
#
# Static dielectric constant tensor:
#      x y z
#    x 3.882100 0.000000 0.000000 
#    y 0.000000 3.669100 0.000000 
#    z 0.000000 0.000000 3.770050 
# 
# 
# High freq. dielectric constant tensor:
#      x y z
#    x 1.808000 0.000000 0.000000 
#    y 0.000000 1.811290 0.000000 
#    z 0.000000 0.000000 1.808820 
# 
# From -- ./inp_files/8759.got.cif
#   From: 2010.03.12/outbox.cif.g09.slc.cpg/sg53_5_cif.got.tgz:8759.got - 2010.04.16 14:36:59.
