data_PCOD8221779
_publ_section_title
;
Structure prediction by ZEFSAII (Michael W. Deem and Ramdas Pophale) SiO2 
 PCOD8221779
Probable space group: P M N A
;
_chemical_formula_sum "Si O2"
_cell_formula_units_Z 40
_cell_length_a 9.014190
_cell_length_b 7.450136
_cell_length_c 29.495354
_cell_angle_alpha 90.000000
_cell_angle_beta 90.000000
_cell_angle_gamma 90.000000
_cell_volume 1980.817761
_symmetry_space_group_name_H-M "P M N A"
_symmetry_group_IT_number 53
_symmetry_cell_setting 'orthorhombic'
loop_
_space_group_symop_operation_xyz
x,y,z
1/2-x,-y,1/2+z
x,-y,-z
1/2-x,y,1/2-z
-x,-y,-z
1/2+x,y,1/2-z
-x,y,z
1/2+x,-y,1/2+z
loop_
_atom_site_type_symbol
_atom_site_label
_atom_site_fract_x
_atom_site_fract_y
_atom_site_fract_z
Si Si1 0.674175 0.657169 0.890268
Si Si2 0.675756 0.715167 0.386254
Si Si3 0.161849 0.307018 0.291980
Si Si4 0.829256 0.998715 0.447141
Si Si5 0.665726 0.268528 0.793408
O O1 0.500000 0.606773 0.886159
O O2 0.763749 0.478003 0.902212
O O3 0.730213 0.737092 0.841605
O O4 0.705422 0.802150 0.928890
O O5 0.500000 0.705170 0.381142
O O6 0.720116 0.856705 0.424535
O O7 0.745148 0.780187 0.338799
O O8 0.250000 0.220275 0.250000
O O9 0.155485 0.519815 0.286968
O O10 0.000000 0.220389 0.288706
O O11 0.000000 0.945955 0.437011
O O12 0.794828 0.000000 0.500000
O O13 0.750000 0.183902 0.750000
O O14 0.500000 0.186494 0.796785
#
# Coordination Sequence:
#
# PCOD8221779 Si02
#       5
#     8   8   8   8   8
#     4   9  19  37  59  82 110 146 188 233 281 335
#     4  11  22  36  57  85 118 153 187 228 283 344
#     4   8  14  25  45  74 106 139 174 215 262 315
#     4  10  22  41  63  83 106 143 193 246 295 344
#     4   9  16  29  51  80 114 150 190 230 271 325
#
# _framework density 20.193680000000001
#
# number of rings (size 3 to 8) (size 9 to 14) (size 15 to 20)
#    0.000    2.600    0.000    3.600    0.000    6.800 
#    0.000    5.000    0.000    2.400    0.000    0.000 
#    0.000    0.000    0.000    0.000    0.000    0.000 
#
# Total GULP energy -495902.852595 kJ/mol
# GULP energy per Si atom -12397.571315 kJ/mol
# Density = 2.014772 g / cm^3
# Si number density = 20.193680 Si / 1000 Ang^3
#
#
#
# Elastic Constant Matrix: (Units=GPa)
#
#
# Indices 1 2 3 4 5 6 
#
# 1 133.3788 49.3935 69.1995 0.0000 0.0000 0.0000
# 2 49.3935 72.8305 55.8572 0.0000 0.0000 0.0000
# 3 69.1995 55.8572 147.7609 0.0000 0.0000 0.0000
# 4 0.0000 0.0000 0.0000 182.2074 0.0000 0.0000
# 5 0.0000 0.0000 0.0000 0.0000 32.4005 0.0000
# 6 0.0000 0.0000 0.0000 0.0000 0.0000 7.0998
#
#
#
# Elastic Compliance Matrix: (Units=1/GPa)
#
#
# Indices 1 2 3 4 5 6 
#
# 1 0.011046 -0.004963 -0.003297 0.000000 0.000000 0.000000
# 2 -0.004963 0.021566 -0.005828 0.000000 0.000000 0.000000
# 3 -0.003297 -0.005828 0.010515 0.000000 0.000000 0.000000
# 4 0.000000 0.000000 0.000000 0.005488 0.000000 0.000000
# 5 0.000000 0.000000 0.000000 0.000000 0.030864 0.000000
# 6 0.000000 0.000000 0.000000 0.000000 0.000000 0.140849
#
#
# Mechanical properties :
#
#
# Convention : Reuss Voigt Hill
#
# Bulk Modulus (GPa) = 66.88538 78.09675 72.49106
# Shear Modulus (GPa) = 19.72483 56.30955 38.01719
#
# Velocity S-wave (km/s) = 3.12874 5.28633 4.34363
# Velocity P-wave (km/s) = 6.80043 8.71884 7.81870
#
# Compressibility (1/GPa) = 0.01495095
#
# Stress axis : x y z
#
# Youngs Moduli (GPa) = 90.53254 46.36870 95.10186
#
# Poissons Ratio (x) = 0.23011 0.31355
# Poissons Ratio (y) = 0.44928 0.55430
# Poissons Ratio (z) = 0.29848 0.27026
#
# Static dielectric constant tensor:
#      x y z
#    x 3.747660 0.000000 0.000000 
#    y 0.000000 3.318710 0.000000 
#    z 0.000000 0.000000 3.768690 
# 
# 
# High freq. dielectric constant tensor:
#      x y z
#    x 1.778920 0.000000 0.000000 
#    y 0.000000 1.769840 0.000000 
#    z 0.000000 0.000000 1.793680 
# 
# From -- ./inp_files/36024.got.cif
#   From: 2010.03.12/outbox.cif.g09.slc.cpg/sg53_19_cif.got.tgz:36024.got - 2010.04.16 14:36:59.
