data_PCOD8221986
_publ_section_title
;
Structure prediction by ZEFSAII (Michael W. Deem and Ramdas Pophale) SiO2 
 PCOD8221986
Probable space group: P M N A
;
_chemical_formula_sum "Si O2"
_cell_formula_units_Z 40
_cell_length_a 10.160649
_cell_length_b 11.100838
_cell_length_c 18.938125
_cell_angle_alpha 90.000000
_cell_angle_beta 90.000000
_cell_angle_gamma 90.000000
_cell_volume 2136.063664
_symmetry_space_group_name_H-M "P M N A"
_symmetry_group_IT_number 53
_symmetry_cell_setting 'orthorhombic'
loop_
_space_group_symop_operation_xyz
x,y,z
1/2-x,-y,1/2+z
x,-y,-z
1/2-x,y,1/2-z
-x,-y,-z
1/2+x,y,1/2-z
-x,y,z
1/2+x,-y,1/2+z
loop_
_atom_site_type_symbol
_atom_site_label
_atom_site_fract_x
_atom_site_fract_y
_atom_site_fract_z
Si Si1 0.748724 0.725561 0.391472
Si Si2 0.500000 0.914777 0.933649
Si Si3 0.000000 0.162836 0.824417
Si Si4 0.351786 0.526327 0.917528
Si Si5 0.000000 0.868551 0.341035
Si Si6 0.000000 0.935188 0.924371
Si Si7 0.237952 0.767884 0.946773
O O1 0.628326 0.758733 0.341131
O O2 0.787264 0.586858 0.377491
O O3 0.872542 0.808359 0.374937
O O4 0.702273 0.747422 0.471501
O O5 0.375326 0.831310 0.937531
O O6 0.500000 0.991028 0.861655
O O7 0.500000 0.000000 0.000000
O O8 0.000000 0.136820 0.742271
O O9 0.000000 0.036241 0.864713
O O10 0.500000 0.549647 0.888028
O O11 0.254417 0.640250 0.906128
O O12 0.363586 0.500000 0.000000
O O13 0.125907 0.850295 0.912560
O O14 0.000000 0.000000 0.000000
#
# Coordination Sequence:
#
# PCOD8221986 Si02
#       7
#     8   4   4   8   4   4   8
#     4  11  20  38  60  85 121 150 192 249 304 349
#     4  12  20  33  61  88 115 149 207 247 290 348
#     4  12  26  39  55  85 125 161 198 237 295 366
#     4   9  18  33  58  90 115 137 184 246 294 339
#     4  12  24  37  59  85 117 161 200 245 295 352
#     4  12  22  39  57  82 131 163 191 243 296 358
#     4  11  20  35  61  91 116 152 192 253 301 342
#
# _framework density 18.726033000000001
#
# number of rings (size 3 to 8) (size 9 to 14) (size 15 to 20)
#    0.000    1.000    6.000    2.400    0.000    0.800 
#    0.000    3.000    0.000    7.200    0.000    0.000 
#    0.000    0.000    0.000    0.000    0.000    0.000 
#
# Total GULP energy -496062.222006 kJ/mol
# GULP energy per Si atom -12401.555550 kJ/mol
# Density = 1.868341 g / cm^3
# Si number density = 18.726033 Si / 1000 Ang^3
#
#
#
# Elastic Constant Matrix: (Units=GPa)
#
#
# Indices 1 2 3 4 5 6 
#
# 1 102.5266 29.7439 -2.4084 0.0000 0.0000 0.0000
# 2 29.7439 117.0212 16.8162 0.0000 0.0000 0.0000
# 3 -2.4084 16.8162 54.1988 0.0000 0.0000 0.0000
# 4 0.0000 0.0000 0.0000 18.3728 0.0000 0.0000
# 5 0.0000 0.0000 0.0000 0.0000 6.1972 0.0000
# 6 0.0000 0.0000 0.0000 0.0000 0.0000 40.6667
#
#
#
# Elastic Compliance Matrix: (Units=1/GPa)
#
#
# Indices 1 2 3 4 5 6 
#
# 1 0.010627 -0.002898 0.001371 0.000000 0.000000 0.000000
# 2 -0.002898 0.009735 -0.003149 0.000000 0.000000 0.000000
# 3 0.001371 -0.003149 0.019489 0.000000 0.000000 0.000000
# 4 0.000000 0.000000 0.000000 0.054428 0.000000 0.000000
# 5 0.000000 0.000000 0.000000 0.000000 0.161363 0.000000
# 6 0.000000 0.000000 0.000000 0.000000 0.000000 0.024590
#
#
# Mechanical properties :
#
#
# Convention : Reuss Voigt Hill
#
# Bulk Modulus (GPa) = 32.78890 40.22777 36.50834
# Shear Modulus (GPa) = 16.68066 28.35367 22.51717
#
# Velocity S-wave (km/s) = 2.98782 3.89541 3.47140
# Velocity P-wave (km/s) = 5.42684 6.46229 5.96706
#
# Compressibility (1/GPa) = 0.03049813
#
# Stress axis : x y z
#
# Youngs Moduli (GPa) = 94.10397 102.72615 51.31205
#
# Poissons Ratio (x) = 0.29771 -0.07037
# Poissons Ratio (y) = 0.27272 0.16159
# Poissons Ratio (z) = -0.12905 0.32350
#
# Static dielectric constant tensor:
#      x y z
#    x 3.478910 0.000000 0.000000 
#    y 0.000000 4.441030 0.000000 
#    z 0.000000 0.000000 3.129010 
# 
# 
# High freq. dielectric constant tensor:
#      x y z
#    x 1.740850 0.000000 0.000000 
#    y 0.000000 1.745020 0.000000 
#    z 0.000000 0.000000 1.681920 
# 
# From -- ./inp_files/30420.got.cif
#   From: 2010.03.12/outbox.cif.g09.slc.cpg/sg53_16_cif.got.tgz:30420.got - 2010.04.16 14:36:59.
