data_PCOD8221127
_publ_section_title
;
Structure prediction by ZEFSAII (Michael W. Deem and Ramdas Pophale) SiO2 
 PCOD8221127
Probable space group: P M N A
;
_chemical_formula_sum "Si O2"
_cell_formula_units_Z 64
_cell_length_a 22.148567
_cell_length_b 6.076086
_cell_length_c 22.695858
_cell_angle_alpha 90.000000
_cell_angle_beta 90.000000
_cell_angle_gamma 90.000000
_cell_volume 3054.331355
_symmetry_space_group_name_H-M "P M N A"
_symmetry_group_IT_number 53
_symmetry_cell_setting 'orthorhombic'
loop_
_space_group_symop_operation_xyz
x,y,z
1/2-x,-y,1/2+z
x,-y,-z
1/2-x,y,1/2-z
-x,-y,-z
1/2+x,y,1/2-z
-x,y,z
1/2+x,-y,1/2+z
loop_
_atom_site_type_symbol
_atom_site_label
_atom_site_fract_x
_atom_site_fract_y
_atom_site_fract_z
Si Si1 0.834390 0.736695 0.170467
Si Si2 0.564584 0.837515 0.175870
Si Si3 0.840692 0.890099 0.738734
Si Si4 0.810517 0.377328 0.554031
Si Si5 0.715722 0.023117 0.566590
Si Si6 0.930744 0.515235 0.767627
Si Si7 0.934844 0.208491 0.539274
Si Si8 0.743705 0.356356 0.150539
O O1 0.902855 0.664941 0.186468
O O2 0.790882 0.525717 0.180303
O O3 0.813960 0.941909 0.212253
O O4 0.829569 0.815466 0.102545
O O5 0.500000 0.929112 0.201360
O O6 0.572609 0.590473 0.202023
O O7 0.560343 0.853011 0.106863
O O8 0.622227 0.980678 0.190145
O O9 0.888075 0.727702 0.770523
O O10 0.785599 0.773384 0.704909
O O11 0.775727 0.500000 0.500000
O O12 0.879991 0.376122 0.533767
O O13 0.807131 0.508902 0.615309
O O14 0.781900 0.136158 0.562673
O O15 0.722171 0.796610 0.602575
O O16 0.689768 0.000000 0.500000
O O17 0.000000 0.570374 0.785695
O O18 0.000000 0.308287 0.519036
O O19 0.918801 0.000000 0.500000
#
# Coordination Sequence:
#
# PCOD8221127 Si02
#       8
#     8   8   8   8   8   8   8   8
#     4  10  25  41  62  95 127 159 205 263 311 379
#     4   9  19  36  55  81 116 156 209 263 306 362
#     4  11  22  38  62  90 121 165 205 254 315 372
#     4  11  22  36  58  85 117 159 216 264 310 374
#     4  11  22  41  64  89 122 162 205 254 323 384
#     4  10  21  40  64  90 122 162 207 255 316 383
#     4  10  21  36  53  76 114 162 216 274 323 361
#     4  11  24  40  62  92 128 170 207 264 318 380
#
# _framework density 20.953849000000002
#
# number of rings (size 3 to 8) (size 9 to 14) (size 15 to 20)
#    0.000    1.625    1.250    3.000    1.750    6.750 
#    0.000    0.625    0.000    0.375    0.000    3.500 
#    0.000    0.000    0.000    0.000    0.000    0.000 
#
# Total GULP energy -793005.497187 kJ/mol
# GULP energy per Si atom -12390.710894 kJ/mol
# Density = 2.090616 g / cm^3
# Si number density = 20.953849 Si / 1000 Ang^3
#
#
#
# Elastic Constant Matrix: (Units=GPa)
#
#
# Indices 1 2 3 4 5 6 
#
# 1 78.3084 49.1225 60.5188 0.0000 0.0000 0.0000
# 2 49.1225 102.4158 55.9035 0.0000 0.0000 0.0000
# 3 60.5188 55.9035 112.1425 0.0000 0.0000 0.0000
# 4 0.0000 0.0000 0.0000 38.6206 0.0000 0.0000
# 5 0.0000 0.0000 0.0000 0.0000 16.9792 0.0000
# 6 0.0000 0.0000 0.0000 0.0000 0.0000 25.7209
#
#
#
# Elastic Compliance Matrix: (Units=1/GPa)
#
#
# Indices 1 2 3 4 5 6 
#
# 1 0.024492 -0.006227 -0.010113 0.000000 0.000000 0.000000
# 2 -0.006227 0.014997 -0.004116 0.000000 0.000000 0.000000
# 3 -0.010113 -0.004116 0.016427 0.000000 0.000000 0.000000
# 4 0.000000 0.000000 0.000000 0.025893 0.000000 0.000000
# 5 0.000000 0.000000 0.000000 0.000000 0.058896 0.000000
# 6 0.000000 0.000000 0.000000 0.000000 0.000000 0.038879
#
#
# Mechanical properties :
#
#
# Convention : Reuss Voigt Hill
#
# Bulk Modulus (GPa) = 66.64858 69.32850 67.98854
# Shear Modulus (GPa) = 22.17328 24.75226 23.46277
#
# Velocity S-wave (km/s) = 3.25652 3.44070 3.34988
# Velocity P-wave (km/s) = 6.78353 6.99590 6.89053
#
# Compressibility (1/GPa) = 0.01500407
#
# Stress axis : x y z
#
# Youngs Moduli (GPa) = 40.82988 66.67796 60.87682
#
# Poissons Ratio (x) = 0.41521 0.61565
# Poissons Ratio (y) = 0.25425 0.25056
# Poissons Ratio (z) = 0.41292 0.27443
#
# Static dielectric constant tensor:
#      x y z
#    x 4.025520 0.000000 0.000000 
#    y 0.000000 3.919430 0.000000 
#    z 0.000000 0.000000 3.870960 
# 
# 
# High freq. dielectric constant tensor:
#      x y z
#    x 1.807380 0.000000 0.000000 
#    y 0.000000 1.828140 0.000000 
#    z 0.000000 0.000000 1.820780 
# 
# From -- ./inp_files/35738.got.cif
#   From: 2010.03.12/outbox.cif.g09.slc.cpg/sg53_18_cif.got.tgz:35738.got - 2010.04.16 14:36:59.
