data_PCOD8221417
_publ_section_title
;
Structure prediction by ZEFSAII (Michael W. Deem and Ramdas Pophale) SiO2 
 PCOD8221417
Probable space group: P M N A
;
_chemical_formula_sum "Si O2"
_cell_formula_units_Z 48
_cell_length_a 8.803321
_cell_length_b 16.762122
_cell_length_c 15.865034
_cell_angle_alpha 90.000000
_cell_angle_beta 90.000000
_cell_angle_gamma 90.000000
_cell_volume 2341.081551
_symmetry_space_group_name_H-M "P M N A"
_symmetry_group_IT_number 53
_symmetry_cell_setting 'orthorhombic'
loop_
_space_group_symop_operation_xyz
x,y,z
1/2-x,-y,1/2+z
x,-y,-z
1/2-x,y,1/2-z
-x,-y,-z
1/2+x,y,1/2-z
-x,y,z
1/2+x,-y,1/2+z
loop_
_atom_site_type_symbol
_atom_site_label
_atom_site_fract_x
_atom_site_fract_y
_atom_site_fract_z
Si Si1 0.180369 0.167753 0.900533
Si Si2 0.676750 0.687076 0.838011
Si Si3 0.178582 0.006003 0.161144
Si Si4 0.322875 0.848168 0.924580
Si Si5 0.819297 0.409757 0.498578
Si Si6 0.819096 0.680213 0.334072
O O1 0.247085 0.231376 0.835338
O O2 0.000000 0.174875 0.908512
O O3 0.231421 0.080693 0.869020
O O4 0.259941 0.187039 0.988789
O O5 0.750000 0.660681 0.750000
O O6 0.500000 0.669105 0.830779
O O7 0.707421 0.780883 0.854000
O O8 0.745206 0.635117 0.915517
O O9 0.250000 0.027993 0.250000
O O10 0.234051 0.070742 0.094121
O O11 0.000000 0.011654 0.169345
O O12 0.500000 0.867153 0.933304
O O13 0.758000 0.500000 0.500000
O O14 0.761568 0.367742 0.583991
O O15 0.000000 0.406862 0.496601
O O16 0.750000 0.638606 0.250000
O O17 0.000000 0.684291 0.328773
#
# Coordination Sequence:
#
# PCOD8221417 Si02
#       6
#     8   8   8   8   8   8
#     4  11  23  39  60  86 119 159 205 254 304 358
#     4  10  21  38  60  90 120 157 201 242 296 358
#     4  11  24  39  55  82 117 157 204 252 302 359
#     4  11  22  38  60  86 118 158 204 251 304 364
#     4   9  19  39  64  88 121 161 198 244 304 369
#     4  11  22  39  63  92 124 161 206 251 303 367
#
# _framework density 20.503344999999999
#
# number of rings (size 3 to 8) (size 9 to 14) (size 15 to 20)
#    0.000    1.500    1.667    3.500    0.000    9.333 
#    0.000    0.000    0.000    3.500    0.000    0.000 
#    0.000    0.000    0.000    0.000    0.000    0.000 
#
# Total GULP energy -595374.083464 kJ/mol
# GULP energy per Si atom -12403.626739 kJ/mol
# Density = 2.045668 g / cm^3
# Si number density = 20.503345 Si / 1000 Ang^3
#
#
#
# Elastic Constant Matrix: (Units=GPa)
#
#
# Indices 1 2 3 4 5 6 
#
# 1 48.3852 39.1315 29.5107 0.0000 0.0000 0.0000
# 2 39.1315 119.7267 52.6015 0.0000 0.0000 0.0000
# 3 29.5107 52.6015 151.6407 0.0000 0.0000 0.0000
# 4 0.0000 0.0000 0.0000 23.4957 0.0000 0.0000
# 5 0.0000 0.0000 0.0000 0.0000 37.7254 0.0000
# 6 0.0000 0.0000 0.0000 0.0000 0.0000 14.7480
#
#
#
# Elastic Compliance Matrix: (Units=1/GPa)
#
#
# Indices 1 2 3 4 5 6 
#
# 1 0.029057 -0.008274 -0.002785 0.000000 0.000000 0.000000
# 2 -0.008274 0.012210 -0.002625 0.000000 0.000000 0.000000
# 3 -0.002785 -0.002625 0.008047 0.000000 0.000000 0.000000
# 4 0.000000 0.000000 0.000000 0.042561 0.000000 0.000000
# 5 0.000000 0.000000 0.000000 0.000000 0.026507 0.000000
# 6 0.000000 0.000000 0.000000 0.000000 0.000000 0.067806
#
#
# Mechanical properties :
#
#
# Convention : Reuss Voigt Hill
#
# Bulk Modulus (GPa) = 45.56454 62.47112 54.01783
# Shear Modulus (GPa) = 22.63762 28.42776 25.53269
#
# Velocity S-wave (km/s) = 3.32640 3.72760 3.53270
# Velocity P-wave (km/s) = 6.08477 7.00440 6.56072
#
# Compressibility (1/GPa) = 0.02194689
#
# Stress axis : x y z
#
# Youngs Moduli (GPa) = 34.41482 81.90076 124.26735
#
# Poissons Ratio (x) = 0.67761 0.34607
# Poissons Ratio (y) = 0.28473 0.32624
# Poissons Ratio (z) = 0.09584 0.21501
#
# Static dielectric constant tensor:
#      x y z
#    x 3.486820 0.000000 0.000000 
#    y 0.000000 3.778120 0.000000 
#    z 0.000000 0.000000 3.890860 
# 
# 
# High freq. dielectric constant tensor:
#      x y z
#    x 1.786260 0.000000 0.000000 
#    y 0.000000 1.800960 0.000000 
#    z 0.000000 0.000000 1.817560 
# 
# From -- ./inp_files/20159.got.cif
#   From: 2010.03.12/outbox.cif.g09.slc.cpg/sg53_11_cif.got.tgz:20159.got - 2010.04.16 14:36:59.
