data_PCOD8221200
_publ_section_title
;
Structure prediction by ZEFSAII (Michael W. Deem and Ramdas Pophale) SiO2 
 PCOD8221200
Probable space group: P M N A
;
_chemical_formula_sum "Si O2"
_cell_formula_units_Z 64
_cell_length_a 9.007581
_cell_length_b 14.249815
_cell_length_c 25.633800
_cell_angle_alpha 90.000000
_cell_angle_beta 90.000000
_cell_angle_gamma 90.000000
_cell_volume 3290.261334
_symmetry_space_group_name_H-M "P M N A"
_symmetry_group_IT_number 53
_symmetry_cell_setting 'orthorhombic'
loop_
_space_group_symop_operation_xyz
x,y,z
1/2-x,-y,1/2+z
x,-y,-z
1/2-x,y,1/2-z
-x,-y,-z
1/2+x,y,1/2-z
-x,y,z
1/2+x,-y,1/2+z
loop_
_atom_site_type_symbol
_atom_site_label
_atom_site_fract_x
_atom_site_fract_y
_atom_site_fract_z
Si Si1 0.674215 0.909336 0.303645
Si Si2 0.170965 0.402622 0.602571
Si Si3 0.175117 0.283181 0.503695
Si Si4 0.828373 0.378533 0.396779
Si Si5 0.824317 0.088448 0.137352
Si Si6 0.675875 0.100180 0.478730
Si Si7 0.676223 0.273166 0.305057
Si Si8 0.174543 0.302138 0.804588
O O1 0.750000 0.935962 0.250000
O O2 0.500000 0.918890 0.295117
O O3 0.716863 0.804309 0.321621
O O4 0.733004 0.985719 0.345216
O O5 0.226975 0.350221 0.550631
O O6 0.194456 0.511989 0.593067
O O7 0.268622 0.371991 0.651522
O O8 0.000000 0.378356 0.614502
O O9 0.228993 0.326580 0.448803
O O10 0.250910 0.182333 0.512824
O O11 0.000000 0.271072 0.503976
O O12 0.730045 0.348023 0.347661
O O13 0.000000 0.354730 0.385217
O O14 0.761626 0.109974 0.080059
O O15 0.771374 0.169229 0.177134
O O16 0.000000 0.087409 0.133959
O O17 0.500000 0.110802 0.482683
O O18 0.728351 0.000000 0.500000
O O19 0.750000 0.297502 0.250000
O O20 0.500000 0.280492 0.299568
O O21 0.250000 0.328584 0.750000
O O22 0.000000 0.314562 0.797483
#
# Coordination Sequence:
#
# PCOD8221200 Si02
#       8
#     8   8   8   8   8   8   8   8
#     4   9  18  33  53  77 107 142 182 224 270 327
#     4  10  22  39  61  86 113 148 191 238 289 347
#     4  10  21  39  62  87 117 149 189 239 289 341
#     4  10  21  40  62  84 112 150 192 237 293 347
#     4   9  18  34  54  80 113 148 186 229 277 334
#     4  10  21  36  58  85 118 156 189 228 283 341
#     4  11  22  37  59  86 118 153 195 242 291 345
#     4  10  21  37  59  85 116 151 189 235 286 339
#
# _framework density 19.451342
#
# number of rings (size 3 to 8) (size 9 to 14) (size 15 to 20)
#    0.000    2.125    1.250    1.500    1.750    3.750 
#    0.000    1.250    0.000    2.250    0.000    0.000 
#    0.000    0.000    0.000    0.000    0.000    0.000 
#
# Total GULP energy -793728.359778 kJ/mol
# GULP energy per Si atom -12402.005622 kJ/mol
# Density = 1.940707 g / cm^3
# Si number density = 19.451342 Si / 1000 Ang^3
#
#
#
# Elastic Constant Matrix: (Units=GPa)
#
#
# Indices 1 2 3 4 5 6 
#
# 1 48.0240 34.8904 42.3885 0.0000 0.0000 0.0000
# 2 34.8904 112.5489 53.0048 0.0000 0.0000 0.0000
# 3 42.3885 53.0048 122.8481 0.0000 0.0000 0.0000
# 4 0.0000 0.0000 0.0000 35.1608 0.0000 0.0000
# 5 0.0000 0.0000 0.0000 0.0000 25.5607 0.0000
# 6 0.0000 0.0000 0.0000 0.0000 0.0000 27.2420
#
#
#
# Elastic Compliance Matrix: (Units=1/GPa)
#
#
# Indices 1 2 3 4 5 6 
#
# 1 0.032976 -0.006105 -0.008745 0.000000 0.000000 0.000000
# 2 -0.006105 0.012281 -0.003192 0.000000 0.000000 0.000000
# 3 -0.008745 -0.003192 0.012535 0.000000 0.000000 0.000000
# 4 0.000000 0.000000 0.000000 0.028441 0.000000 0.000000
# 5 0.000000 0.000000 0.000000 0.000000 0.039123 0.000000
# 6 0.000000 0.000000 0.000000 0.000000 0.000000 0.036708
#
#
# Mechanical properties :
#
#
# Convention : Reuss Voigt Hill
#
# Bulk Modulus (GPa) = 46.06356 60.44313 53.25335
# Shear Modulus (GPa) = 24.34479 27.80185 26.07332
#
# Velocity S-wave (km/s) = 3.54160 3.78471 3.66517
# Velocity P-wave (km/s) = 6.36056 7.08803 6.73413
#
# Compressibility (1/GPa) = 0.02170913
#
# Stress axis : x y z
#
# Youngs Moduli (GPa) = 30.32478 81.42711 79.77755
#
# Poissons Ratio (x) = 0.49707 0.69762
# Poissons Ratio (y) = 0.18512 0.25469
# Poissons Ratio (z) = 0.26518 0.25995
#
# Static dielectric constant tensor:
#      x y z
#    x 3.340410 0.000000 0.000000 
#    y 0.000000 3.663720 0.000000 
#    z 0.000000 0.000000 3.781390 
# 
# 
# High freq. dielectric constant tensor:
#      x y z
#    x 1.738650 0.000000 0.000000 
#    y 0.000000 1.767750 0.000000 
#    z 0.000000 0.000000 1.762440 
# 
# From -- ./inp_files/34334.got.cif
#   From: 2010.03.12/outbox.cif.g09.slc.cpg/sg53_18_cif.got.tgz:34334.got - 2010.04.16 14:36:59.
