data_PCOD8221847
_publ_section_title
;
Structure prediction by ZEFSAII (Michael W. Deem and Ramdas Pophale) SiO2 
 PCOD8221847
Probable space group: P M N A
;
_chemical_formula_sum "Si O2"
_cell_formula_units_Z 64
_cell_length_a 8.827979
_cell_length_b 14.929704
_cell_length_c 23.829599
_cell_angle_alpha 90.000000
_cell_angle_beta 90.000000
_cell_angle_gamma 90.000000
_cell_volume 3140.720021
_symmetry_space_group_name_H-M "P M N A"
_symmetry_group_IT_number 53
_symmetry_cell_setting 'orthorhombic'
loop_
_space_group_symop_operation_xyz
x,y,z
1/2-x,-y,1/2+z
x,-y,-z
1/2-x,y,1/2-z
-x,-y,-z
1/2+x,y,1/2-z
-x,y,z
1/2+x,-y,1/2+z
loop_
_atom_site_type_symbol
_atom_site_label
_atom_site_fract_x
_atom_site_fract_y
_atom_site_fract_z
Si Si1 0.332989 0.397236 0.983632
Si Si2 0.819611 0.012846 0.310489
Si Si3 0.176732 0.838560 0.878757
Si Si4 0.324302 0.355950 0.407121
Si Si5 0.823838 0.707382 0.193160
Si Si6 0.678255 0.548457 0.376280
Si Si7 0.674062 0.105691 0.005397
Si Si8 0.179315 0.863989 0.110625
O O1 0.500000 0.358015 0.972357
O O2 0.233972 0.391273 0.928010
O O3 0.341691 0.500000 0.000000
O O4 0.258656 0.340334 0.033648
O O5 0.750000 0.988900 0.250000
O O6 0.769364 0.112365 0.329452
O O7 0.000000 0.006523 0.307037
O O8 0.757521 0.946963 0.358094
O O9 0.202488 0.731788 0.869208
O O10 0.000000 0.863543 0.874005
O O11 0.234731 0.865226 0.939897
O O12 0.500000 0.369734 0.421002
O O13 0.259919 0.445764 0.375749
O O14 0.750000 0.741147 0.250000
O O15 0.770671 0.605384 0.178321
O O16 0.777802 0.774324 0.143721
O O17 0.000000 0.710825 0.203739
O O18 0.500000 0.546675 0.380562
O O19 0.500000 0.137539 0.009987
O O20 0.752149 0.149756 0.951141
O O21 0.684421 0.000000 0.000000
O O22 0.000000 0.881535 0.107164
#
# Coordination Sequence:
#
# PCOD8221847 Si02
#       8
#     8   8   8   8   8   8   8   8
#     4   9  17  29  48  78 111 143 184 233 283 337
#     4  12  25  43  65  89 117 155 199 246 299 356
#     4  11  23  39  61  90 123 161 203 249 299 357
#     4   9  19  35  57  82 114 155 195 236 289 349
#     4  10  23  40  60  86 116 153 199 247 298 356
#     4   9  18  36  57  79 111 151 194 238 286 348
#     4  11  23  39  60  90 125 162 200 244 302 363
#     4  11  23  40  63  91 121 157 199 246 298 359
#
# _framework density 20.377492
#
# number of rings (size 3 to 8) (size 9 to 14) (size 15 to 20)
#    0.000    1.750    1.250    3.000    1.750    5.500 
#    0.000    0.625    0.000    1.500    0.000    0.000 
#    0.000    0.000    0.000    0.000    0.000    0.000 
#
# Total GULP energy -793491.617461 kJ/mol
# GULP energy per Si atom -12398.306523 kJ/mol
# Density = 2.033111 g / cm^3
# Si number density = 20.377492 Si / 1000 Ang^3
#
#
#
# Elastic Constant Matrix: (Units=GPa)
#
#
# Indices 1 2 3 4 5 6 
#
# 1 59.7572 26.9257 20.5353 0.0000 0.0000 0.0000
# 2 26.9257 74.9921 10.3217 0.0000 0.0000 0.0000
# 3 20.5353 10.3217 74.1257 0.0000 0.0000 0.0000
# 4 0.0000 0.0000 0.0000 38.3904 0.0000 0.0000
# 5 0.0000 0.0000 0.0000 0.0000 31.5096 0.0000
# 6 0.0000 0.0000 0.0000 0.0000 0.0000 17.3605
#
#
#
# Elastic Compliance Matrix: (Units=1/GPa)
#
#
# Indices 1 2 3 4 5 6 
#
# 1 0.021648 -0.007083 -0.005011 0.000000 0.000000 0.000000
# 2 -0.007083 0.015913 -0.000254 0.000000 0.000000 0.000000
# 3 -0.005011 -0.000254 0.014914 0.000000 0.000000 0.000000
# 4 0.000000 0.000000 0.000000 0.026048 0.000000 0.000000
# 5 0.000000 0.000000 0.000000 0.000000 0.031736 0.000000
# 6 0.000000 0.000000 0.000000 0.000000 0.000000 0.057602
#
#
# Mechanical properties :
#
#
# Convention : Reuss Voigt Hill
#
# Bulk Modulus (GPa) = 35.99728 36.04892 36.02310
# Shear Modulus (GPa) = 24.77506 27.52493 26.14999
#
# Velocity S-wave (km/s) = 3.49062 3.67924 3.58617
# Velocity P-wave (km/s) = 5.82662 5.98148 5.90456
#
# Compressibility (1/GPa) = 0.02777988
#
# Stress axis : x y z
#
# Youngs Moduli (GPa) = 46.19403 62.84282 67.05061
#
# Poissons Ratio (x) = 0.44511 0.33599
# Poissons Ratio (y) = 0.32719 0.01700
# Poissons Ratio (z) = 0.23147 0.01594
#
# Static dielectric constant tensor:
#      x y z
#    x 3.796210 0.000000 0.000000 
#    y 0.000000 4.090190 0.000000 
#    z 0.000000 0.000000 3.627120 
# 
# 
# High freq. dielectric constant tensor:
#      x y z
#    x 1.798630 0.000000 0.000000 
#    y 0.000000 1.807400 0.000000 
#    z 0.000000 0.000000 1.779870 
# 
# From -- ./inp_files/34250.got.cif
#   From: 2010.03.12/outbox.cif.g09.slc.cpg/sg53_18_cif.got.tgz:34250.got - 2010.04.16 14:36:59.
