data_PCOD8221679
_publ_section_title
;
Structure prediction by ZEFSAII (Michael W. Deem and Ramdas Pophale) SiO2 
 PCOD8221679
Probable space group: P M N A
;
_chemical_formula_sum "Si O2"
_cell_formula_units_Z 60
_cell_length_a 8.998708
_cell_length_b 10.749698
_cell_length_c 31.090167
_cell_angle_alpha 90.000000
_cell_angle_beta 90.000000
_cell_angle_gamma 90.000000
_cell_volume 3007.457355
_symmetry_space_group_name_H-M "P M N A"
_symmetry_group_IT_number 53
_symmetry_cell_setting 'orthorhombic'
loop_
_space_group_symop_operation_xyz
x,y,z
1/2-x,-y,1/2+z
x,-y,-z
1/2-x,y,1/2-z
-x,-y,-z
1/2+x,y,1/2-z
-x,y,z
1/2+x,-y,1/2+z
loop_
_atom_site_type_symbol
_atom_site_label
_atom_site_fract_x
_atom_site_fract_y
_atom_site_fract_z
Si Si1 0.824948 0.445296 0.291296
Si Si2 0.835263 0.047026 0.333133
Si Si3 0.670874 0.199087 0.880987
Si Si4 0.176350 0.624435 0.556013
Si Si5 0.326911 0.349602 0.961150
Si Si6 0.337183 0.313618 0.694530
Si Si7 0.750000 0.902715 0.250000
Si Si8 0.675276 0.714541 0.638937
O O1 0.750000 0.376748 0.250000
O O2 0.785459 0.591259 0.287222
O O3 0.755152 0.394875 0.334968
O O4 0.000000 0.424114 0.290511
O O5 0.713985 0.153845 0.339013
O O6 0.000000 0.104309 0.338724
O O7 0.806271 0.946086 0.370723
O O8 0.831429 0.988100 0.285263
O O9 0.500000 0.237603 0.870704
O O10 0.710776 0.232106 0.930506
O O11 0.783551 0.278409 0.852833
O O12 0.232971 0.674352 0.509342
O O13 0.228640 0.479953 0.559595
O O14 0.263826 0.707597 0.590555
O O15 0.000000 0.641434 0.563429
O O16 0.500000 0.369209 0.967261
O O17 0.500000 0.377355 0.691636
O O18 0.357393 0.190085 0.723683
O O19 0.500000 0.696149 0.640026
#
# Coordination Sequence:
#
# PCOD8221679 Si02
#       8
#     8   8   8   8   8   8   4   8
#     4  12  25  41  61  85 115 150 190 236 289 349
#     4  10  22  39  59  81 110 156 207 248 291 343
#     4   9  18  34  57  86 118 155 198 242 289 343
#     4   9  17  34  61  90 119 152 189 236 294 355
#     4   8  15  31  60  93 119 147 189 237 291 354
#     4  11  21  35  58  89 123 153 186 232 291 346
#     4  10  22  38  62  84 116 148 202 244 292 338
#     4  12  26  42  58  81 116 156 198 243 294 351
#
# _framework density 19.950409000000001
#
# number of rings (size 3 to 8) (size 9 to 14) (size 15 to 20)
#    0.000    1.867    0.667    4.800    0.933    4.800 
#    0.000    2.667    0.000    4.000    0.000    0.000 
#    0.000    0.000    0.000    0.000    0.000    0.000 
#
# Total GULP energy -743663.611876 kJ/mol
# GULP energy per Si atom -12394.393531 kJ/mol
# Density = 1.990500 g / cm^3
# Si number density = 19.950409 Si / 1000 Ang^3
#
#
#
# Elastic Constant Matrix: (Units=GPa)
#
#
# Indices 1 2 3 4 5 6 
#
# 1 120.9570 29.9573 44.3521 0.0000 0.0000 0.0000
# 2 29.9573 75.8313 48.1320 0.0000 0.0000 0.0000
# 3 44.3521 48.1320 130.4412 0.0000 0.0000 0.0000
# 4 0.0000 0.0000 0.0000 29.6627 0.0000 0.0000
# 5 0.0000 0.0000 0.0000 0.0000 23.6340 0.0000
# 6 0.0000 0.0000 0.0000 0.0000 0.0000 22.3901
#
#
#
# Elastic Compliance Matrix: (Units=1/GPa)
#
#
# Indices 1 2 3 4 5 6 
#
# 1 0.009738 -0.002279 -0.002470 0.000000 0.000000 0.000000
# 2 -0.002279 0.017754 -0.005776 0.000000 0.000000 0.000000
# 3 -0.002470 -0.005776 0.010637 0.000000 0.000000 0.000000
# 4 0.000000 0.000000 0.000000 0.033712 0.000000 0.000000
# 5 0.000000 0.000000 0.000000 0.000000 0.042312 0.000000
# 6 0.000000 0.000000 0.000000 0.000000 0.000000 0.044663
#
#
# Mechanical properties :
#
#
# Convention : Reuss Voigt Hill
#
# Bulk Modulus (GPa) = 58.55325 63.56802 61.06063
# Shear Modulus (GPa) = 26.94564 28.78989 27.86777
#
# Velocity S-wave (km/s) = 3.67908 3.80290 3.74150
# Velocity P-wave (km/s) = 6.88917 7.15646 7.02409
#
# Compressibility (1/GPa) = 0.01707847
#
# Stress axis : x y z
#
# Youngs Moduli (GPa) = 102.69538 56.32607 94.00744
#
# Poissons Ratio (x) = 0.12837 0.23219
# Poissons Ratio (y) = 0.23405 0.54300
# Poissons Ratio (z) = 0.25365 0.32534
#
# Static dielectric constant tensor:
#      x y z
#    x 3.394440 0.000000 0.000000 
#    y 0.000000 3.434760 0.000000 
#    z 0.000000 0.000000 3.828200 
# 
# 
# High freq. dielectric constant tensor:
#      x y z
#    x 1.759760 0.000000 0.000000 
#    y 0.000000 1.760350 0.000000 
#    z 0.000000 0.000000 1.787470 
# 
# From -- ./inp_files/38090.got.cif
#   From: 2010.03.12/outbox.cif.g09.slc.cpg/sg53_20_cif.got.tgz:38090.got - 2010.04.16 14:36:59.
