data_PCOD8221260
_publ_section_title
;
Structure prediction by ZEFSAII (Michael W. Deem and Ramdas Pophale) SiO2 
 PCOD8221260
Probable space group: P M N A
;
_chemical_formula_sum "Si O2"
_cell_formula_units_Z 40
_cell_length_a 8.942611
_cell_length_b 25.710295
_cell_length_c 8.910232
_cell_angle_alpha 90.000000
_cell_angle_beta 90.000000
_cell_angle_gamma 90.000000
_cell_volume 2048.615298
_symmetry_space_group_name_H-M "P M N A"
_symmetry_group_IT_number 53
_symmetry_cell_setting 'orthorhombic'
loop_
_space_group_symop_operation_xyz
x,y,z
1/2-x,-y,1/2+z
x,-y,-z
1/2-x,y,1/2-z
-x,-y,-z
1/2+x,y,1/2-z
-x,y,z
1/2+x,-y,1/2+z
loop_
_atom_site_type_symbol
_atom_site_label
_atom_site_fract_x
_atom_site_fract_y
_atom_site_fract_z
Si Si1 0.324356 0.347593 0.591462
Si Si2 0.176704 0.051342 0.411898
Si Si3 0.825983 0.548964 0.908622
Si Si4 0.676194 0.744670 0.911578
Si Si5 0.825421 0.151868 0.590333
O O1 0.250000 0.357908 0.750000
O O2 0.500000 0.336833 0.609636
O O3 0.290367 0.398156 0.494204
O O4 0.247151 0.298415 0.517013
O O5 0.250000 0.052168 0.250000
O O6 0.235177 0.100239 0.508348
O O7 0.000000 0.053531 0.389582
O O8 0.227899 0.000000 0.500000
O O9 0.750000 0.552363 0.750000
O O10 0.000000 0.540624 0.881828
O O11 0.759547 0.500000 0.000000
O O12 0.750000 0.741556 0.750000
O O13 0.500000 0.734990 0.896568
O O14 0.713946 0.800160 0.983289
O O15 0.750000 0.159644 0.750000
O O16 0.000000 0.147363 0.620720
#
# Coordination Sequence:
#
# PCOD8221260 Si02
#       5
#     8   8   8   8   8
#     4  11  23  39  60  86 116 150 190 234 282 336
#     4  10  21  37  57  83 113 145 185 230 277 331
#     4  10  22  39  59  85 115 148 187 231 280 334
#     4  11  23  39  59  84 115 150 190 234 282 336
#     4  10  22  38  57  83 113 147 187 231 279 333
#
# _framework density 19.525383000000001
#
# number of rings (size 3 to 8) (size 9 to 14) (size 15 to 20)
#    0.000    1.600    0.000    4.200    0.000    8.000 
#    0.000    0.000    0.000    0.000    0.000    0.000 
#    0.000    0.000    0.000    0.000    0.000    0.000 
#
# Total GULP energy -496206.064078 kJ/mol
# GULP energy per Si atom -12405.151602 kJ/mol
# Density = 1.948094 g / cm^3
# Si number density = 19.525383 Si / 1000 Ang^3
#
#
#
# Elastic Constant Matrix: (Units=GPa)
#
#
# Indices 1 2 3 4 5 6 
#
# 1 62.2858 54.9379 58.0731 0.0000 0.0000 0.0000
# 2 54.9379 116.6334 29.8283 0.0000 0.0000 0.0000
# 3 58.0731 29.8283 134.9446 0.0000 0.0000 0.0000
# 4 0.0000 0.0000 0.0000 39.7561 0.0000 0.0000
# 5 0.0000 0.0000 0.0000 0.0000 53.5762 0.0000
# 6 0.0000 0.0000 0.0000 0.0000 0.0000 29.1579
#
#
#
# Elastic Compliance Matrix: (Units=1/GPa)
#
#
# Indices 1 2 3 4 5 6 
#
# 1 0.047201 -0.018059 -0.016321 0.000000 0.000000 0.000000
# 2 -0.018059 0.015997 0.004236 0.000000 0.000000 0.000000
# 3 -0.016321 0.004236 0.013498 0.000000 0.000000 0.000000
# 4 0.000000 0.000000 0.000000 0.025153 0.000000 0.000000
# 5 0.000000 0.000000 0.000000 0.000000 0.018665 0.000000
# 6 0.000000 0.000000 0.000000 0.000000 0.000000 0.034296
#
#
# Mechanical properties :
#
#
# Convention : Reuss Voigt Hill
#
# Bulk Modulus (GPa) = 60.94961 66.61582 63.78271
# Shear Modulus (GPa) = 22.66883 35.89967 29.28425
#
# Velocity S-wave (km/s) = 3.41103 4.29256 3.87693
# Velocity P-wave (km/s) = 6.84082 7.66549 7.26487
#
# Compressibility (1/GPa) = 0.01640700
#
# Stress axis : x y z
#
# Youngs Moduli (GPa) = 21.18617 62.51184 74.08594
#
# Poissons Ratio (x) = 1.12890 1.20915
# Poissons Ratio (y) = 0.38260 -0.31380
# Poissons Ratio (z) = 0.34578 -0.26478
#
# Static dielectric constant tensor:
#      x y z
#    x 3.581170 0.000000 0.000000 
#    y 0.000000 3.824680 0.000000 
#    z 0.000000 0.000000 3.589160 
# 
# 
# High freq. dielectric constant tensor:
#      x y z
#    x 1.759530 0.000000 0.000000 
#    y 0.000000 1.783630 0.000000 
#    z 0.000000 0.000000 1.779030 
# 
# From -- ./inp_files/6267.got.cif
#   From: 2010.03.12/outbox.cif.g09.slc.cpg/sg53_4_cif.got.tgz:6267.got - 2010.04.16 14:36:59.
