data_PCOD8221290
_publ_section_title
;
Structure prediction by ZEFSAII (Michael W. Deem and Ramdas Pophale) SiO2 
 PCOD8221290
Probable space group: P M N A
;
_chemical_formula_sum "Si O2"
_cell_formula_units_Z 64
_cell_length_a 17.132086
_cell_length_b 14.323558
_cell_length_c 12.197591
_cell_angle_alpha 90.000000
_cell_angle_beta 90.000000
_cell_angle_gamma 90.000000
_cell_volume 2993.196465
_symmetry_space_group_name_H-M "P M N A"
_symmetry_group_IT_number 53
_symmetry_cell_setting 'orthorhombic'
loop_
_space_group_symop_operation_xyz
x,y,z
1/2-x,-y,1/2+z
x,-y,-z
1/2-x,y,1/2-z
-x,-y,-z
1/2+x,y,1/2-z
-x,y,z
1/2+x,-y,1/2+z
loop_
_atom_site_type_symbol
_atom_site_label
_atom_site_fract_x
_atom_site_fract_y
_atom_site_fract_z
Si Si1 0.324887 0.419385 0.072765
Si Si2 0.162130 0.362977 0.134581
Si Si3 0.414760 0.744622 0.453027
Si Si4 0.407063 0.194401 0.228839
Si Si5 0.407981 0.753749 0.011421
Si Si6 0.914454 0.069611 0.085917
Si Si7 0.840908 0.732522 0.265379
Si Si8 0.909085 0.527070 0.249130
O O1 0.256105 0.371913 0.143828
O O2 0.369909 0.347617 0.996037
O O3 0.392512 0.463791 0.145759
O O4 0.284973 0.500000 0.000000
O O5 0.133171 0.288726 0.226476
O O6 0.121863 0.464109 0.148284
O O7 0.141868 0.329989 0.011205
O O8 0.500000 0.698256 0.435441
O O9 0.423644 0.831336 0.531243
O O10 0.381327 0.781563 0.338313
O O11 0.500000 0.205125 0.245906
O O12 0.387488 0.185319 0.098079
O O13 0.377334 0.099757 0.294659
O O14 0.500000 0.745963 0.027198
O O15 0.370067 0.789251 0.125870
O O16 0.000000 0.023632 0.106747
O O17 0.868227 0.000000 0.000000
O O18 0.750000 0.745668 0.250000
O O19 0.862881 0.623622 0.258788
O O20 0.000000 0.548520 0.237748
#
# Coordination Sequence:
#
# PCOD8221290 Si02
#       8
#     8   8   8   8   8   8   8   8
#     4  12  24  36  52  78 111 150 209 252 298 354
#     4  11  22  36  54  81 115 151 190 253 308 355
#     4  10  21  37  58  84 115 149 187 231 292 366
#     4   9  18  34  58  87 117 150 194 242 298 361
#     4  11  22  37  57  78 110 155 203 255 301 350
#     4   8  15  32  61  95 122 142 175 229 288 352
#     4  12  25  40  53  77 109 155 210 251 304 354
#     4  12  24  37  55  75 106 153 205 259 306 351
#
# _framework density 21.381824000000002
#
# number of rings (size 3 to 8) (size 9 to 14) (size 15 to 20)
#    0.000    1.375    2.500    5.250    1.750    0.500 
#    0.000    1.250    0.000    0.750    9.750    4.375 
#    0.000    0.000    0.000    0.000    0.000    7.000 
#
# Total GULP energy -792849.532192 kJ/mol
# GULP energy per Si atom -12388.273941 kJ/mol
# Density = 2.133316 g / cm^3
# Si number density = 21.381824 Si / 1000 Ang^3
#
#
#
# Elastic Constant Matrix: (Units=GPa)
#
#
# Indices 1 2 3 4 5 6 
#
# 1 86.3887 8.8665 35.5064 0.0000 0.0000 0.0000
# 2 8.8665 39.8548 20.7194 0.0000 0.0000 0.0000
# 3 35.5064 20.7194 159.7187 0.0000 0.0000 0.0000
# 4 0.0000 0.0000 0.0000 15.6646 0.0000 0.0000
# 5 0.0000 0.0000 0.0000 0.0000 0.8620 0.0000
# 6 0.0000 0.0000 0.0000 0.0000 0.0000 10.3805
#
#
#
# Elastic Compliance Matrix: (Units=1/GPa)
#
#
# Indices 1 2 3 4 5 6 
#
# 1 0.012819 -0.001469 -0.002659 0.000000 0.000000 0.000000
# 2 -0.001469 0.027074 -0.003185 0.000000 0.000000 0.000000
# 3 -0.002659 -0.003185 0.007265 0.000000 0.000000 0.000000
# 4 0.000000 0.000000 0.000000 0.063838 0.000000 0.000000
# 5 0.000000 0.000000 0.000000 0.000000 1.160099 0.000000
# 6 0.000000 0.000000 0.000000 0.000000 0.000000 0.096335
#
#
# Mechanical properties :
#
#
# Convention : Reuss Voigt Hill
#
# Bulk Modulus (GPa) = 30.74039 46.23852 38.48945
# Shear Modulus (GPa) = 3.58963 20.10608 11.84786
#
# Velocity S-wave (km/s) = 1.29710 3.06982 2.35651
# Velocity P-wave (km/s) = 4.08061 5.85125 5.04423
#
# Compressibility (1/GPa) = 0.03253050
#
# Stress axis : x y z
#
# Youngs Moduli (GPa) = 78.00709 36.93573 137.63877
#
# Poissons Ratio (x) = 0.05428 0.36601
# Poissons Ratio (y) = 0.11463 0.43845
# Poissons Ratio (z) = 0.20744 0.11766
#
# Static dielectric constant tensor:
#      x y z
#    x 3.755130 0.000000 0.000000 
#    y 0.000000 3.609700 0.000000 
#    z 0.000000 0.000000 4.503410 
# 
# 
# High freq. dielectric constant tensor:
#      x y z
#    x 1.825620 0.000000 0.000000 
#    y 0.000000 1.790180 0.000000 
#    z 0.000000 0.000000 1.864390 
# 
# From -- ./inp_files/17087.got.cif
#   From: 2010.03.12/outbox.cif.g09.slc.cpg/sg53_9_cif.got.tgz:17087.got - 2010.04.16 14:36:59.
