data_PCOD8221035
_publ_section_title
;
Structure prediction by ZEFSAII (Michael W. Deem and Ramdas Pophale) SiO2 
 PCOD8221035
Probable space group: P M N A
;
_chemical_formula_sum "Si O2"
_cell_formula_units_Z 48
_cell_length_a 18.026518
_cell_length_b 13.729539
_cell_length_c 9.229613
_cell_angle_alpha 90.000000
_cell_angle_beta 90.000000
_cell_angle_gamma 90.000000
_cell_volume 2284.290286
_symmetry_space_group_name_H-M "P M N A"
_symmetry_group_IT_number 53
_symmetry_cell_setting 'orthorhombic'
loop_
_space_group_symop_operation_xyz
x,y,z
1/2-x,-y,1/2+z
x,-y,-z
1/2-x,y,1/2-z
-x,-y,-z
1/2+x,y,1/2-z
-x,y,z
1/2+x,-y,1/2+z
loop_
_atom_site_type_symbol
_atom_site_label
_atom_site_fract_x
_atom_site_fract_y
_atom_site_fract_z
Si Si1 0.815905 0.554644 0.141794
Si Si2 0.415129 0.727795 0.474306
Si Si3 0.414387 0.555444 0.859206
Si Si4 0.681425 0.951535 0.851290
Si Si5 0.914682 0.770804 0.697487
Si Si6 0.584484 0.939862 0.363109
O O1 0.750000 0.584836 0.250000
O O2 0.860908 0.650289 0.097891
O O3 0.870380 0.477695 0.217704
O O4 0.783581 0.500000 0.000000
O O5 0.500000 0.688522 0.473718
O O6 0.390261 0.753577 0.636760
O O7 0.407829 0.824917 0.380598
O O8 0.500000 0.530606 0.829827
O O9 0.402950 0.670080 0.888585
O O10 0.384161 0.500000 0.000000
O O11 0.750000 0.925143 0.750000
O O12 0.635965 0.852017 0.878012
O O13 0.629583 0.032143 0.778552
O O14 0.709479 0.000000 0.000000
O O15 0.000000 0.805461 0.691151
O O16 0.500000 0.972131 0.338560
O O17 0.616354 0.000000 0.500000
#
# Coordination Sequence:
#
# PCOD8221035 Si02
#       6
#     8   8   8   8   8   8
#     4  12  25  42  63  95 134 176 221 266 322 391
#     4  10  21  40  71 101 127 168 220 271 323 387
#     4  10  22  42  68  97 133 168 212 273 326 381
#     4  12  27  44  64  94 134 176 218 267 328 396
#     4  10  21  42  72 100 125 169 220 269 330 385
#     4  10  20  40  69  97 128 163 210 268 323 382
#
# _framework density 21.013090999999999
#
# number of rings (size 3 to 8) (size 9 to 14) (size 15 to 20)
#    0.000    1.333    3.333    2.000    0.000    4.667 
#    3.000    3.333    0.000    0.000    0.000    0.000 
#    0.000    0.000    0.000    0.000    0.000    0.000 
#
# Total GULP energy -595388.541282 kJ/mol
# GULP energy per Si atom -12403.927943 kJ/mol
# Density = 2.096526 g / cm^3
# Si number density = 21.013091 Si / 1000 Ang^3
#
#
#
# Elastic Constant Matrix: (Units=GPa)
#
#
# Indices 1 2 3 4 5 6 
#
# 1 86.6826 47.8232 40.1105 0.0000 0.0000 0.0000
# 2 47.8232 113.7440 41.8232 0.0000 0.0000 0.0000
# 3 40.1105 41.8232 100.8189 0.0000 0.0000 0.0000
# 4 0.0000 0.0000 0.0000 37.0111 0.0000 0.0000
# 5 0.0000 0.0000 0.0000 0.0000 17.0762 0.0000
# 6 0.0000 0.0000 0.0000 0.0000 0.0000 7.8369
#
#
#
# Elastic Compliance Matrix: (Units=1/GPa)
#
#
# Indices 1 2 3 4 5 6 
#
# 1 0.016492 -0.005335 -0.004348 0.000000 0.000000 0.000000
# 2 -0.005335 0.012100 -0.002897 0.000000 0.000000 0.000000
# 3 -0.004348 -0.002897 0.012850 0.000000 0.000000 0.000000
# 4 0.000000 0.000000 0.000000 0.027019 0.000000 0.000000
# 5 0.000000 0.000000 0.000000 0.000000 0.058561 0.000000
# 6 0.000000 0.000000 0.000000 0.000000 0.000000 0.127601
#
#
# Mechanical properties :
#
#
# Convention : Reuss Voigt Hill
#
# Bulk Modulus (GPa) = 61.41765 62.30659 61.86212
# Shear Modulus (GPa) = 17.53092 23.81742 20.67417
#
# Velocity S-wave (km/s) = 2.89153 3.37034 3.14007
# Velocity P-wave (km/s) = 6.35922 6.69785 6.53073
#
# Compressibility (1/GPa) = 0.01628196
#
# Stress axis : x y z
#
# Youngs Moduli (GPa) = 60.63659 82.64458 77.81886
#
# Poissons Ratio (x) = 0.44092 0.33835
# Poissons Ratio (y) = 0.32350 0.22544
# Poissons Ratio (z) = 0.26365 0.23942
#
# Static dielectric constant tensor:
#      x y z
#    x 3.761030 0.000000 0.000000 
#    y 0.000000 3.801560 0.000000 
#    z 0.000000 0.000000 3.751190 
# 
# 
# High freq. dielectric constant tensor:
#      x y z
#    x 1.822390 0.000000 0.000000 
#    y 0.000000 1.831230 0.000000 
#    z 0.000000 0.000000 1.815910 
# 
# From -- ./inp_files/10005.got.cif
#   From: 2010.03.12/outbox.cif.g09.slc.cpg/sg53_6_cif.got.tgz:10005.got - 2010.04.16 14:36:59.
