data_PCOD8221808
_publ_section_title
;
Structure prediction by ZEFSAII (Michael W. Deem and Ramdas Pophale) SiO2 
 PCOD8221808
Probable space group: P M N A
;
_chemical_formula_sum "Si O2"
_cell_formula_units_Z 36
_cell_length_a 19.924459
_cell_length_b 9.295367
_cell_length_c 9.340279
_cell_angle_alpha 90.000000
_cell_angle_beta 90.000000
_cell_angle_gamma 90.000000
_cell_volume 1729.867854
_symmetry_space_group_name_H-M "P M N A"
_symmetry_group_IT_number 53
_symmetry_cell_setting 'orthorhombic'
loop_
_space_group_symop_operation_xyz
x,y,z
1/2-x,-y,1/2+z
x,-y,-z
1/2-x,y,1/2-z
-x,-y,-z
1/2+x,y,1/2-z
-x,y,z
1/2+x,-y,1/2+z
loop_
_atom_site_type_symbol
_atom_site_label
_atom_site_fract_x
_atom_site_fract_y
_atom_site_fract_z
Si Si1 0.688789 0.032542 0.846477
Si Si2 0.572686 0.664595 0.519372
Si Si3 0.115319 0.500000 0.500000
Si Si4 0.827505 0.283811 0.274833
Si Si5 0.575333 0.255768 0.798387
O O1 0.750000 0.091117 0.750000
O O2 0.629471 0.147776 0.865212
O O3 0.656443 0.884335 0.792744
O O4 0.721761 0.000000 0.000000
O O5 0.558099 0.500000 0.500000
O O6 0.500000 0.734361 0.564641
O O7 0.629880 0.678963 0.636079
O O8 0.596817 0.727711 0.367108
O O9 0.157445 0.617638 0.588006
O O10 0.073358 0.408092 0.616209
O O11 0.750000 0.311391 0.250000
O O12 0.500000 0.191688 0.809537
#
# Coordination Sequence:
#
# PCOD8221808 Si02
#       5
#     8   8   4   8   8
#     4  11  26  47  67  95 135 177 218 271 331 391
#     4  10  22  42  65  95 134 172 210 267 330 389
#     4  12  23  42  66 100 137 168 218 282 329 390
#     4  11  26  42  67  98 130 175 223 268 333 390
#     4  11  25  43  70  99 130 177 222 271 332 392
#
# _framework density 20.810838
#
# number of rings (size 3 to 8) (size 9 to 14) (size 15 to 20)
#    0.000    1.111    4.444    0.333    7.778    3.111 
#    0.000    2.222    0.000    0.000    0.000    0.000 
#    0.000    0.000    0.000    0.000    0.000    0.000 
#
# Total GULP energy -446117.670448 kJ/mol
# GULP energy per Si atom -12392.157512 kJ/mol
# Density = 2.076347 g / cm^3
# Si number density = 20.810838 Si / 1000 Ang^3
#
#
#
# Elastic Constant Matrix: (Units=GPa)
#
#
# Indices 1 2 3 4 5 6 
#
# 1 135.5128 44.4803 68.6372 0.0000 0.0000 0.0000
# 2 44.4803 78.9467 15.6331 0.0000 0.0000 0.0000
# 3 68.6372 15.6331 126.4031 0.0000 0.0000 0.0000
# 4 0.0000 0.0000 0.0000 31.8132 0.0000 0.0000
# 5 0.0000 0.0000 0.0000 0.0000 36.7384 0.0000
# 6 0.0000 0.0000 0.0000 0.0000 0.0000 24.4526
#
#
#
# Elastic Compliance Matrix: (Units=1/GPa)
#
#
# Indices 1 2 3 4 5 6 
#
# 1 0.012282 -0.005740 -0.005959 0.000000 0.000000 0.000000
# 2 -0.005740 0.015667 0.001179 0.000000 0.000000 0.000000
# 3 -0.005959 0.001179 0.011001 0.000000 0.000000 0.000000
# 4 0.000000 0.000000 0.000000 0.031433 0.000000 0.000000
# 5 0.000000 0.000000 0.000000 0.000000 0.027219 0.000000
# 6 0.000000 0.000000 0.000000 0.000000 0.000000 0.040895
#
#
# Mechanical properties :
#
#
# Convention : Reuss Voigt Hill
#
# Bulk Modulus (GPa) = 55.83341 66.48486 61.15913
# Shear Modulus (GPa) = 30.21000 32.74165 31.47582
#
# Velocity S-wave (km/s) = 3.81418 3.97079 3.89327
# Velocity P-wave (km/s) = 6.80328 7.28282 7.04713
#
# Compressibility (1/GPa) = 0.01791042
#
# Stress axis : x y z
#
# Youngs Moduli (GPa) = 81.42233 63.82771 90.89932
#
# Poissons Ratio (x) = 0.36635 0.54168
# Poissons Ratio (y) = 0.46734 -0.10717
# Poissons Ratio (z) = 0.48520 -0.07525
#
# Static dielectric constant tensor:
#      x y z
#    x 3.621760 0.000000 0.000000 
#    y 0.000000 5.324610 0.000000 
#    z 0.000000 0.000000 3.701400 
# 
# 
# High freq. dielectric constant tensor:
#      x y z
#    x 1.813340 0.000000 0.000000 
#    y 0.000000 1.811430 0.000000 
#    z 0.000000 0.000000 1.833740 
# 
# From -- ./inp_files/10582.got.cif
#   From: 2010.03.12/outbox.cif.g09.slc.cpg/sg53_6_cif.got.tgz:10582.got - 2010.04.16 14:36:59.
