data_PCOD8221957
_publ_section_title
;
Structure prediction by ZEFSAII (Michael W. Deem and Ramdas Pophale) SiO2 
 PCOD8221957
Probable space group: P M N A
;
_chemical_formula_sum "Si O2"
_cell_formula_units_Z 56
_cell_length_a 9.421868
_cell_length_b 14.386073
_cell_length_c 26.288990
_cell_angle_alpha 90.000000
_cell_angle_beta 90.000000
_cell_angle_gamma 90.000000
_cell_volume 3563.306470
_symmetry_space_group_name_H-M "P M N A"
_symmetry_group_IT_number 53
_symmetry_cell_setting 'orthorhombic'
loop_
_space_group_symop_operation_xyz
x,y,z
1/2-x,-y,1/2+z
x,-y,-z
1/2-x,y,1/2-z
-x,-y,-z
1/2+x,y,1/2-z
-x,y,z
1/2+x,-y,1/2+z
loop_
_atom_site_type_symbol
_atom_site_label
_atom_site_fract_x
_atom_site_fract_y
_atom_site_fract_z
Si Si1 0.340624 0.871580 0.466374
Si Si2 0.832851 0.378155 0.459103
Si Si3 0.667605 0.576103 0.070991
Si Si4 0.662421 0.274939 0.621707
Si Si5 0.332822 0.119279 0.698096
Si Si6 0.168277 0.825477 0.562992
Si Si7 0.161708 0.972637 0.885788
O O1 0.500000 0.863144 0.489387
O O2 0.312775 0.789692 0.426801
O O3 0.223350 0.866229 0.509843
O O4 0.325035 0.969835 0.438084
O O5 0.774498 0.385529 0.516763
O O6 0.786680 0.467251 0.425358
O O7 0.783501 0.282577 0.432529
O O8 0.000000 0.380523 0.465063
O O9 0.500000 0.589000 0.077203
O O10 0.742608 0.632675 0.116406
O O11 0.500000 0.306249 0.626060
O O12 0.707846 0.217323 0.671829
O O13 0.250000 0.108593 0.750000
O O14 0.500000 0.115147 0.708149
O O15 0.286393 0.034465 0.661612
O O16 0.238983 0.881649 0.609645
O O17 0.000000 0.837129 0.565379
O O18 0.000000 0.940671 0.877362
#
# Coordination Sequence:
#
# PCOD8221957 Si02
#       7
#     8   8   8   8   8   8   8
#     4   9  17  29  42  57  86 125 153 175 214 264
#     4   8  16  27  40  60  90 123 154 187 220 250
#     4   9  15  28  45  60  85 124 157 182 218 261
#     4   9  17  29  45  67  92 116 146 187 227 264
#     4   9  19  35  52  69  91 115 143 183 230 278
#     4  11  19  27  41  64  90 118 155 193 216 246
#     4   9  19  33  45  60  87 121 148 176 223 274
#
# _framework density 15.715741
#
# number of rings (size 3 to 8) (size 9 to 14) (size 15 to 20)
#    0.000    2.857    1.429    3.429    0.000    3.429 
#    0.000    5.714    0.000    0.000    0.000    1.000 
#    0.000    0.000    0.000    0.000    0.000    0.000 
#
# Total GULP energy -694115.882436 kJ/mol
# GULP energy per Si atom -12394.926472 kJ/mol
# Density = 1.567997 g / cm^3
# Si number density = 15.715741 Si / 1000 Ang^3
#
#
#
# Elastic Constant Matrix: (Units=GPa)
#
#
# Indices 1 2 3 4 5 6 
#
# 1 60.5500 53.3722 38.1085 0.0000 0.0000 0.0000
# 2 53.3722 123.4178 49.2772 0.0000 0.0000 0.0000
# 3 38.1085 49.2772 70.3067 0.0000 0.0000 0.0000
# 4 0.0000 0.0000 0.0000 14.5220 0.0000 0.0000
# 5 0.0000 0.0000 0.0000 0.0000 25.4878 0.0000
# 6 0.0000 0.0000 0.0000 0.0000 0.0000 25.5643
#
#
#
# Elastic Compliance Matrix: (Units=1/GPa)
#
#
# Indices 1 2 3 4 5 6 
#
# 1 0.031352 -0.009405 -0.010402 0.000000 0.000000 0.000000
# 2 -0.009405 0.014072 -0.004765 0.000000 0.000000 0.000000
# 3 -0.010402 -0.004765 0.023202 0.000000 0.000000 0.000000
# 4 0.000000 0.000000 0.000000 0.068861 0.000000 0.000000
# 5 0.000000 0.000000 0.000000 0.000000 0.039235 0.000000
# 6 0.000000 0.000000 0.000000 0.000000 0.000000 0.039117
#
#
# Mechanical properties :
#
#
# Convention : Reuss Voigt Hill
#
# Bulk Modulus (GPa) = 51.33109 59.53227 55.43168
# Shear Modulus (GPa) = 18.41773 20.68258 19.55016
#
# Velocity S-wave (km/s) = 3.42706 3.63167 3.53084
# Velocity P-wave (km/s) = 6.95649 7.45307 7.20906
#
# Compressibility (1/GPa) = 0.01948137
#
# Stress axis : x y z
#
# Youngs Moduli (GPa) = 31.89576 71.06070 43.10045
#
# Poissons Ratio (x) = 0.66833 0.44833
# Poissons Ratio (y) = 0.29998 0.20539
# Poissons Ratio (z) = 0.33178 0.33863
#
# Static dielectric constant tensor:
#      x y z
#    x 2.840510 0.000000 0.000000 
#    y 0.000000 3.281400 0.000000 
#    z 0.000000 0.000000 2.670220 
# 
# 
# High freq. dielectric constant tensor:
#      x y z
#    x 1.593390 0.000000 0.000000 
#    y 0.000000 1.608410 0.000000 
#    z 0.000000 0.000000 1.559030 
# 
# From -- ./inp_files/38378.got.cif
#   From: 2010.03.12/outbox.cif.g09.slc.cpg/sg53_20_cif.got.tgz:38378.got - 2010.04.16 14:36:59.
