data_PCOD8221383
_publ_section_title
;
Structure prediction by ZEFSAII (Michael W. Deem and Ramdas Pophale) SiO2 
 PCOD8221383
Probable space group: P M N A
;
_chemical_formula_sum "Si O2"
_cell_formula_units_Z 64
_cell_length_a 13.828122
_cell_length_b 11.770938
_cell_length_c 19.929859
_cell_angle_alpha 90.000000
_cell_angle_beta 90.000000
_cell_angle_gamma 90.000000
_cell_volume 3243.982486
_symmetry_space_group_name_H-M "P M N A"
_symmetry_group_IT_number 53
_symmetry_cell_setting 'orthorhombic'
loop_
_space_group_symop_operation_xyz
x,y,z
1/2-x,-y,1/2+z
x,-y,-z
1/2-x,y,1/2-z
-x,-y,-z
1/2+x,y,1/2-z
-x,y,z
1/2+x,-y,1/2+z
loop_
_atom_site_type_symbol
_atom_site_label
_atom_site_fract_x
_atom_site_fract_y
_atom_site_fract_z
Si Si1 0.891398 0.671845 0.724092
Si Si2 0.608301 0.867845 0.015330
Si Si3 0.200586 0.899582 0.349272
Si Si4 0.196258 0.155279 0.378221
Si Si5 0.887606 0.808462 0.219596
Si Si6 0.896687 0.772865 0.871636
Si Si7 0.109531 0.465423 0.069531
Si Si8 0.114177 0.451893 0.792579
O O1 0.823948 0.743211 0.674057
O O2 0.890441 0.731510 0.795635
O O3 0.850216 0.542512 0.735382
O O4 0.000000 0.671150 0.694069
O O5 0.500000 0.824288 0.030896
O O6 0.677391 0.841707 0.078932
O O7 0.646927 0.807514 0.948034
O O8 0.608740 0.000000 0.000000
O O9 0.313102 0.874239 0.330241
O O10 0.126684 0.852456 0.294456
O O11 0.168033 0.031801 0.350844
O O12 0.311275 0.141209 0.388887
O O13 0.859138 0.676174 0.225438
O O14 0.000000 0.825906 0.196763
O O15 0.887782 0.669463 0.923382
O O16 0.000000 0.834888 0.882702
O O17 0.161001 0.522441 0.134302
O O18 0.000000 0.512221 0.065899
O O19 0.163376 0.500000 0.000000
O O20 0.000000 0.474440 0.798075
#
# Coordination Sequence:
#
# PCOD8221383 Si02
#       8
#     8   8   8   8   8   8   8   8
#     4   9  18  33  56  83 111 143 183 236 296 343
#     4   9  19  38  60  79 108 149 190 235 284 338
#     4  10  23  38  55  86 112 147 201 239 275 345
#     4  11  21  35  56  84 115 147 194 243 284 346
#     4  10  21  38  59  82 114 154 190 238 290 336
#     4   9  19  32  48  79 118 150 177 228 293 338
#     4   8  14  28  50  75 105 143 185 221 263 336
#     4   8  16  33  53  78 110 144 187 235 286 341
#
# _framework density 19.728836999999999
#
# number of rings (size 3 to 8) (size 9 to 14) (size 15 to 20)
#    0.000    2.750    0.000    2.625    3.500    3.000 
#    9.000    1.875    0.000    2.250    0.000    3.500 
#    0.000    0.000    0.000    0.000    0.000    0.000 
#
# Total GULP energy -792968.266495 kJ/mol
# GULP energy per Si atom -12390.129164 kJ/mol
# Density = 1.968393 g / cm^3
# Si number density = 19.728837 Si / 1000 Ang^3
#
#
#
# Elastic Constant Matrix: (Units=GPa)
#
#
# Indices 1 2 3 4 5 6 
#
# 1 97.2333 19.3172 35.4342 0.0000 0.0000 0.0000
# 2 19.3172 74.4393 57.2005 0.0000 0.0000 0.0000
# 3 35.4342 57.2005 122.7985 0.0000 0.0000 0.0000
# 4 0.0000 0.0000 0.0000 27.6439 0.0000 0.0000
# 5 0.0000 0.0000 0.0000 0.0000 24.9844 0.0000
# 6 0.0000 0.0000 0.0000 0.0000 0.0000 21.1209
#
#
#
# Elastic Compliance Matrix: (Units=1/GPa)
#
#
# Indices 1 2 3 4 5 6 
#
# 1 0.011515 -0.000677 -0.003007 0.000000 0.000000 0.000000
# 2 -0.000677 0.020963 -0.009569 0.000000 0.000000 0.000000
# 3 -0.003007 -0.009569 0.013469 0.000000 0.000000 0.000000
# 4 0.000000 0.000000 0.000000 0.036174 0.000000 0.000000
# 5 0.000000 0.000000 0.000000 0.000000 0.040025 0.000000
# 6 0.000000 0.000000 0.000000 0.000000 0.000000 0.047346
#
#
# Mechanical properties :
#
#
# Convention : Reuss Voigt Hill
#
# Bulk Modulus (GPa) = 51.44351 57.59723 54.52037
# Shear Modulus (GPa) = 24.69393 26.91778 25.80585
#
# Velocity S-wave (km/s) = 3.54173 3.69777 3.62059
# Velocity P-wave (km/s) = 6.54653 6.89124 6.72109
#
# Compressibility (1/GPa) = 0.01943880
#
# Stress axis : x y z
#
# Youngs Moduli (GPa) = 86.84311 47.70400 74.24728
#
# Poissons Ratio (x) = 0.03232 0.22327
# Poissons Ratio (y) = 0.05883 0.71048
# Poissons Ratio (z) = 0.26115 0.45648
#
# Static dielectric constant tensor:
#      x y z
#    x 3.672120 0.000000 0.000000 
#    y 0.000000 3.430810 0.000000 
#    z 0.000000 0.000000 3.671480 
# 
# 
# High freq. dielectric constant tensor:
#      x y z
#    x 1.763030 0.000000 0.000000 
#    y 0.000000 1.746140 0.000000 
#    z 0.000000 0.000000 1.763150 
# 
# From -- ./inp_files/28516.got.cif
#   From: 2010.03.12/outbox.cif.g09.slc.cpg/sg53_15_cif.got.tgz:28516.got - 2010.04.16 14:36:59.
