data_PCOD8221117
_publ_section_title
;
Structure prediction by ZEFSAII (Michael W. Deem and Ramdas Pophale) SiO2 
 PCOD8221117
Probable space group: P M N A
;
_chemical_formula_sum "Si O2"
_cell_formula_units_Z 64
_cell_length_a 8.932037
_cell_length_b 17.426514
_cell_length_c 20.041430
_cell_angle_alpha 90.000000
_cell_angle_beta 90.000000
_cell_angle_gamma 90.000000
_cell_volume 3119.534113
_symmetry_space_group_name_H-M "P M N A"
_symmetry_group_IT_number 53
_symmetry_cell_setting 'orthorhombic'
loop_
_space_group_symop_operation_xyz
x,y,z
1/2-x,-y,1/2+z
x,-y,-z
1/2-x,y,1/2-z
-x,-y,-z
1/2+x,y,1/2-z
-x,y,z
1/2+x,-y,1/2+z
loop_
_atom_site_type_symbol
_atom_site_label
_atom_site_fract_x
_atom_site_fract_y
_atom_site_fract_z
Si Si1 0.675742 0.883468 0.318410
Si Si2 0.678882 0.264016 0.317301
Si Si3 0.335614 0.377991 0.001485
Si Si4 0.325993 0.080312 0.535009
Si Si5 0.178145 0.784973 0.547124
Si Si6 0.166391 0.419548 0.346984
Si Si7 0.672053 0.560957 0.387304
Si Si8 0.327981 0.288193 0.685587
O O1 0.750000 0.916567 0.250000
O O2 0.500000 0.889367 0.306647
O O3 0.721882 0.927763 0.386666
O O4 0.733195 0.796467 0.332084
O O5 0.750000 0.227049 0.250000
O O6 0.500000 0.258181 0.316109
O O7 0.741550 0.216778 0.380579
O O8 0.729021 0.353202 0.317519
O O9 0.500000 0.378404 0.967538
O O10 0.273751 0.290646 0.005626
O O11 0.347987 0.410350 0.074870
O O12 0.229452 0.438089 0.963193
O O13 0.500000 0.104765 0.530720
O O14 0.228512 0.142385 0.495746
O O15 0.294915 0.000000 0.500000
O O16 0.000000 0.786100 0.559420
O O17 0.241965 0.503204 0.336978
O O18 0.000000 0.416586 0.314123
O O19 0.500000 0.537357 0.383873
O O20 0.703824 0.650186 0.371215
O O21 0.250000 0.322635 0.750000
O O22 0.500000 0.280653 0.702596
#
# Coordination Sequence:
#
# PCOD8221117 Si02
#       8
#     8   8   8   8   8   8   8   8
#     4   9  18  35  58  83 113 151 194 236 281 337
#     4  11  22  39  62  85 111 147 195 247 300 357
#     4   9  19  34  51  72 100 136 178 225 279 339
#     4  10  21  38  61  90 124 159 193 234 288 348
#     4  10  21  38  60  87 117 150 191 239 293 352
#     4  10  21  36  51  72 105 142 183 233 288 343
#     4  11  21  31  47  73 103 137 180 230 285 342
#     4   9  19  33  48  69  97 130 172 219 264 317
#
# _framework density 20.515885000000001
#
# number of rings (size 3 to 8) (size 9 to 14) (size 15 to 20)
#    0.000    2.125    0.000    4.125    0.000    7.750 
#    0.000    4.375    0.000    1.500    0.000    0.000 
#    0.000    0.000    0.000    0.000    0.000    0.000 
#
# Total GULP energy -793199.296710 kJ/mol
# GULP energy per Si atom -12393.739011 kJ/mol
# Density = 2.046919 g / cm^3
# Si number density = 20.515885 Si / 1000 Ang^3
#
#
#
# Elastic Constant Matrix: (Units=GPa)
#
#
# Indices 1 2 3 4 5 6 
#
# 1 92.5014 32.4316 47.2445 0.0000 0.0000 0.0000
# 2 32.4316 69.1400 39.0924 0.0000 0.0000 0.0000
# 3 47.2445 39.0924 119.4603 0.0000 0.0000 0.0000
# 4 0.0000 0.0000 0.0000 15.0738 0.0000 0.0000
# 5 0.0000 0.0000 0.0000 0.0000 32.9764 0.0000
# 6 0.0000 0.0000 0.0000 0.0000 0.0000 35.8324
#
#
#
# Elastic Compliance Matrix: (Units=1/GPa)
#
#
# Indices 1 2 3 4 5 6 
#
# 1 0.014555 -0.004384 -0.004322 0.000000 0.000000 0.000000
# 2 -0.004384 0.019067 -0.004506 0.000000 0.000000 0.000000
# 3 -0.004322 -0.004506 0.011555 0.000000 0.000000 0.000000
# 4 0.000000 0.000000 0.000000 0.066340 0.000000 0.000000
# 5 0.000000 0.000000 0.000000 0.000000 0.030325 0.000000
# 6 0.000000 0.000000 0.000000 0.000000 0.000000 0.027908
#
#
# Mechanical properties :
#
#
# Convention : Reuss Voigt Hill
#
# Bulk Modulus (GPa) = 53.32139 57.62652 55.47395
# Shear Modulus (GPa) = 24.70066 27.59873 26.14970
#
# Velocity S-wave (km/s) = 3.47360 3.67173 3.57404
# Velocity P-wave (km/s) = 6.49112 6.79155 6.64303
#
# Compressibility (1/GPa) = 0.01875420
#
# Stress axis : x y z
#
# Youngs Moduli (GPa) = 68.70545 52.44549 86.54522
#
# Poissons Ratio (x) = 0.22991 0.37402
# Poissons Ratio (y) = 0.30119 0.38997
# Poissons Ratio (z) = 0.29692 0.23632
#
# Static dielectric constant tensor:
#      x y z
#    x 3.898340 0.000000 0.000000 
#    y 0.000000 3.685250 0.000000 
#    z 0.000000 0.000000 3.766790 
# 
# 
# High freq. dielectric constant tensor:
#      x y z
#    x 1.801050 0.000000 0.000000 
#    y 0.000000 1.781160 0.000000 
#    z 0.000000 0.000000 1.806620 
# 
# From -- ./inp_files/31198.got.cif
#   From: 2010.03.12/outbox.cif.g09.slc.cpg/sg53_16_cif.got.tgz:31198.got - 2010.04.16 14:36:59.
