data_PCOD8221039
_publ_section_title
;
Structure prediction by ZEFSAII (Michael W. Deem and Ramdas Pophale) SiO2 
 PCOD8221039
Probable space group: P M N A
;
_chemical_formula_sum "Si O2"
_cell_formula_units_Z 40
_cell_length_a 14.214904
_cell_length_b 8.414925
_cell_length_c 15.654813
_cell_angle_alpha 90.000000
_cell_angle_beta 90.000000
_cell_angle_gamma 90.000000
_cell_volume 1872.587262
_symmetry_space_group_name_H-M "P M N A"
_symmetry_group_IT_number 53
_symmetry_cell_setting 'orthorhombic'
loop_
_space_group_symop_operation_xyz
x,y,z
1/2-x,-y,1/2+z
x,-y,-z
1/2-x,y,1/2-z
-x,-y,-z
1/2+x,y,1/2-z
-x,y,z
1/2+x,-y,1/2+z
loop_
_atom_site_type_symbol
_atom_site_label
_atom_site_fract_x
_atom_site_fract_y
_atom_site_fract_z
Si Si1 0.394495 0.793145 0.775475
Si Si2 0.211594 0.829062 0.040340
Si Si3 0.161155 0.131073 0.692728
Si Si4 0.219911 0.663645 0.867121
Si Si5 0.395767 0.644539 0.331005
O O1 0.500000 0.720514 0.776212
O O2 0.326952 0.684016 0.834249
O O3 0.350567 0.787797 0.679843
O O4 0.402605 0.973437 0.809287
O O5 0.307655 0.827515 0.096145
O O6 0.123530 0.784808 0.100813
O O7 0.219612 0.695348 0.967617
O O8 0.192949 0.000000 0.000000
O O9 0.250000 0.084402 0.750000
O O10 0.108983 0.281774 0.735448
O O11 0.184418 0.486939 0.845088
O O12 0.500000 0.574174 0.345863
#
# Coordination Sequence:
#
# PCOD8221039 Si02
#       5
#     8   8   8   8   8
#     4  11  22  40  69  96 129 180 227 270 331 402
#     4  11  22  41  67  96 136 184 218 274 343 392
#     4  10  20  41  65  93 131 178 223 269 331 397
#     4  11  23  42  63 101 139 173 219 281 340 397
#     4  11  25  42  68 101 136 181 224 278 343 403
#
# _framework density 21.36082
#
# number of rings (size 3 to 8) (size 9 to 14) (size 15 to 20)
#    0.000    1.200    4.000    3.000    8.400    2.800 
#    0.000    3.000    0.000    2.400    0.000    0.000 
#    0.000    0.000    0.000    0.000    0.000    0.000 
#
# Total GULP energy -495897.688874 kJ/mol
# GULP energy per Si atom -12397.442222 kJ/mol
# Density = 2.131220 g / cm^3
# Si number density = 21.360820 Si / 1000 Ang^3
#
#
#
# Elastic Constant Matrix: (Units=GPa)
#
#
# Indices 1 2 3 4 5 6 
#
# 1 144.4709 33.9921 38.7977 0.0000 0.0000 0.0000
# 2 33.9921 123.4606 50.2026 0.0000 0.0000 0.0000
# 3 38.7977 50.2026 115.6334 0.0000 0.0000 0.0000
# 4 0.0000 0.0000 0.0000 32.0963 0.0000 0.0000
# 5 0.0000 0.0000 0.0000 0.0000 12.4787 0.0000
# 6 0.0000 0.0000 0.0000 0.0000 0.0000 21.8680
#
#
#
# Elastic Compliance Matrix: (Units=1/GPa)
#
#
# Indices 1 2 3 4 5 6 
#
# 1 0.007778 -0.001312 -0.002040 0.000000 0.000000 0.000000
# 2 -0.001312 0.010058 -0.003926 0.000000 0.000000 0.000000
# 3 -0.002040 -0.003926 0.011037 0.000000 0.000000 0.000000
# 4 0.000000 0.000000 0.000000 0.031156 0.000000 0.000000
# 5 0.000000 0.000000 0.000000 0.000000 0.080136 0.000000
# 6 0.000000 0.000000 0.000000 0.000000 0.000000 0.045729
#
#
# Mechanical properties :
#
#
# Convention : Reuss Voigt Hill
#
# Bulk Modulus (GPa) = 69.85162 69.94998 69.90080
# Shear Modulus (GPa) = 24.36364 30.66009 27.51187
#
# Velocity S-wave (km/s) = 3.38091 3.79270 3.59271
# Velocity P-wave (km/s) = 6.92911 7.21092 7.07142
#
# Compressibility (1/GPa) = 0.01431606
#
# Stress axis : x y z
#
# Youngs Moduli (GPa) = 128.56100 99.42801 90.60285
#
# Poissons Ratio (x) = 0.13045 0.18485
# Poissons Ratio (y) = 0.16867 0.35573
# Poissons Ratio (z) = 0.26229 0.39038
#
# Static dielectric constant tensor:
#      x y z
#    x 3.664440 0.000000 0.000000 
#    y 0.000000 3.811420 0.000000 
#    z 0.000000 0.000000 4.086590 
# 
# 
# High freq. dielectric constant tensor:
#      x y z
#    x 1.817810 0.000000 0.000000 
#    y 0.000000 1.844280 0.000000 
#    z 0.000000 0.000000 1.833040 
# 
# From -- ./inp_files/22382.got.cif
#   From: 2010.03.12/outbox.cif.g09.slc.cpg/sg53_12_cif.got.tgz:22382.got - 2010.04.16 14:36:59.
