data_PCOD8221644
_publ_section_title
;
Structure prediction by ZEFSAII (Michael W. Deem and Ramdas Pophale) SiO2 
 PCOD8221644
Probable space group: P M N A
;
_chemical_formula_sum "Si O2"
_cell_formula_units_Z 64
_cell_length_a 14.675513
_cell_length_b 23.891813
_cell_length_c 9.137749
_cell_angle_alpha 90.000000
_cell_angle_beta 90.000000
_cell_angle_gamma 90.000000
_cell_volume 3203.919700
_symmetry_space_group_name_H-M "P M N A"
_symmetry_group_IT_number 53
_symmetry_cell_setting 'orthorhombic'
loop_
_space_group_symop_operation_xyz
x,y,z
1/2-x,-y,1/2+z
x,-y,-z
1/2-x,y,1/2-z
-x,-y,-z
1/2+x,y,1/2-z
-x,y,z
1/2+x,-y,1/2+z
loop_
_atom_site_type_symbol
_atom_site_label
_atom_site_fract_x
_atom_site_fract_y
_atom_site_fract_z
Si Si1 0.759859 0.557087 0.424530
Si Si2 0.106050 0.362315 0.420093
Si Si3 0.396703 0.848414 0.375565
Si Si4 0.894101 0.380696 0.079928
Si Si5 0.107756 0.742458 0.955208
Si Si6 0.396275 0.867223 0.036172
Si Si7 0.391813 0.761183 0.862695
Si Si8 0.260654 0.056129 0.579903
O O1 0.793293 0.500000 0.500000
O O2 0.750000 0.550886 0.250000
O O3 0.835639 0.603267 0.463008
O O4 0.662707 0.572124 0.496618
O O5 0.125774 0.381935 0.253748
O O6 0.135798 0.297338 0.439073
O O7 0.000000 0.370572 0.457956
O O8 0.500000 0.858001 0.429791
O O9 0.360949 0.786892 0.422762
O O10 0.388775 0.849048 0.203093
O O11 0.336872 0.896887 0.448657
O O12 0.000000 0.392240 0.048875
O O13 0.860837 0.320984 0.012207
O O14 0.000000 0.739930 0.938776
O O15 0.149142 0.762983 0.800706
O O16 0.500000 0.881962 0.991217
O O17 0.334588 0.922076 0.010518
O O18 0.354012 0.815067 0.947913
O O19 0.500000 0.764884 0.860277
O O20 0.250000 0.042539 0.750000
O O21 0.291910 0.000000 0.500000
#
# Coordination Sequence:
#
# PCOD8221644 Si02
#       8
#     8   8   8   8   8   8   8   8
#     4  12  26  41  58  81 111 148 192 236 275 324
#     4   9  19  38  62  86 115 148 181 224 276 327
#     4   9  18  33  52  74 103 135 164 204 258 310
#     4   9  19  38  62  86 115 148 181 224 276 327
#     4   8  15  30  54  83 110 136 169 209 257 315
#     4   9  18  33  52  74 103 135 164 204 258 310
#     4   8  15  30  54  83 110 136 169 209 257 315
#     4  10  22  37  50  69  97 130 174 218 255 302
#
# _framework density 19.975532000000001
#
# number of rings (size 3 to 8) (size 9 to 14) (size 15 to 20)
#    0.000    2.750    0.000    2.625    0.000    4.500 
#    0.000    5.000    0.000    0.000    0.000    0.000 
#    0.000    0.000    0.000    0.000    0.000    0.000 
#
# Total GULP energy -793390.371307 kJ/mol
# GULP energy per Si atom -12396.724552 kJ/mol
# Density = 1.993007 g / cm^3
# Si number density = 19.975532 Si / 1000 Ang^3
#
#
#
# Elastic Constant Matrix: (Units=GPa)
#
#
# Indices 1 2 3 4 5 6 
#
# 1 45.5252 0.5649 10.3163 0.0000 0.0000 0.0000
# 2 0.5649 67.7104 19.1615 0.0000 0.0000 0.0000
# 3 10.3163 19.1615 52.1070 0.0000 0.0000 0.0000
# 4 0.0000 0.0000 0.0000 37.3432 0.0000 0.0000
# 5 0.0000 0.0000 0.0000 0.0000 21.7591 0.0000
# 6 0.0000 0.0000 0.0000 0.0000 0.0000 30.9132
#
#
#
# Elastic Compliance Matrix: (Units=1/GPa)
#
#
# Indices 1 2 3 4 5 6 
#
# 1 0.023089 0.001229 -0.005023 0.000000 0.000000 0.000000
# 2 0.001229 0.016550 -0.006329 0.000000 0.000000 0.000000
# 3 -0.005023 -0.006329 0.022513 0.000000 0.000000 0.000000
# 4 0.000000 0.000000 0.000000 0.026779 0.000000 0.000000
# 5 0.000000 0.000000 0.000000 0.000000 0.045958 0.000000
# 6 0.000000 0.000000 0.000000 0.000000 0.000000 0.032349
#
#
# Mechanical properties :
#
#
# Convention : Reuss Voigt Hill
#
# Bulk Modulus (GPa) = 23.86354 25.04757 24.45555
# Shear Modulus (GPa) = 24.81983 27.02309 25.92146
#
# Velocity S-wave (km/s) = 3.52875 3.68205 3.60621
# Velocity P-wave (km/s) = 5.34557 5.53561 5.44142
#
# Compressibility (1/GPa) = 0.04190493
#
# Stress axis : x y z
#
# Youngs Moduli (GPa) = 43.31086 60.42436 44.41838
#
# Poissons Ratio (x) = -0.07425 0.22312
# Poissons Ratio (y) = -0.05322 0.28113
# Poissons Ratio (z) = 0.21756 0.38243
#
# Static dielectric constant tensor:
#      x y z
#    x 3.666480 0.000000 0.000000 
#    y 0.000000 3.696610 0.000000 
#    z 0.000000 0.000000 3.550020 
# 
# 
# High freq. dielectric constant tensor:
#      x y z
#    x 1.778300 0.000000 0.000000 
#    y 0.000000 1.777790 0.000000 
#    z 0.000000 0.000000 1.762130 
# 
# From -- ./inp_files/8935.got.cif
#   From: 2010.03.12/outbox.cif.g09.slc.cpg/sg53_5_cif.got.tgz:8935.got - 2010.04.16 14:36:59.
