data_PCOD8221342
_publ_section_title
;
Structure prediction by ZEFSAII (Michael W. Deem and Ramdas Pophale) SiO2 
 PCOD8221342
Probable space group: P M N A
;
_chemical_formula_sum "Si O2"
_cell_formula_units_Z 64
_cell_length_a 8.782673
_cell_length_b 23.832591
_cell_length_c 15.446442
_cell_angle_alpha 90.000000
_cell_angle_beta 90.000000
_cell_angle_gamma 90.000000
_cell_volume 3233.154298
_symmetry_space_group_name_H-M "P M N A"
_symmetry_group_IT_number 53
_symmetry_cell_setting 'orthorhombic'
loop_
_space_group_symop_operation_xyz
x,y,z
1/2-x,-y,1/2+z
x,-y,-z
1/2-x,y,1/2-z
-x,-y,-z
1/2+x,y,1/2-z
-x,y,z
1/2+x,-y,1/2+z
loop_
_atom_site_type_symbol
_atom_site_label
_atom_site_fract_x
_atom_site_fract_y
_atom_site_fract_z
Si Si1 0.322833 0.064939 0.005583
Si Si2 0.180863 0.634619 0.338043
Si Si3 0.680085 0.864406 0.161379
Si Si4 0.820117 0.364967 0.338852
Si Si5 0.821621 0.746820 0.902123
Si Si6 0.820916 0.868361 0.840182
Si Si7 0.818896 0.563033 0.500343
Si Si8 0.179627 0.748843 0.103067
O O1 0.500000 0.074683 0.024426
O O2 0.273486 0.093938 0.915943
O O3 0.229132 0.090409 0.084170
O O4 0.280728 0.000000 0.000000
O O5 0.250000 0.609136 0.250000
O O6 0.240177 0.595137 0.415444
O O7 0.243150 0.696940 0.349690
O O8 0.000000 0.635948 0.333401
O O9 0.750000 0.889409 0.250000
O O10 0.500000 0.858502 0.170119
O O11 0.753116 0.804153 0.145383
O O12 0.750000 0.388153 0.250000
O O13 0.771261 0.301050 0.353535
O O14 0.756515 0.404193 0.415744
O O15 0.000000 0.367915 0.333013
O O16 0.766738 0.805375 0.861608
O O17 0.000000 0.736241 0.888378
O O18 0.777221 0.747056 0.002483
O O19 0.750000 0.888598 0.750000
O O20 0.000000 0.871242 0.832196
O O21 0.752741 0.500000 0.500000
O O22 0.000000 0.562078 0.501842
O O23 0.000000 0.747225 0.118370
#
# Coordination Sequence:
#
# PCOD8221342 Si02
#       8
#     8   8   8   8   8   8   8   8
#     4  10  23  43  64  88 119 157 202 249 296 347
#     4  11  22  38  60  88 118 154 196 237 292 349
#     4  11  23  39  62  89 121 157 196 242 293 352
#     4  11  22  37  60  88 118 154 194 238 291 349
#     4  10  21  37  60  89 121 154 191 239 293 351
#     4  11  23  40  62  91 122 158 198 242 297 352
#     4   9  20  39  60  82 113 154 198 242 289 345
#     4  11  21  37  61  89 122 153 191 240 293 352
#
# _framework density 19.794910000000002
#
# number of rings (size 3 to 8) (size 9 to 14) (size 15 to 20)
#    0.000    1.500    2.500    2.625    0.000    4.250 
#    0.000    1.250    0.000    5.250    0.000    0.000 
#    0.000    0.000    0.000    0.000    0.000    0.000 
#
# Total GULP energy -793952.788461 kJ/mol
# GULP energy per Si atom -12405.512320 kJ/mol
# Density = 1.974986 g / cm^3
# Si number density = 19.794910 Si / 1000 Ang^3
#
#
#
# Elastic Constant Matrix: (Units=GPa)
#
#
# Indices 1 2 3 4 5 6 
#
# 1 65.2699 35.7437 51.2758 0.0000 0.0000 0.0000
# 2 35.7437 137.2998 69.6795 0.0000 0.0000 0.0000
# 3 51.2758 69.6795 179.0586 0.0000 0.0000 0.0000
# 4 0.0000 0.0000 0.0000 -0.1808 0.0000 0.0000
# 5 0.0000 0.0000 0.0000 0.0000 34.5073 0.0000
# 6 0.0000 0.0000 0.0000 0.0000 0.0000 -4.3410
#
#
#
# Elastic Compliance Matrix: (Units=1/GPa)
#
#
# Indices 1 2 3 4 5 6 
#
# 1 0.020694 -0.002966 -0.004772 0.000000 0.000000 0.000000
# 2 -0.002966 0.009501 -0.002848 0.000000 0.000000 0.000000
# 3 -0.004772 -0.002848 0.008060 0.000000 0.000000 0.000000
# 4 0.000000 0.000000 0.000000 -5.530115 0.000000 0.000000
# 5 0.000000 0.000000 0.000000 0.000000 0.028979 0.000000
# 6 0.000000 0.000000 0.000000 0.000000 0.000000 -0.230362
#
#
# Mechanical properties :
#
#
# Convention : Reuss Voigt Hill
#
# Bulk Modulus (GPa) = 58.53684 77.22513 67.88099
# Shear Modulus (GPa) = -0.88240 20.99240 10.05500
#
# Velocity S-wave (km/s) = -0.66838 3.26006 2.25624
# Velocity P-wave (km/s) = 5.38890 7.29849 6.41514
#
# Compressibility (1/GPa) = 0.01708326
#
# Stress axis : x y z
#
# Youngs Moduli (GPa) = 48.32366 105.25576 124.07706
#
# Poissons Ratio (x) = 0.31214 0.59209
# Poissons Ratio (y) = 0.14331 0.35336
# Poissons Ratio (z) = 0.23060 0.29976
#
# Static dielectric constant tensor:
#      x y z
#    x 3.471350 0.000000 0.000000 
#    y 0.000000 3.629740 0.000000 
#    z 0.000000 0.000000 3.892910 
# 
# 
# High freq. dielectric constant tensor:
#      x y z
#    x 1.764710 0.000000 0.000000 
#    y 0.000000 1.768210 0.000000 
#    z 0.000000 0.000000 1.793010 
# 
# From -- ./inp_files/20871.got.cif
#   From: 2010.03.12/outbox.cif.g09.slc.cpg/sg53_11_cif.got.tgz:20871.got - 2010.04.16 14:36:59.
