data_PCOD8221695
_publ_section_title
;
Structure prediction by ZEFSAII (Michael W. Deem and Ramdas Pophale) SiO2 
 PCOD8221695
Probable space group: P M N A
;
_chemical_formula_sum "Si O2"
_cell_formula_units_Z 56
_cell_length_a 19.054134
_cell_length_b 26.344947
_cell_length_c 5.516210
_cell_angle_alpha 90.000000
_cell_angle_beta 90.000000
_cell_angle_gamma 90.000000
_cell_volume 2769.027925
_symmetry_space_group_name_H-M "P M N A"
_symmetry_group_IT_number 53
_symmetry_cell_setting 'orthorhombic'
loop_
_space_group_symop_operation_xyz
x,y,z
1/2-x,-y,1/2+z
x,-y,-z
1/2-x,y,1/2-z
-x,-y,-z
1/2+x,y,1/2-z
-x,y,z
1/2+x,-y,1/2+z
loop_
_atom_site_type_symbol
_atom_site_label
_atom_site_fract_x
_atom_site_fract_y
_atom_site_fract_z
Si Si1 0.680106 0.861321 0.382628
Si Si2 0.079259 0.098854 0.500299
Si Si3 0.078028 0.197454 0.170088
Si Si4 0.416847 0.474987 0.748845
Si Si5 0.581266 0.310997 0.219038
Si Si6 0.083302 0.358459 0.777621
Si Si7 0.323236 0.042054 0.329111
O O1 0.750000 0.841787 0.250000
O O2 0.640535 0.811179 0.478584
O O3 0.703203 0.902892 0.577195
O O4 0.622107 0.893454 0.242234
O O5 0.081342 0.151905 0.358882
O O6 0.116828 0.051940 0.368288
O O7 0.000000 0.082855 0.560574
O O8 0.093119 0.250704 0.298496
O O9 0.000000 0.198717 0.046900
O O10 0.386869 0.500000 0.500000
O O11 0.500000 0.481233 0.751649
O O12 0.393626 0.416720 0.736649
O O13 0.386991 0.500000 0.000000
O O14 0.500000 0.326130 0.220621
O O15 0.613816 0.333599 0.471536
O O16 0.614700 0.332925 0.969101
O O17 0.000000 0.351482 0.779246
O O18 0.250000 0.015568 0.250000
O O19 0.359133 0.000000 0.500000
#
# Coordination Sequence:
#
# PCOD8221695 Si02
#       7
#     8   8   8   8   8   8   8
#     4  11  21  37  59  81 107 142 181 223 267 333
#     4  10  22  39  59  85 113 141 179 230 277 326
#     4   9  20  34  52  77 106 139 177 227 281 329
#     4   9  15  22  33  50  78 119 167 221 272 317
#     4   9  17  28  43  64  92 128 171 225 279 328
#     4   9  16  25  38  59  87 123 173 226 274 326
#     4  11  23  39  61  85 111 146 184 219 272 336
#
# _framework density 20.223703
#
# number of rings (size 3 to 8) (size 9 to 14) (size 15 to 20)
#    0.000    2.286    1.429    1.714    2.000    4.286 
#    0.000    0.714    0.000    0.000    0.000    0.000 
#    0.000    0.000    0.000    0.000    0.000    4.286 
#
# Total GULP energy -693826.325383 kJ/mol
# GULP energy per Si atom -12389.755810 kJ/mol
# Density = 2.017767 g / cm^3
# Si number density = 20.223703 Si / 1000 Ang^3
#
#
#
# Elastic Constant Matrix: (Units=GPa)
#
#
# Indices 1 2 3 4 5 6 
#
# 1 76.5650 11.6494 19.8558 0.0000 0.0000 0.0000
# 2 11.6494 90.9011 33.4327 0.0000 0.0000 0.0000
# 3 19.8558 33.4327 121.5941 0.0000 0.0000 0.0000
# 4 0.0000 0.0000 0.0000 42.6716 0.0000 0.0000
# 5 0.0000 0.0000 0.0000 0.0000 18.4934 0.0000
# 6 0.0000 0.0000 0.0000 0.0000 0.0000 8.6462
#
#
#
# Elastic Compliance Matrix: (Units=1/GPa)
#
#
# Indices 1 2 3 4 5 6 
#
# 1 0.013726 -0.001040 -0.001956 0.000000 0.000000 0.000000
# 2 -0.001040 0.012317 -0.003217 0.000000 0.000000 0.000000
# 3 -0.001956 -0.003217 0.009428 0.000000 0.000000 0.000000
# 4 0.000000 0.000000 0.000000 0.023435 0.000000 0.000000
# 5 0.000000 0.000000 0.000000 0.000000 0.054073 0.000000
# 6 0.000000 0.000000 0.000000 0.000000 0.000000 0.115657
#
#
# Mechanical properties :
#
#
# Convention : Reuss Voigt Hill
#
# Bulk Modulus (GPa) = 43.38977 46.54845 44.96911
# Shear Modulus (GPa) = 20.10101 28.90374 24.50237
#
# Velocity S-wave (km/s) = 3.15609 3.78458 3.48453
# Velocity P-wave (km/s) = 5.89769 6.49339 6.20269
#
# Compressibility (1/GPa) = 0.02304691
#
# Stress axis : x y z
#
# Youngs Moduli (GPa) = 72.85376 81.18611 106.06805
#
# Poissons Ratio (x) = 0.08442 0.20742
# Poissons Ratio (y) = 0.07576 0.34121
# Poissons Ratio (z) = 0.14247 0.26117
#
# Static dielectric constant tensor:
#      x y z
#    x 3.262350 0.000000 0.000000 
#    y 0.000000 3.583280 0.000000 
#    z 0.000000 0.000000 3.969310 
# 
# 
# High freq. dielectric constant tensor:
#      x y z
#    x 1.730570 0.000000 0.000000 
#    y 0.000000 1.790370 0.000000 
#    z 0.000000 0.000000 1.800440 
# 
# From -- ./inp_files/3044.got.cif
#   From: 2010.03.12/outbox.cif.g09.slc.cpg/sg53_2_cif.got.tgz:3044.got - 2010.04.16 14:36:59.
