data_PCOD8221919
_publ_section_title
;
Structure prediction by ZEFSAII (Michael W. Deem and Ramdas Pophale) SiO2 
 PCOD8221919
Probable space group: P M N A
;
_chemical_formula_sum "Si O2"
_cell_formula_units_Z 52
_cell_length_a 14.688848
_cell_length_b 20.062839
_cell_length_c 8.684749
_cell_angle_alpha 90.000000
_cell_angle_beta 90.000000
_cell_angle_gamma 90.000000
_cell_volume 2559.395465
_symmetry_space_group_name_H-M "P M N A"
_symmetry_group_IT_number 53
_symmetry_cell_setting 'orthorhombic'
loop_
_space_group_symop_operation_xyz
x,y,z
1/2-x,-y,1/2+z
x,-y,-z
1/2-x,y,1/2-z
-x,-y,-z
1/2+x,y,1/2-z
-x,y,z
1/2+x,-y,1/2+z
loop_
_atom_site_type_symbol
_atom_site_label
_atom_site_fract_x
_atom_site_fract_y
_atom_site_fract_z
Si Si1 0.393000 0.217761 0.464479
Si Si2 0.097425 0.634434 0.057898
Si Si3 0.396288 0.810641 0.193578
Si Si4 0.250000 0.855947 0.750000
Si Si5 0.836103 0.672014 0.357313
Si Si6 0.264231 0.431661 0.068329
Si Si7 0.895766 0.076547 0.461009
O O1 0.500000 0.205051 0.417958
O O2 0.372308 0.296150 0.478105
O O3 0.370047 0.182618 0.627535
O O4 0.319526 0.189713 0.345729
O O5 0.084566 0.646745 0.242556
O O6 0.000000 0.611837 0.993330
O O7 0.166358 0.576678 0.011493
O O8 0.500000 0.788791 0.178564
O O9 0.342445 0.750982 0.105239
O O10 0.376695 0.881072 0.115055
O O11 0.182098 0.904097 0.658405
O O12 0.750000 0.656797 0.250000
O O13 0.830452 0.629437 0.515585
O O14 0.250000 0.433173 0.250000
O O15 0.305998 0.500000 0.000000
O O16 0.000000 0.089686 0.400951
O O17 0.882855 0.000000 0.500000
#
# Coordination Sequence:
#
# PCOD8221919 Si02
#       7
#     8   8   8   4   8   8   8
#     4   9  20  37  59  92 124 154 199 253 298 348
#     4   9  19  37  59  83 116 153 192 243 297 345
#     4   9  19  38  62  84 113 157 198 240 295 353
#     4  12  24  34  62  90 122 162 198 246 306 366
#     4   9  18  33  59  86 109 147 192 241 284 345
#     4  11  23  38  57  84 119 154 191 236 290 349
#     4  10  24  43  59  84 123 161 202 254 302 352
#
# _framework density 20.317298000000001
#
# number of rings (size 3 to 8) (size 9 to 14) (size 15 to 20)
#    0.000    2.308    0.000    3.231    7.538    1.538 
#    0.000    3.077    0.000    7.846    0.000    0.000 
#    0.000    0.000    0.000    0.000    0.000    0.000 
#
# Total GULP energy -644284.037941 kJ/mol
# GULP energy per Si atom -12390.077653 kJ/mol
# Density = 2.027105 g / cm^3
# Si number density = 20.317298 Si / 1000 Ang^3
#
#
#
# Elastic Constant Matrix: (Units=GPa)
#
#
# Indices 1 2 3 4 5 6 
#
# 1 91.4872 37.1219 39.6790 0.0000 0.0000 0.0000
# 2 37.1219 115.1767 58.4089 0.0000 0.0000 0.0000
# 3 39.6790 58.4089 111.7932 0.0000 0.0000 0.0000
# 4 0.0000 0.0000 0.0000 28.8682 0.0000 0.0000
# 5 0.0000 0.0000 0.0000 0.0000 29.5076 0.0000
# 6 0.0000 0.0000 0.0000 0.0000 0.0000 27.6381
#
#
#
# Elastic Compliance Matrix: (Units=1/GPa)
#
#
# Indices 1 2 3 4 5 6 
#
# 1 0.013472 -0.002608 -0.003419 0.000000 0.000000 0.000000
# 2 -0.002608 0.012317 -0.005510 0.000000 0.000000 0.000000
# 3 -0.003419 -0.005510 0.013037 0.000000 0.000000 0.000000
# 4 0.000000 0.000000 0.000000 0.034640 0.000000 0.000000
# 5 0.000000 0.000000 0.000000 0.000000 0.033890 0.000000
# 6 0.000000 0.000000 0.000000 0.000000 0.000000 0.036182
#
#
# Mechanical properties :
#
#
# Convention : Reuss Voigt Hill
#
# Bulk Modulus (GPa) = 63.48158 65.43075 64.45617
# Shear Modulus (GPa) = 29.09323 29.41925 29.25624
#
# Velocity S-wave (km/s) = 3.78821 3.80938 3.79881
# Velocity P-wave (km/s) = 7.10260 7.18490 7.14387
#
# Compressibility (1/GPa) = 0.01575260
#
# Stress axis : x y z
#
# Youngs Moduli (GPa) = 74.23047 81.18879 76.70410
#
# Poissons Ratio (x) = 0.21176 0.26223
# Poissons Ratio (y) = 0.19361 0.42261
# Poissons Ratio (z) = 0.25378 0.44731
#
# Static dielectric constant tensor:
#      x y z
#    x 4.087490 0.000000 0.000000 
#    y 0.000000 3.575310 0.000000 
#    z 0.000000 0.000000 3.771950 
# 
# 
# High freq. dielectric constant tensor:
#      x y z
#    x 1.803390 0.000000 0.000000 
#    y 0.000000 1.786440 0.000000 
#    z 0.000000 0.000000 1.776570 
# 
# From -- ./inp_files/8800.got.cif
#   From: 2010.03.12/outbox.cif.g09.slc.cpg/sg53_5_cif.got.tgz:8800.got - 2010.04.16 14:36:59.
