data_PCOD8221481
_publ_section_title
;
Structure prediction by ZEFSAII (Michael W. Deem and Ramdas Pophale) SiO2 
 PCOD8221481
Probable space group: P M N A
;
_chemical_formula_sum "Si O2"
_cell_formula_units_Z 48
_cell_length_a 8.629011
_cell_length_b 12.555414
_cell_length_c 23.194242
_cell_angle_alpha 90.000000
_cell_angle_beta 90.000000
_cell_angle_gamma 90.000000
_cell_volume 2512.882862
_symmetry_space_group_name_H-M "P M N A"
_symmetry_group_IT_number 53
_symmetry_cell_setting 'orthorhombic'
loop_
_space_group_symop_operation_xyz
x,y,z
1/2-x,-y,1/2+z
x,-y,-z
1/2-x,y,1/2-z
-x,-y,-z
1/2+x,y,1/2-z
-x,y,z
1/2+x,-y,1/2+z
loop_
_atom_site_type_symbol
_atom_site_label
_atom_site_fract_x
_atom_site_fract_y
_atom_site_fract_z
Si Si1 0.682060 0.494826 0.189260
Si Si2 0.681978 0.874974 0.311028
Si Si3 0.318490 0.377847 0.498707
Si Si4 0.318385 0.296263 0.372824
Si Si5 0.682739 0.897779 0.811483
Si Si6 0.819989 0.695846 0.387171
O O1 0.750000 0.533478 0.250000
O O2 0.500000 0.475696 0.194224
O O3 0.763148 0.385589 0.171591
O O4 0.724155 0.584685 0.142821
O O5 0.750000 0.835825 0.250000
O O6 0.500000 0.888558 0.304162
O O7 0.719913 0.789643 0.359752
O O8 0.753461 0.987402 0.329943
O O9 0.264066 0.500000 0.500000
O O10 0.500000 0.368675 0.512412
O O11 0.273890 0.328934 0.437375
O O12 0.223366 0.311697 0.545849
O O13 0.500000 0.279912 0.365047
O O14 0.232287 0.186090 0.359951
O O15 0.750000 0.861330 0.750000
O O16 0.500000 0.903859 0.806620
O O17 0.000000 0.722956 0.379502
#
# Coordination Sequence:
#
# PCOD8221481 Si02
#       6
#     8   8   8   8   8   8
#     4  11  23  36  54  83 117 152 190 237 292 347
#     4  11  22  39  63  89 120 155 196 241 294 352
#     4  10  21  39  61  85 115 158 200 241 294 350
#     4  11  22  38  60  85 117 153 196 241 291 349
#     4  11  22  39  62  88 120 154 195 240 294 351
#     4  11  23  38  59  87 119 155 197 243 293 348
#
# _framework density 19.101568
#
# number of rings (size 3 to 8) (size 9 to 14) (size 15 to 20)
#    0.000    1.167    1.667    6.500    0.000    5.000 
#    0.000    0.833    0.000    5.000    0.000    0.000 
#    0.000    0.000    0.000    0.000    0.000    0.000 
#
# Total GULP energy -595575.411995 kJ/mol
# GULP energy per Si atom -12407.821083 kJ/mol
# Density = 1.905809 g / cm^3
# Si number density = 19.101568 Si / 1000 Ang^3
#
#
#
# Elastic Constant Matrix: (Units=GPa)
#
#
# Indices 1 2 3 4 5 6 
#
# 1 121.5519 47.1815 43.9591 0.0000 0.0000 0.0000
# 2 47.1815 107.5455 48.6450 0.0000 0.0000 0.0000
# 3 43.9591 48.6450 100.9864 0.0000 0.0000 0.0000
# 4 0.0000 0.0000 0.0000 31.0140 0.0000 0.0000
# 5 0.0000 0.0000 0.0000 0.0000 34.3794 0.0000
# 6 0.0000 0.0000 0.0000 0.0000 0.0000 30.5752
#
#
#
# Elastic Compliance Matrix: (Units=1/GPa)
#
#
# Indices 1 2 3 4 5 6 
#
# 1 0.010596 -0.003276 -0.003034 0.000000 0.000000 0.000000
# 2 -0.003276 0.012902 -0.004789 0.000000 0.000000 0.000000
# 3 -0.003034 -0.004789 0.013530 0.000000 0.000000 0.000000
# 4 0.000000 0.000000 0.000000 0.032243 0.000000 0.000000
# 5 0.000000 0.000000 0.000000 0.000000 0.029087 0.000000
# 6 0.000000 0.000000 0.000000 0.000000 0.000000 0.032706
#
#
# Mechanical properties :
#
#
# Convention : Reuss Voigt Hill
#
# Bulk Modulus (GPa) = 67.43375 67.73944 67.58659
# Shear Modulus (GPa) = 31.60449 31.88029 31.74239
#
# Velocity S-wave (km/s) = 4.07203 4.08976 4.08090
# Velocity P-wave (km/s) = 7.58208 7.60534 7.59372
#
# Compressibility (1/GPa) = 0.01482937
#
# Stress axis : x y z
#
# Youngs Moduli (GPa) = 94.37588 77.50953 73.91087
#
# Poissons Ratio (x) = 0.25393 0.22427
# Poissons Ratio (y) = 0.30918 0.35393
# Poissons Ratio (z) = 0.28636 0.37116
#
# Static dielectric constant tensor:
#      x y z
#    x 3.554900 0.000000 0.000000 
#    y 0.000000 3.484760 0.000000 
#    z 0.000000 0.000000 3.456650 
# 
# 
# High freq. dielectric constant tensor:
#      x y z
#    x 1.757630 0.000000 0.000000 
#    y 0.000000 1.744850 0.000000 
#    z 0.000000 0.000000 1.741340 
# 
# From -- ./inp_files/33881.got.cif
#   From: 2010.03.12/outbox.cif.g09.slc.cpg/sg53_17_cif.got.tgz:33881.got - 2010.04.16 14:36:59.
