data_PCOD8221791
_publ_section_title
;
Structure prediction by ZEFSAII (Michael W. Deem and Ramdas Pophale) SiO2 
 PCOD8221791
Probable space group: P M N A
;
_chemical_formula_sum "Si O2"
_cell_formula_units_Z 60
_cell_length_a 22.486702
_cell_length_b 5.336891
_cell_length_c 22.508561
_cell_angle_alpha 90.000000
_cell_angle_beta 90.000000
_cell_angle_gamma 90.000000
_cell_volume 2701.231642
_symmetry_space_group_name_H-M "P M N A"
_symmetry_group_IT_number 53
_symmetry_cell_setting 'orthorhombic'
loop_
_space_group_symop_operation_xyz
x,y,z
1/2-x,-y,1/2+z
x,-y,-z
1/2-x,y,1/2-z
-x,-y,-z
1/2+x,y,1/2-z
-x,y,z
1/2+x,-y,1/2+z
loop_
_atom_site_type_symbol
_atom_site_label
_atom_site_fract_x
_atom_site_fract_y
_atom_site_fract_z
Si Si1 0.287038 0.500000 0.000000
Si Si2 0.567252 0.657789 0.798762
Si Si3 0.232763 0.523900 0.814149
Si Si4 0.833071 0.747135 0.613453
Si Si5 0.568085 0.168144 0.725243
Si Si6 0.142486 0.122905 0.138639
Si Si7 0.570268 0.253176 0.467363
Si Si8 0.754329 0.131621 0.915248
O O1 0.327110 0.437873 0.057155
O O2 0.244490 0.728885 0.020791
O O3 0.500000 0.602795 0.818128
O O4 0.601410 0.712270 0.860443
O O5 0.590373 0.408483 0.763527
O O6 0.571716 0.907631 0.760349
O O7 0.250000 0.414480 0.750000
O O8 0.287760 0.696060 0.833118
O O9 0.171884 0.688999 0.812902
O O10 0.226946 0.300167 0.859818
O O11 0.813298 0.024046 0.591762
O O12 0.500000 0.214886 0.703466
O O13 0.613626 0.124265 0.670285
O O14 0.090941 0.259779 0.101370
O O15 0.193690 0.074077 0.088440
O O16 0.596052 0.500000 0.500000
O O17 0.500000 0.263725 0.466520
O O18 0.592541 0.000000 0.500000
#
# Coordination Sequence:
#
# PCOD8221791 Si02
#       8
#     4   8   8   8   8   8   8   8
#     4  10  22  44  63  90 129 172 226 272 346 394
#     4  10  23  42  69 104 135 176 221 269 336 408
#     4  10  23  39  59  95 129 167 214 268 332 395
#     4  10  22  41  65  90 128 177 209 280 330 407
#     4  10  23  41  67 101 140 177 220 275 333 407
#     4  11  24  40  65  96 127 180 225 274 333 403
#     4  10  24  44  66  93 129 173 223 281 331 378
#     4  10  24  40  62  94 129 172 224 275 335 399
#
# _framework density 22.212091000000001
#
# number of rings (size 3 to 8) (size 9 to 14) (size 15 to 20)
#    0.000    1.867    0.000    1.600    9.333    5.333 
#    4.800    4.333    0.000    1.600    0.000    0.000 
#    0.000    0.000    0.000    0.000    0.000    0.000 
#
# Total GULP energy -743621.577143 kJ/mol
# GULP energy per Si atom -12393.692952 kJ/mol
# Density = 2.216154 g / cm^3
# Si number density = 22.212091 Si / 1000 Ang^3
#
#
#
# Elastic Constant Matrix: (Units=GPa)
#
#
# Indices 1 2 3 4 5 6 
#
# 1 75.4031 30.1921 38.2773 0.0000 0.0000 0.0000
# 2 30.1921 118.5724 21.9790 0.0000 0.0000 0.0000
# 3 38.2773 21.9790 97.8411 0.0000 0.0000 0.0000
# 4 0.0000 0.0000 0.0000 31.3723 0.0000 0.0000
# 5 0.0000 0.0000 0.0000 0.0000 34.0069 0.0000
# 6 0.0000 0.0000 0.0000 0.0000 0.0000 18.2005
#
#
#
# Elastic Compliance Matrix: (Units=1/GPa)
#
#
# Indices 1 2 3 4 5 6 
#
# 1 0.017754 -0.003374 -0.006188 0.000000 0.000000 0.000000
# 2 -0.003374 0.009441 -0.000801 0.000000 0.000000 0.000000
# 3 -0.006188 -0.000801 0.012821 0.000000 0.000000 0.000000
# 4 0.000000 0.000000 0.000000 0.031875 0.000000 0.000000
# 5 0.000000 0.000000 0.000000 0.000000 0.029406 0.000000
# 6 0.000000 0.000000 0.000000 0.000000 0.000000 0.054944
#
#
# Mechanical properties :
#
#
# Convention : Reuss Voigt Hill
#
# Bulk Modulus (GPa) = 51.83627 52.52371 52.17999
# Shear Modulus (GPa) = 27.26323 30.14046 28.70184
#
# Velocity S-wave (km/s) = 3.50723 3.68766 3.59858
# Velocity P-wave (km/s) = 6.30782 6.46758 6.38820
#
# Compressibility (1/GPa) = 0.01929151
#
# Stress axis : x y z
#
# Youngs Moduli (GPa) = 56.32498 105.91876 77.99459
#
# Poissons Ratio (x) = 0.35734 0.48262
# Poissons Ratio (y) = 0.19003 0.06247
# Poissons Ratio (z) = 0.34853 0.08484
#
# Static dielectric constant tensor:
#      x y z
#    x 3.982960 0.000000 0.000000 
#    y 0.000000 4.195130 0.000000 
#    z 0.000000 0.000000 3.850960 
# 
# 
# High freq. dielectric constant tensor:
#      x y z
#    x 1.861720 0.000000 0.000000 
#    y 0.000000 1.885610 0.000000 
#    z 0.000000 0.000000 1.863620 
# 
# From -- ./inp_files/33217.got.cif
#   From: 2010.03.12/outbox.cif.g09.slc.cpg/sg53_17_cif.got.tgz:33217.got - 2010.04.16 14:36:59.
