data_PCOD8221751
_publ_section_title
;
Structure prediction by ZEFSAII (Michael W. Deem and Ramdas Pophale) SiO2 
 PCOD8221751
Probable space group: P M N A
;
_chemical_formula_sum "Si O2"
_cell_formula_units_Z 28
_cell_length_a 8.157689
_cell_length_b 4.804582
_cell_length_c 26.200011
_cell_angle_alpha 90.000000
_cell_angle_beta 90.000000
_cell_angle_gamma 90.000000
_cell_volume 1026.890717
_symmetry_space_group_name_H-M "P M N A"
_symmetry_group_IT_number 53
_symmetry_cell_setting 'orthorhombic'
loop_
_space_group_symop_operation_xyz
x,y,z
1/2-x,-y,1/2+z
x,-y,-z
1/2-x,y,1/2-z
-x,-y,-z
1/2+x,y,1/2-z
-x,y,z
1/2+x,-y,1/2+z
loop_
_atom_site_type_symbol
_atom_site_label
_atom_site_fract_x
_atom_site_fract_y
_atom_site_fract_z
Si Si1 0.500000 0.754903 0.038181
Si Si2 0.810442 0.572380 0.195586
Si Si3 0.178595 0.524018 0.060349
Si Si4 0.807720 0.083283 0.366243
O O1 0.331760 0.739185 0.072822
O O2 0.500000 0.500000 0.000000
O O3 0.500000 0.000000 0.000000
O O4 0.750000 0.688145 0.250000
O O5 0.780454 0.797236 0.150986
O O6 0.000000 0.492760 0.198225
O O7 0.707707 0.296269 0.181412
O O8 0.215809 0.224353 0.085319
O O9 0.000000 0.630615 0.079889
O O10 0.171570 0.500000 0.000000
O O11 0.000000 0.039584 0.380865
#
# Coordination Sequence:
#
# PCOD8221751 Si02
#       4
#     4   8   8   8
#     4  10  22  40  62  90 130 174 220 274 332 394
#     4  12  26  47  72 103 140 182 234 293 358 425
#     4  10  22  43  69 101 139 184 234 287 348 416
#     4  12  25  45  72 104 141 186 235 291 356 422
#
# _framework density 27.266774000000002
#
# number of rings (size 3 to 8) (size 9 to 14) (size 15 to 20)
#    0.000    0.857    1.429    6.000    0.000    5.143 
#    0.000    5.714    0.000    0.000    0.000    0.000 
#    0.000    0.000    0.000    0.000    0.000    0.000 
#
# Total GULP energy -347260.474130 kJ/mol
# GULP energy per Si atom -12402.159790 kJ/mol
# Density = 2.720471 g / cm^3
# Si number density = 27.266774 Si / 1000 Ang^3
#
#
#
# Elastic Constant Matrix: (Units=GPa)
#
#
# Indices 1 2 3 4 5 6 
#
# 1 281.0951 68.4070 49.9883 0.0000 0.0000 0.0000
# 2 68.4070 116.9673 -7.8399 0.0000 0.0000 0.0000
# 3 49.9883 -7.8399 136.8920 0.0000 0.0000 0.0000
# 4 0.0000 0.0000 0.0000 44.6345 0.0000 0.0000
# 5 0.0000 0.0000 0.0000 0.0000 46.4833 0.0000
# 6 0.0000 0.0000 0.0000 0.0000 0.0000 51.4102
#
#
#
# Elastic Compliance Matrix: (Units=1/GPa)
#
#
# Indices 1 2 3 4 5 6 
#
# 1 0.004561 -0.002790 -0.001825 0.000000 0.000000 0.000000
# 2 -0.002790 0.010289 0.001608 0.000000 0.000000 0.000000
# 3 -0.001825 0.001608 0.008064 0.000000 0.000000 0.000000
# 4 0.000000 0.000000 0.000000 0.022404 0.000000 0.000000
# 5 0.000000 0.000000 0.000000 0.000000 0.021513 0.000000
# 6 0.000000 0.000000 0.000000 0.000000 0.000000 0.019451
#
#
# Mechanical properties :
#
#
# Convention : Reuss Voigt Hill
#
# Bulk Modulus (GPa) = 59.17441 84.00725 71.59083
# Shear Modulus (GPa) = 51.05715 56.79888 53.92802
#
# Velocity S-wave (km/s) = 4.33194 4.56903 4.45206
# Velocity P-wave (km/s) = 6.83886 7.66231 7.26227
#
# Compressibility (1/GPa) = 0.01689920
#
# Stress axis : x y z
#
# Youngs Moduli (GPa) = 219.24802 97.19336 124.01311
#
# Poissons Ratio (x) = 0.27115 0.22636
# Poissons Ratio (y) = 0.61166 -0.19941
# Poissons Ratio (z) = 0.40020 -0.15629
#
# Static dielectric constant tensor:
#      x y z
#    x 5.465470 0.000000 0.000000 
#    y 0.000000 4.989930 0.000000 
#    z 0.000000 0.000000 5.466510 
# 
# 
# High freq. dielectric constant tensor:
#      x y z
#    x 2.124030 0.000000 0.000000 
#    y 0.000000 2.105070 0.000000 
#    z 0.000000 0.000000 2.141900 
# 
# From -- ./inp_files/35892.got.cif
#   From: 2010.03.12/outbox.cif.g09.slc.cpg/sg53_18_cif.got.tgz:35892.got - 2010.04.16 14:36:59.
