data_PCOD8221028
_publ_section_title
;
Structure prediction by ZEFSAII (Michael W. Deem and Ramdas Pophale) SiO2 
 PCOD8221028
Probable space group: P M N A
;
_chemical_formula_sum "Si O2"
_cell_formula_units_Z 48
_cell_length_a 8.440194
_cell_length_b 14.961755
_cell_length_c 19.009719
_cell_angle_alpha 90.000000
_cell_angle_beta 90.000000
_cell_angle_gamma 90.000000
_cell_volume 2400.549497
_symmetry_space_group_name_H-M "P M N A"
_symmetry_group_IT_number 53
_symmetry_cell_setting 'orthorhombic'
loop_
_space_group_symop_operation_xyz
x,y,z
1/2-x,-y,1/2+z
x,-y,-z
1/2-x,y,1/2-z
-x,-y,-z
1/2+x,y,1/2-z
-x,y,z
1/2+x,-y,1/2+z
loop_
_atom_site_type_symbol
_atom_site_label
_atom_site_fract_x
_atom_site_fract_y
_atom_site_fract_z
Si Si1 0.813834 0.962611 0.076288
Si Si2 0.813458 0.875649 0.827953
Si Si3 0.684782 0.533311 0.923524
Si Si4 0.814970 0.721507 0.930315
Si Si5 0.684391 0.380527 0.672325
Si Si6 0.817344 0.230672 0.579592
O O1 0.718350 0.872998 0.091499
O O2 0.000000 0.942309 0.080742
O O3 0.755822 0.034104 0.133910
O O4 0.768833 0.000000 0.000000
O O5 0.750000 0.871658 0.750000
O O6 0.752279 0.789713 0.871039
O O7 0.000000 0.874024 0.825689
O O8 0.500000 0.556582 0.923689
O O9 0.782788 0.621649 0.903199
O O10 0.720165 0.458610 0.866196
O O11 0.741212 0.500000 0.000000
O O12 0.000000 0.736813 0.946086
O O13 0.717431 0.739449 0.000550
O O14 0.750000 0.370764 0.750000
O O15 0.500000 0.404594 0.672979
O O16 0.710235 0.287052 0.632874
O O17 0.000000 0.250396 0.596348
#
# Coordination Sequence:
#
# PCOD8221028 Si02
#       6
#     8   8   8   8   8   8
#     4  10  20  40  65  90 123 166 213 260 311 377
#     4  10  23  41  63  91 126 164 206 258 315 373
#     4  11  23  40  65  98 131 164 209 263 314 377
#     4  11  22  40  65  93 124 170 217 258 312 377
#     4  12  26  45  68  94 129 170 211 263 321 381
#     4  12  24  39  63  97 129 164 211 265 317 378
#
# _framework density 19.995421
#
# number of rings (size 3 to 8) (size 9 to 14) (size 15 to 20)
#    0.000    1.000    3.333    4.000    0.000    4.333 
#    0.000    3.333    0.000    0.000    0.000    0.000 
#    0.000    0.000    0.000    0.000    0.000    0.000 
#
# Total GULP energy -595529.325288 kJ/mol
# GULP energy per Si atom -12406.860943 kJ/mol
# Density = 1.994991 g / cm^3
# Si number density = 19.995421 Si / 1000 Ang^3
#
#
#
# Elastic Constant Matrix: (Units=GPa)
#
#
# Indices 1 2 3 4 5 6 
#
# 1 56.1800 17.2358 16.4045 0.0000 0.0000 0.0000
# 2 17.2358 140.9864 57.9657 0.0000 0.0000 0.0000
# 3 16.4045 57.9657 147.8321 0.0000 0.0000 0.0000
# 4 0.0000 0.0000 0.0000 23.2026 0.0000 0.0000
# 5 0.0000 0.0000 0.0000 0.0000 28.1854 0.0000
# 6 0.0000 0.0000 0.0000 0.0000 0.0000 29.2259
#
#
#
# Elastic Compliance Matrix: (Units=1/GPa)
#
#
# Indices 1 2 3 4 5 6 
#
# 1 0.018736 -0.001712 -0.001408 0.000000 0.000000 0.000000
# 2 -0.001712 0.008612 -0.003187 0.000000 0.000000 0.000000
# 3 -0.001408 -0.003187 0.008170 0.000000 0.000000 0.000000
# 4 0.000000 0.000000 0.000000 0.043099 0.000000 0.000000
# 5 0.000000 0.000000 0.000000 0.000000 0.035479 0.000000
# 6 0.000000 0.000000 0.000000 0.000000 0.000000 0.034216
#
#
# Mechanical properties :
#
#
# Convention : Reuss Voigt Hill
#
# Bulk Modulus (GPa) = 43.65731 58.69004 51.17367
# Shear Modulus (GPa) = 29.66272 33.01561 31.33916
#
# Velocity S-wave (km/s) = 3.85577 4.06785 3.96323
# Velocity P-wave (km/s) = 6.45784 7.17487 6.82577
#
# Compressibility (1/GPa) = 0.02290567
#
# Stress axis : x y z
#
# Youngs Moduli (GPa) = 53.37265 116.11060 122.39412
#
# Poissons Ratio (x) = 0.19874 0.17232
# Poissons Ratio (y) = 0.09136 0.39008
# Poissons Ratio (z) = 0.07515 0.37005
#
# Static dielectric constant tensor:
#      x y z
#    x 3.608880 0.000000 0.000000 
#    y 0.000000 3.313230 0.000000 
#    z 0.000000 0.000000 3.498380 
# 
# 
# High freq. dielectric constant tensor:
#      x y z
#    x 1.781250 0.000000 0.000000 
#    y 0.000000 1.798090 0.000000 
#    z 0.000000 0.000000 1.778580 
# 
# From -- ./inp_files/26280.got.cif
#   From: 2010.03.12/outbox.cif.g09.slc.cpg/sg53_14_cif.got.tgz:26280.got - 2010.04.16 14:36:59.
