data_PCOD8221599
_publ_section_title
;
Structure prediction by ZEFSAII (Michael W. Deem and Ramdas Pophale) SiO2 
 PCOD8221599
Probable space group: P M N A
;
_chemical_formula_sum "Si O2"
_cell_formula_units_Z 48
_cell_length_a 8.386830
_cell_length_b 14.806346
_cell_length_c 19.220188
_cell_angle_alpha 90.000000
_cell_angle_beta 90.000000
_cell_angle_gamma 90.000000
_cell_volume 2386.730403
_symmetry_space_group_name_H-M "P M N A"
_symmetry_group_IT_number 53
_symmetry_cell_setting 'orthorhombic'
loop_
_space_group_symop_operation_xyz
x,y,z
1/2-x,-y,1/2+z
x,-y,-z
1/2-x,y,1/2-z
-x,-y,-z
1/2+x,y,1/2-z
-x,y,z
1/2+x,-y,1/2+z
loop_
_atom_site_type_symbol
_atom_site_label
_atom_site_fract_x
_atom_site_fract_y
_atom_site_fract_z
Si Si1 0.684491 0.967976 0.076164
Si Si2 0.814687 0.886616 0.826961
Si Si3 0.687490 0.568426 0.823501
Si Si4 0.189148 0.364049 0.675104
Si Si5 0.313942 0.728826 0.918544
Si Si6 0.316548 0.224952 0.565554
O O1 0.500000 0.991471 0.088620
O O2 0.709949 0.861379 0.084212
O O3 0.790302 0.019206 0.132937
O O4 0.740158 0.000000 0.000000
O O5 0.750000 0.899265 0.750000
O O6 0.714044 0.809110 0.864503
O O7 0.000000 0.860643 0.826171
O O8 0.750000 0.605407 0.750000
O O9 0.500000 0.570197 0.819086
O O10 0.747957 0.466848 0.837856
O O11 0.745526 0.634798 0.884611
O O12 0.250000 0.330205 0.750000
O O13 0.271549 0.305650 0.616279
O O14 0.000000 0.354599 0.670422
O O15 0.500000 0.725770 0.938406
O O16 0.211508 0.743160 0.987150
O O17 0.500000 0.198460 0.574708
#
# Coordination Sequence:
#
# PCOD8221599 Si02
#       6
#     8   8   8   8   8   8
#     4  11  23  42  67  90 119 159 202 249 305 363
#     4  12  25  41  63  93 127 162 204 252 302 361
#     4   9  20  37  61  88 120 161 204 251 305 360
#     4  10  21  41  64  89 121 159 204 255 306 361
#     4  11  22  39  61  90 125 163 205 251 305 363
#     4  12  25  40  62  92 123 161 204 250 305 365
#
# _framework density 20.111194000000001
#
# number of rings (size 3 to 8) (size 9 to 14) (size 15 to 20)
#    0.000    1.167    1.667    5.000    0.000    5.333 
#    0.000    6.667    0.000    0.000    0.000    0.000 
#    0.000    0.000    0.000    0.000    0.000    0.000 
#
# Total GULP energy -595507.989730 kJ/mol
# GULP energy per Si atom -12406.416453 kJ/mol
# Density = 2.006542 g / cm^3
# Si number density = 20.111194 Si / 1000 Ang^3
#
#
#
# Elastic Constant Matrix: (Units=GPa)
#
#
# Indices 1 2 3 4 5 6 
#
# 1 60.3519 10.8188 21.1686 0.0000 0.0000 0.0000
# 2 10.8188 106.8907 53.9495 0.0000 0.0000 0.0000
# 3 21.1686 53.9495 123.9724 0.0000 0.0000 0.0000
# 4 0.0000 0.0000 0.0000 41.7769 0.0000 0.0000
# 5 0.0000 0.0000 0.0000 0.0000 34.5870 0.0000
# 6 0.0000 0.0000 0.0000 0.0000 0.0000 -2.9614
#
#
#
# Elastic Compliance Matrix: (Units=1/GPa)
#
#
# Indices 1 2 3 4 5 6 
#
# 1 0.017635 -0.000340 -0.002863 0.000000 0.000000 0.000000
# 2 -0.000340 0.011995 -0.005162 0.000000 0.000000 0.000000
# 3 -0.002863 -0.005162 0.010802 0.000000 0.000000 0.000000
# 4 0.000000 0.000000 0.000000 0.023937 0.000000 0.000000
# 5 0.000000 0.000000 0.000000 0.000000 0.028913 0.000000
# 6 0.000000 0.000000 0.000000 0.000000 0.000000 -0.337673
#
#
# Mechanical properties :
#
#
# Convention : Reuss Voigt Hill
#
# Bulk Modulus (GPa) = 42.19163 51.45432 46.82297
# Shear Modulus (GPa) = -22.75191 28.36570 2.80689
#
# Velocity S-wave (km/s) = -3.36714 3.75966 1.18267
# Velocity P-wave (km/s) = 2.43062 6.66987 5.01972
#
# Compressibility (1/GPa) = 0.02370139
#
# Stress axis : x y z
#
# Youngs Moduli (GPa) = 56.70636 83.36784 92.57925
#
# Poissons Ratio (x) = 0.02832 0.26509
# Poissons Ratio (y) = 0.01926 0.47789
# Poissons Ratio (z) = 0.16237 0.43034
#
# Static dielectric constant tensor:
#      x y z
#    x 3.686960 0.000000 0.000000 
#    y 0.000000 3.885030 0.000000 
#    z 0.000000 0.000000 3.674560 
# 
# 
# High freq. dielectric constant tensor:
#      x y z
#    x 1.791540 0.000000 0.000000 
#    y 0.000000 1.793460 0.000000 
#    z 0.000000 0.000000 1.789150 
# 
# From -- ./inp_files/26271.got.cif
#   From: 2010.03.12/outbox.cif.g09.slc.cpg/sg53_14_cif.got.tgz:26271.got - 2010.04.16 14:36:59.
