data_PCOD8221943
_publ_section_title
;
Structure prediction by ZEFSAII (Michael W. Deem and Ramdas Pophale) SiO2 
 PCOD8221943
Probable space group: P M N A
;
_chemical_formula_sum "Si O2"
_cell_formula_units_Z 20
_cell_length_a 29.957975
_cell_length_b 5.058662
_cell_length_c 5.059176
_cell_angle_alpha 90.000000
_cell_angle_beta 90.000000
_cell_angle_gamma 90.000000
_cell_volume 766.704310
_symmetry_space_group_name_H-M "P M N A"
_symmetry_group_IT_number 53
_symmetry_cell_setting 'orthorhombic'
loop_
_space_group_symop_operation_xyz
x,y,z
1/2-x,-y,1/2+z
x,-y,-z
1/2-x,y,1/2-z
-x,-y,-z
1/2+x,y,1/2-z
-x,y,z
1/2+x,-y,1/2+z
loop_
_atom_site_type_symbol
_atom_site_label
_atom_site_fract_x
_atom_site_fract_y
_atom_site_fract_z
Si Si1 0.925949 0.500000 0.000000
Si Si2 0.000000 0.747171 0.316584
Si Si3 0.779181 0.500000 0.000000
Si Si4 0.151431 0.259737 0.322585
O O1 0.955819 0.272226 0.863528
O O2 0.896956 0.670374 0.794370
O O3 0.000000 0.500000 0.500000
O O4 0.000000 0.000000 0.500000
O O5 0.750000 0.598018 0.250000
O O6 0.811299 0.251734 0.088447
O O7 0.168522 0.500000 0.500000
O O8 0.148309 0.000000 0.500000
#
# Coordination Sequence:
#
# PCOD8221943 Si02
#       4
#     4   4   4   8
#     4  10  26  47  80 116 158 210 270 333 402 482
#     4  11  26  47  75 114 157 209 266 334 402 474
#     4  11  24  53  82 123 162 215 268 337 404 489
#     4  11  26  50  79 117 159 212 267 331 403 482
#
# _framework density 26.085675999999999
#
# number of rings (size 3 to 8) (size 9 to 14) (size 15 to 20)
#    0.000    1.200    2.000    1.200    0.000   19.200 
#    7.200    3.000    0.000    0.000    0.000    0.000 
#    0.000    0.000    0.000    0.000    0.000    0.000 
#
# Total GULP energy -247892.144484 kJ/mol
# GULP energy per Si atom -12394.607224 kJ/mol
# Density = 2.602630 g / cm^3
# Si number density = 26.085676 Si / 1000 Ang^3
#
#
#
# Elastic Constant Matrix: (Units=GPa)
#
#
# Indices 1 2 3 4 5 6 
#
# 1 209.5977 70.4125 101.9268 0.0000 0.0000 0.0000
# 2 70.4125 192.0758 93.9642 0.0000 0.0000 0.0000
# 3 101.9268 93.9642 183.2681 0.0000 0.0000 0.0000
# 4 0.0000 0.0000 0.0000 69.7257 0.0000 0.0000
# 5 0.0000 0.0000 0.0000 0.0000 -32.8103 0.0000
# 6 0.0000 0.0000 0.0000 0.0000 0.0000 149.3672
#
#
#
# Elastic Compliance Matrix: (Units=1/GPa)
#
#
# Indices 1 2 3 4 5 6 
#
# 1 0.006639 -0.000838 -0.003263 0.000000 0.000000 0.000000
# 2 -0.000838 0.007055 -0.003151 0.000000 0.000000 0.000000
# 3 -0.003263 -0.003151 0.008887 0.000000 0.000000 0.000000
# 4 0.000000 0.000000 0.000000 0.014342 0.000000 0.000000
# 5 0.000000 0.000000 0.000000 0.000000 -0.030478 0.000000
# 6 0.000000 0.000000 0.000000 0.000000 0.000000 0.006695
#
#
# Mechanical properties :
#
#
# Convention : Reuss Voigt Hill
#
# Bulk Modulus (GPa) = 123.80431 124.17206 123.98819
# Shear Modulus (GPa) = 164.81962 58.49906 111.65934
#
# Velocity S-wave (km/s) = 7.95746 4.74072 6.54964
# Velocity P-wave (km/s) = 11.48877 8.81311 10.23872
#
# Compressibility (1/GPa) = 0.00807726
#
# Stress axis : x y z
#
# Youngs Moduli (GPa) = 150.61979 141.74393 112.52353
#
# Poissons Ratio (x) = 0.11872 0.36717
# Poissons Ratio (y) = 0.12615 0.35460
# Poissons Ratio (z) = 0.49148 0.44669
#
# Static dielectric constant tensor:
#      x y z
#    x 4.638280 0.000000 0.000000 
#    y 0.000000 4.013490 0.000000 
#    z 0.000000 0.000000 5.311810 
# 
# 
# High freq. dielectric constant tensor:
#      x y z
#    x 2.070820 0.000000 0.000000 
#    y 0.000000 2.014340 0.000000 
#    z 0.000000 0.000000 2.076430 
# 
# From -- ./inp_files/4745.got.cif
#   From: 2010.03.12/outbox.cif.g09.slc.cpg/sg53_3_cif.got.tgz:4745.got - 2010.04.16 14:36:59.
