data_PCOD8221719
_publ_section_title
;
Structure prediction by ZEFSAII (Michael W. Deem and Ramdas Pophale) SiO2 
 PCOD8221719
Probable space group: P M N A
;
_chemical_formula_sum "Si O2"
_cell_formula_units_Z 40
_cell_length_a 19.019708
_cell_length_b 12.702347
_cell_length_c 7.542571
_cell_angle_alpha 90.000000
_cell_angle_beta 90.000000
_cell_angle_gamma 90.000000
_cell_volume 1822.246919
_symmetry_space_group_name_H-M "P M N A"
_symmetry_group_IT_number 53
_symmetry_cell_setting 'orthorhombic'
loop_
_space_group_symop_operation_xyz
x,y,z
1/2-x,-y,1/2+z
x,-y,-z
1/2-x,y,1/2-z
-x,-y,-z
1/2+x,y,1/2-z
-x,y,z
1/2+x,-y,1/2+z
loop_
_atom_site_type_symbol
_atom_site_label
_atom_site_fract_x
_atom_site_fract_y
_atom_site_fract_z
Si Si1 0.804945 0.906960 0.108127
Si Si2 0.919557 0.030418 0.304871
Si Si3 0.417803 0.723901 0.768837
Si Si4 0.177685 0.323187 0.964440
Si Si5 0.834903 0.615478 0.439859
O O1 0.750000 0.865314 0.250000
O O2 0.821566 0.801919 0.002949
O O3 0.877562 0.955810 0.173438
O O4 0.765584 0.000000 0.000000
O O5 0.906120 0.151026 0.251922
O O6 0.000000 0.998431 0.281381
O O7 0.893339 0.000000 0.500000
O O8 0.500000 0.695437 0.762287
O O9 0.379023 0.650213 0.618695
O O10 0.385690 0.696425 0.960490
O O11 0.153733 0.362385 0.769838
O O12 0.254227 0.370776 0.003725
O O13 0.858965 0.500000 0.500000
#
# Coordination Sequence:
#
# PCOD8221719 Si02
#       5
#     8   8   8   8   8
#     4  12  23  37  62  95 133 170 215 270 327 395
#     4  10  22  39  62  93 135 181 216 258 328 404
#     4  11  25  44  69 101 139 180 225 284 340 408
#     4  11  25  44  68 103 133 179 229 280 338 417
#     4  11  26  46  72  96 131 176 231 291 351 401
#
# _framework density 21.950921999999998
#
# number of rings (size 3 to 8) (size 9 to 14) (size 15 to 20)
#    0.000    1.000    4.000    2.400    8.400    2.400 
#    0.000    1.000    0.000    0.000    0.000    0.000 
#    0.000    0.000    0.000    0.000    0.000    0.000 
#
# Total GULP energy -495818.869746 kJ/mol
# GULP energy per Si atom -12395.471744 kJ/mol
# Density = 2.190096 g / cm^3
# Si number density = 21.950922 Si / 1000 Ang^3
#
#
#
# Elastic Constant Matrix: (Units=GPa)
#
#
# Indices 1 2 3 4 5 6 
#
# 1 95.5759 -0.4327 37.7523 0.0000 0.0000 0.0000
# 2 -0.4327 68.0983 -0.0419 0.0000 0.0000 0.0000
# 3 37.7523 -0.0419 89.6653 0.0000 0.0000 0.0000
# 4 0.0000 0.0000 0.0000 33.1317 0.0000 0.0000
# 5 0.0000 0.0000 0.0000 0.0000 6.4611 0.0000
# 6 0.0000 0.0000 0.0000 0.0000 0.0000 23.0639
#
#
#
# Elastic Compliance Matrix: (Units=1/GPa)
#
#
# Indices 1 2 3 4 5 6 
#
# 1 0.012550 0.000077 -0.005284 0.000000 0.000000 0.000000
# 2 0.000077 0.014685 -0.000025 0.000000 0.000000 0.000000
# 3 -0.005284 -0.000025 0.013377 0.000000 0.000000 0.000000
# 4 0.000000 0.000000 0.000000 0.030183 0.000000 0.000000
# 5 0.000000 0.000000 0.000000 0.000000 0.154771 0.000000
# 6 0.000000 0.000000 0.000000 0.000000 0.000000 0.043358
#
#
# Mechanical properties :
#
#
# Convention : Reuss Voigt Hill
#
# Bulk Modulus (GPa) = 33.17084 36.43278 34.80181
# Shear Modulus (GPa) = 17.27476 26.93549 22.10512
#
# Velocity S-wave (km/s) = 2.80835 3.50677 3.17681
# Velocity P-wave (km/s) = 5.06556 5.74717 5.41710
#
# Compressibility (1/GPa) = 0.03014696
#
# Stress axis : x y z
#
# Youngs Moduli (GPa) = 79.67829 68.09614 74.75297
#
# Poissons Ratio (x) = -0.00521 0.39501
# Poissons Ratio (y) = -0.00610 0.00190
# Poissons Ratio (z) = 0.42103 0.00173
#
# Static dielectric constant tensor:
#      x y z
#    x 3.840990 0.000000 0.000000 
#    y 0.000000 2.235980 0.000000 
#    z 0.000000 0.000000 -3.431040 
# 
# 
# High freq. dielectric constant tensor:
#      x y z
#    x 1.860210 0.000000 0.000000 
#    y 0.000000 1.862600 0.000000 
#    z 0.000000 0.000000 1.872420 
# 
# From -- ./inp_files/9667.got.cif
#   From: 2010.03.12/outbox.cif.g09.slc.cpg/sg53_5_cif.got.tgz:9667.got - 2010.04.16 14:36:59.
