data_PCOD8221814
_publ_section_title
;
Structure prediction by ZEFSAII (Michael W. Deem and Ramdas Pophale) SiO2 
 PCOD8221814
Probable space group: P M N A
;
_chemical_formula_sum "Si O2"
_cell_formula_units_Z 24
_cell_length_a 10.884435
_cell_length_b 7.424528
_cell_length_c 14.290507
_cell_angle_alpha 90.000000
_cell_angle_beta 90.000000
_cell_angle_gamma 90.000000
_cell_volume 1154.841485
_symmetry_space_group_name_H-M "P M N A"
_symmetry_group_IT_number 53
_symmetry_cell_setting 'orthorhombic'
loop_
_space_group_symop_operation_xyz
x,y,z
1/2-x,-y,1/2+z
x,-y,-z
1/2-x,y,1/2-z
-x,-y,-z
1/2+x,y,1/2-z
-x,y,z
1/2+x,-y,1/2+z
loop_
_atom_site_type_symbol
_atom_site_label
_atom_site_fract_x
_atom_site_fract_y
_atom_site_fract_z
Si Si1 0.636313 0.370169 0.691168
Si Si2 0.750000 0.023014 0.750000
Si Si3 0.271821 0.500000 0.500000
Si Si4 0.644547 0.149516 0.071284
O O1 0.750000 0.461127 0.750000
O O2 0.500000 0.427984 0.728596
O O3 0.647168 0.153149 0.702573
O O4 0.642853 0.425814 0.582943
O O5 0.806923 0.890357 0.674309
O O6 0.184693 0.344617 0.462067
O O7 0.500000 0.143264 0.073324
O O8 0.696719 0.000000 0.000000
#
# Coordination Sequence:
#
# PCOD8221814 Si02
#       4
#     8   4   4   8
#     4  10  23  44  69  97 138 178 226 280 334 403
#     4  10  22  42  68  98 134 178 228 278 336 398
#     4  12  24  42  68 104 135 176 229 280 345 394
#     4  11  23  44  69  99 138 182 228 279 340 408
#
# _framework density 20.782073
#
# number of rings (size 3 to 8) (size 9 to 14) (size 15 to 20)
#    1.000    0.333    3.333    2.000    2.333    2.667 
#    0.000    6.667    0.000    0.000    0.000    0.000 
#    0.000    0.000    0.000    0.000    0.000    0.000 
#
# Total GULP energy -297456.626237 kJ/mol
# GULP energy per Si atom -12394.026093 kJ/mol
# Density = 2.073477 g / cm^3
# Si number density = 20.782073 Si / 1000 Ang^3
#
#
#
# Elastic Constant Matrix: (Units=GPa)
#
#
# Indices 1 2 3 4 5 6 
#
# 1 139.4003 33.2132 65.3446 0.0000 0.0000 0.0000
# 2 33.2132 120.6783 75.0111 0.0000 0.0000 0.0000
# 3 65.3446 75.0111 125.4295 0.0000 0.0000 0.0000
# 4 0.0000 0.0000 0.0000 56.0334 0.0000 0.0000
# 5 0.0000 0.0000 0.0000 0.0000 18.3655 0.0000
# 6 0.0000 0.0000 0.0000 0.0000 0.0000 -30.1340
#
#
#
# Elastic Compliance Matrix: (Units=1/GPa)
#
#
# Indices 1 2 3 4 5 6 
#
# 1 0.009532 0.000737 -0.005407 0.000000 0.000000 0.000000
# 2 0.000737 0.013246 -0.008306 0.000000 0.000000 0.000000
# 3 -0.005407 -0.008306 0.015757 0.000000 0.000000 0.000000
# 4 0.000000 0.000000 0.000000 0.017847 0.000000 0.000000
# 5 0.000000 0.000000 0.000000 0.000000 0.054450 0.000000
# 6 0.000000 0.000000 0.000000 0.000000 0.000000 -0.033185
#
#
# Mechanical properties :
#
#
# Convention : Reuss Voigt Hill
#
# Bulk Modulus (GPa) = 79.46386 81.40509 80.43448
# Shear Modulus (GPa) = 46.38523 22.98226 34.68374
#
# Velocity S-wave (km/s) = 4.72951 3.32907 4.08968
# Velocity P-wave (km/s) = 8.25495 7.35070 7.81591
#
# Compressibility (1/GPa) = 0.01258434
#
# Stress axis : x y z
#
# Youngs Moduli (GPa) = 104.90432 75.49258 63.46492
#
# Poissons Ratio (x) = -0.05567 0.34316
# Poissons Ratio (y) = -0.07736 0.52713
# Poissons Ratio (z) = 0.56723 0.62703
#
# Static dielectric constant tensor:
#      x y z
#    x 3.537380 0.000000 0.000000 
#    y 0.000000 3.707370 0.000000 
#    z 0.000000 0.000000 3.887610 
# 
# 
# High freq. dielectric constant tensor:
#      x y z
#    x 1.803880 0.000000 0.000000 
#    y 0.000000 1.808960 0.000000 
#    z 0.000000 0.000000 1.823230 
# 
# From -- ./inp_files/14427.got.cif
#   From: 2010.03.12/outbox.cif.g09.slc.cpg/sg53_8_cif.got.tgz:14427.got - 2010.04.16 14:36:59.
