data_PCOD8221132
_publ_section_title
;
Structure prediction by ZEFSAII (Michael W. Deem and Ramdas Pophale) SiO2 
 PCOD8221132
Probable space group: P M N A
;
_chemical_formula_sum "Si O2"
_cell_formula_units_Z 56
_cell_length_a 19.181040
_cell_length_b 9.557076
_cell_length_c 16.043292
_cell_angle_alpha 90.000000
_cell_angle_beta 90.000000
_cell_angle_gamma 90.000000
_cell_volume 2940.970571
_symmetry_space_group_name_H-M "P M N A"
_symmetry_group_IT_number 53
_symmetry_cell_setting 'orthorhombic'
loop_
_space_group_symop_operation_xyz
x,y,z
1/2-x,-y,1/2+z
x,-y,-z
1/2-x,y,1/2-z
-x,-y,-z
1/2+x,y,1/2-z
-x,y,z
1/2+x,-y,1/2+z
loop_
_atom_site_type_symbol
_atom_site_label
_atom_site_fract_x
_atom_site_fract_y
_atom_site_fract_z
Si Si1 0.917277 0.539495 0.725878
Si Si2 0.676560 0.974575 0.204855
Si Si3 0.153962 0.311845 0.940373
Si Si4 0.285528 0.143840 0.960405
Si Si5 0.318400 0.728481 0.870419
Si Si6 0.921180 0.764633 0.214340
Si Si7 0.166408 0.615896 0.881257
O O1 0.873814 0.604818 0.648658
O O2 0.899144 0.374175 0.732953
O O3 0.890849 0.620435 0.808556
O O4 0.000000 0.564374 0.714864
O O5 0.750000 0.954329 0.250000
O O6 0.666021 0.889183 0.118481
O O7 0.619679 0.905918 0.264566
O O8 0.662264 0.137897 0.186701
O O9 0.217701 0.211667 0.920947
O O10 0.088225 0.268105 0.884067
O O11 0.183184 0.461049 0.911785
O O12 0.134290 0.303234 0.038440
O O13 0.324260 0.237972 0.030489
O O14 0.259284 0.000000 0.000000
O O15 0.238818 0.684125 0.849812
O O16 0.000000 0.800662 0.232631
#
# Coordination Sequence:
#
# PCOD8221132 Si02
#       7
#     8   8   8   8   8   8   8
#     4  10  21  36  53  78 112 151 188 229 275 330
#     4  11  20  34  58  82 107 145 184 229 281 324
#     4   9  17  33  55  83 111 144 175 232 285 331
#     4   9  19  34  54  85 110 138 179 232 277 329
#     4  10  21  36  56  83 113 140 186 235 279 329
#     4  10  22  36  54  82 115 149 190 226 273 338
#     4   9  18  32  57  85 109 139 188 232 283 332
#
# _framework density 19.041335
#
# number of rings (size 3 to 8) (size 9 to 14) (size 15 to 20)
#    0.000    2.286    1.429    1.286    2.000    1.143 
#    0.000    3.571    0.000    4.714    0.000    0.000 
#    0.000    0.000    0.000    0.000    0.000    0.000 
#
# Total GULP energy -694028.194480 kJ/mol
# GULP energy per Si atom -12393.360616 kJ/mol
# Density = 1.899800 g / cm^3
# Si number density = 19.041335 Si / 1000 Ang^3
#
#
#
# Elastic Constant Matrix: (Units=GPa)
#
#
# Indices 1 2 3 4 5 6 
#
# 1 77.3628 29.0356 21.8301 0.0000 0.0000 0.0000
# 2 29.0356 53.6685 20.0814 0.0000 0.0000 0.0000
# 3 21.8301 20.0814 63.2539 0.0000 0.0000 0.0000
# 4 0.0000 0.0000 0.0000 29.5121 0.0000 0.0000
# 5 0.0000 0.0000 0.0000 0.0000 21.2000 0.0000
# 6 0.0000 0.0000 0.0000 0.0000 0.0000 16.3765
#
#
#
# Elastic Compliance Matrix: (Units=1/GPa)
#
#
# Indices 1 2 3 4 5 6 
#
# 1 0.016808 -0.007856 -0.003307 0.000000 0.000000 0.000000
# 2 -0.007856 0.024817 -0.005167 0.000000 0.000000 0.000000
# 3 -0.003307 -0.005167 0.018591 0.000000 0.000000 0.000000
# 4 0.000000 0.000000 0.000000 0.033884 0.000000 0.000000
# 5 0.000000 0.000000 0.000000 0.000000 0.047170 0.000000
# 6 0.000000 0.000000 0.000000 0.000000 0.000000 0.061063
#
#
# Mechanical properties :
#
#
# Convention : Reuss Voigt Hill
#
# Bulk Modulus (GPa) = 36.29054 37.35326 36.82190
# Shear Modulus (GPa) = 20.47690 21.64025 21.05858
#
# Velocity S-wave (km/s) = 3.28288 3.37484 3.32918
# Velocity P-wave (km/s) = 5.78532 5.90302 5.84446
#
# Compressibility (1/GPa) = 0.02755539
#
# Stress axis : x y z
#
# Youngs Moduli (GPa) = 59.49676 40.29560 53.78957
#
# Poissons Ratio (x) = 0.31656 0.17786
# Poissons Ratio (y) = 0.46741 0.27795
# Poissons Ratio (z) = 0.19673 0.20822
#
# Static dielectric constant tensor:
#      x y z
#    x 3.141150 0.000000 0.000000 
#    y 0.000000 3.581850 0.000000 
#    z 0.000000 0.000000 3.708250 
# 
# 
# High freq. dielectric constant tensor:
#      x y z
#    x 1.704140 0.000000 0.000000 
#    y 0.000000 1.745790 0.000000 
#    z 0.000000 0.000000 1.748180 
# 
# From -- ./inp_files/24349.got.cif
#   From: 2010.03.12/outbox.cif.g09.slc.cpg/sg53_13_cif.got.tgz:24349.got - 2010.04.16 14:36:59.
