data_PCOD8221767
_publ_section_title
;
Structure prediction by ZEFSAII (Michael W. Deem and Ramdas Pophale) SiO2 
 PCOD8221767
Probable space group: P M N A
;
_chemical_formula_sum "Si O2"
_cell_formula_units_Z 28
_cell_length_a 17.747003
_cell_length_b 5.126336
_cell_length_c 15.007550
_cell_angle_alpha 90.000000
_cell_angle_beta 90.000000
_cell_angle_gamma 90.000000
_cell_volume 1365.343383
_symmetry_space_group_name_H-M "P M N A"
_symmetry_group_IT_number 53
_symmetry_cell_setting 'orthorhombic'
loop_
_space_group_symop_operation_xyz
x,y,z
1/2-x,-y,1/2+z
x,-y,-z
1/2-x,y,1/2-z
-x,-y,-z
1/2+x,y,1/2-z
-x,y,z
1/2+x,-y,1/2+z
loop_
_atom_site_type_symbol
_atom_site_label
_atom_site_fract_x
_atom_site_fract_y
_atom_site_fract_z
Si Si1 0.085683 0.181715 0.650865
Si Si2 0.332160 0.757797 0.553124
Si Si3 0.414293 0.330263 0.265192
Si Si4 0.312395 0.000000 0.000000
O O1 0.114447 0.403695 0.718903
O O2 0.136674 0.181412 0.562937
O O3 0.000000 0.245525 0.622230
O O4 0.091752 0.899848 0.694623
O O5 0.353681 0.500000 0.500000
O O6 0.361130 0.737217 0.652876
O O7 0.370950 0.000000 0.500000
O O8 0.241643 0.806163 0.557328
O O9 0.500000 0.363912 0.299349
#
# Coordination Sequence:
#
# PCOD8221767 Si02
#       4
#     8   8   8   4
#     4  10  22  40  65  88 119 161 206 256 298 358
#     4  10  23  40  57  92 122 161 200 247 314 364
#     4  10  22  41  63  90 118 158 209 252 302 358
#     4  10  25  40  59  92 126 162 202 250 311 376
#
# _framework density 20.507659
#
# number of rings (size 3 to 8) (size 9 to 14) (size 15 to 20)
#    0.857    1.143    0.000    2.143    4.000    2.286 
#    0.000    4.286    0.000    0.000    0.000    0.000 
#    0.000    0.000    0.000    0.000    0.000    0.000 
#
# Total GULP energy -347189.598944 kJ/mol
# GULP energy per Si atom -12399.628534 kJ/mol
# Density = 2.046098 g / cm^3
# Si number density = 20.507659 Si / 1000 Ang^3
#
#
#
# Elastic Constant Matrix: (Units=GPa)
#
#
# Indices 1 2 3 4 5 6 
#
# 1 100.1555 27.3741 79.4307 0.0000 0.0000 0.0000
# 2 27.3741 120.1379 32.9369 0.0000 0.0000 0.0000
# 3 79.4307 32.9369 122.2947 0.0000 0.0000 0.0000
# 4 0.0000 0.0000 0.0000 36.8957 0.0000 0.0000
# 5 0.0000 0.0000 0.0000 0.0000 27.2880 0.0000
# 6 0.0000 0.0000 0.0000 0.0000 0.0000 5.2328
#
#
#
# Elastic Compliance Matrix: (Units=1/GPa)
#
#
# Indices 1 2 3 4 5 6 
#
# 1 0.020728 -0.001114 -0.013163 0.000000 0.000000 0.000000
# 2 -0.001114 0.009047 -0.001713 0.000000 0.000000 0.000000
# 3 -0.013163 -0.001713 0.017188 0.000000 0.000000 0.000000
# 4 0.000000 0.000000 0.000000 0.027103 0.000000 0.000000
# 5 0.000000 0.000000 0.000000 0.000000 0.036646 0.000000
# 6 0.000000 0.000000 0.000000 0.000000 0.000000 0.191101
#
#
# Mechanical properties :
#
#
# Convention : Reuss Voigt Hill
#
# Bulk Modulus (GPa) = 66.74287 69.11905 67.93096
# Shear Modulus (GPa) = 14.75847 27.40639 21.08243
#
# Velocity S-wave (km/s) = 2.68555 3.65964 3.20976
# Velocity P-wave (km/s) = 6.49863 7.18572 6.85079
#
# Compressibility (1/GPa) = 0.01498287
#
# Stress axis : x y z
#
# Youngs Moduli (GPa) = 48.24361 110.53048 58.18152
#
# Poissons Ratio (x) = 0.12317 0.76583
# Poissons Ratio (y) = 0.05376 0.09966
# Poissons Ratio (z) = 0.63502 0.18933
#
# Static dielectric constant tensor:
#      x y z
#    x 3.675280 0.000000 0.000000 
#    y 0.000000 3.833440 0.000000 
#    z 0.000000 0.000000 3.620590 
# 
# 
# High freq. dielectric constant tensor:
#      x y z
#    x 1.792370 0.000000 0.000000 
#    y 0.000000 1.816800 0.000000 
#    z 0.000000 0.000000 1.793780 
# 
# From -- ./inp_files/23169.got.cif
#   From: 2010.03.12/outbox.cif.g09.slc.cpg/sg53_12_cif.got.tgz:23169.got - 2010.04.16 14:36:59.
