data_PCOD8221844
_publ_section_title
;
Structure prediction by ZEFSAII (Michael W. Deem and Ramdas Pophale) SiO2 
 PCOD8221844
Probable space group: P M N A
;
_chemical_formula_sum "Si O2"
_cell_formula_units_Z 64
_cell_length_a 15.274120
_cell_length_b 21.769542
_cell_length_c 9.938149
_cell_angle_alpha 90.000000
_cell_angle_beta 90.000000
_cell_angle_gamma 90.000000
_cell_volume 3304.539856
_symmetry_space_group_name_H-M "P M N A"
_symmetry_group_IT_number 53
_symmetry_cell_setting 'orthorhombic'
loop_
_space_group_symop_operation_xyz
x,y,z
1/2-x,-y,1/2+z
x,-y,-z
1/2-x,y,1/2-z
-x,-y,-z
1/2+x,y,1/2-z
-x,y,z
1/2+x,-y,1/2+z
loop_
_atom_site_type_symbol
_atom_site_label
_atom_site_fract_x
_atom_site_fract_y
_atom_site_fract_z
Si Si1 0.250000 0.849224 0.094557
Si Si2 0.902147 0.357720 0.032656
Si Si3 0.899904 0.056199 0.904364
Si Si4 0.597854 0.642280 0.967358
Si Si5 0.853730 0.408388 0.750003
Si Si6 0.399904 0.056199 0.904364
Si Si7 0.750001 0.734603 0.599398
Si Si8 0.853658 0.547560 0.749990
O O1 0.250000 0.829299 0.250000
O O2 0.162918 0.887437 0.059364
O O3 0.337082 0.887438 0.059364
O O4 0.250001 0.788669 0.007016
O O5 0.836223 0.305865 0.081467
O O6 0.888472 0.420010 0.116087
O O7 0.000000 0.332649 0.056622
O O8 0.889619 0.372170 0.877081
O O9 0.885467 0.035234 0.750000
O O10 0.000000 0.077187 0.929134
O O11 0.874257 0.000000 0.000000
O O12 0.500000 0.667345 0.943374
O O13 0.663773 0.694136 0.918532
O O14 0.611541 0.579985 0.883948
O O15 0.610380 0.627841 0.122939
O O16 0.750000 0.407395 0.750000
O O17 0.888840 0.478065 0.749992
O O18 0.500000 0.077187 0.929133
O O19 0.374258 0.000000 0.000000
O O20 0.750000 0.761940 0.750000
O O21 0.750000 0.549982 0.750000
#
# Coordination Sequence:
#
# PCOD8221844 Si02
#       8
#     8   8   8   8   8   8   8   8
#     4  10  23  39  61  85 121 163 204 249 291 345
#     4  12  24  41  63  87 118 155 198 249 306 366
#     4   9  18  35  60  93 128 158 193 239 293 347
#     4  12  24  41  63  87 118 155 198 249 306 366
#     4  11  23  39  65  92 121 149 190 245 308 380
#     4   9  18  35  60  93 128 158 193 239 293 347
#     4  12  26  45  60  84 118 161 211 256 301 353
#     4  11  21  41  65  90 121 155 186 243 314 372
#
# _framework density 19.367296
#
# number of rings (size 3 to 8) (size 9 to 14) (size 15 to 20)
#    0.000    1.250    3.750    1.875    1.750    7.000 
#    0.000    0.000    0.000    0.000    0.000    0.000 
#    0.000    0.000    0.000    0.000    0.000    0.000 
#
# Total GULP energy -793881.131597 kJ/mol
# GULP energy per Si atom -12404.392681 kJ/mol
# Density = 1.932322 g / cm^3
# Si number density = 19.367296 Si / 1000 Ang^3
#
#
#
# Elastic Constant Matrix: (Units=GPa)
#
#
# Indices 1 2 3 4 5 6 
#
# 1 133.3185 50.4930 27.8771 0.0000 0.0000 0.0000
# 2 50.4930 95.8275 38.5835 0.0000 0.0000 0.0000
# 3 27.8771 38.5835 106.1987 0.0000 0.0000 0.0000
# 4 0.0000 0.0000 0.0000 43.1796 0.0000 0.0000
# 5 0.0000 0.0000 0.0000 0.0000 -151.2873 0.0000
# 6 0.0000 0.0000 0.0000 0.0000 0.0000 -73.4759
#
#
#
# Elastic Compliance Matrix: (Units=1/GPa)
#
#
# Indices 1 2 3 4 5 6 
#
# 1 0.009426 -0.004651 -0.000785 0.000000 0.000000 0.000000
# 2 -0.004651 0.014518 -0.004054 0.000000 0.000000 0.000000
# 3 -0.000785 -0.004054 0.011095 0.000000 0.000000 0.000000
# 4 0.000000 0.000000 0.000000 0.023159 0.000000 0.000000
# 5 0.000000 0.000000 0.000000 0.000000 -0.006610 0.000000
# 6 0.000000 0.000000 0.000000 0.000000 0.000000 -0.013610
#
#
# Mechanical properties :
#
#
# Convention : Reuss Voigt Hill
#
# Bulk Modulus (GPa) = 62.26313 63.25022 62.75668
# Shear Modulus (GPa) = 80.24184 -21.75729 29.24227
#
# Velocity S-wave (km/s) = 6.44372 -3.35536 3.88993
# Velocity P-wave (km/s) = 9.35844 4.20927 7.25598
#
# Compressibility (1/GPa) = 0.01606087
#
# Stress axis : x y z
#
# Youngs Moduli (GPa) = 106.08471 68.87852 90.12996
#
# Poissons Ratio (x) = 0.32035 0.07072
# Poissons Ratio (y) = 0.49340 0.36537
# Poissons Ratio (z) = 0.08324 0.27922
#
# Static dielectric constant tensor:
#      x y z
#    x 3.619020 0.000000 0.000000 
#    y 0.000000 3.323110 0.000000 
#    z 0.000000 0.000000 3.756630 
# 
# 
# High freq. dielectric constant tensor:
#      x y z
#    x 1.773130 0.000000 0.000000 
#    y 0.000000 1.729320 0.000000 
#    z 0.000000 0.000000 1.770270 
# 
# From -- ./inp_files/8913.got.cif
#   From: 2010.03.12/outbox.cif.g09.slc.cpg/sg53_5_cif.got.tgz:8913.got - 2010.04.16 14:36:59.
