data_PCOD8221871
_publ_section_title
;
Structure prediction by ZEFSAII (Michael W. Deem and Ramdas Pophale) SiO2 
 PCOD8221871
Probable space group: P M N A
;
_chemical_formula_sum "Si O2"
_cell_formula_units_Z 64
_cell_length_a 17.523568
_cell_length_b 15.082179
_cell_length_c 11.646671
_cell_angle_alpha 90.000000
_cell_angle_beta 90.000000
_cell_angle_gamma 90.000000
_cell_volume 3078.140482
_symmetry_space_group_name_H-M "P M N A"
_symmetry_group_IT_number 53
_symmetry_cell_setting 'orthorhombic'
loop_
_space_group_symop_operation_xyz
x,y,z
1/2-x,-y,1/2+z
x,-y,-z
1/2-x,y,1/2-z
-x,-y,-z
1/2+x,y,1/2-z
-x,y,z
1/2+x,-y,1/2+z
loop_
_atom_site_type_symbol
_atom_site_label
_atom_site_fract_x
_atom_site_fract_y
_atom_site_fract_z
Si Si1 0.829227 0.232876 0.424908
Si Si2 0.412168 0.640105 0.515733
Si Si3 0.162051 0.915409 0.751591
Si Si4 0.160598 0.181973 0.014835
Si Si5 0.089236 0.572611 0.226717
Si Si6 0.410000 0.906112 0.309927
Si Si7 0.589489 0.255008 0.845241
Si Si8 0.665706 0.601886 0.751988
O O1 0.853726 0.143020 0.361034
O O2 0.746457 0.221030 0.484006
O O3 0.890381 0.250698 0.521952
O O4 0.835229 0.314638 0.336632
O O5 0.500000 0.624852 0.551818
O O6 0.399014 0.741496 0.476202
O O7 0.390207 0.574514 0.409959
O O8 0.357763 0.629106 0.624180
O O9 0.250000 0.946007 0.750000
O O10 0.141631 0.854749 0.860043
O O11 0.107344 0.000026 0.750411
O O12 0.143591 0.103844 0.923070
O O13 0.127625 0.656857 0.289793
O O14 0.114181 0.481662 0.289016
O O15 0.000000 0.580724 0.240702
O O16 0.500000 0.900638 0.339919
O O17 0.381735 0.831852 0.220711
O O18 0.500000 0.261012 0.833287
O O19 0.750000 0.562660 0.750000
#
# Coordination Sequence:
#
# PCOD8221871 Si02
#       8
#     8   8   8   8   8   8   8   8
#     4  11  24  43  64  91 136 177 213 257 321 398
#     4  11  21  40  70  95 123 167 213 271 335 380
#     4  10  23  42  63  95 132 169 208 260 328 396
#     4  11  21  41  68  95 128 165 212 274 327 381
#     4  10  23  44  66  93 127 165 218 274 327 382
#     4  11  24  43  68  98 128 163 219 277 323 377
#     4  10  24  44  63  89 128 174 219 262 314 389
#     4  12  23  42  63  96 130 164 213 268 321 389
#
# _framework density 20.791774
#
# number of rings (size 3 to 8) (size 9 to 14) (size 15 to 20)
#    0.000    1.250    3.750    1.875    1.750    6.000 
#    2.250    2.500    0.000    0.000    0.000    0.000 
#    0.000    0.000    0.000    0.000    0.000    0.000 
#
# Total GULP energy -793539.853387 kJ/mol
# GULP energy per Si atom -12399.060209 kJ/mol
# Density = 2.074445 g / cm^3
# Si number density = 20.791774 Si / 1000 Ang^3
#
#
#
# Elastic Constant Matrix: (Units=GPa)
#
#
# Indices 1 2 3 4 5 6 
#
# 1 55.5744 38.9015 43.8975 0.0000 0.0000 0.0000
# 2 38.9015 114.8130 30.3216 0.0000 0.0000 0.0000
# 3 43.8975 30.3216 95.5713 0.0000 0.0000 0.0000
# 4 0.0000 0.0000 0.0000 27.8297 0.0000 0.0000
# 5 0.0000 0.0000 0.0000 0.0000 29.7790 0.0000
# 6 0.0000 0.0000 0.0000 0.0000 0.0000 35.6268
#
#
#
# Elastic Compliance Matrix: (Units=1/GPa)
#
#
# Indices 1 2 3 4 5 6 
#
# 1 0.033919 -0.008053 -0.013025 0.000000 0.000000 0.000000
# 2 -0.008053 0.011418 0.000076 0.000000 0.000000 0.000000
# 3 -0.013025 0.000076 0.016422 0.000000 0.000000 0.000000
# 4 0.000000 0.000000 0.000000 0.035933 0.000000 0.000000
# 5 0.000000 0.000000 0.000000 0.000000 0.033581 0.000000
# 6 0.000000 0.000000 0.000000 0.000000 0.000000 0.028069
#
#
# Mechanical properties :
#
#
# Convention : Reuss Voigt Hill
#
# Bulk Modulus (GPa) = 50.61710 54.68890 52.65300
# Shear Modulus (GPa) = 24.04675 28.83631 26.44153
#
# Velocity S-wave (km/s) = 3.40450 3.72816 3.57000
# Velocity P-wave (km/s) = 6.31283 6.70019 6.50939
#
# Compressibility (1/GPa) = 0.01975617
#
# Stress axis : x y z
#
# Youngs Moduli (GPa) = 29.48234 87.57967 60.89541
#
# Poissons Ratio (x) = 0.70526 0.79313
# Poissons Ratio (y) = 0.23741 -0.00464
# Poissons Ratio (z) = 0.38399 -0.00667
#
# Static dielectric constant tensor:
#      x y z
#    x 3.593270 0.000000 0.000000 
#    y 0.000000 3.982970 0.000000 
#    z 0.000000 0.000000 3.735500 
# 
# 
# High freq. dielectric constant tensor:
#      x y z
#    x 1.800670 0.000000 0.000000 
#    y 0.000000 1.831580 0.000000 
#    z 0.000000 0.000000 1.812390 
# 
# From -- ./inp_files/17075.got.cif
#   From: 2010.03.12/outbox.cif.g09.slc.cpg/sg53_9_cif.got.tgz:17075.got - 2010.04.16 14:36:59.
