data_PCOD8221809
_publ_section_title
;
Structure prediction by ZEFSAII (Michael W. Deem and Ramdas Pophale) SiO2 
 PCOD8221809
Probable space group: P M N A
;
_chemical_formula_sum "Si O2"
_cell_formula_units_Z 60
_cell_length_a 21.169843
_cell_length_b 5.432409
_cell_length_c 23.549455
_cell_angle_alpha 90.000000
_cell_angle_beta 90.000000
_cell_angle_gamma 90.000000
_cell_volume 2708.263758
_symmetry_space_group_name_H-M "P M N A"
_symmetry_group_IT_number 53
_symmetry_cell_setting 'orthorhombic'
loop_
_space_group_symop_operation_xyz
x,y,z
1/2-x,-y,1/2+z
x,-y,-z
1/2-x,y,1/2-z
-x,-y,-z
1/2+x,y,1/2-z
-x,y,z
1/2+x,-y,1/2+z
loop_
_atom_site_type_symbol
_atom_site_label
_atom_site_fract_x
_atom_site_fract_y
_atom_site_fract_z
Si Si1 0.428603 0.752541 0.034572
Si Si2 0.763079 0.805567 0.912773
Si Si3 0.930528 0.036771 0.216760
Si Si4 0.428637 0.251934 0.599664
Si Si5 0.145420 0.000000 0.000000
Si Si6 0.189201 0.689164 0.392145
Si Si7 0.185306 0.222681 0.736378
Si Si8 0.350218 0.587297 0.670620
O O1 0.500000 0.782951 0.057468
O O2 0.382235 0.724410 0.087502
O O3 0.422202 0.500000 0.000000
O O4 0.409659 0.000000 0.000000
O O5 0.719498 0.560801 0.918416
O O6 0.803300 0.795535 0.854026
O O7 0.726418 0.064713 0.910608
O O8 0.809321 0.807885 0.967122
O O9 0.909623 0.317395 0.207542
O O10 0.000000 0.022763 0.244567
O O11 0.929373 0.922178 0.154428
O O12 0.879636 0.927089 0.260131
O O13 0.500000 0.347854 0.587608
O O14 0.401939 0.127432 0.543722
O O15 0.379084 0.464868 0.614160
O O16 0.186988 0.652477 0.324897
O O17 0.250000 0.066838 0.750000
O O18 0.189386 0.418263 0.787443
#
# Coordination Sequence:
#
# PCOD8221809 Si02
#       8
#     8   8   8   8   4   8   8   8
#     4  10  23  47  75 103 140 183 228 288 360 431
#     4  12  27  44  68 103 145 183 235 291 354 414
#     4  10  22  42  67  97 136 180 233 288 354 421
#     4  10  22  42  65  95 135 187 237 287 346 410
#     4  12  25  44  66 100 139 186 238 302 340 418
#     4  12  27  46  72 108 137 186 234 291 355 435
#     4  11  24  42  71  98 138 180 228 293 349 429
#     4  11  22  43  66  97 138 187 232 290 356 421
#
# _framework density 22.154415
#
# number of rings (size 3 to 8) (size 9 to 14) (size 15 to 20)
#    0.000    1.067    2.667    3.000    4.667    3.200 
#    0.000    0.667    0.000    0.000    0.000    0.000 
#    0.000    0.000    0.000    0.000    0.000    0.000 
#
# Total GULP energy -743482.479043 kJ/mol
# GULP energy per Si atom -12391.374651 kJ/mol
# Density = 2.210399 g / cm^3
# Si number density = 22.154415 Si / 1000 Ang^3
#
#
#
# Elastic Constant Matrix: (Units=GPa)
#
#
# Indices 1 2 3 4 5 6 
#
# 1 153.8974 28.7228 47.5930 0.0000 0.0000 0.0000
# 2 28.7228 103.3498 16.4547 0.0000 0.0000 0.0000
# 3 47.5930 16.4547 85.5161 0.0000 0.0000 0.0000
# 4 0.0000 0.0000 0.0000 21.0455 0.0000 0.0000
# 5 0.0000 0.0000 0.0000 0.0000 -84.4557 0.0000
# 6 0.0000 0.0000 0.0000 0.0000 0.0000 22.7626
#
#
#
# Elastic Compliance Matrix: (Units=1/GPa)
#
#
# Indices 1 2 3 4 5 6 
#
# 1 0.008091 -0.001580 -0.004199 0.000000 0.000000 0.000000
# 2 -0.001580 0.010290 -0.001101 0.000000 0.000000 0.000000
# 3 -0.004199 -0.001101 0.014242 0.000000 0.000000 0.000000
# 4 0.000000 0.000000 0.000000 0.047516 0.000000 0.000000
# 5 0.000000 0.000000 0.000000 0.000000 -0.011841 0.000000
# 6 0.000000 0.000000 0.000000 0.000000 0.000000 0.043932
#
#
# Mechanical properties :
#
#
# Convention : Reuss Voigt Hill
#
# Bulk Modulus (GPa) = 53.01010 58.70049 55.85530
# Shear Modulus (GPa) = 37.79885 8.53665 23.16775
#
# Velocity S-wave (km/s) = 4.13504 1.96510 3.23730
# Velocity P-wave (km/s) = 6.83942 5.63049 6.26418
#
# Compressibility (1/GPa) = 0.01886433
#
# Stress axis : x y z
#
# Youngs Moduli (GPa) = 123.58910 97.17918 70.21268
#
# Poissons Ratio (x) = 0.15356 0.29483
# Poissons Ratio (y) = 0.19529 0.07728
# Poissons Ratio (z) = 0.51896 0.10695
#
# Static dielectric constant tensor:
#      x y z
#    x 4.472030 0.000000 0.000000 
#    y 0.000000 3.993500 0.000000 
#    z 0.000000 0.000000 3.805750 
# 
# 
# High freq. dielectric constant tensor:
#      x y z
#    x 1.896280 0.000000 0.000000 
#    y 0.000000 1.866520 0.000000 
#    z 0.000000 0.000000 1.860710 
# 
# From -- ./inp_files/35627.got.cif
#   From: 2010.03.12/outbox.cif.g09.slc.cpg/sg53_18_cif.got.tgz:35627.got - 2010.04.16 14:36:59.
