data_PCOD8221104
_publ_section_title
;
Structure prediction by ZEFSAII (Michael W. Deem and Ramdas Pophale) SiO2 
 PCOD8221104
Probable space group: P M N A
;
_chemical_formula_sum "Si O2"
_cell_formula_units_Z 64
_cell_length_a 9.268186
_cell_length_b 19.508193
_cell_length_c 18.937087
_cell_angle_alpha 90.000000
_cell_angle_beta 90.000000
_cell_angle_gamma 90.000000
_cell_volume 3423.930643
_symmetry_space_group_name_H-M "P M N A"
_symmetry_group_IT_number 53
_symmetry_cell_setting 'orthorhombic'
loop_
_space_group_symop_operation_xyz
x,y,z
1/2-x,-y,1/2+z
x,-y,-z
1/2-x,y,1/2-z
-x,-y,-z
1/2+x,y,1/2-z
-x,y,z
1/2+x,-y,1/2+z
loop_
_atom_site_type_symbol
_atom_site_label
_atom_site_fract_x
_atom_site_fract_y
_atom_site_fract_z
Si Si1 0.670087 0.255273 0.181837
Si Si2 0.669517 0.170024 0.049242
Si Si3 0.657487 0.965073 0.574023
Si Si4 0.837581 0.590170 0.686928
Si Si5 0.334854 0.478155 0.925686
Si Si6 0.668931 0.208456 0.892324
Si Si7 0.827819 0.915810 0.178177
Si Si8 0.170478 0.356231 0.674366
O O1 0.750000 0.222987 0.250000
O O2 0.500000 0.246366 0.192312
O O3 0.725473 0.219360 0.110925
O O4 0.719396 0.333612 0.172116
O O5 0.500000 0.161789 0.051158
O O6 0.731738 0.095983 0.065813
O O7 0.716940 0.202160 0.974233
O O8 0.500000 0.938108 0.599699
O O9 0.636999 0.000000 0.500000
O O10 0.717783 0.022448 0.626943
O O11 0.750000 0.554463 0.750000
O O12 0.819013 0.547848 0.616695
O O13 0.000000 0.592314 0.713664
O O14 0.500000 0.457762 0.941421
O O15 0.269268 0.414652 0.880244
O O16 0.258540 0.500000 0.000000
O O17 0.500000 0.190684 0.882813
O O18 0.765700 0.156161 0.848501
O O19 0.703120 0.283953 0.863037
O O20 0.750000 0.935238 0.250000
O O21 0.000000 0.908820 0.186604
O O22 0.250000 0.361330 0.750000
O O23 0.000000 0.366863 0.688108
#
# Coordination Sequence:
#
# PCOD8221104 Si02
#       8
#     8   8   8   8   8   8   8   8
#     4   9  19  34  52  78 109 141 178 222 267 315
#     4  10  21  35  56  82 110 142 180 226 271 319
#     4  10  21  39  58  79 107 141 178 218 267 320
#     4   9  17  31  53  76 102 138 176 215 258 309
#     4   9  18  31  52  81 107 137 179 224 266 312
#     4  10  21  36  56  83 112 145 183 227 275 323
#     4  11  23  39  60  84 112 143 181 225 270 325
#     4  10  21  36  55  80 111 145 182 224 272 324
#
# _framework density 18.691967000000002
#
# number of rings (size 3 to 8) (size 9 to 14) (size 15 to 20)
#    0.000    2.250    1.250    1.125    1.750    3.750 
#    0.000    2.500    0.000    1.500    0.000    0.000 
#    0.000    0.000    0.000    0.000    0.000    0.000 
#
# Total GULP energy -793314.275275 kJ/mol
# GULP energy per Si atom -12395.535551 kJ/mol
# Density = 1.864942 g / cm^3
# Si number density = 18.691967 Si / 1000 Ang^3
#
#
#
# Elastic Constant Matrix: (Units=GPa)
#
#
# Indices 1 2 3 4 5 6 
#
# 1 35.1956 31.6983 42.2768 0.0000 0.0000 0.0000
# 2 31.6983 107.1370 69.1063 0.0000 0.0000 0.0000
# 3 42.2768 69.1063 151.4256 0.0000 0.0000 0.0000
# 4 0.0000 0.0000 0.0000 24.2582 0.0000 0.0000
# 5 0.0000 0.0000 0.0000 0.0000 29.7152 0.0000
# 6 0.0000 0.0000 0.0000 0.0000 0.0000 21.4069
#
#
#
# Elastic Compliance Matrix: (Units=1/GPa)
#
#
# Indices 1 2 3 4 5 6 
#
# 1 0.046823 -0.007683 -0.009566 0.000000 0.000000 0.000000
# 2 -0.007683 0.014488 -0.004467 0.000000 0.000000 0.000000
# 3 -0.009566 -0.004467 0.011313 0.000000 0.000000 0.000000
# 4 0.000000 0.000000 0.000000 0.041223 0.000000 0.000000
# 5 0.000000 0.000000 0.000000 0.000000 0.033653 0.000000
# 6 0.000000 0.000000 0.000000 0.000000 0.000000 0.046714
#
#
# Mechanical properties :
#
#
# Convention : Reuss Voigt Hill
#
# Bulk Modulus (GPa) = 34.25566 64.43566 49.34566
# Shear Modulus (GPa) = 20.21197 25.12118 22.66657
#
# Velocity S-wave (km/s) = 3.29191 3.66998 3.48607
# Velocity P-wave (km/s) = 5.72844 7.24607 6.53149
#
# Compressibility (1/GPa) = 0.02919225
#
# Stress axis : x y z
#
# Youngs Moduli (GPa) = 21.35696 69.02109 88.39061
#
# Poissons Ratio (x) = 0.53028 0.84558
# Poissons Ratio (y) = 0.16408 0.39485
# Poissons Ratio (z) = 0.20431 0.30832
#
# Static dielectric constant tensor:
#      x y z
#    x 3.347190 0.000000 0.000000 
#    y 0.000000 3.482500 0.000000 
#    z 0.000000 0.000000 3.768590 
# 
# 
# High freq. dielectric constant tensor:
#      x y z
#    x 1.703690 0.000000 0.000000 
#    y 0.000000 1.731210 0.000000 
#    z 0.000000 0.000000 1.740680 
# 
# From -- ./inp_files/31230.got.cif
#   From: 2010.03.12/outbox.cif.g09.slc.cpg/sg53_16_cif.got.tgz:31230.got - 2010.04.16 14:36:59.
