data_PCOD8221595
_publ_section_title
;
Structure prediction by ZEFSAII (Michael W. Deem and Ramdas Pophale) SiO2 
 PCOD8221595
Probable space group: P M N A
;
_chemical_formula_sum "Si O2"
_cell_formula_units_Z 48
_cell_length_a 17.666023
_cell_length_b 9.886190
_cell_length_c 13.339734
_cell_angle_alpha 90.000000
_cell_angle_beta 90.000000
_cell_angle_gamma 90.000000
_cell_volume 2329.780007
_symmetry_space_group_name_H-M "P M N A"
_symmetry_group_IT_number 53
_symmetry_cell_setting 'orthorhombic'
loop_
_space_group_symop_operation_xyz
x,y,z
1/2-x,-y,1/2+z
x,-y,-z
1/2-x,y,1/2-z
-x,-y,-z
1/2+x,y,1/2-z
-x,y,z
1/2+x,-y,1/2+z
loop_
_atom_site_type_symbol
_atom_site_label
_atom_site_fract_x
_atom_site_fract_y
_atom_site_fract_z
Si Si1 0.413246 0.247103 0.871155
Si Si2 0.414612 0.480644 0.234671
Si Si3 0.088546 0.120414 0.070316
Si Si4 0.588231 0.953308 0.797547
Si Si5 0.847280 0.285471 0.416603
Si Si6 0.179051 0.380773 0.079693
O O1 0.500000 0.241557 0.908423
O O2 0.401460 0.361863 0.787774
O O3 0.389217 0.107773 0.818607
O O4 0.360220 0.280120 0.964854
O O5 0.500000 0.454895 0.273395
O O6 0.403196 0.394325 0.133495
O O7 0.356075 0.433940 0.317609
O O8 0.108849 0.083714 0.184142
O O9 0.130163 0.256936 0.036347
O O10 0.000000 0.144018 0.054397
O O11 0.118186 0.000000 0.000000
O O12 0.500000 0.927300 0.819473
O O13 0.638163 0.862366 0.871100
O O14 0.762197 0.329459 0.394812
O O15 0.179992 0.500000 0.000000
#
# Coordination Sequence:
#
# PCOD8221595 Si02
#       6
#     8   8   8   8   8   8
#     4  10  22  39  67 101 130 164 212 271 324 384
#     4  11  23  41  67  95 126 167 218 269 324 379
#     4  10  23  43  67  94 129 171 219 272 320 378
#     4  10  21  40  68 100 129 166 214 268 324 380
#     4  12  23  41  64  94 135 173 211 259 322 392
#     4  12  27  43  64  93 130 176 218 264 322 387
#
# _framework density 20.602803999999999
#
# number of rings (size 3 to 8) (size 9 to 14) (size 15 to 20)
#    0.000    1.167    1.667    4.500    2.333    5.333 
#    0.000    0.000    3.667    0.000    0.000    0.000 
#    0.000    0.000    0.000    0.000    0.000    0.000 
#
# Total GULP energy -595530.701730 kJ/mol
# GULP energy per Si atom -12406.889619 kJ/mol
# Density = 2.055591 g / cm^3
# Si number density = 20.602804 Si / 1000 Ang^3
#
#
#
# Elastic Constant Matrix: (Units=GPa)
#
#
# Indices 1 2 3 4 5 6 
#
# 1 106.4072 59.1309 47.3508 0.0000 0.0000 0.0000
# 2 59.1309 169.1658 41.1711 0.0000 0.0000 0.0000
# 3 47.3508 41.1711 74.2338 0.0000 0.0000 0.0000
# 4 0.0000 0.0000 0.0000 39.1247 0.0000 0.0000
# 5 0.0000 0.0000 0.0000 0.0000 -12.1992 0.0000
# 6 0.0000 0.0000 0.0000 0.0000 0.0000 12.2712
#
#
#
# Elastic Compliance Matrix: (Units=1/GPa)
#
#
# Indices 1 2 3 4 5 6 
#
# 1 0.014530 -0.003264 -0.007458 0.000000 0.000000 0.000000
# 2 -0.003264 0.007567 -0.002115 0.000000 0.000000 0.000000
# 3 -0.007458 -0.002115 0.019401 0.000000 0.000000 0.000000
# 4 0.000000 0.000000 0.000000 0.025559 0.000000 0.000000
# 5 0.000000 0.000000 0.000000 0.000000 -0.081972 0.000000
# 6 0.000000 0.000000 0.000000 0.000000 0.000000 0.081491
#
#
# Mechanical properties :
#
#
# Convention : Reuss Voigt Hill
#
# Bulk Modulus (GPa) = 63.19225 71.67914 67.43569
# Shear Modulus (GPa) = 51.26856 21.31628 36.29242
#
# Velocity S-wave (km/s) = 4.99382 3.22006 4.20161
# Velocity P-wave (km/s) = 7.99933 6.97793 7.50602
#
# Compressibility (1/GPa) = 0.01582473
#
# Stress axis : x y z
#
# Youngs Moduli (GPa) = 68.82079 132.15397 51.54325
#
# Poissons Ratio (x) = 0.43133 0.38442
# Poissons Ratio (y) = 0.22462 0.10900
# Poissons Ratio (z) = 0.51328 0.27948
#
# Static dielectric constant tensor:
#      x y z
#    x 3.645140 0.000000 0.000000 
#    y 0.000000 4.054760 0.000000 
#    z 0.000000 0.000000 3.669170 
# 
# 
# High freq. dielectric constant tensor:
#      x y z
#    x 1.798460 0.000000 0.000000 
#    y 0.000000 1.827810 0.000000 
#    z 0.000000 0.000000 1.804630 
# 
# From -- ./inp_files/23633.got.cif
#   From: 2010.03.12/outbox.cif.g09.slc.cpg/sg53_12_cif.got.tgz:23633.got - 2010.04.16 14:36:59.
