data_PCOD8221689
_publ_section_title
;
Structure prediction by ZEFSAII (Michael W. Deem and Ramdas Pophale) SiO2 
 PCOD8221689
Probable space group: P M N A
;
_chemical_formula_sum "Si O2"
_cell_formula_units_Z 56
_cell_length_a 22.538089
_cell_length_b 14.219223
_cell_length_c 9.795817
_cell_angle_alpha 90.000000
_cell_angle_beta 90.000000
_cell_angle_gamma 90.000000
_cell_volume 3139.305769
_symmetry_space_group_name_H-M "P M N A"
_symmetry_group_IT_number 53
_symmetry_cell_setting 'orthorhombic'
loop_
_space_group_symop_operation_xyz
x,y,z
1/2-x,-y,1/2+z
x,-y,-z
1/2-x,y,1/2-z
-x,-y,-z
1/2+x,y,1/2-z
-x,y,z
1/2+x,-y,1/2+z
loop_
_atom_site_type_symbol
_atom_site_label
_atom_site_fract_x
_atom_site_fract_y
_atom_site_fract_z
Si Si1 0.632188 0.611193 0.977419
Si Si2 0.066668 0.298043 0.241623
Si Si3 0.383856 0.388607 0.505086
Si Si4 0.929243 0.296171 0.729420
Si Si5 0.929394 0.103449 0.150931
Si Si6 0.240868 0.407079 0.088075
Si Si7 0.929970 0.101002 0.845312
O O1 0.594753 0.671166 0.084184
O O2 0.626953 0.500000 0.000000
O O3 0.606071 0.632115 0.829549
O O4 0.700925 0.644655 0.973080
O O5 0.066537 0.338164 0.087388
O O6 0.092826 0.190837 0.243446
O O7 0.000000 0.299048 0.298599
O O8 0.391189 0.500000 0.500000
O O9 0.394318 0.357480 0.659872
O O10 0.320030 0.351702 0.445128
O O11 0.911207 0.186328 0.746553
O O12 0.000000 0.311896 0.738885
O O13 0.000000 0.109961 0.144988
O O14 0.908448 0.001737 0.210937
O O15 0.903913 0.116273 0.997305
O O16 0.250000 0.427327 0.250000
O O17 0.232812 0.500000 0.000000
O O18 0.000000 0.097703 0.857175
#
# Coordination Sequence:
#
# PCOD8221689 Si02
#       7
#     8   8   8   8   8   8   8
#     4  11  24  38  53  73 111 150 182 221 269 316
#     4  11  20  33  52  80 110 143 178 213 270 337
#     4  11  22  34  54  77 106 140 184 229 258 309
#     4  11  22  35  52  82 115 145 178 216 270 335
#     4   8  14  27  50  76 103 137 178 221 263 311
#     4  10  22  39  58  77  99 137 194 240 265 299
#     4   8  14  28  49  75 106 137 174 222 264 309
#
# _framework density 17.838339000000001
#
# number of rings (size 3 to 8) (size 9 to 14) (size 15 to 20)
#    0.000    2.000    2.857    2.571    6.000    3.429 
#    0.000    0.714    0.000    3.429    0.000    6.000 
#    0.000    0.000    0.000    0.000    0.000    0.000 
#
# Total GULP energy -693859.625316 kJ/mol
# GULP energy per Si atom -12390.350452 kJ/mol
# Density = 1.779774 g / cm^3
# Si number density = 17.838339 Si / 1000 Ang^3
#
#
#
# Elastic Constant Matrix: (Units=GPa)
#
#
# Indices 1 2 3 4 5 6 
#
# 1 69.2317 31.1757 20.6879 0.0000 0.0000 0.0000
# 2 31.1757 119.4907 24.2575 0.0000 0.0000 0.0000
# 3 20.6879 24.2575 60.2723 0.0000 0.0000 0.0000
# 4 0.0000 0.0000 0.0000 28.1657 0.0000 0.0000
# 5 0.0000 0.0000 0.0000 0.0000 24.3286 0.0000
# 6 0.0000 0.0000 0.0000 0.0000 0.0000 1.5407
#
#
#
# Elastic Compliance Matrix: (Units=1/GPa)
#
#
# Indices 1 2 3 4 5 6 
#
# 1 0.017430 -0.003630 -0.004522 0.000000 0.000000 0.000000
# 2 -0.003630 0.009869 -0.002726 0.000000 0.000000 0.000000
# 3 -0.004522 -0.002726 0.019241 0.000000 0.000000 0.000000
# 4 0.000000 0.000000 0.000000 0.035504 0.000000 0.000000
# 5 0.000000 0.000000 0.000000 0.000000 0.041104 0.000000
# 6 0.000000 0.000000 0.000000 0.000000 0.000000 0.649055
#
#
# Mechanical properties :
#
#
# Convention : Reuss Voigt Hill
#
# Bulk Modulus (GPa) = 40.34779 44.58189 42.46484
# Shear Modulus (GPa) = 6.23270 22.33189 14.28230
#
# Velocity S-wave (km/s) = 1.87125 3.54206 2.83265
# Velocity P-wave (km/s) = 5.22843 6.46334 5.87840
#
# Compressibility (1/GPa) = 0.02478451
#
# Stress axis : x y z
#
# Youngs Moduli (GPa) = 57.37257 101.32463 51.97320
#
# Poissons Ratio (x) = 0.36777 0.23502
# Poissons Ratio (y) = 0.20824 0.14169
# Poissons Ratio (z) = 0.25943 0.27623
#
# Static dielectric constant tensor:
#      x y z
#    x 3.353450 0.000000 0.000000 
#    y 0.000000 3.609520 0.000000 
#    z 0.000000 0.000000 3.177510 
# 
# 
# High freq. dielectric constant tensor:
#      x y z
#    x 1.663200 0.000000 0.000000 
#    y 0.000000 1.688170 0.000000 
#    z 0.000000 0.000000 1.683400 
# 
# From -- ./inp_files/11078.got.cif
#   From: 2010.03.12/outbox.cif.g09.slc.cpg/sg53_6_cif.got.tgz:11078.got - 2010.04.16 14:36:59.
