data_PCOD8221944
_publ_section_title
;
Structure prediction by ZEFSAII (Michael W. Deem and Ramdas Pophale) SiO2 
 PCOD8221944
Probable space group: P M N A
;
_chemical_formula_sum "Si O2"
_cell_formula_units_Z 20
_cell_length_a 29.733201
_cell_length_b 5.253244
_cell_length_c 4.893607
_cell_angle_alpha 90.000000
_cell_angle_beta 90.000000
_cell_angle_gamma 90.000000
_cell_volume 764.360663
_symmetry_space_group_name_H-M "P M N A"
_symmetry_group_IT_number 53
_symmetry_cell_setting 'orthorhombic'
loop_
_space_group_symop_operation_xyz
x,y,z
1/2-x,-y,1/2+z
x,-y,-z
1/2-x,y,1/2-z
-x,-y,-z
1/2+x,y,1/2-z
-x,y,z
1/2+x,-y,1/2+z
loop_
_atom_site_type_symbol
_atom_site_label
_atom_site_fract_x
_atom_site_fract_y
_atom_site_fract_z
Si Si1 0.356425 0.826451 0.763648
Si Si2 0.778919 0.500000 0.500000
Si Si3 0.574229 0.500000 0.000000
Si Si4 0.000000 0.252427 0.815157
O O1 0.308136 0.716987 0.852072
O O2 0.350927 0.000000 0.500000
O O3 0.393798 0.601697 0.750092
O O4 0.376119 0.000000 0.000000
O O5 0.750000 0.620838 0.250000
O O6 0.543869 0.269584 0.878905
O O7 0.000000 0.500000 0.000000
O O8 0.000000 0.000000 0.000000
#
# Coordination Sequence:
#
# PCOD8221944 Si02
#       4
#     8   4   4   4
#     4  11  26  46  78 112 154 208 263 328 405 481
#     4  11  24  47  74 113 158 197 262 329 400 483
#     4  10  28  47  74 116 158 204 274 333 400 492
#     4  11  28  49  79 114 164 214 274 340 412 480
#
# _framework density 26.165659000000002
#
# number of rings (size 3 to 8) (size 9 to 14) (size 15 to 20)
#    0.000    1.200    0.000    2.400   11.200    8.000 
#    0.000    3.000    0.000    0.000    0.000    0.000 
#    0.000    0.000    0.000    0.000    0.000    0.000 
#
# Total GULP energy -247857.887202 kJ/mol
# GULP energy per Si atom -12392.894360 kJ/mol
# Density = 2.610610 g / cm^3
# Si number density = 26.165659 Si / 1000 Ang^3
#
#
#
# Elastic Constant Matrix: (Units=GPa)
#
#
# Indices 1 2 3 4 5 6 
#
# 1 200.4747 73.9697 92.7112 0.0000 0.0000 0.0000
# 2 73.9697 145.9963 83.0616 0.0000 0.0000 0.0000
# 3 92.7112 83.0616 200.6790 0.0000 0.0000 0.0000
# 4 0.0000 0.0000 0.0000 75.5442 0.0000 0.0000
# 5 0.0000 0.0000 0.0000 0.0000 15.9344 0.0000
# 6 0.0000 0.0000 0.0000 0.0000 0.0000 17.7901
#
#
#
# Elastic Compliance Matrix: (Units=1/GPa)
#
#
# Indices 1 2 3 4 5 6 
#
# 1 0.006836 -0.002180 -0.002256 0.000000 0.000000 0.000000
# 2 -0.002180 0.009654 -0.002989 0.000000 0.000000 0.000000
# 3 -0.002256 -0.002989 0.007262 0.000000 0.000000 0.000000
# 4 0.000000 0.000000 0.000000 0.013237 0.000000 0.000000
# 5 0.000000 0.000000 0.000000 0.000000 0.062757 0.000000
# 6 0.000000 0.000000 0.000000 0.000000 0.000000 0.056211
#
#
# Mechanical properties :
#
#
# Convention : Reuss Voigt Hill
#
# Bulk Modulus (GPa) = 112.31799 116.29278 114.30539
# Shear Modulus (GPa) = 28.77285 41.68091 35.22688
#
# Velocity S-wave (km/s) = 3.31968 3.99552 3.67318
# Velocity P-wave (km/s) = 7.59688 8.11338 7.85937
#
# Compressibility (1/GPa) = 0.00890329
#
# Stress axis : x y z
#
# Youngs Moduli (GPa) = 146.29113 103.57908 137.69770
#
# Poissons Ratio (x) = 0.22580 0.31060
# Poissons Ratio (y) = 0.31892 0.41156
# Poissons Ratio (z) = 0.32999 0.30958
#
# Static dielectric constant tensor:
#      x y z
#    x 5.026940 0.000000 0.000000 
#    y 0.000000 11.394030 0.000000 
#    z 0.000000 0.000000 9.925510 
# 
# 
# High freq. dielectric constant tensor:
#      x y z
#    x 2.068620 0.000000 0.000000 
#    y 0.000000 2.041940 0.000000 
#    z 0.000000 0.000000 2.055830 
# 
# From -- ./inp_files/4815.got.cif
#   From: 2010.03.12/outbox.cif.g09.slc.cpg/sg53_3_cif.got.tgz:4815.got - 2010.04.16 14:36:59.
