data_PCOD8221314
_publ_section_title
;
Structure prediction by ZEFSAII (Michael W. Deem and Ramdas Pophale) SiO2 
 PCOD8221314
Probable space group: P M N A
;
_chemical_formula_sum "Si O2"
_cell_formula_units_Z 56
_cell_length_a 9.083130
_cell_length_b 16.823177
_cell_length_c 19.697073
_cell_angle_alpha 90.000000
_cell_angle_beta 90.000000
_cell_angle_gamma 90.000000
_cell_volume 3009.852677
_symmetry_space_group_name_H-M "P M N A"
_symmetry_group_IT_number 53
_symmetry_cell_setting 'orthorhombic'
loop_
_space_group_symop_operation_xyz
x,y,z
1/2-x,-y,1/2+z
x,-y,-z
1/2-x,y,1/2-z
-x,-y,-z
1/2+x,y,1/2-z
-x,y,z
1/2+x,-y,1/2+z
loop_
_atom_site_type_symbol
_atom_site_label
_atom_site_fract_x
_atom_site_fract_y
_atom_site_fract_z
Si Si1 0.830000 0.883239 0.048399
Si Si2 0.173048 0.722556 0.434092
Si Si3 0.671610 0.376733 0.681259
Si Si4 0.670447 0.562273 0.681668
Si Si5 0.669463 0.053164 0.401283
Si Si6 0.670007 0.321545 0.086467
Si Si7 0.170905 0.175690 0.318055
O O1 0.726520 0.812872 0.074247
O O2 0.000000 0.856259 0.050879
O O3 0.803720 0.958588 0.097511
O O4 0.784471 0.908091 0.972690
O O5 0.257614 0.667921 0.381519
O O6 0.212929 0.689467 0.508280
O O7 0.000000 0.719380 0.419803
O O8 0.750000 0.347817 0.750000
O O9 0.500000 0.356054 0.686555
O O10 0.699175 0.469700 0.669496
O O11 0.750000 0.592320 0.750000
O O12 0.500000 0.582589 0.690162
O O13 0.733353 0.607299 0.616367
O O14 0.500000 0.072145 0.385677
O O15 0.768224 0.090397 0.342018
O O16 0.500000 0.344738 0.095320
O O17 0.706837 0.239741 0.124268
O O18 0.250000 0.204404 0.250000
O O19 0.000000 0.167067 0.302947
#
# Coordination Sequence:
#
# PCOD8221314 Si02
#       7
#     8   8   8   8   8   8   8
#     4   9  18  34  57  83 111 143 183 229 277 331
#     4  11  22  37  58  87 118 149 187 233 282 335
#     4  10  22  41  62  85 111 145 187 233 287 343
#     4  10  21  37  59  83 111 149 192 234 281 337
#     4   9  18  34  56  81 108 144 186 228 277 331
#     4  10  22  37  54  82 117 151 191 231 278 335
#     4  11  22  36  53  79 115 154 193 235 282 335
#
# _framework density 18.605561000000002
#
# number of rings (size 3 to 8) (size 9 to 14) (size 15 to 20)
#    0.000    2.000    1.429    3.000    0.000    6.286 
#    0.000    5.000    0.000    3.429    0.000    0.000 
#    0.000    0.000    0.000    0.000    0.000    0.000 
#
# Total GULP energy -694649.677488 kJ/mol
# GULP energy per Si atom -12404.458527 kJ/mol
# Density = 1.856321 g / cm^3
# Si number density = 18.605561 Si / 1000 Ang^3
#
#
#
# Elastic Constant Matrix: (Units=GPa)
#
#
# Indices 1 2 3 4 5 6 
#
# 1 114.5486 64.5999 71.5234 0.0000 0.0000 0.0000
# 2 64.5999 86.3045 58.7487 0.0000 0.0000 0.0000
# 3 71.5234 58.7487 121.4515 0.0000 0.0000 0.0000
# 4 0.0000 0.0000 0.0000 24.7056 0.0000 0.0000
# 5 0.0000 0.0000 0.0000 0.0000 35.0906 0.0000
# 6 0.0000 0.0000 0.0000 0.0000 0.0000 34.0538
#
#
#
# Elastic Compliance Matrix: (Units=1/GPa)
#
#
# Indices 1 2 3 4 5 6 
#
# 1 0.017582 -0.009112 -0.005946 0.000000 0.000000 0.000000
# 2 -0.009112 0.021998 -0.005275 0.000000 0.000000 0.000000
# 3 -0.005946 -0.005275 0.014287 0.000000 0.000000 0.000000
# 4 0.000000 0.000000 0.000000 0.040477 0.000000 0.000000
# 5 0.000000 0.000000 0.000000 0.000000 0.028498 0.000000
# 6 0.000000 0.000000 0.000000 0.000000 0.000000 0.029365
#
#
# Mechanical properties :
#
#
# Convention : Reuss Voigt Hill
#
# Bulk Modulus (GPa) = 75.75522 79.11653 77.43587
# Shear Modulus (GPa) = 25.34568 27.26550 26.30559
#
# Velocity S-wave (km/s) = 3.69489 3.83227 3.76421
# Velocity P-wave (km/s) = 7.68165 7.88651 7.78476
#
# Compressibility (1/GPa) = 0.01320041
#
# Stress axis : x y z
#
# Youngs Moduli (GPa) = 56.87786 45.45834 69.99476
#
# Poissons Ratio (x) = 0.41424 0.41619
# Poissons Ratio (y) = 0.51830 0.36919
# Poissons Ratio (z) = 0.33819 0.23977
#
# Static dielectric constant tensor:
#      x y z
#    x 3.452970 0.000000 0.000000 
#    y 0.000000 3.381510 0.000000 
#    z 0.000000 0.000000 3.350460 
# 
# 
# High freq. dielectric constant tensor:
#      x y z
#    x 1.729480 0.000000 0.000000 
#    y 0.000000 1.722440 0.000000 
#    z 0.000000 0.000000 1.715080 
# 
# From -- ./inp_files/30797.got.cif
#   From: 2010.03.12/outbox.cif.g09.slc.cpg/sg53_16_cif.got.tgz:30797.got - 2010.04.16 14:36:59.
