data_PCOD8221812
_publ_section_title
;
Structure prediction by ZEFSAII (Michael W. Deem and Ramdas Pophale) SiO2 
 PCOD8221812
Probable space group: P M N A
;
_chemical_formula_sum "Si O2"
_cell_formula_units_Z 36
_cell_length_a 12.629576
_cell_length_b 8.686312
_cell_length_c 15.523346
_cell_angle_alpha 90.000000
_cell_angle_beta 90.000000
_cell_angle_gamma 90.000000
_cell_volume 1702.979942
_symmetry_space_group_name_H-M "P M N A"
_symmetry_group_IT_number 53
_symmetry_cell_setting 'orthorhombic'
loop_
_space_group_symop_operation_xyz
x,y,z
1/2-x,-y,1/2+z
x,-y,-z
1/2-x,y,1/2-z
-x,-y,-z
1/2+x,y,1/2-z
-x,y,z
1/2+x,-y,1/2+z
loop_
_atom_site_type_symbol
_atom_site_label
_atom_site_fract_x
_atom_site_fract_y
_atom_site_fract_z
Si Si1 0.250000 0.389960 0.750000
Si Si2 0.126150 0.834337 0.367450
Si Si3 0.622830 0.163280 0.190335
Si Si4 0.374857 0.359691 0.349515
Si Si5 0.797123 0.668879 0.530475
O O1 0.337172 0.290051 0.798808
O O2 0.182062 0.484594 0.819002
O O3 0.176455 0.797809 0.460474
O O4 0.000000 0.831057 0.376498
O O5 0.172448 0.999909 0.337877
O O6 0.500000 0.134851 0.199897
O O7 0.661784 0.221905 0.284722
O O8 0.641846 0.296064 0.119734
O O9 0.500000 0.382168 0.353720
O O10 0.328516 0.324015 0.444955
O O11 0.833713 0.500000 0.500000
#
# Coordination Sequence:
#
# PCOD8221812 Si02
#       5
#     4   8   8   8   8
#     4  12  22  42  66  96 124 174 210 272 318 378
#     4  11  25  42  65  97 128 166 215 268 322 378
#     4  10  22  42  68  94 128 168 213 268 320 376
#     4  11  23  42  66  95 128 170 218 260 317 380
#     4  12  22  40  63  99 129 168 209 258 323 375
#
# _framework density 21.139415
#
# number of rings (size 3 to 8) (size 9 to 14) (size 15 to 20)
#    0.000    0.889    4.444    2.000    3.111    5.778 
#    0.000    0.000    0.000    2.667    0.000    0.000 
#    0.000    0.000    0.000    0.000    0.000    0.000 
#
# Total GULP energy -446391.231032 kJ/mol
# GULP energy per Si atom -12399.756418 kJ/mol
# Density = 2.109130 g / cm^3
# Si number density = 21.139415 Si / 1000 Ang^3
#
#
#
# Elastic Constant Matrix: (Units=GPa)
#
#
# Indices 1 2 3 4 5 6 
#
# 1 87.6568 47.8616 38.2076 0.0000 0.0000 0.0000
# 2 47.8616 141.7186 56.1321 0.0000 0.0000 0.0000
# 3 38.2076 56.1321 109.1616 0.0000 0.0000 0.0000
# 4 0.0000 0.0000 0.0000 26.4489 0.0000 0.0000
# 5 0.0000 0.0000 0.0000 0.0000 41.2650 0.0000
# 6 0.0000 0.0000 0.0000 0.0000 0.0000 31.4564
#
#
#
# Elastic Compliance Matrix: (Units=1/GPa)
#
#
# Indices 1 2 3 4 5 6 
#
# 1 0.014874 -0.003719 -0.003294 0.000000 0.000000 0.000000
# 2 -0.003719 0.009791 -0.003733 0.000000 0.000000 0.000000
# 3 -0.003294 -0.003733 0.012233 0.000000 0.000000 0.000000
# 4 0.000000 0.000000 0.000000 0.037809 0.000000 0.000000
# 5 0.000000 0.000000 0.000000 0.000000 0.024234 0.000000
# 6 0.000000 0.000000 0.000000 0.000000 0.000000 0.031790
#
#
# Mechanical properties :
#
#
# Convention : Reuss Voigt Hill
#
# Bulk Modulus (GPa) = 64.90546 69.21552 67.06049
# Shear Modulus (GPa) = 31.77481 32.92310 32.34896
#
# Velocity S-wave (km/s) = 3.88120 3.95071 3.91611
# Velocity P-wave (km/s) = 7.13128 7.32286 7.22770
#
# Compressibility (1/GPa) = 0.01540702
#
# Stress axis : x y z
#
# Youngs Moduli (GPa) = 67.22978 102.13813 81.74522
#
# Poissons Ratio (x) = 0.37982 0.26927
# Poissons Ratio (y) = 0.25001 0.30514
# Poissons Ratio (z) = 0.22145 0.38127
#
# Static dielectric constant tensor:
#      x y z
#    x 3.901890 0.000000 0.000000 
#    y 0.000000 4.077180 0.000000 
#    z 0.000000 0.000000 4.054820 
# 
# 
# High freq. dielectric constant tensor:
#      x y z
#    x 1.833200 0.000000 0.000000 
#    y 0.000000 1.834530 0.000000 
#    z 0.000000 0.000000 1.831540 
# 
# From -- ./inp_files/22320.got.cif
#   From: 2010.03.12/outbox.cif.g09.slc.cpg/sg53_12_cif.got.tgz:22320.got - 2010.04.16 14:36:59.
