data_PCOD8221449
_publ_section_title
;
Structure prediction by ZEFSAII (Michael W. Deem and Ramdas Pophale) SiO2 
 PCOD8221449
Probable space group: P M N A
;
_chemical_formula_sum "Si O2"
_cell_formula_units_Z 56
_cell_length_a 20.902138
_cell_length_b 8.070579
_cell_length_c 15.155543
_cell_angle_alpha 90.000000
_cell_angle_beta 90.000000
_cell_angle_gamma 90.000000
_cell_volume 2556.624255
_symmetry_space_group_name_H-M "P M N A"
_symmetry_group_IT_number 53
_symmetry_cell_setting 'orthorhombic'
loop_
_space_group_symop_operation_xyz
x,y,z
1/2-x,-y,1/2+z
x,-y,-z
1/2-x,y,1/2-z
-x,-y,-z
1/2+x,y,1/2-z
-x,y,z
1/2+x,-y,1/2+z
loop_
_atom_site_type_symbol
_atom_site_label
_atom_site_fract_x
_atom_site_fract_y
_atom_site_fract_z
Si Si1 0.572803 0.377199 0.918274
Si Si2 0.216277 0.703730 0.923823
Si Si3 0.925043 0.129360 0.288015
Si Si4 0.673347 0.364633 0.613959
Si Si5 0.150076 0.830795 0.533844
Si Si6 0.689478 0.987129 0.308221
Si Si7 0.426791 0.507501 0.733672
O O1 0.500000 0.323872 0.904272
O O2 0.601534 0.453117 0.828737
O O3 0.580817 0.500000 0.000000
O O4 0.613858 0.218706 0.943947
O O5 0.211949 0.535942 0.864143
O O6 0.291621 0.711115 0.943111
O O7 0.188365 0.872639 0.883497
O O8 0.172619 0.671342 0.009913
O O9 0.901793 0.161146 0.387753
O O10 0.917182 0.294454 0.228437
O O11 0.000000 0.072996 0.289285
O O12 0.878285 0.992274 0.244256
O O13 0.702003 0.199221 0.658488
O O14 0.603581 0.405018 0.653096
O O15 0.181836 0.000000 0.500000
O O16 0.750000 0.040074 0.250000
O O17 0.500000 0.459236 0.728730
#
# Coordination Sequence:
#
# PCOD8221449 Si02
#       7
#     8   8   8   8   8   8   8
#     4  10  21  38  62  93 133 182 235 287 351 436
#     4  11  26  48  67 102 141 181 234 296 350 427
#     4  11  24  43  69 102 145 189 234 296 365 426
#     4  11  26  44  72 101 136 186 239 297 354 423
#     4  12  25  41  65  97 145 189 227 288 363 432
#     4  12  25  45  71 103 141 187 236 293 357 424
#     4  10  22  43  68  98 137 184 241 303 364 429
#
# _framework density 21.903883
#
# number of rings (size 3 to 8) (size 9 to 14) (size 15 to 20)
#    0.000    1.000    4.286    1.714    4.000    3.429 
#    0.000    2.143    0.000    1.714    0.000    0.000 
#    0.000    0.000    0.000    0.000    0.000    0.000 
#
# Total GULP energy -694037.854118 kJ/mol
# GULP energy per Si atom -12393.533109 kJ/mol
# Density = 2.185403 g / cm^3
# Si number density = 21.903883 Si / 1000 Ang^3
#
#
#
# Elastic Constant Matrix: (Units=GPa)
#
#
# Indices 1 2 3 4 5 6 
#
# 1 116.4517 43.8179 57.2768 0.0000 0.0000 0.0000
# 2 43.8179 137.4864 40.5834 0.0000 0.0000 0.0000
# 3 57.2768 40.5834 87.0716 0.0000 0.0000 0.0000
# 4 0.0000 0.0000 0.0000 37.1422 0.0000 0.0000
# 5 0.0000 0.0000 0.0000 0.0000 26.8376 0.0000
# 6 0.0000 0.0000 0.0000 0.0000 0.0000 3.1720
#
#
#
# Elastic Compliance Matrix: (Units=1/GPa)
#
#
# Indices 1 2 3 4 5 6 
#
# 1 0.013106 -0.001892 -0.007739 0.000000 0.000000 0.000000
# 2 -0.001892 0.008707 -0.002813 0.000000 0.000000 0.000000
# 3 -0.007739 -0.002813 0.017887 0.000000 0.000000 0.000000
# 4 0.000000 0.000000 0.000000 0.026924 0.000000 0.000000
# 5 0.000000 0.000000 0.000000 0.000000 0.037261 0.000000
# 6 0.000000 0.000000 0.000000 0.000000 0.000000 0.315259
#
#
# Mechanical properties :
#
#
# Convention : Reuss Voigt Hill
#
# Bulk Modulus (GPa) = 67.52240 69.37399 68.44819
# Shear Modulus (GPa) = 11.13659 26.71914 18.92787
#
# Velocity S-wave (km/s) = 2.25729 3.49640 2.94280
# Velocity P-wave (km/s) = 6.13901 6.93113 6.54706
#
# Compressibility (1/GPa) = 0.01480990
#
# Stress axis : x y z
#
# Youngs Moduli (GPa) = 76.30200 114.84941 55.90662
#
# Poissons Ratio (x) = 0.21735 0.43267
# Poissons Ratio (y) = 0.14440 0.15729
# Poissons Ratio (z) = 0.59051 0.32312
#
# Static dielectric constant tensor:
#      x y z
#    x 3.803410 0.000000 0.000000 
#    y 0.000000 4.229110 0.000000 
#    z 0.000000 0.000000 3.987660 
# 
# 
# High freq. dielectric constant tensor:
#      x y z
#    x 1.852210 0.000000 0.000000 
#    y 0.000000 1.875170 0.000000 
#    z 0.000000 0.000000 1.854300 
# 
# From -- ./inp_files/24342.got.cif
#   From: 2010.03.12/outbox.cif.g09.slc.cpg/sg53_13_cif.got.tgz:24342.got - 2010.04.16 14:36:59.
