data_PCOD8221274
_publ_section_title
;
Structure prediction by ZEFSAII (Michael W. Deem and Ramdas Pophale) SiO2 
 PCOD8221274
Probable space group: P M N A
;
_chemical_formula_sum "Si O2"
_cell_formula_units_Z 40
_cell_length_a 14.803528
_cell_length_b 10.036359
_cell_length_c 12.571845
_cell_angle_alpha 90.000000
_cell_angle_beta 90.000000
_cell_angle_gamma 90.000000
_cell_volume 1867.843283
_symmetry_space_group_name_H-M "P M N A"
_symmetry_group_IT_number 53
_symmetry_cell_setting 'orthorhombic'
loop_
_space_group_symop_operation_xyz
x,y,z
1/2-x,-y,1/2+z
x,-y,-z
1/2-x,y,1/2-z
-x,-y,-z
1/2+x,y,1/2-z
-x,y,z
1/2+x,-y,1/2+z
loop_
_atom_site_type_symbol
_atom_site_label
_atom_site_fract_x
_atom_site_fract_y
_atom_site_fract_z
Si Si1 0.777332 0.236819 0.923585
Si Si2 0.900180 0.987124 0.167553
Si Si3 0.601978 0.098158 0.903407
Si Si4 0.100116 0.531909 0.123961
Si Si5 0.320771 0.262565 0.341039
O O1 0.827605 0.097141 0.899381
O O2 0.671773 0.221414 0.893896
O O3 0.827812 0.350118 0.853748
O O4 0.772876 0.280645 0.045804
O O5 0.888355 0.980500 0.293972
O O6 0.000000 0.939573 0.132097
O O7 0.891124 0.143093 0.142270
O O8 0.500000 0.152689 0.920671
O O9 0.629694 0.000000 0.000000
O O10 0.128706 0.400031 0.189225
O O11 0.000000 0.577130 0.162692
O O12 0.095807 0.500000 0.000000
O O13 0.250000 0.225046 0.250000
#
# Coordination Sequence:
#
# PCOD8221274 Si02
#       5
#     8   8   8   8   8
#     4  11  21  37  60  86 117 152 195 245 297 353
#     4  11  22  35  58  89 116 150 197 245 297 353
#     4  10  21  37  57  84 119 156 195 244 298 353
#     4   9  20  38  58  81 113 151 190 240 301 355
#     4  11  22  36  57  84 118 158 195 237 295 357
#
# _framework density 21.415073
#
# number of rings (size 3 to 8) (size 9 to 14) (size 15 to 20)
#    0.000    1.600    0.000    6.000    0.000    4.800 
#    0.000    1.000    0.000    6.600    0.000    0.000 
#    0.000    0.000    0.000    0.000    0.000    0.000 
#
# Total GULP energy -495930.100616 kJ/mol
# GULP energy per Si atom -12398.252515 kJ/mol
# Density = 2.136633 g / cm^3
# Si number density = 21.415073 Si / 1000 Ang^3
#
#
#
# Elastic Constant Matrix: (Units=GPa)
#
#
# Indices 1 2 3 4 5 6 
#
# 1 156.8333 67.4939 13.6793 0.0000 0.0000 0.0000
# 2 67.4939 134.2043 6.7918 0.0000 0.0000 0.0000
# 3 13.6793 6.7918 61.3391 0.0000 0.0000 0.0000
# 4 0.0000 0.0000 0.0000 21.3362 0.0000 0.0000
# 5 0.0000 0.0000 0.0000 0.0000 19.4624 0.0000
# 6 0.0000 0.0000 0.0000 0.0000 0.0000 38.0578
#
#
#
# Elastic Compliance Matrix: (Units=1/GPa)
#
#
# Indices 1 2 3 4 5 6 
#
# 1 0.008253 -0.004081 -0.001389 0.000000 0.000000 0.000000
# 2 -0.004081 0.009511 -0.000143 0.000000 0.000000 0.000000
# 3 -0.001389 -0.000143 0.016628 0.000000 0.000000 0.000000
# 4 0.000000 0.000000 0.000000 0.046869 0.000000 0.000000
# 5 0.000000 0.000000 0.000000 0.000000 0.051381 0.000000
# 6 0.000000 0.000000 0.000000 0.000000 0.000000 0.026276
#
#
# Mechanical properties :
#
#
# Convention : Reuss Voigt Hill
#
# Bulk Modulus (GPa) = 43.16342 58.70074 50.93208
# Shear Modulus (GPa) = 28.11113 33.39873 30.75493
#
# Velocity S-wave (km/s) = 3.62702 3.95345 3.79375
# Velocity P-wave (km/s) = 6.14327 6.95055 6.55934
#
# Compressibility (1/GPa) = 0.02316777
#
# Stress axis : x y z
#
# Youngs Moduli (GPa) = 121.16232 105.14440 60.13815
#
# Poissons Ratio (x) = 0.42904 0.08352
# Poissons Ratio (y) = 0.49440 0.00860
# Poissons Ratio (z) = 0.16827 0.01504
#
# Static dielectric constant tensor:
#      x y z
#    x 4.050110 0.000000 0.000000 
#    y 0.000000 3.819100 0.000000 
#    z 0.000000 0.000000 3.781250 
# 
# 
# High freq. dielectric constant tensor:
#      x y z
#    x 1.846260 0.000000 0.000000 
#    y 0.000000 1.826510 0.000000 
#    z 0.000000 0.000000 1.830880 
# 
# From -- ./inp_files/15782.got.cif
#   From: 2010.03.12/outbox.cif.g09.slc.cpg/sg53_8_cif.got.tgz:15782.got - 2010.04.16 14:36:59.
