data_PCOD8221511
_publ_section_title
;
Structure prediction by ZEFSAII (Michael W. Deem and Ramdas Pophale) SiO2 
 PCOD8221511
Probable space group: P M N A
;
_chemical_formula_sum "Si O2"
_cell_formula_units_Z 28
_cell_length_a 20.443936
_cell_length_b 12.744699
_cell_length_c 4.998494
_cell_angle_alpha 90.000000
_cell_angle_beta 90.000000
_cell_angle_gamma 90.000000
_cell_volume 1302.366662
_symmetry_space_group_name_H-M "P M N A"
_symmetry_group_IT_number 53
_symmetry_cell_setting 'orthorhombic'
loop_
_space_group_symop_operation_xyz
x,y,z
1/2-x,-y,1/2+z
x,-y,-z
1/2-x,y,1/2-z
-x,-y,-z
1/2+x,y,1/2-z
-x,y,z
1/2+x,-y,1/2+z
loop_
_atom_site_type_symbol
_atom_site_label
_atom_site_fract_x
_atom_site_fract_y
_atom_site_fract_z
Si Si1 0.000000 0.923699 0.248007
Si Si2 0.825221 0.428217 0.746480
Si Si3 0.319732 0.104203 0.367892
Si Si4 0.127504 0.206317 0.664215
O O1 0.060926 0.844688 0.232921
O O2 0.000000 0.000000 0.500000
O O3 0.000000 0.000000 0.000000
O O4 0.837660 0.500000 0.500000
O O5 0.750000 0.388514 0.750000
O O6 0.874650 0.331983 0.685323
O O7 0.843752 0.500000 0.000000
O O8 0.250000 0.072044 0.250000
O O9 0.314736 0.181495 0.620414
O O10 0.353416 0.000000 0.500000
O O11 0.360364 0.159226 0.131068
#
# Coordination Sequence:
#
# PCOD8221511 Si02
#       4
#     4   8   8   8
#     4  12  26  44  64  88 126 174 218 256 299 368
#     4  10  21  39  63  92 124 158 203 261 322 380
#     4  12  23  37  60  92 126 159 203 263 325 385
#     4  12  24  41  63  90 125 170 212 256 314 375
#
# _framework density 21.499320000000001
#
# number of rings (size 3 to 8) (size 9 to 14) (size 15 to 20)
#    0.000    0.571    0.000   11.143    0.000    2.286 
#    0.000    1.429    0.000    0.000    0.000    0.000 
#    0.000    0.000    0.000    0.000    0.000    0.000 
#
# Total GULP energy -346897.814914 kJ/mol
# GULP energy per Si atom -12389.207675 kJ/mol
# Density = 2.145039 g / cm^3
# Si number density = 21.499320 Si / 1000 Ang^3
#
#
#
# Elastic Constant Matrix: (Units=GPa)
#
#
# Indices 1 2 3 4 5 6 
#
# 1 69.0492 75.3449 31.7139 0.0000 0.0000 0.0000
# 2 75.3449 192.2152 88.0048 0.0000 0.0000 0.0000
# 3 31.7139 88.0048 183.7038 0.0000 0.0000 0.0000
# 4 0.0000 0.0000 0.0000 76.2145 0.0000 0.0000
# 5 0.0000 0.0000 0.0000 0.0000 16.8104 0.0000
# 6 0.0000 0.0000 0.0000 0.0000 0.0000 42.3692
#
#
#
# Elastic Compliance Matrix: (Units=1/GPa)
#
#
# Indices 1 2 3 4 5 6 
#
# 1 0.025341 -0.010158 0.000492 0.000000 0.000000 0.000000
# 2 -0.010158 0.010736 -0.003390 0.000000 0.000000 0.000000
# 3 0.000492 -0.003390 0.006982 0.000000 0.000000 0.000000
# 4 0.000000 0.000000 0.000000 0.013121 0.000000 0.000000
# 5 0.000000 0.000000 0.000000 0.000000 0.059487 0.000000
# 6 0.000000 0.000000 0.000000 0.000000 0.000000 0.023602
#
#
# Mechanical properties :
#
#
# Convention : Reuss Voigt Hill
#
# Bulk Modulus (GPa) = 59.00637 92.78834 75.89736
# Shear Modulus (GPa) = 29.23431 43.73913 36.48672
#
# Velocity S-wave (km/s) = 3.69152 4.51537 4.12407
# Velocity P-wave (km/s) = 6.75833 8.39269 7.61946
#
# Compressibility (1/GPa) = 0.01694732
#
# Stress axis : x y z
#
# Youngs Moduli (GPa) = 39.46138 93.14166 143.21534
#
# Poissons Ratio (x) = 0.94617 -0.07041
# Poissons Ratio (y) = 0.40086 0.48545
# Poissons Ratio (z) = -0.01940 0.31571
#
# Static dielectric constant tensor:
#      x y z
#    x 3.503820 0.000000 0.000000 
#    y 0.000000 3.907300 0.000000 
#    z 0.000000 0.000000 4.237870 
# 
# 
# High freq. dielectric constant tensor:
#      x y z
#    x 1.810400 0.000000 0.000000 
#    y 0.000000 1.854440 0.000000 
#    z 0.000000 0.000000 1.875020 
# 
# From -- ./inp_files/2544.got.cif
#   From: 2010.03.12/outbox.cif.g09.slc.cpg/sg53_2_cif.got.tgz:2544.got - 2010.04.16 14:36:59.
