data_PCOD8221459
_publ_section_title
;
Structure prediction by ZEFSAII (Michael W. Deem and Ramdas Pophale) SiO2 
 PCOD8221459
Probable space group: P M N A
;
_chemical_formula_sum "Si O2"
_cell_formula_units_Z 56
_cell_length_a 18.622700
_cell_length_b 8.853424
_cell_length_c 16.278785
_cell_angle_alpha 90.000000
_cell_angle_beta 90.000000
_cell_angle_gamma 90.000000
_cell_volume 2683.959128
_symmetry_space_group_name_H-M "P M N A"
_symmetry_group_IT_number 53
_symmetry_cell_setting 'orthorhombic'
loop_
_space_group_symop_operation_xyz
x,y,z
1/2-x,-y,1/2+z
x,-y,-z
1/2-x,y,1/2-z
-x,-y,-z
1/2+x,y,1/2-z
-x,y,z
1/2+x,-y,1/2+z
loop_
_atom_site_type_symbol
_atom_site_label
_atom_site_fract_x
_atom_site_fract_y
_atom_site_fract_z
Si Si1 0.828102 0.830651 0.653581
Si Si2 0.805699 0.426293 0.916821
Si Si3 0.419795 0.777378 0.327746
Si Si4 0.080385 0.074219 0.080094
Si Si5 0.152988 0.333969 0.517469
Si Si6 0.677362 0.275261 0.326979
Si Si7 0.417103 0.135712 0.849347
O O1 0.844604 0.744695 0.570262
O O2 0.854101 0.734879 0.734053
O O3 0.741996 0.845428 0.662372
O O4 0.864452 0.993382 0.649938
O O5 0.862674 0.307150 0.883737
O O6 0.730540 0.343859 0.937496
O O7 0.795094 0.555849 0.847407
O O8 0.836391 0.500000 0.000000
O O9 0.500000 0.714946 0.347226
O O10 0.416633 0.956184 0.345313
O O11 0.402289 0.762470 0.231339
O O12 0.000000 0.121047 0.055569
O O13 0.117709 0.229044 0.106888
O O14 0.117954 0.000000 0.000000
O O15 0.121905 0.500000 0.500000
O O16 0.098127 0.241333 0.573096
O O17 0.500000 0.081155 0.852182
#
# Coordination Sequence:
#
# PCOD8221459 Si02
#       7
#     8   8   8   8   8   8   8
#     4  11  24  42  66  97 129 170 223 274 332 401
#     4  11  23  42  65 100 137 176 216 275 329 403
#     4  10  23  42  65  97 134 175 223 270 329 399
#     4  10  21  38  63  95 135 175 218 270 323 393
#     4  11  25  45  68 100 134 172 219 282 332 401
#     4  11  23  39  66  98 133 175 219 271 334 394
#     4  11  26  47  69  97 131 174 228 283 339 397
#
# _framework density 20.864699999999999
#
# number of rings (size 3 to 8) (size 9 to 14) (size 15 to 20)
#    0.000    1.286    4.286    1.286    4.000    2.857 
#    0.000    0.000    0.000    0.000    0.000    0.000 
#    0.000    0.000    0.000    0.000    0.000    0.000 
#
# Total GULP energy -694281.112895 kJ/mol
# GULP energy per Si atom -12397.877016 kJ/mol
# Density = 2.081721 g / cm^3
# Si number density = 20.864700 Si / 1000 Ang^3
#
#
#
# Elastic Constant Matrix: (Units=GPa)
#
#
# Indices 1 2 3 4 5 6 
#
# 1 76.0742 40.3578 24.8658 0.0000 0.0000 0.0000
# 2 40.3578 77.7950 28.5984 0.0000 0.0000 0.0000
# 3 24.8658 28.5984 132.3846 0.0000 0.0000 0.0000
# 4 0.0000 0.0000 0.0000 37.2044 0.0000 0.0000
# 5 0.0000 0.0000 0.0000 0.0000 34.7464 0.0000
# 6 0.0000 0.0000 0.0000 0.0000 0.0000 19.1357
#
#
#
# Elastic Compliance Matrix: (Units=1/GPa)
#
#
# Indices 1 2 3 4 5 6 
#
# 1 0.018412 -0.008995 -0.001515 0.000000 0.000000 0.000000
# 2 -0.008995 0.018357 -0.002276 0.000000 0.000000 0.000000
# 3 -0.001515 -0.002276 0.008330 0.000000 0.000000 0.000000
# 4 0.000000 0.000000 0.000000 0.026879 0.000000 0.000000
# 5 0.000000 0.000000 0.000000 0.000000 0.028780 0.000000
# 6 0.000000 0.000000 0.000000 0.000000 0.000000 0.052258
#
#
# Mechanical properties :
#
#
# Convention : Reuss Voigt Hill
#
# Bulk Modulus (GPa) = 51.21055 52.65530 51.93293
# Shear Modulus (GPa) = 27.01281 31.04609 29.02945
#
# Velocity S-wave (km/s) = 3.60205 3.86161 3.73409
# Velocity P-wave (km/s) = 6.47280 6.72116 6.59815
#
# Compressibility (1/GPa) = 0.01952723
#
# Stress axis : x y z
#
# Youngs Moduli (GPa) = 54.31231 54.47453 120.04700
#
# Poissons Ratio (x) = 0.48998 0.18190
# Poissons Ratio (y) = 0.48852 0.27325
# Poissons Ratio (z) = 0.08230 0.12399
#
# Static dielectric constant tensor:
#      x y z
#    x 3.721040 0.000000 0.000000 
#    y 0.000000 3.625090 0.000000 
#    z 0.000000 0.000000 4.078500 
# 
# 
# High freq. dielectric constant tensor:
#      x y z
#    x 1.804050 0.000000 0.000000 
#    y 0.000000 1.802060 0.000000 
#    z 0.000000 0.000000 1.842810 
# 
# From -- ./inp_files/24316.got.cif
#   From: 2010.03.12/outbox.cif.g09.slc.cpg/sg53_13_cif.got.tgz:24316.got - 2010.04.16 14:36:59.
