data_PCOD8221905
_publ_section_title
;
Structure prediction by ZEFSAII (Michael W. Deem and Ramdas Pophale) SiO2 
 PCOD8221905
Probable space group: P M N A
;
_chemical_formula_sum "Si O2"
_cell_formula_units_Z 48
_cell_length_a 16.345165
_cell_length_b 9.665714
_cell_length_c 14.715186
_cell_angle_alpha 90.000000
_cell_angle_beta 90.000000
_cell_angle_gamma 90.000000
_cell_volume 2324.818247
_symmetry_space_group_name_H-M "P M N A"
_symmetry_group_IT_number 53
_symmetry_cell_setting 'orthorhombic'
loop_
_space_group_symop_operation_xyz
x,y,z
1/2-x,-y,1/2+z
x,-y,-z
1/2-x,y,1/2-z
-x,-y,-z
1/2+x,y,1/2-z
-x,y,z
1/2+x,-y,1/2+z
loop_
_atom_site_type_symbol
_atom_site_label
_atom_site_fract_x
_atom_site_fract_y
_atom_site_fract_z
Si Si1 0.095653 0.029130 0.601993
Si Si2 0.904343 0.607870 0.926947
Si Si3 0.798560 0.733472 0.337760
Si Si4 0.290820 0.833266 0.508982
Si Si5 0.903911 0.478520 0.275832
Si Si6 0.319349 0.213608 0.173773
O O1 0.122225 0.178295 0.636159
O O2 0.000000 0.018461 0.598646
O O3 0.131598 0.000000 0.500000
O O4 0.129599 0.927771 0.680633
O O5 0.870622 0.761990 0.946404
O O6 0.880314 0.544583 0.829409
O O7 0.000000 0.624871 0.935809
O O8 0.868843 0.500000 0.000000
O O9 0.750000 0.786604 0.250000
O O10 0.730270 0.753622 0.415704
O O11 0.838415 0.583477 0.319987
O O12 0.217692 0.791746 0.574369
O O13 0.304353 0.000000 0.500000
O O14 0.886227 0.334683 0.325572
O O15 0.000000 0.520261 0.288276
O O16 0.250000 0.226150 0.250000
#
# Coordination Sequence:
#
# PCOD8221905 Si02
#       6
#     8   8   8   8   8   8
#     4  11  23  43  65  92 134 177 215 269 334 391
#     4  10  23  45  69  96 136 177 220 280 338 394
#     4  12  24  42  66  98 130 174 221 275 327 398
#     4  12  25  43  67 100 134 173 228 274 328 401
#     4  11  25  43  65  99 131 172 223 270 338 400
#     4  12  22  42  67  95 129 172 218 273 327 393
#
# _framework density 20.646777
#
# number of rings (size 3 to 8) (size 9 to 14) (size 15 to 20)
#    0.000    0.667    5.000    3.000    2.333    0.333 
#    0.000    1.667    0.000    0.000    0.000    0.000 
#    0.000    0.000    0.000    0.000    0.000    0.000 
#
# Total GULP energy -594800.866838 kJ/mol
# GULP energy per Si atom -12391.684726 kJ/mol
# Density = 2.059978 g / cm^3
# Si number density = 20.646777 Si / 1000 Ang^3
#
#
#
# Elastic Constant Matrix: (Units=GPa)
#
#
# Indices 1 2 3 4 5 6 
#
# 1 66.7432 39.4931 24.7747 0.0000 0.0000 0.0000
# 2 39.4931 108.9943 37.1372 0.0000 0.0000 0.0000
# 3 24.7747 37.1372 73.6414 0.0000 0.0000 0.0000
# 4 0.0000 0.0000 0.0000 42.1106 0.0000 0.0000
# 5 0.0000 0.0000 0.0000 0.0000 28.1871 0.0000
# 6 0.0000 0.0000 0.0000 0.0000 0.0000 40.3942
#
#
#
# Elastic Compliance Matrix: (Units=1/GPa)
#
#
# Indices 1 2 3 4 5 6 
#
# 1 0.019868 -0.005943 -0.003687 0.000000 0.000000 0.000000
# 2 -0.005943 0.012856 -0.004484 0.000000 0.000000 0.000000
# 3 -0.003687 -0.004484 0.017081 0.000000 0.000000 0.000000
# 4 0.000000 0.000000 0.000000 0.023747 0.000000 0.000000
# 5 0.000000 0.000000 0.000000 0.000000 0.035477 0.000000
# 6 0.000000 0.000000 0.000000 0.000000 0.000000 0.024756
#
#
# Mechanical properties :
#
#
# Convention : Reuss Voigt Hill
#
# Bulk Modulus (GPa) = 46.34512 50.24320 48.29416
# Shear Modulus (GPa) = 29.55000 32.00329 30.77665
#
# Velocity S-wave (km/s) = 3.78725 3.94132 3.86505
# Velocity P-wave (km/s) = 6.45133 6.71562 6.58480
#
# Compressibility (1/GPa) = 0.02157724
#
# Stress axis : x y z
#
# Youngs Moduli (GPa) = 50.33269 77.78570 58.54459
#
# Poissons Ratio (x) = 0.46225 0.21586
# Poissons Ratio (y) = 0.29911 0.26251
# Poissons Ratio (z) = 0.18558 0.34879
#
# Static dielectric constant tensor:
#      x y z
#    x 3.733050 0.000000 0.000000 
#    y 0.000000 3.977290 0.000000 
#    z 0.000000 0.000000 4.233250 
# 
# 
# High freq. dielectric constant tensor:
#      x y z
#    x 1.815200 0.000000 0.000000 
#    y 0.000000 1.811160 0.000000 
#    z 0.000000 0.000000 1.814860 
# 
# From -- ./inp_files/23648.got.cif
#   From: 2010.03.12/outbox.cif.g09.slc.cpg/sg53_12_cif.got.tgz:23648.got - 2010.04.16 14:36:59.
