data_PCOD8221558
_publ_section_title
;
Structure prediction by ZEFSAII (Michael W. Deem and Ramdas Pophale) SiO2 
 PCOD8221558
Probable space group: P M N A
;
_chemical_formula_sum "Si O2"
_cell_formula_units_Z 64
_cell_length_a 22.888524
_cell_length_b 9.172608
_cell_length_c 16.211538
_cell_angle_alpha 90.000000
_cell_angle_beta 90.000000
_cell_angle_gamma 90.000000
_cell_volume 3403.571199
_symmetry_space_group_name_H-M "P M N A"
_symmetry_group_IT_number 53
_symmetry_cell_setting 'orthorhombic'
loop_
_space_group_symop_operation_xyz
x,y,z
1/2-x,-y,1/2+z
x,-y,-z
1/2-x,y,1/2-z
-x,-y,-z
1/2+x,y,1/2-z
-x,y,z
1/2+x,-y,1/2+z
loop_
_atom_site_type_symbol
_atom_site_label
_atom_site_fract_x
_atom_site_fract_y
_atom_site_fract_z
Si Si1 0.568270 0.822576 0.793379
Si Si2 0.376306 0.988459 0.642890
Si Si3 0.365655 0.713236 0.546621
Si Si4 0.659250 0.093072 0.079226
Si Si5 0.750349 0.874729 0.344640
Si Si6 0.736375 0.330332 0.997541
Si Si7 0.565180 0.279727 0.612238
Si Si8 0.065259 0.565409 0.813218
O O1 0.500000 0.870420 0.794045
O O2 0.607324 0.902432 0.724986
O O3 0.597971 0.861111 0.879704
O O4 0.574597 0.648258 0.774069
O O5 0.381812 0.882121 0.564063
O O6 0.311582 0.051992 0.638376
O O7 0.422816 0.117088 0.640327
O O8 0.297075 0.688244 0.544199
O O9 0.392364 0.665677 0.459781
O O10 0.388534 0.614593 0.619685
O O11 0.700089 0.997103 0.140008
O O12 0.690442 0.241453 0.052130
O O13 0.642120 0.000000 0.000000
O O14 0.750000 0.819816 0.250000
O O15 0.760033 0.735430 0.404443
O O16 0.717606 0.500000 0.000000
O O17 0.500000 0.287281 0.576858
O O18 0.572409 0.389319 0.691347
O O19 0.000000 0.605823 0.844833
#
# Coordination Sequence:
#
# PCOD8221558 Si02
#       8
#     8   8   8   8   8   8   8   8
#     4  10  21  40  62  84 113 150 197 247 300 357
#     4  11  21  34  55  84 116 150 194 243 284 342
#     4  11  20  32  53  78 112 158 194 232 283 335
#     4  10  22  40  64  87 115 150 191 249 309 355
#     4  11  21  40  61  85 116 157 194 242 301 349
#     4  11  23  39  58  87 121 153 195 246 292 355
#     4  11  21  32  50  80 117 157 196 232 275 335
#     4   9  20  36  51  76 116 156 194 237 281 335
#
# _framework density 18.80378
#
# number of rings (size 3 to 8) (size 9 to 14) (size 15 to 20)
#    0.000    1.500    3.750    2.250    0.000    3.250 
#    2.250    0.625    0.000    0.375    0.000    0.000 
#    0.000    0.000    0.000    0.000    0.000    0.000 
#
# Total GULP energy -793240.815149 kJ/mol
# GULP energy per Si atom -12394.387737 kJ/mol
# Density = 1.876098 g / cm^3
# Si number density = 18.803780 Si / 1000 Ang^3
#
#
#
# Elastic Constant Matrix: (Units=GPa)
#
#
# Indices 1 2 3 4 5 6 
#
# 1 79.0979 35.2226 29.3314 0.0000 0.0000 0.0000
# 2 35.2226 123.2458 33.9974 0.0000 0.0000 0.0000
# 3 29.3314 33.9974 79.0224 0.0000 0.0000 0.0000
# 4 0.0000 0.0000 0.0000 20.3122 0.0000 0.0000
# 5 0.0000 0.0000 0.0000 0.0000 31.9163 0.0000
# 6 0.0000 0.0000 0.0000 0.0000 0.0000 23.0069
#
#
#
# Elastic Compliance Matrix: (Units=1/GPa)
#
#
# Indices 1 2 3 4 5 6 
#
# 1 0.015746 -0.003277 -0.004435 0.000000 0.000000 0.000000
# 2 -0.003277 0.009888 -0.003038 0.000000 0.000000 0.000000
# 3 -0.004435 -0.003038 0.015608 0.000000 0.000000 0.000000
# 4 0.000000 0.000000 0.000000 0.049231 0.000000 0.000000
# 5 0.000000 0.000000 0.000000 0.000000 0.031332 0.000000
# 6 0.000000 0.000000 0.000000 0.000000 0.000000 0.043465
#
#
# Mechanical properties :
#
#
# Convention : Reuss Voigt Hill
#
# Bulk Modulus (GPa) = 50.65055 53.16323 51.90689
# Shear Modulus (GPa) = 25.85965 27.23473 26.54719
#
# Velocity S-wave (km/s) = 3.71244 3.80987 3.76147
# Velocity P-wave (km/s) = 6.73581 6.90561 6.82124
#
# Compressibility (1/GPa) = 0.01974312
#
# Stress axis : x y z
#
# Youngs Moduli (GPa) = 63.50693 101.12893 64.07056
#
# Poissons Ratio (x) = 0.33138 0.28415
# Poissons Ratio (y) = 0.20810 0.19464
# Poissons Ratio (z) = 0.28165 0.30722
#
# Static dielectric constant tensor:
#      x y z
#    x 3.406470 0.000000 0.000000 
#    y 0.000000 3.761610 0.000000 
#    z 0.000000 0.000000 3.313910 
# 
# 
# High freq. dielectric constant tensor:
#      x y z
#    x 1.729330 0.000000 0.000000 
#    y 0.000000 1.739540 0.000000 
#    z 0.000000 0.000000 1.705630 
# 
# From -- ./inp_files/29375.got.cif
#   From: 2010.03.12/outbox.cif.g09.slc.cpg/sg53_15_cif.got.tgz:29375.got - 2010.04.16 14:36:59.
