data_PCOD8221816
_publ_section_title
;
Structure prediction by ZEFSAII (Michael W. Deem and Ramdas Pophale) SiO2 
 PCOD8221816
Probable space group: P M N A
;
_chemical_formula_sum "Si O2"
_cell_formula_units_Z 40
_cell_length_a 15.906756
_cell_length_b 14.285094
_cell_length_c 8.598827
_cell_angle_alpha 90.000000
_cell_angle_beta 90.000000
_cell_angle_gamma 90.000000
_cell_volume 1953.907200
_symmetry_space_group_name_H-M "P M N A"
_symmetry_group_IT_number 53
_symmetry_cell_setting 'orthorhombic'
loop_
_space_group_symop_operation_xyz
x,y,z
1/2-x,-y,1/2+z
x,-y,-z
1/2-x,y,1/2-z
-x,-y,-z
1/2+x,y,1/2-z
-x,y,z
1/2+x,-y,1/2+z
loop_
_atom_site_type_symbol
_atom_site_label
_atom_site_fract_x
_atom_site_fract_y
_atom_site_fract_z
Si Si1 0.000000 0.942591 0.315409
Si Si2 0.833476 0.025951 0.175622
Si Si3 0.866783 0.228420 0.162951
Si Si4 0.500000 0.761711 0.400304
Si Si5 0.750000 0.388994 0.250000
Si Si6 0.357821 0.500000 0.000000
Si Si7 0.000000 0.628429 0.363294
Si Si8 0.000000 0.198189 0.422182
O O1 0.000000 0.907154 0.498141
O O2 0.000000 0.849759 0.213048
O O3 0.083353 0.003569 0.277374
O O4 0.750000 0.976685 0.250000
O O5 0.810883 0.135673 0.165936
O O6 0.852201 0.000000 0.000000
O O7 0.813899 0.323110 0.157398
O O8 0.919425 0.220193 0.320147
O O9 0.918505 0.230960 0.005409
O O10 0.500000 0.659090 0.317826
O O11 0.701052 0.451419 0.126111
O O12 0.416174 0.427837 0.906316
O O13 0.000000 0.728398 0.441498
#
# Coordination Sequence:
#
# PCOD8221816 Si02
#       8
#     4   8   8   4   4   4   4   4
#     4  11  23  43  69  99 139 182 232 267 332 393
#     4  12  26  43  64  99 139 183 229 277 324 398
#     4  11  23  43  66  95 137 170 224 272 336 391
#     4  10  22  42  70  96 130 183 215 273 331 400
#     4  12  26  44  66 102 128 174 214 288 348 392
#     4  11  26  46  68  95 134 166 222 283 336 416
#     4  10  22  46  68  97 129 174 220 272 334 412
#     4  10  22  42  69  96 129 179 221 272 335 401
#
# _framework density 20.471800999999999
#
# number of rings (size 3 to 8) (size 9 to 14) (size 15 to 20)
#    0.000    1.000    5.000    1.500    5.600    0.800 
#    0.000    1.000    0.000    0.000    0.000    0.000 
#    0.000    0.000    0.000    0.000    0.000    0.000 
#
# Total GULP energy -495807.853113 kJ/mol
# GULP energy per Si atom -12395.196328 kJ/mol
# Density = 2.042521 g / cm^3
# Si number density = 20.471801 Si / 1000 Ang^3
#
#
#
# Elastic Constant Matrix: (Units=GPa)
#
#
# Indices 1 2 3 4 5 6 
#
# 1 128.9492 39.1663 51.4529 0.0000 0.0000 0.0000
# 2 39.1663 108.1999 34.0610 0.0000 0.0000 0.0000
# 3 51.4529 34.0610 109.4034 0.0000 0.0000 0.0000
# 4 0.0000 0.0000 0.0000 34.9695 0.0000 0.0000
# 5 0.0000 0.0000 0.0000 0.0000 52.8281 0.0000
# 6 0.0000 0.0000 0.0000 0.0000 0.0000 27.9109
#
#
#
# Elastic Compliance Matrix: (Units=1/GPa)
#
#
# Indices 1 2 3 4 5 6 
#
# 1 0.010074 -0.002389 -0.003994 0.000000 0.000000 0.000000
# 2 -0.002389 0.010813 -0.002243 0.000000 0.000000 0.000000
# 3 -0.003994 -0.002243 0.011717 0.000000 0.000000 0.000000
# 4 0.000000 0.000000 0.000000 0.028596 0.000000 0.000000
# 5 0.000000 0.000000 0.000000 0.000000 0.018929 0.000000
# 6 0.000000 0.000000 0.000000 0.000000 0.000000 0.035828
#
#
# Mechanical properties :
#
#
# Convention : Reuss Voigt Hill
#
# Bulk Modulus (GPa) = 65.13751 66.21253 65.67502
# Shear Modulus (GPa) = 36.14580 37.93320 37.03950
#
# Velocity S-wave (km/s) = 4.20651 4.30926 4.25819
# Velocity P-wave (km/s) = 7.44850 7.56129 7.50511
#
# Compressibility (1/GPa) = 0.01535214
#
# Stress axis : x y z
#
# Youngs Moduli (GPa) = 99.26072 92.48057 85.34471
#
# Poissons Ratio (x) = 0.22098 0.34088
# Poissons Ratio (y) = 0.23718 0.19140
# Poissons Ratio (z) = 0.39646 0.20741
#
# Static dielectric constant tensor:
#      x y z
#    x 3.650920 0.000000 0.000000 
#    y 0.000000 3.906550 0.000000 
#    z 0.000000 0.000000 4.023710 
# 
# 
# High freq. dielectric constant tensor:
#      x y z
#    x 1.804800 0.000000 0.000000 
#    y 0.000000 1.811060 0.000000 
#    z 0.000000 0.000000 1.813490 
# 
# From -- ./inp_files/8518.got.cif
#   From: 2010.03.12/outbox.cif.g09.slc.cpg/sg53_5_cif.got.tgz:8518.got - 2010.04.16 14:36:59.
