data_PCOD8221889
_publ_section_title
;
Structure prediction by ZEFSAII (Michael W. Deem and Ramdas Pophale) SiO2 
 PCOD8221889
Probable space group: P M N A
;
_chemical_formula_sum "Si O2"
_cell_formula_units_Z 20
_cell_length_a 31.811485
_cell_length_b 5.133824
_cell_length_c 5.030411
_cell_angle_alpha 90.000000
_cell_angle_beta 90.000000
_cell_angle_gamma 90.000000
_cell_volume 821.539385
_symmetry_space_group_name_H-M "P M N A"
_symmetry_group_IT_number 53
_symmetry_cell_setting 'orthorhombic'
loop_
_space_group_symop_operation_xyz
x,y,z
1/2-x,-y,1/2+z
x,-y,-z
1/2-x,y,1/2-z
-x,-y,-z
1/2+x,y,1/2-z
-x,y,z
1/2+x,-y,1/2+z
loop_
_atom_site_type_symbol
_atom_site_label
_atom_site_fract_x
_atom_site_fract_y
_atom_site_fract_z
Si Si1 0.721902 0.000000 0.000000
Si Si2 0.889060 0.500000 0.000000
Si Si3 0.667252 0.500000 0.000000
Si Si4 0.547297 0.757710 0.824791
O O1 0.694583 0.250321 0.081892
O O2 0.750000 0.918580 0.250000
O O3 0.860707 0.585302 0.248752
O O4 0.920051 0.260833 0.079977
O O5 0.500000 0.791475 0.711403
O O6 0.551139 0.500000 0.000000
O O7 0.561203 0.000000 0.000000
#
# Coordination Sequence:
#
# PCOD8221889 Si02
#       4
#     4   4   4   8
#     4  12  26  52  76 104 141 182 231 284 358 458
#     4  12  25  47  68 110 151 182 243 306 364 417
#     4  12  28  43  77 110 139 186 229 296 369 429
#     4  10  23  43  68  98 141 201 250 293 354 420
#
# _framework density 24.344542000000001
#
# number of rings (size 3 to 8) (size 9 to 14) (size 15 to 20)
#    0.000    0.800    2.000    4.200    2.800    4.800 
#    0.000    6.000    0.000    0.000    0.000    0.000 
#    0.000    0.000    0.000    0.000    0.000    0.000 
#
# Total GULP energy -248095.936836 kJ/mol
# GULP energy per Si atom -12404.796842 kJ/mol
# Density = 2.428913 g / cm^3
# Si number density = 24.344542 Si / 1000 Ang^3
#
#
#
# Elastic Constant Matrix: (Units=GPa)
#
#
# Indices 1 2 3 4 5 6 
#
# 1 148.1396 52.1328 72.4714 0.0000 0.0000 0.0000
# 2 52.1328 163.1967 39.2891 0.0000 0.0000 0.0000
# 3 72.4714 39.2891 156.4837 0.0000 0.0000 0.0000
# 4 0.0000 0.0000 0.0000 30.8297 0.0000 0.0000
# 5 0.0000 0.0000 0.0000 0.0000 351.3418 0.0000
# 6 0.0000 0.0000 0.0000 0.0000 0.0000 -101.0762
#
#
#
# Elastic Compliance Matrix: (Units=1/GPa)
#
#
# Indices 1 2 3 4 5 6 
#
# 1 0.009340 -0.002067 -0.003807 0.000000 0.000000 0.000000
# 2 -0.002067 0.006979 -0.000795 0.000000 0.000000 0.000000
# 3 -0.003807 -0.000795 0.008353 0.000000 0.000000 0.000000
# 4 0.000000 0.000000 0.000000 0.032436 0.000000 0.000000
# 5 0.000000 0.000000 0.000000 0.000000 0.002846 0.000000
# 6 0.000000 0.000000 0.000000 0.000000 0.000000 -0.009894
#
#
# Mechanical properties :
#
#
# Convention : Reuss Voigt Hill
#
# Bulk Modulus (GPa) = 88.22367 88.40074 88.31221
# Shear Modulus (GPa) = 74.43003 76.48086 75.45545
#
# Velocity S-wave (km/s) = 5.53534 5.61108 5.57334
# Velocity P-wave (km/s) = 8.78474 8.85269 8.81878
#
# Compressibility (1/GPa) = 0.01133483
#
# Stress axis : x y z
#
# Youngs Moduli (GPa) = 107.06503 143.28019 119.71798
#
# Poissons Ratio (x) = 0.29620 0.45572
# Poissons Ratio (y) = 0.22133 0.09517
# Poissons Ratio (z) = 0.40755 0.11390
#
# Static dielectric constant tensor:
#      x y z
#    x 4.858000 0.000000 0.000000 
#    y 0.000000 4.225790 0.000000 
#    z 0.000000 0.000000 4.377260 
# 
# 
# High freq. dielectric constant tensor:
#      x y z
#    x 1.983190 0.000000 0.000000 
#    y 0.000000 1.967910 0.000000 
#    z 0.000000 0.000000 1.973320 
# 
# From -- ./inp_files/4822.got.cif
#   From: 2010.03.12/outbox.cif.g09.slc.cpg/sg53_3_cif.got.tgz:4822.got - 2010.04.16 14:36:59.
