data_PCOD8221357
_publ_section_title
;
Structure prediction by ZEFSAII (Michael W. Deem and Ramdas Pophale) SiO2 
 PCOD8221357
Probable space group: P M N A
;
_chemical_formula_sum "Si O2"
_cell_formula_units_Z 48
_cell_length_a 16.455384
_cell_length_b 9.225083
_cell_length_c 14.580141
_cell_angle_alpha 90.000000
_cell_angle_beta 90.000000
_cell_angle_gamma 90.000000
_cell_volume 2213.298693
_symmetry_space_group_name_H-M "P M N A"
_symmetry_group_IT_number 53
_symmetry_cell_setting 'orthorhombic'
loop_
_space_group_symop_operation_xyz
x,y,z
1/2-x,-y,1/2+z
x,-y,-z
1/2-x,y,1/2-z
-x,-y,-z
1/2+x,y,1/2-z
-x,y,z
1/2+x,-y,1/2+z
loop_
_atom_site_type_symbol
_atom_site_label
_atom_site_fract_x
_atom_site_fract_y
_atom_site_fract_z
Si Si1 0.842353 0.276738 0.270303
Si Si2 0.596031 0.929982 0.903657
Si Si3 0.904802 0.589047 0.226076
Si Si4 0.684934 0.185237 0.830257
Si Si5 0.593061 0.104642 0.390594
Si Si6 0.161530 0.794131 0.072577
O O1 0.750000 0.235473 0.250000
O O2 0.866602 0.228093 0.375225
O O3 0.855971 0.443291 0.246694
O O4 0.901529 0.182889 0.206189
O O5 0.500000 0.920434 0.899421
O O6 0.633134 0.038890 0.829140
O O7 0.624509 0.000000 0.000000
O O8 0.880983 0.689681 0.312191
O O9 0.879146 0.661375 0.129001
O O10 0.000000 0.557420 0.225664
O O11 0.750000 0.179507 0.750000
O O12 0.739569 0.215454 0.921277
O O13 0.500000 0.083915 0.419388
O O14 0.636167 0.209169 0.466187
O O15 0.634107 0.947526 0.384456
#
# Coordination Sequence:
#
# PCOD8221357 Si02
#       6
#     8   8   8   8   8   8
#     4  12  25  41  63  94 125 168 212 269 328 392
#     4  11  24  41  64  92 125 164 216 269 316 375
#     4  11  22  41  64  89 131 172 214 260 319 393
#     4  10  21  38  63  90 121 164 210 255 316 378
#     4  11  22  38  63  94 128 163 209 263 324 386
#     4  10  21  37  62  96 128 164 208 261 319 385
#
# _framework density 21.687085
#
# number of rings (size 3 to 8) (size 9 to 14) (size 15 to 20)
#    0.000    1.167    0.000    9.000    4.667    0.667 
#    0.000    2.500    0.000    3.000    0.000    0.000 
#    0.000    0.000    0.000    0.000    0.000    0.000 
#
# Total GULP energy -594952.923939 kJ/mol
# GULP energy per Si atom -12394.852582 kJ/mol
# Density = 2.163772 g / cm^3
# Si number density = 21.687085 Si / 1000 Ang^3
#
#
#
# Elastic Constant Matrix: (Units=GPa)
#
#
# Indices 1 2 3 4 5 6 
#
# 1 75.1474 10.7673 25.6873 0.0000 0.0000 0.0000
# 2 10.7673 112.1416 40.7317 0.0000 0.0000 0.0000
# 3 25.6873 40.7317 72.2495 0.0000 0.0000 0.0000
# 4 0.0000 0.0000 0.0000 35.0468 0.0000 0.0000
# 5 0.0000 0.0000 0.0000 0.0000 28.8060 0.0000
# 6 0.0000 0.0000 0.0000 0.0000 0.0000 28.8586
#
#
#
# Elastic Compliance Matrix: (Units=1/GPa)
#
#
# Indices 1 2 3 4 5 6 
#
# 1 0.015184 0.000632 -0.005755 0.000000 0.000000 0.000000
# 2 0.000632 0.011240 -0.006561 0.000000 0.000000 0.000000
# 3 -0.005755 -0.006561 0.019586 0.000000 0.000000 0.000000
# 4 0.000000 0.000000 0.000000 0.028533 0.000000 0.000000
# 5 0.000000 0.000000 0.000000 0.000000 0.034715 0.000000
# 6 0.000000 0.000000 0.000000 0.000000 0.000000 0.034652
#
#
# Mechanical properties :
#
#
# Convention : Reuss Voigt Hill
#
# Bulk Modulus (GPa) = 44.16613 45.99011 45.07812
# Shear Modulus (GPa) = 28.60005 30.69908 29.64956
#
# Velocity S-wave (km/s) = 3.63541 3.76646 3.70151
# Velocity P-wave (km/s) = 6.16693 6.33776 6.25293
#
# Compressibility (1/GPa) = 0.02264179
#
# Stress axis : x y z
#
# Youngs Moduli (GPa) = 65.85994 88.96946 51.05659
#
# Poissons Ratio (x) = -0.05627 0.29383
# Poissons Ratio (y) = -0.04165 0.33501
# Poissons Ratio (z) = 0.37902 0.58377
#
# Static dielectric constant tensor:
#      x y z
#    x 4.152830 0.000000 0.000000 
#    y 0.000000 3.866410 0.000000 
#    z 0.000000 0.000000 4.159540 
# 
# 
# High freq. dielectric constant tensor:
#      x y z
#    x 1.870070 0.000000 0.000000 
#    y 0.000000 1.841500 0.000000 
#    z 0.000000 0.000000 1.844720 
# 
# From -- ./inp_files/23626.got.cif
#   From: 2010.03.12/outbox.cif.g09.slc.cpg/sg53_12_cif.got.tgz:23626.got - 2010.04.16 14:36:59.
