data_PCOD8221327
_publ_section_title
;
Structure prediction by ZEFSAII (Michael W. Deem and Ramdas Pophale) SiO2 
 PCOD8221327
Probable space group: P M N A
;
_chemical_formula_sum "Si O2"
_cell_formula_units_Z 40
_cell_length_a 13.693631
_cell_length_b 15.128419
_cell_length_c 9.172969
_cell_angle_alpha 90.000000
_cell_angle_beta 90.000000
_cell_angle_gamma 90.000000
_cell_volume 1900.299661
_symmetry_space_group_name_H-M "P M N A"
_symmetry_group_IT_number 53
_symmetry_cell_setting 'orthorhombic'
loop_
_space_group_symop_operation_xyz
x,y,z
1/2-x,-y,1/2+z
x,-y,-z
1/2-x,y,1/2-z
-x,-y,-z
1/2+x,y,1/2-z
-x,y,z
1/2+x,-y,1/2+z
loop_
_atom_site_type_symbol
_atom_site_label
_atom_site_fract_x
_atom_site_fract_y
_atom_site_fract_z
Si Si1 0.806671 0.402125 0.533698
Si Si2 0.108579 0.192197 0.020110
Si Si3 0.280739 0.917600 0.911894
Si Si4 0.890494 0.358356 0.837665
Si Si5 0.612940 0.744834 0.836997
O O1 0.845968 0.500000 0.500000
O O2 0.868769 0.362967 0.666846
O O3 0.691442 0.411264 0.571587
O O4 0.823900 0.336894 0.398036
O O5 0.183495 0.112131 0.000573
O O6 0.136534 0.248604 0.165082
O O7 0.000000 0.152430 0.037317
O O8 0.115729 0.255421 0.880663
O O9 0.250000 0.946920 0.750000
O O10 0.357994 0.837538 0.912252
O O11 0.326574 0.000000 0.000000
O O12 0.000000 0.395109 0.871609
O O13 0.500000 0.725711 0.867791
#
# Coordination Sequence:
#
# PCOD8221327 Si02
#       5
#     8   8   8   8   8
#     4  11  24  40  61  89 124 161 202 250 299 353
#     4   9  19  38  63  87 118 161 201 243 301 361
#     4  10  21  37  59  88 121 155 198 248 303 361
#     4  10  22  40  61  88 120 157 203 247 295 351
#     4  10  21  39  62  86 121 161 199 248 302 360
#
# _framework density 21.049310999999999
#
# number of rings (size 3 to 8) (size 9 to 14) (size 15 to 20)
#    0.000    2.000    2.000    0.600    0.000    7.600 
#    0.000    2.000    0.000    0.000    0.000    0.000 
#    0.000    0.000    0.000    0.000    0.000    0.000 
#
# Total GULP energy -495997.810759 kJ/mol
# GULP energy per Si atom -12399.945269 kJ/mol
# Density = 2.100140 g / cm^3
# Si number density = 21.049311 Si / 1000 Ang^3
#
#
#
# Elastic Constant Matrix: (Units=GPa)
#
#
# Indices 1 2 3 4 5 6 
#
# 1 96.7161 26.6325 29.3209 0.0000 0.0000 0.0000
# 2 26.6325 109.2234 41.1869 0.0000 0.0000 0.0000
# 3 29.3209 41.1869 59.6261 0.0000 0.0000 0.0000
# 4 0.0000 0.0000 0.0000 30.4675 0.0000 0.0000
# 5 0.0000 0.0000 0.0000 0.0000 25.3222 0.0000
# 6 0.0000 0.0000 0.0000 0.0000 0.0000 18.5732
#
#
#
# Elastic Compliance Matrix: (Units=1/GPa)
#
#
# Indices 1 2 3 4 5 6 
#
# 1 0.012226 -0.000966 -0.005345 0.000000 0.000000 0.000000
# 2 -0.000966 0.012457 -0.008130 0.000000 0.000000 0.000000
# 3 -0.005345 -0.008130 0.025015 0.000000 0.000000 0.000000
# 4 0.000000 0.000000 0.000000 0.032822 0.000000 0.000000
# 5 0.000000 0.000000 0.000000 0.000000 0.039491 0.000000
# 6 0.000000 0.000000 0.000000 0.000000 0.000000 0.053841
#
#
# Mechanical properties :
#
#
# Convention : Reuss Voigt Hill
#
# Bulk Modulus (GPa) = 48.03733 51.09402 49.56568
# Shear Modulus (GPa) = 23.62155 26.10093 24.86124
#
# Velocity S-wave (km/s) = 3.35356 3.52517 3.44043
# Velocity P-wave (km/s) = 6.15354 6.39494 6.27540
#
# Compressibility (1/GPa) = 0.02081714
#
# Stress axis : x y z
#
# Youngs Moduli (GPa) = 81.79390 80.27904 39.97577
#
# Poissons Ratio (x) = 0.07751 0.21367
# Poissons Ratio (y) = 0.07897 0.32499
# Poissons Ratio (z) = 0.43720 0.65264
#
# Static dielectric constant tensor:
#      x y z
#    x 4.038640 0.000000 0.000000 
#    y 0.000000 3.454400 0.000000 
#    z 0.000000 0.000000 3.706390 
# 
# 
# High freq. dielectric constant tensor:
#      x y z
#    x 1.836650 0.000000 0.000000 
#    y 0.000000 1.800600 0.000000 
#    z 0.000000 0.000000 1.818970 
# 
# From -- ./inp_files/8366.got.cif
#   From: 2010.03.12/outbox.cif.g09.slc.cpg/sg53_5_cif.got.tgz:8366.got - 2010.04.16 14:36:59.
