data_PCOD8221456
_publ_section_title
;
Structure prediction by ZEFSAII (Michael W. Deem and Ramdas Pophale) SiO2 
 PCOD8221456
Probable space group: P M N A
;
_chemical_formula_sum "Si O2"
_cell_formula_units_Z 40
_cell_length_a 7.658168
_cell_length_b 9.683344
_cell_length_c 27.044211
_cell_angle_alpha 90.000000
_cell_angle_beta 90.000000
_cell_angle_gamma 90.000000
_cell_volume 2005.508770
_symmetry_space_group_name_H-M "P M N A"
_symmetry_group_IT_number 53
_symmetry_cell_setting 'orthorhombic'
loop_
_space_group_symop_operation_xyz
x,y,z
1/2-x,-y,1/2+z
x,-y,-z
1/2-x,y,1/2-z
-x,-y,-z
1/2+x,y,1/2-z
-x,y,z
1/2+x,-y,1/2+z
loop_
_atom_site_type_symbol
_atom_site_label
_atom_site_fract_x
_atom_site_fract_y
_atom_site_fract_z
Si Si1 0.302466 0.710311 0.605153
Si Si2 0.304776 0.027394 0.608403
Si Si3 0.204197 0.787606 0.305081
Si Si4 0.500000 0.115479 0.959765
Si Si5 0.500000 0.635478 0.968359
Si Si6 0.795798 0.526534 0.694560
O O1 0.500000 0.703467 0.584250
O O2 0.172589 0.644002 0.565307
O O3 0.299215 0.627553 0.656528
O O4 0.245442 0.868560 0.615316
O O5 0.500000 0.033892 0.586005
O O6 0.305941 0.105541 0.660540
O O7 0.174340 0.106987 0.572456
O O8 0.250000 0.833523 0.250000
O O9 0.269729 0.630574 0.314238
O O10 0.000000 0.799523 0.315783
O O11 0.500000 0.256425 0.988093
O O12 0.500000 0.000000 0.000000
O O13 0.500000 0.500000 0.000000
O O14 0.750000 0.574357 0.750000
O O15 0.000000 0.537431 0.685192
#
# Coordination Sequence:
#
# PCOD8221456 Si02
#       6
#     8   8   8   4   4   8
#     4  11  24  43  65  94 130 167 214 265 318 384
#     4  11  24  41  66  96 127 167 215 263 320 384
#     4  10  21  38  63  95 131 169 213 262 318 382
#     4  12  24  46  70  92 128 172 212 270 326 370
#     4  12  28  46  68  96 130 168 218 272 322 384
#     4  10  21  38  63  93 130 172 212 260 320 382
#
# _framework density 19.945062
#
# number of rings (size 3 to 8) (size 9 to 14) (size 15 to 20)
#    0.000    1.200    4.000    1.200    2.800    4.800 
#    0.000    0.000    0.000    0.000    0.000    0.000 
#    0.000    0.000    0.000    0.000    0.000    0.000 
#
# Total GULP energy -496109.350079 kJ/mol
# GULP energy per Si atom -12402.733752 kJ/mol
# Density = 1.989967 g / cm^3
# Si number density = 19.945062 Si / 1000 Ang^3
#
#
#
# Elastic Constant Matrix: (Units=GPa)
#
#
# Indices 1 2 3 4 5 6 
#
# 1 109.7525 37.4430 50.2330 0.0000 0.0000 0.0000
# 2 37.4430 123.9196 78.8703 0.0000 0.0000 0.0000
# 3 50.2330 78.8703 135.8693 0.0000 0.0000 0.0000
# 4 0.0000 0.0000 0.0000 46.9048 0.0000 0.0000
# 5 0.0000 0.0000 0.0000 0.0000 34.7657 0.0000
# 6 0.0000 0.0000 0.0000 0.0000 0.0000 -20.2745
#
#
#
# Elastic Compliance Matrix: (Units=1/GPa)
#
#
# Indices 1 2 3 4 5 6 
#
# 1 0.011074 -0.001174 -0.003413 0.000000 0.000000 0.000000
# 2 -0.001174 0.012923 -0.007067 0.000000 0.000000 0.000000
# 3 -0.003413 -0.007067 0.012724 0.000000 0.000000 0.000000
# 4 0.000000 0.000000 0.000000 0.021320 0.000000 0.000000
# 5 0.000000 0.000000 0.000000 0.000000 0.028764 0.000000
# 6 0.000000 0.000000 0.000000 0.000000 0.000000 -0.049323
#
#
# Mechanical properties :
#
#
# Convention : Reuss Voigt Hill
#
# Bulk Modulus (GPa) = 74.55646 78.07045 76.31346
# Shear Modulus (GPa) = 76.61604 25.81220 51.21412
#
# Velocity S-wave (km/s) = 6.20459 3.60135 5.07280
# Velocity P-wave (km/s) = 9.42291 7.51803 8.52385
#
# Compressibility (1/GPa) = 0.01341265
#
# Stress axis : x y z
#
# Youngs Moduli (GPa) = 90.30243 77.38389 78.59003
#
# Poissons Ratio (x) = 0.09085 0.26821
# Poissons Ratio (y) = 0.10601 0.55542
# Poissons Ratio (z) = 0.30818 0.54690
#
# Static dielectric constant tensor:
#      x y z
#    x 3.772220 0.000000 0.000000 
#    y 0.000000 3.680810 0.000000 
#    z 0.000000 0.000000 3.638800 
# 
# 
# High freq. dielectric constant tensor:
#      x y z
#    x 1.793040 0.000000 0.000000 
#    y 0.000000 1.781830 0.000000 
#    z 0.000000 0.000000 1.777650 
# 
# From -- ./inp_files/36085.got.cif
#   From: 2010.03.12/outbox.cif.g09.slc.cpg/sg53_19_cif.got.tgz:36085.got - 2010.04.16 14:36:59.
