data_PCOD8221603
_publ_section_title
;
Structure prediction by ZEFSAII (Michael W. Deem and Ramdas Pophale) SiO2 
 PCOD8221603
Probable space group: P M N A
;
_chemical_formula_sum "Si O2"
_cell_formula_units_Z 48
_cell_length_a 8.599445
_cell_length_b 9.665931
_cell_length_c 29.141366
_cell_angle_alpha 90.000000
_cell_angle_beta 90.000000
_cell_angle_gamma 90.000000
_cell_volume 2422.278192
_symmetry_space_group_name_H-M "P M N A"
_symmetry_group_IT_number 53
_symmetry_cell_setting 'orthorhombic'
loop_
_space_group_symop_operation_xyz
x,y,z
1/2-x,-y,1/2+z
x,-y,-z
1/2-x,y,1/2-z
-x,-y,-z
1/2+x,y,1/2-z
-x,y,z
1/2+x,-y,1/2+z
loop_
_atom_site_type_symbol
_atom_site_label
_atom_site_fract_x
_atom_site_fract_y
_atom_site_fract_z
Si Si1 0.317120 0.291172 0.381477
Si Si2 0.815340 0.530220 0.700735
Si Si3 0.316687 0.216351 0.798191
Si Si4 0.324353 0.121203 0.535808
Si Si5 0.674607 0.350991 0.022145
Si Si6 0.181033 0.989772 0.376335
O O1 0.500000 0.309630 0.386463
O O2 0.257318 0.370872 0.337103
O O3 0.237377 0.356521 0.426150
O O4 0.279284 0.129591 0.376602
O O5 0.750000 0.577259 0.750000
O O6 0.761649 0.372597 0.690201
O O7 0.000000 0.546083 0.700423
O O8 0.250000 0.165531 0.750000
O O9 0.500000 0.213443 0.795514
O O10 0.255734 0.108856 0.835961
O O11 0.500000 0.129165 0.554796
O O12 0.284765 0.261818 0.510137
O O13 0.205827 0.095389 0.577083
O O14 0.304359 0.000000 0.500000
O O15 0.500000 0.289120 0.023346
O O16 0.673894 0.500000 0.000000
O O17 0.000000 0.025588 0.370447
#
# Coordination Sequence:
#
# PCOD8221603 Si02
#       6
#     8   8   8   8   8   8
#     4  12  25  41  61  91 125 162 205 252 305 364
#     4  10  21  41  65  91 122 159 201 251 305 365
#     4   9  21  40  64  92 121 154 199 247 300 360
#     4  11  23  40  62  91 124 160 202 249 303 363
#     4  11  25  43  64  90 121 161 206 253 304 363
#     4  11  23  40  63  91 122 163 206 251 303 362
#
# _framework density 19.816054000000001
#
# number of rings (size 3 to 8) (size 9 to 14) (size 15 to 20)
#    0.000    1.333    1.667    3.500    2.333    4.667 
#    0.000    1.667    0.000    0.000    0.000    0.000 
#    0.000    0.000    0.000    0.000    0.000    0.000 
#
# Total GULP energy -595417.140028 kJ/mol
# GULP energy per Si atom -12404.523751 kJ/mol
# Density = 1.977095 g / cm^3
# Si number density = 19.816054 Si / 1000 Ang^3
#
#
#
# Elastic Constant Matrix: (Units=GPa)
#
#
# Indices 1 2 3 4 5 6 
#
# 1 55.7754 26.2122 39.1775 0.0000 0.0000 0.0000
# 2 26.2122 81.6641 64.8344 0.0000 0.0000 0.0000
# 3 39.1775 64.8344 143.0466 0.0000 0.0000 0.0000
# 4 0.0000 0.0000 0.0000 48.5711 0.0000 0.0000
# 5 0.0000 0.0000 0.0000 0.0000 38.6147 0.0000
# 6 0.0000 0.0000 0.0000 0.0000 0.0000 4.3557
#
#
#
# Elastic Compliance Matrix: (Units=1/GPa)
#
#
# Indices 1 2 3 4 5 6 
#
# 1 0.022895 -0.003703 -0.004592 0.000000 0.000000 0.000000
# 2 -0.003703 0.019727 -0.007927 0.000000 0.000000 0.000000
# 3 -0.004592 -0.007927 0.011841 0.000000 0.000000 0.000000
# 4 0.000000 0.000000 0.000000 0.020588 0.000000 0.000000
# 5 0.000000 0.000000 0.000000 0.000000 0.025897 0.000000
# 6 0.000000 0.000000 0.000000 0.000000 0.000000 0.229584
#
#
# Mechanical properties :
#
#
# Convention : Reuss Voigt Hill
#
# Bulk Modulus (GPa) = 45.41490 60.10382 52.75936
# Shear Modulus (GPa) = 13.50196 28.32574 20.91385
#
# Velocity S-wave (km/s) = 2.61313 3.78489 3.25222
# Velocity P-wave (km/s) = 5.66327 7.03543 6.38631
#
# Compressibility (1/GPa) = 0.02201921
#
# Stress axis : x y z
#
# Youngs Moduli (GPa) = 43.67787 50.69140 84.45057
#
# Poissons Ratio (x) = 0.18771 0.38781
# Poissons Ratio (y) = 0.16174 0.66944
# Poissons Ratio (z) = 0.20057 0.40183
#
# Static dielectric constant tensor:
#      x y z
#    x 3.732980 0.000000 0.000000 
#    y 0.000000 3.651580 0.000000 
#    z 0.000000 0.000000 3.703360 
# 
# 
# High freq. dielectric constant tensor:
#      x y z
#    x 1.782970 0.000000 0.000000 
#    y 0.000000 1.777210 0.000000 
#    z 0.000000 0.000000 1.783850 
# 
# From -- ./inp_files/37697.got.cif
#   From: 2010.03.12/outbox.cif.g09.slc.cpg/sg53_19_cif.got.tgz:37697.got - 2010.04.16 14:36:59.
