data_PCOD8221937
_publ_section_title
;
Structure prediction by ZEFSAII (Michael W. Deem and Ramdas Pophale) SiO2 
 PCOD8221937
Probable space group: P M N A
;
_chemical_formula_sum "Si O2"
_cell_formula_units_Z 40
_cell_length_a 18.826354
_cell_length_b 9.314728
_cell_length_c 11.041026
_cell_angle_alpha 90.000000
_cell_angle_beta 90.000000
_cell_angle_gamma 90.000000
_cell_volume 1936.180451
_symmetry_space_group_name_H-M "P M N A"
_symmetry_group_IT_number 53
_symmetry_cell_setting 'orthorhombic'
loop_
_space_group_symop_operation_xyz
x,y,z
1/2-x,-y,1/2+z
x,-y,-z
1/2-x,y,1/2-z
-x,-y,-z
1/2+x,y,1/2-z
-x,y,z
1/2+x,-y,1/2+z
loop_
_atom_site_type_symbol
_atom_site_label
_atom_site_fract_x
_atom_site_fract_y
_atom_site_fract_z
Si Si1 0.840411 0.655005 0.031247
Si Si2 0.919244 0.935580 0.625092
Si Si3 0.184410 0.572244 0.378863
Si Si4 0.673749 0.284059 0.262720
Si Si5 0.080757 0.775097 0.250558
O O1 0.763078 0.638031 0.096276
O O2 0.893219 0.742732 0.115755
O O3 0.872527 0.500000 0.000000
O O4 0.842549 0.738319 0.904022
O O5 0.879882 0.793763 0.671832
O O6 0.000000 0.888244 0.599550
O O7 0.886769 0.000000 0.500000
O O8 0.914175 0.054771 0.729755
O O9 0.155714 0.500000 0.500000
O O10 0.180936 0.453660 0.271570
O O11 0.130742 0.699347 0.348850
O O12 0.750000 0.209013 0.250000
O O13 0.000000 0.720761 0.267370
#
# Coordination Sequence:
#
# PCOD8221937 Si02
#       5
#     8   8   8   8   8
#     4  11  22  40  66  96 133 163 210 275 324 384
#     4  10  25  47  65  91 136 177 217 268 320 385
#     4  11  21  39  68  92 128 165 213 271 322 381
#     4  12  22  40  66 100 125 170 216 264 330 380
#     4  11  24  42  63  91 131 174 212 264 326 380
#
# _framework density 20.659231999999999
#
# number of rings (size 3 to 8) (size 9 to 14) (size 15 to 20)
#    0.000    1.000    6.000    1.800    0.000    4.800 
#    0.000    2.000    0.000    0.000    0.000    0.000 
#    0.000    0.000    0.000    0.000    0.000    0.000 
#
# Total GULP energy -495859.381315 kJ/mol
# GULP energy per Si atom -12396.484533 kJ/mol
# Density = 2.061221 g / cm^3
# Si number density = 20.659232 Si / 1000 Ang^3
#
#
#
# Elastic Constant Matrix: (Units=GPa)
#
#
# Indices 1 2 3 4 5 6 
#
# 1 84.3460 38.8143 37.4016 0.0000 0.0000 0.0000
# 2 38.8143 60.1250 19.5219 0.0000 0.0000 0.0000
# 3 37.4016 19.5219 101.2441 0.0000 0.0000 0.0000
# 4 0.0000 0.0000 0.0000 40.4478 0.0000 0.0000
# 5 0.0000 0.0000 0.0000 0.0000 28.1647 0.0000
# 6 0.0000 0.0000 0.0000 0.0000 0.0000 -257.2571
#
#
#
# Elastic Compliance Matrix: (Units=1/GPa)
#
#
# Indices 1 2 3 4 5 6 
#
# 1 0.018936 -0.010618 -0.004948 0.000000 0.000000 0.000000
# 2 -0.010618 0.023696 -0.000647 0.000000 0.000000 0.000000
# 3 -0.004948 -0.000647 0.011830 0.000000 0.000000 0.000000
# 4 0.000000 0.000000 0.000000 0.024723 0.000000 0.000000
# 5 0.000000 0.000000 0.000000 0.000000 0.035505 0.000000
# 6 0.000000 0.000000 0.000000 0.000000 0.000000 -0.003887
#
#
# Mechanical properties :
#
#
# Convention : Reuss Voigt Hill
#
# Bulk Modulus (GPa) = 45.37801 48.57675 46.97738
# Shear Modulus (GPa) = 33.20609 -27.73042 2.73783
#
# Velocity S-wave (km/s) = 4.01349 -3.66769 1.15244
# Velocity P-wave (km/s) = 6.59471 2.37244 4.95574
#
# Compressibility (1/GPa) = 0.02203710
#
# Stress axis : x y z
#
# Youngs Moduli (GPa) = 52.80898 42.20039 84.53282
#
# Poissons Ratio (x) = 0.44808 0.41827
# Poissons Ratio (y) = 0.56072 0.05467
# Poissons Ratio (z) = 0.26130 0.02729
#
# Static dielectric constant tensor:
#      x y z
#    x 3.675370 0.000000 0.000000 
#    y 0.000000 3.479000 0.000000 
#    z 0.000000 0.000000 3.968590 
# 
# 
# High freq. dielectric constant tensor:
#      x y z
#    x 1.797550 0.000000 0.000000 
#    y 0.000000 1.788970 0.000000 
#    z 0.000000 0.000000 1.832820 
# 
# From -- ./inp_files/16667.got.cif
#   From: 2010.03.12/outbox.cif.g09.slc.cpg/sg53_9_cif.got.tgz:16667.got - 2010.04.16 14:36:59.
