data_PCOD8221562
_publ_section_title
;
Structure prediction by ZEFSAII (Michael W. Deem and Ramdas Pophale) SiO2 
 PCOD8221562
Probable space group: P M N A
;
_chemical_formula_sum "Si O2"
_cell_formula_units_Z 48
_cell_length_a 15.902196
_cell_length_b 15.229252
_cell_length_c 9.055988
_cell_angle_alpha 90.000000
_cell_angle_beta 90.000000
_cell_angle_gamma 90.000000
_cell_volume 2193.166045
_symmetry_space_group_name_H-M "P M N A"
_symmetry_group_IT_number 53
_symmetry_cell_setting 'orthorhombic'
loop_
_space_group_symop_operation_xyz
x,y,z
1/2-x,-y,1/2+z
x,-y,-z
1/2-x,y,1/2-z
-x,-y,-z
1/2+x,y,1/2-z
-x,y,z
1/2+x,-y,1/2+z
loop_
_atom_site_type_symbol
_atom_site_label
_atom_site_fract_x
_atom_site_fract_y
_atom_site_fract_z
Si Si1 0.900535 0.089313 0.923752
Si Si2 0.136893 0.269687 0.606145
Si Si3 0.000000 0.598966 0.434583
Si Si4 0.500000 0.503094 0.673833
Si Si5 0.902618 0.078114 0.596650
Si Si6 0.326848 0.430651 0.367466
Si Si7 0.669230 0.267678 0.560060
O O1 0.863189 0.078756 0.759488
O O2 0.852381 0.170600 0.002490
O O3 0.000000 0.107153 0.929697
O O4 0.874328 0.000000 0.000000
O O5 0.082661 0.344659 0.523173
O O6 0.111308 0.176036 0.533122
O O7 0.120465 0.274356 0.783033
O O8 0.233036 0.287145 0.576766
O O9 0.000000 0.500000 0.500000
O O10 0.000000 0.590436 0.255888
O O11 0.500000 0.500000 0.500000
O O12 0.411542 0.546638 0.724773
O O13 0.000000 0.055370 0.610797
O O14 0.859834 0.000000 0.500000
O O15 0.305663 0.500000 0.500000
O O16 0.250000 0.424513 0.250000
O O17 0.357118 0.339562 0.440866
#
# Coordination Sequence:
#
# PCOD8221562 Si02
#       7
#     8   8   4   4   8   8   8
#     4   9  19  38  64  94 124 167 211 256 312 377
#     4  10  21  40  62  95 123 173 209 262 322 394
#     4  12  26  40  65  91 125 163 224 274 325 385
#     4  10  24  44  64  91 123 175 218 266 329 407
#     4   9  17  34  60  89 123 163 206 251 307 379
#     4  11  26  44  68  96 132 173 224 283 340 397
#     4  10  23  39  68  90 130 167 216 256 324 396
#
# _framework density 21.886168000000001
#
# number of rings (size 3 to 8) (size 9 to 14) (size 15 to 20)
#    0.000    2.000    0.833    2.000    9.333    0.667 
#    3.000    0.000    0.000    0.000    0.000    0.000 
#    0.000    0.000    0.000    0.000    0.000    0.000 
#
# Total GULP energy -594648.269866 kJ/mol
# GULP energy per Si atom -12388.505622 kJ/mol
# Density = 2.183635 g / cm^3
# Si number density = 21.886168 Si / 1000 Ang^3
#
#
#
# Elastic Constant Matrix: (Units=GPa)
#
#
# Indices 1 2 3 4 5 6 
#
# 1 96.4993 44.4182 12.1265 0.0000 0.0000 0.0000
# 2 44.4182 195.6918 48.0963 0.0000 0.0000 0.0000
# 3 12.1265 48.0963 50.3956 0.0000 0.0000 0.0000
# 4 0.0000 0.0000 0.0000 43.7748 0.0000 0.0000
# 5 0.0000 0.0000 0.0000 0.0000 17.0538 0.0000
# 6 0.0000 0.0000 0.0000 0.0000 0.0000 21.0191
#
#
#
# Elastic Compliance Matrix: (Units=1/GPa)
#
#
# Indices 1 2 3 4 5 6 
#
# 1 0.011577 -0.002538 -0.000363 0.000000 0.000000 0.000000
# 2 -0.002538 0.007233 -0.006292 0.000000 0.000000 0.000000
# 3 -0.000363 -0.006292 0.025935 0.000000 0.000000 0.000000
# 4 0.000000 0.000000 0.000000 0.022844 0.000000 0.000000
# 5 0.000000 0.000000 0.000000 0.000000 0.058638 0.000000
# 6 0.000000 0.000000 0.000000 0.000000 0.000000 0.047576
#
#
# Mechanical properties :
#
#
# Convention : Reuss Voigt Hill
#
# Bulk Modulus (GPa) = 37.93922 61.31875 49.62899
# Shear Modulus (GPa) = 24.87868 32.23257 28.55563
#
# Velocity S-wave (km/s) = 3.37520 3.84179 3.61603
# Velocity P-wave (km/s) = 5.70629 6.91065 6.33714
#
# Compressibility (1/GPa) = 0.02635795
#
# Stress axis : x y z
#
# Youngs Moduli (GPa) = 86.37932 138.26196 38.55770
#
# Poissons Ratio (x) = 0.35098 0.01400
# Poissons Ratio (y) = 0.21927 0.24260
# Poissons Ratio (z) = 0.03136 0.86992
#
# Static dielectric constant tensor:
#      x y z
#    x 4.004910 0.000000 0.000000 
#    y 0.000000 4.239180 0.000000 
#    z 0.000000 0.000000 3.915880 
# 
# 
# High freq. dielectric constant tensor:
#      x y z
#    x 1.860760 0.000000 0.000000 
#    y 0.000000 1.873200 0.000000 
#    z 0.000000 0.000000 1.832000 
# 
# From -- ./inp_files/10031.got.cif
#   From: 2010.03.12/outbox.cif.g09.slc.cpg/sg53_6_cif.got.tgz:10031.got - 2010.04.16 14:36:59.
