data_PCOD8221091
_publ_section_title
;
Structure prediction by ZEFSAII (Michael W. Deem and Ramdas Pophale) SiO2 
 PCOD8221091
Probable space group: P M N A
;
_chemical_formula_sum "Si O2"
_cell_formula_units_Z 48
_cell_length_a 9.530902
_cell_length_b 13.300344
_cell_length_c 18.922203
_cell_angle_alpha 90.000000
_cell_angle_beta 90.000000
_cell_angle_gamma 90.000000
_cell_volume 2398.659349
_symmetry_space_group_name_H-M "P M N A"
_symmetry_group_IT_number 53
_symmetry_cell_setting 'orthorhombic'
loop_
_space_group_symop_operation_xyz
x,y,z
1/2-x,-y,1/2+z
x,-y,-z
1/2-x,y,1/2-z
-x,-y,-z
1/2+x,y,1/2-z
-x,y,z
1/2+x,-y,1/2+z
loop_
_atom_site_type_symbol
_atom_site_label
_atom_site_fract_x
_atom_site_fract_y
_atom_site_fract_z
Si Si1 0.346614 0.575808 0.809679
Si Si2 0.336575 0.888625 0.414243
Si Si3 0.164741 0.705603 0.177849
Si Si4 0.340819 0.512249 0.416985
Si Si5 0.164731 0.884600 0.926593
Si Si6 0.845427 0.806297 0.689845
O O1 0.250000 0.521842 0.750000
O O2 0.500000 0.522937 0.811341
O O3 0.268005 0.566523 0.884092
O O4 0.368062 0.691062 0.789744
O O5 0.500000 0.868199 0.418712
O O6 0.275936 0.810067 0.356704
O O7 0.280043 0.871658 0.493639
O O8 0.305408 0.004155 0.394578
O O9 0.250000 0.684285 0.250000
O O10 0.191720 0.621585 0.117050
O O11 0.000000 0.712360 0.196763
O O12 0.315623 0.500000 0.500000
O O13 0.500000 0.480928 0.398405
O O14 0.261712 0.809240 0.883299
O O15 0.000000 0.858007 0.919134
O O16 0.750000 0.859666 0.750000
O O17 0.000000 0.857982 0.685431
#
# Coordination Sequence:
#
# PCOD8221091 Si02
#       6
#     8   8   8   8   8   8
#     4  10  21  37  56  78 109 146 182 225 275 331
#     4   8  17  34  56  82 109 144 185 223 274 332
#     4  10  21  38  57  81 114 148 186 229 275 334
#     4  10  22  37  57  85 111 142 185 232 282 335
#     4   9  17  33  58  82 108 144 184 229 276 325
#     4  10  21  35  52  79 110 143 181 223 275 328
#
# _framework density 20.011178999999998
#
# number of rings (size 3 to 8) (size 9 to 14) (size 15 to 20)
#    0.000    2.500    0.000    2.500    2.333    5.000 
#    0.000    5.000    0.000    0.000    0.000    0.000 
#    0.000    0.000    0.000    0.000    0.000    0.000 
#
# Total GULP energy -594789.477442 kJ/mol
# GULP energy per Si atom -12391.447447 kJ/mol
# Density = 1.996563 g / cm^3
# Si number density = 20.011179 Si / 1000 Ang^3
#
#
#
# Elastic Constant Matrix: (Units=GPa)
#
#
# Indices 1 2 3 4 5 6 
#
# 1 129.2698 21.7543 69.2028 0.0000 0.0000 0.0000
# 2 21.7543 50.6384 34.2905 0.0000 0.0000 0.0000
# 3 69.2028 34.2905 124.0237 0.0000 0.0000 0.0000
# 4 0.0000 0.0000 0.0000 33.7803 0.0000 0.0000
# 5 0.0000 0.0000 0.0000 0.0000 32.1339 0.0000
# 6 0.0000 0.0000 0.0000 0.0000 0.0000 17.9729
#
#
#
# Elastic Compliance Matrix: (Units=1/GPa)
#
#
# Indices 1 2 3 4 5 6 
#
# 1 0.011051 -0.000704 -0.005972 0.000000 0.000000 0.000000
# 2 -0.000704 0.024342 -0.006337 0.000000 0.000000 0.000000
# 3 -0.005972 -0.006337 0.013147 0.000000 0.000000 0.000000
# 4 0.000000 0.000000 0.000000 0.029603 0.000000 0.000000
# 5 0.000000 0.000000 0.000000 0.000000 0.031120 0.000000
# 6 0.000000 0.000000 0.000000 0.000000 0.000000 0.055639
#
#
# Mechanical properties :
#
#
# Convention : Reuss Voigt Hill
#
# Bulk Modulus (GPa) = 44.41625 61.60303 53.00964
# Shear Modulus (GPa) = 25.19748 28.68970 26.94359
#
# Velocity S-wave (km/s) = 3.55233 3.79051 3.67335
# Velocity P-wave (km/s) = 6.25054 7.07166 6.67374
#
# Compressibility (1/GPa) = 0.02251428
#
# Stress axis : x y z
#
# Youngs Moduli (GPa) = 90.48902 41.08189 76.06140
#
# Poissons Ratio (x) = 0.02891 0.45422
# Poissons Ratio (y) = 0.06368 0.48203
# Poissons Ratio (z) = 0.54037 0.26035
#
# Static dielectric constant tensor:
#      x y z
#    x 3.723420 0.000000 0.000000 
#    y 0.000000 3.598010 0.000000 
#    z 0.000000 0.000000 3.671780 
# 
# 
# High freq. dielectric constant tensor:
#      x y z
#    x 1.766850 0.000000 0.000000 
#    y 0.000000 1.765710 0.000000 
#    z 0.000000 0.000000 1.783120 
# 
# From -- ./inp_files/26268.got.cif
#   From: 2010.03.12/outbox.cif.g09.slc.cpg/sg53_14_cif.got.tgz:26268.got - 2010.04.16 14:36:59.
