data_PCOD8221414
_publ_section_title
;
Structure prediction by ZEFSAII (Michael W. Deem and Ramdas Pophale) SiO2 
 PCOD8221414
Probable space group: P M N A
;
_chemical_formula_sum "Si O2"
_cell_formula_units_Z 64
_cell_length_a 21.148790
_cell_length_b 15.875309
_cell_length_c 9.139522
_cell_angle_alpha 90.000000
_cell_angle_beta 90.000000
_cell_angle_gamma 90.000000
_cell_volume 3068.535801
_symmetry_space_group_name_H-M "P M N A"
_symmetry_group_IT_number 53
_symmetry_cell_setting 'orthorhombic'
loop_
_space_group_symop_operation_xyz
x,y,z
1/2-x,-y,1/2+z
x,-y,-z
1/2-x,y,1/2-z
-x,-y,-z
1/2+x,y,1/2-z
-x,y,z
1/2+x,-y,1/2+z
loop_
_atom_site_type_symbol
_atom_site_label
_atom_site_fract_x
_atom_site_fract_y
_atom_site_fract_z
Si Si1 0.296446 0.660331 0.538239
Si Si2 0.571135 0.134613 0.895162
Si Si3 0.676985 0.427473 0.729751
Si Si4 0.672167 0.077604 0.093070
Si Si5 0.769836 0.833135 0.082154
Si Si6 0.335862 0.617233 0.840456
Si Si7 0.862978 0.027887 0.853530
Si Si8 0.426104 0.332554 0.918043
O O1 0.332223 0.587336 0.444810
O O2 0.307060 0.748751 0.457296
O O3 0.329452 0.672871 0.695061
O O4 0.222304 0.634787 0.550122
O O5 0.500000 0.106719 0.903881
O O6 0.599276 0.089296 0.752748
O O7 0.580407 0.234148 0.886351
O O8 0.601028 0.099119 0.043817
O O9 0.750000 0.394945 0.750000
O O10 0.668659 0.521422 0.786597
O O11 0.621051 0.375688 0.805075
O O12 0.668513 0.051728 0.264557
O O13 0.714186 0.157848 0.041621
O O14 0.699259 0.000000 0.000000
O O15 0.750000 0.823595 0.250000
O O16 0.809167 0.917850 0.068424
O O17 0.401697 0.640584 0.919616
O O18 0.902636 0.000000 0.000000
O O19 0.500000 0.360762 0.902694
#
# Coordination Sequence:
#
# PCOD8221414 Si02
#       8
#     8   8   8   8   8   8   8   8
#     4  11  24  38  62  98 132 170 218 276 337 390
#     4  10  22  43  65  87 121 168 217 264 318 384
#     4  12  22  39  68  98 137 172 220 276 325 390
#     4  10  21  38  60  87 121 161 209 258 317 388
#     4  12  22  38  61  89 128 169 207 264 328 398
#     4  11  24  39  62 100 135 170 219 273 333 389
#     4  11  25  38  61  93 127 163 211 266 329 387
#     4  11  25  45  69  95 132 181 228 269 328 407
#
# _framework density 20.856850999999999
#
# number of rings (size 3 to 8) (size 9 to 14) (size 15 to 20)
#    0.000    1.000    5.000    3.000    0.000    6.500 
#    0.000    1.875    0.000    5.250    0.000    0.000 
#    0.000    0.000    0.000    0.000    0.000    0.000 
#
# Total GULP energy -792929.173850 kJ/mol
# GULP energy per Si atom -12389.518341 kJ/mol
# Density = 2.080938 g / cm^3
# Si number density = 20.856851 Si / 1000 Ang^3
#
#
#
# Elastic Constant Matrix: (Units=GPa)
#
#
# Indices 1 2 3 4 5 6 
#
# 1 111.8821 41.8791 46.3091 0.0000 0.0000 0.0000
# 2 41.8791 87.7096 59.5089 0.0000 0.0000 0.0000
# 3 46.3091 59.5089 122.0714 0.0000 0.0000 0.0000
# 4 0.0000 0.0000 0.0000 35.0920 0.0000 0.0000
# 5 0.0000 0.0000 0.0000 0.0000 21.3170 0.0000
# 6 0.0000 0.0000 0.0000 0.0000 0.0000 28.6252
#
#
#
# Elastic Compliance Matrix: (Units=1/GPa)
#
#
# Indices 1 2 3 4 5 6 
#
# 1 0.011368 -0.003738 -0.002490 0.000000 0.000000 0.000000
# 2 -0.003738 0.018265 -0.007486 0.000000 0.000000 0.000000
# 3 -0.002490 -0.007486 0.012786 0.000000 0.000000 0.000000
# 4 0.000000 0.000000 0.000000 0.028497 0.000000 0.000000
# 5 0.000000 0.000000 0.000000 0.000000 0.046911 0.000000
# 6 0.000000 0.000000 0.000000 0.000000 0.000000 0.034934
#
#
# Mechanical properties :
#
#
# Convention : Reuss Voigt Hill
#
# Bulk Modulus (GPa) = 66.71030 68.56190 67.63610
# Shear Modulus (GPa) = 26.99974 28.60456 27.80215
#
# Velocity S-wave (km/s) = 3.60186 3.70736 3.65499
# Velocity P-wave (km/s) = 7.02510 7.16030 7.09303
#
# Compressibility (1/GPa) = 0.01499019
#
# Stress axis : x y z
#
# Youngs Moduli (GPa) = 87.96608 54.74848 78.21089
#
# Poissons Ratio (x) = 0.20467 0.19475
# Poissons Ratio (y) = 0.32886 0.58549
# Poissons Ratio (z) = 0.21904 0.40985
#
# Static dielectric constant tensor:
#      x y z
#    x 3.718450 0.000000 0.000000 
#    y 0.000000 3.979900 0.000000 
#    z 0.000000 0.000000 4.099960 
# 
# 
# High freq. dielectric constant tensor:
#      x y z
#    x 1.782930 0.000000 0.000000 
#    y 0.000000 1.829710 0.000000 
#    z 0.000000 0.000000 1.829880 
# 
# From -- ./inp_files/11947.got.cif
#   From: 2010.03.12/outbox.cif.g09.slc.cpg/sg53_6_cif.got.tgz:11947.got - 2010.04.16 14:36:59.
