data_PCOD8221700
_publ_section_title
;
Structure prediction by ZEFSAII (Michael W. Deem and Ramdas Pophale) SiO2 
 PCOD8221700
Probable space group: P M N A
;
_chemical_formula_sum "Si O2"
_cell_formula_units_Z 48
_cell_length_a 9.128964
_cell_length_b 16.495361
_cell_length_c 15.647875
_cell_angle_alpha 90.000000
_cell_angle_beta 90.000000
_cell_angle_gamma 90.000000
_cell_volume 2356.343969
_symmetry_space_group_name_H-M "P M N A"
_symmetry_group_IT_number 53
_symmetry_cell_setting 'orthorhombic'
loop_
_space_group_symop_operation_xyz
x,y,z
1/2-x,-y,1/2+z
x,-y,-z
1/2-x,y,1/2-z
-x,-y,-z
1/2+x,y,1/2-z
-x,y,z
1/2+x,-y,1/2+z
loop_
_atom_site_type_symbol
_atom_site_label
_atom_site_fract_x
_atom_site_fract_y
_atom_site_fract_z
Si Si1 0.828002 0.009850 0.836804
Si Si2 0.330441 0.148076 0.927153
Si Si3 0.830762 0.688177 0.336655
Si Si4 0.332728 0.665278 0.665654
Si Si5 0.666147 0.835633 0.593960
Si Si6 0.332092 0.595686 0.995888
O O1 0.750000 0.035625 0.750000
O O2 0.786925 0.917931 0.859003
O O3 0.000000 0.023450 0.827000
O O4 0.766084 0.068558 0.909847
O O5 0.500000 0.123543 0.932869
O O6 0.304398 0.216843 0.855942
O O7 0.277513 0.183579 0.017458
O O8 0.750000 0.663039 0.250000
O O9 0.771818 0.634197 0.415713
O O10 0.000000 0.669098 0.321927
O O11 0.250000 0.634288 0.750000
O O12 0.500000 0.636601 0.672482
O O13 0.321115 0.762715 0.661144
O O14 0.264776 0.626122 0.581844
O O15 0.500000 0.843017 0.558536
O O16 0.500000 0.623534 0.981489
O O17 0.318086 0.500000 0.000000
#
# Coordination Sequence:
#
# PCOD8221700 Si02
#       6
#     8   8   8   8   8   8
#     4  11  23  38  55  81 118 157 204 253 303 357
#     4  11  22  37  59  86 117 157 205 252 304 360
#     4  10  22  39  61  90 121 159 201 248 302 362
#     4  11  23  40  65  94 126 165 208 254 308 366
#     4  10  22  39  59  85 118 160 204 253 305 358
#     4  10  22  43  67  92 125 161 201 254 311 369
#
# _framework density 20.370540999999999
#
# number of rings (size 3 to 8) (size 9 to 14) (size 15 to 20)
#    0.000    1.500    1.667    3.000    0.000    8.333 
#    0.000    1.667    0.000    0.000    0.000    0.000 
#    0.000    0.000    0.000    0.000    0.000    0.000 
#
# Total GULP energy -595459.627131 kJ/mol
# GULP energy per Si atom -12405.408899 kJ/mol
# Density = 2.032418 g / cm^3
# Si number density = 20.370541 Si / 1000 Ang^3
#
#
#
# Elastic Constant Matrix: (Units=GPa)
#
#
# Indices 1 2 3 4 5 6 
#
# 1 112.7368 40.7092 74.8176 0.0000 0.0000 0.0000
# 2 40.7092 75.1177 29.8187 0.0000 0.0000 0.0000
# 3 74.8176 29.8187 141.4678 0.0000 0.0000 0.0000
# 4 0.0000 0.0000 0.0000 19.3378 0.0000 0.0000
# 5 0.0000 0.0000 0.0000 0.0000 42.2739 0.0000
# 6 0.0000 0.0000 0.0000 0.0000 0.0000 23.9276
#
#
#
# Elastic Compliance Matrix: (Units=1/GPa)
#
#
# Indices 1 2 3 4 5 6 
#
# 1 0.015593 -0.005649 -0.007056 0.000000 0.000000 0.000000
# 2 -0.005649 0.016575 -0.000506 0.000000 0.000000 0.000000
# 3 -0.007056 -0.000506 0.010907 0.000000 0.000000 0.000000
# 4 0.000000 0.000000 0.000000 0.051712 0.000000 0.000000
# 5 0.000000 0.000000 0.000000 0.000000 0.023655 0.000000
# 6 0.000000 0.000000 0.000000 0.000000 0.000000 0.041793
#
#
# Mechanical properties :
#
#
# Convention : Reuss Voigt Hill
#
# Bulk Modulus (GPa) = 60.05100 68.89037 64.47068
# Shear Modulus (GPa) = 26.01355 29.37298 27.69327
#
# Velocity S-wave (km/s) = 3.57742 3.80140 3.69111
# Velocity P-wave (km/s) = 6.82695 7.29106 7.06282
#
# Compressibility (1/GPa) = 0.01665251
#
# Stress axis : x y z
#
# Youngs Moduli (GPa) = 64.13251 60.33212 91.68529
#
# Poissons Ratio (x) = 0.34084 0.64690
# Poissons Ratio (y) = 0.36232 0.04638
# Poissons Ratio (z) = 0.45250 0.03052
#
# Static dielectric constant tensor:
#      x y z
#    x 3.708180 0.000000 0.000000 
#    y 0.000000 3.701480 0.000000 
#    z 0.000000 0.000000 3.594710 
# 
# 
# High freq. dielectric constant tensor:
#      x y z
#    x 1.797400 0.000000 0.000000 
#    y 0.000000 1.796960 0.000000 
#    z 0.000000 0.000000 1.798970 
# 
# From -- ./inp_files/20133.got.cif
#   From: 2010.03.12/outbox.cif.g09.slc.cpg/sg53_11_cif.got.tgz:20133.got - 2010.04.16 14:36:59.
