data_PCOD8221209
_publ_section_title
;
Structure prediction by ZEFSAII (Michael W. Deem and Ramdas Pophale) SiO2 
 PCOD8221209
Probable space group: P M N A
;
_chemical_formula_sum "Si O2"
_cell_formula_units_Z 32
_cell_length_a 7.386884
_cell_length_b 5.172464
_cell_length_c 40.692603
_cell_angle_alpha 90.000000
_cell_angle_beta 90.000000
_cell_angle_gamma 90.000000
_cell_volume 1554.798909
_symmetry_space_group_name_H-M "P M N A"
_symmetry_group_IT_number 53
_symmetry_cell_setting 'orthorhombic'
loop_
_space_group_symop_operation_xyz
x,y,z
1/2-x,-y,1/2+z
x,-y,-z
1/2-x,y,1/2-z
-x,-y,-z
1/2+x,y,1/2-z
-x,y,z
1/2+x,-y,1/2+z
loop_
_atom_site_type_symbol
_atom_site_label
_atom_site_fract_x
_atom_site_fract_y
_atom_site_fract_z
Si Si1 0.210083 0.248405 0.979055
Si Si2 0.283390 0.250116 0.325944
Si Si3 0.500000 0.782395 0.075754
Si Si4 0.000000 0.282490 0.381397
Si Si5 0.290219 0.250447 0.711781
O O1 0.319778 0.255711 0.945459
O O2 0.000000 0.238630 0.969423
O O3 0.258555 0.500000 0.000000
O O4 0.268732 0.000000 0.000000
O O5 0.500000 0.250177 0.331575
O O6 0.211718 0.005646 0.305110
O O7 0.184118 0.245877 0.360801
O O8 0.209840 0.496303 0.305598
O O9 0.500000 0.570915 0.104361
O O10 0.500000 0.070644 0.090045
O O11 0.250000 0.252074 0.750000
O O12 0.500000 0.253693 0.705423
#
# Coordination Sequence:
#
# PCOD8221209 Si02
#       5
#     8   8   4   4   8
#     4  10  21  39  64  92 125 158 192 247 300 335
#     4  10  23  41  56  81 116 150 192 237 294 351
#     4  12  24  39  60  94 116 160 210 236 284 350
#     4  12  26  39  62  82 120 168 196 240 294 344
#     4  10  21  36  60  86 109 143 185 243 303 356
#
# _framework density 20.581439
#
# number of rings (size 3 to 8) (size 9 to 14) (size 15 to 20)
#    0.000    1.500    0.000    4.500    3.500    2.000 
#    0.000    0.000    0.000    0.000    0.000    0.000 
#    0.000    0.000    0.000    0.000    0.000    0.000 
#
# Total GULP energy -396909.044534 kJ/mol
# GULP energy per Si atom -12403.407642 kJ/mol
# Density = 2.053459 g / cm^3
# Si number density = 20.581439 Si / 1000 Ang^3
#
#
#
# Elastic Constant Matrix: (Units=GPa)
#
#
# Indices 1 2 3 4 5 6 
#
# 1 80.4804 26.8749 45.5190 0.0000 0.0000 0.0000
# 2 26.8749 162.7135 46.1661 0.0000 0.0000 0.0000
# 3 45.5190 46.1661 115.9641 0.0000 0.0000 0.0000
# 4 0.0000 0.0000 0.0000 48.8101 0.0000 0.0000
# 5 0.0000 0.0000 0.0000 0.0000 51.4354 0.0000
# 6 0.0000 0.0000 0.0000 0.0000 0.0000 17.5801
#
#
#
# Elastic Compliance Matrix: (Units=1/GPa)
#
#
# Indices 1 2 3 4 5 6 
#
# 1 0.016108 -0.000977 -0.005934 0.000000 0.000000 0.000000
# 2 -0.000977 0.006988 -0.002398 0.000000 0.000000 0.000000
# 3 -0.005934 -0.002398 0.011907 0.000000 0.000000 0.000000
# 4 0.000000 0.000000 0.000000 0.020488 0.000000 0.000000
# 5 0.000000 0.000000 0.000000 0.000000 0.019442 0.000000
# 6 0.000000 0.000000 0.000000 0.000000 0.000000 0.056883
#
#
# Mechanical properties :
#
#
# Convention : Reuss Voigt Hill
#
# Bulk Modulus (GPa) = 61.03310 66.25312 63.64311
# Shear Modulus (GPa) = 32.07302 39.60499 35.83901
#
# Velocity S-wave (km/s) = 3.95187 4.39145 4.17745
# Velocity P-wave (km/s) = 7.10928 7.61405 7.36599
#
# Compressibility (1/GPa) = 0.01638455
#
# Stress axis : x y z
#
# Youngs Moduli (GPa) = 62.08211 143.11071 83.98180
#
# Poissons Ratio (x) = 0.13980 0.49833
# Poissons Ratio (y) = 0.06065 0.20142
# Poissons Ratio (z) = 0.36838 0.34323
#
# Static dielectric constant tensor:
#      x y z
#    x 1.467950 0.000000 0.000000 
#    y 0.000000 4.507890 0.000000 
#    z 0.000000 0.000000 3.520080 
# 
# 
# High freq. dielectric constant tensor:
#      x y z
#    x 1.812980 0.000000 0.000000 
#    y 0.000000 1.830390 0.000000 
#    z 0.000000 0.000000 1.800960 
# 
# From -- ./inp_files/37460.got.cif
#   From: 2010.03.12/outbox.cif.g09.slc.cpg/sg53_19_cif.got.tgz:37460.got - 2010.04.16 14:36:59.
