data_PCOD8221605
_publ_section_title
;
Structure prediction by ZEFSAII (Michael W. Deem and Ramdas Pophale) SiO2 
 PCOD8221605
Probable space group: P M N A
;
_chemical_formula_sum "Si O2"
_cell_formula_units_Z 56
_cell_length_a 14.673664
_cell_length_b 11.597726
_cell_length_c 15.367183
_cell_angle_alpha 90.000000
_cell_angle_beta 90.000000
_cell_angle_gamma 90.000000
_cell_volume 2615.204637
_symmetry_space_group_name_H-M "P M N A"
_symmetry_group_IT_number 53
_symmetry_cell_setting 'orthorhombic'
loop_
_space_group_symop_operation_xyz
x,y,z
1/2-x,-y,1/2+z
x,-y,-z
1/2-x,y,1/2-z
-x,-y,-z
1/2+x,y,1/2-z
-x,y,z
1/2+x,-y,1/2+z
loop_
_atom_site_type_symbol
_atom_site_label
_atom_site_fract_x
_atom_site_fract_y
_atom_site_fract_z
Si Si1 0.284637 0.235206 0.664303
Si Si2 0.398796 0.150648 0.434344
Si Si3 0.891470 0.187542 0.344963
Si Si4 0.600948 0.980007 0.276471
Si Si5 0.393015 0.343603 0.306521
Si Si6 0.211436 0.871707 0.490481
Si Si7 0.892790 0.441561 0.910050
O O1 0.250000 0.304839 0.750000
O O2 0.336655 0.129884 0.710581
O O3 0.199995 0.186511 0.604852
O O4 0.345404 0.318650 0.604166
O O5 0.500000 0.165132 0.477516
O O6 0.363064 0.266953 0.388610
O O7 0.322213 0.121807 0.505089
O O8 0.403240 0.048810 0.365784
O O9 0.854377 0.294385 0.285034
O O10 0.838782 0.203298 0.435939
O O11 0.000000 0.192720 0.360358
O O12 0.862519 0.066663 0.299308
O O13 0.500000 0.937852 0.250513
O O14 0.500000 0.325234 0.298850
O O15 0.367159 0.475470 0.328129
O O16 0.169988 0.000000 0.500000
O O17 0.000000 0.419166 0.914872
O O18 0.859198 0.500000 0.000000
#
# Coordination Sequence:
#
# PCOD8221605 Si02
#       7
#     8   8   8   8   8   8   8
#     4  12  25  40  54  84 127 158 194 244 304 371
#     4   9  18  33  56  91 124 149 187 241 301 360
#     4   9  20  39  63  91 119 157 211 253 290 350
#     4   9  18  35  60  88 122 160 193 239 298 357
#     4   8  16  35  62  88 113 148 195 245 300 352
#     4  12  23  36  57  89 123 164 202 247 301 358
#     4  10  21  41  66  87 115 154 198 251 306 363
#
# _framework density 21.413239000000001
#
# number of rings (size 3 to 8) (size 9 to 14) (size 15 to 20)
#    0.000    2.143    1.429    3.857    0.000    4.571 
#    5.143    1.429    0.000    0.000    0.000    3.000 
#    0.000    0.000    0.000    0.000    0.000    0.000 
#
# Total GULP energy -693929.346408 kJ/mol
# GULP energy per Si atom -12391.595472 kJ/mol
# Density = 2.136450 g / cm^3
# Si number density = 21.413239 Si / 1000 Ang^3
#
#
#
# Elastic Constant Matrix: (Units=GPa)
#
#
# Indices 1 2 3 4 5 6 
#
# 1 42.5493 18.7904 27.0288 0.0000 0.0000 0.0000
# 2 18.7904 95.4254 43.9040 0.0000 0.0000 0.0000
# 3 27.0288 43.9040 124.3401 0.0000 0.0000 0.0000
# 4 0.0000 0.0000 0.0000 25.2460 0.0000 0.0000
# 5 0.0000 0.0000 0.0000 0.0000 20.2121 0.0000
# 6 0.0000 0.0000 0.0000 0.0000 0.0000 17.0042
#
#
#
# Elastic Compliance Matrix: (Units=1/GPa)
#
#
# Indices 1 2 3 4 5 6 
#
# 1 0.028087 -0.003249 -0.004958 0.000000 0.000000 0.000000
# 2 -0.003249 0.012888 -0.003844 0.000000 0.000000 0.000000
# 3 -0.004958 -0.003844 0.010478 0.000000 0.000000 0.000000
# 4 0.000000 0.000000 0.000000 0.039610 0.000000 0.000000
# 5 0.000000 0.000000 0.000000 0.000000 0.049475 0.000000
# 6 0.000000 0.000000 0.000000 0.000000 0.000000 0.058809
#
#
# Mechanical properties :
#
#
# Convention : Reuss Voigt Hill
#
# Bulk Modulus (GPa) = 36.56493 49.08459 42.82476
# Shear Modulus (GPa) = 21.49921 23.99857 22.74889
#
# Velocity S-wave (km/s) = 3.17206 3.35137 3.26295
# Velocity P-wave (km/s) = 5.52529 6.16019 5.85136
#
# Compressibility (1/GPa) = 0.02734861
#
# Stress axis : x y z
#
# Youngs Moduli (GPa) = 35.60406 77.59173 95.44123
#
# Poissons Ratio (x) = 0.25213 0.47320
# Poissons Ratio (y) = 0.11569 0.36691
# Poissons Ratio (z) = 0.17653 0.29829
#
# Static dielectric constant tensor:
#      x y z
#    x 3.838840 0.000000 0.000000 
#    y 0.000000 4.000310 0.000000 
#    z 0.000000 0.000000 3.909820 
# 
# 
# High freq. dielectric constant tensor:
#      x y z
#    x 1.814720 0.000000 0.000000 
#    y 0.000000 1.827120 0.000000 
#    z 0.000000 0.000000 1.840380 
# 
# From -- ./inp_files/22858.got.cif
#   From: 2010.03.12/outbox.cif.g09.slc.cpg/sg53_12_cif.got.tgz:22858.got - 2010.04.16 14:36:59.
