data_PCOD8221537
_publ_section_title
;
Structure prediction by ZEFSAII (Michael W. Deem and Ramdas Pophale) SiO2 
 PCOD8221537
Probable space group: P M N A
;
_chemical_formula_sum "Si O2"
_cell_formula_units_Z 56
_cell_length_a 18.450511
_cell_length_b 15.753972
_cell_length_c 9.638688
_cell_angle_alpha 90.000000
_cell_angle_beta 90.000000
_cell_angle_gamma 90.000000
_cell_volume 2801.666199
_symmetry_space_group_name_H-M "P M N A"
_symmetry_group_IT_number 53
_symmetry_cell_setting 'orthorhombic'
loop_
_space_group_symop_operation_xyz
x,y,z
1/2-x,-y,1/2+z
x,-y,-z
1/2-x,y,1/2-z
-x,-y,-z
1/2+x,y,1/2-z
-x,y,z
1/2+x,-y,1/2+z
loop_
_atom_site_type_symbol
_atom_site_label
_atom_site_fract_x
_atom_site_fract_y
_atom_site_fract_z
Si Si1 0.126463 0.203734 0.526852
Si Si2 0.762854 0.070192 0.601307
Si Si3 0.417492 0.306979 0.719065
Si Si4 0.500000 0.080282 0.396664
Si Si5 0.796296 0.430656 0.882927
Si Si6 0.748016 0.301416 0.099413
Si Si7 0.364624 0.822569 0.501932
Si Si8 0.500000 0.086509 0.082121
O O1 0.181505 0.147888 0.620166
O O2 0.091236 0.277063 0.621755
O O3 0.174052 0.247845 0.407157
O O4 0.068994 0.144019 0.452362
O O5 0.750000 0.027037 0.750000
O O6 0.685689 0.100132 0.544627
O O7 0.797045 0.000000 0.500000
O O8 0.500000 0.335425 0.693347
O O9 0.368604 0.387974 0.678626
O O10 0.397624 0.225162 0.629748
O O11 0.429907 0.138620 0.412113
O O12 0.500000 0.000000 0.500000
O O13 0.500000 0.051092 0.238119
O O14 0.750000 0.464938 0.750000
O O15 0.817714 0.500000 0.000000
O O16 0.747481 0.363426 0.966981
O O17 0.750000 0.348105 0.250000
O O18 0.818924 0.242071 0.096173
O O19 0.500000 0.000000 0.000000
#
# Coordination Sequence:
#
# PCOD8221537 Si02
#       8
#     8   8   8   4   8   8   8   4
#     4  11  22  39  64  86 125 168 228 271 320 396
#     4  11  23  36  56  83 121 162 215 279 335 381
#     4  11  21  40  70  95 122 179 218 258 319 396
#     4  12  26  40  56  84 124 165 216 278 339 386
#     4  11  23  41  69 107 137 164 208 261 324 394
#     4  10  21  39  65  93 123 166 213 262 321 386
#     4  10  22  37  61  83 117 163 220 266 319 383
#     4  12  28  40  58  92 127 174 228 285 335 375
#
# _framework density 19.988105000000001
#
# number of rings (size 3 to 8) (size 9 to 14) (size 15 to 20)
#    0.000    1.143    4.286    2.143    2.000    6.000 
#    0.000    0.000    0.000    0.429    0.000    0.000 
#    0.000    0.000    0.000    0.000    0.000    0.000 
#
# Total GULP energy -694282.000782 kJ/mol
# GULP energy per Si atom -12397.892871 kJ/mol
# Density = 1.994261 g / cm^3
# Si number density = 19.988105 Si / 1000 Ang^3
#
#
#
# Elastic Constant Matrix: (Units=GPa)
#
#
# Indices 1 2 3 4 5 6 
#
# 1 120.6634 35.2423 32.2955 0.0000 0.0000 0.0000
# 2 35.2423 86.7936 37.9904 0.0000 0.0000 0.0000
# 3 32.2955 37.9904 133.8540 0.0000 0.0000 0.0000
# 4 0.0000 0.0000 0.0000 38.5222 0.0000 0.0000
# 5 0.0000 0.0000 0.0000 0.0000 15.9025 0.0000
# 6 0.0000 0.0000 0.0000 0.0000 0.0000 15.8578
#
#
#
# Elastic Compliance Matrix: (Units=1/GPa)
#
#
# Indices 1 2 3 4 5 6 
#
# 1 0.009622 -0.003301 -0.001385 0.000000 0.000000 0.000000
# 2 -0.003301 0.014288 -0.003259 0.000000 0.000000 0.000000
# 3 -0.001385 -0.003259 0.008730 0.000000 0.000000 0.000000
# 4 0.000000 0.000000 0.000000 0.025959 0.000000 0.000000
# 5 0.000000 0.000000 0.000000 0.000000 0.062883 0.000000
# 6 0.000000 0.000000 0.000000 0.000000 0.000000 0.063061
#
#
# Mechanical properties :
#
#
# Convention : Reuss Voigt Hill
#
# Bulk Modulus (GPa) = 59.69676 61.37417 60.53547
# Shear Modulus (GPa) = 24.26993 29.77535 27.02264
#
# Velocity S-wave (km/s) = 3.48834 3.86379 3.68086
# Velocity P-wave (km/s) = 6.79380 7.11879 6.95819
#
# Compressibility (1/GPa) = 0.01675133
#
# Stress axis : x y z
#
# Youngs Moduli (GPa) = 103.92570 69.98684 114.54941
#
# Poissons Ratio (x) = 0.23103 0.15862
# Poissons Ratio (y) = 0.34306 0.37330
# Poissons Ratio (z) = 0.14391 0.22808
#
# Static dielectric constant tensor:
#      x y z
#    x 3.431800 0.000000 0.000000 
#    y 0.000000 3.457040 0.000000 
#    z 0.000000 0.000000 3.604830 
# 
# 
# High freq. dielectric constant tensor:
#      x y z
#    x 1.784590 0.000000 0.000000 
#    y 0.000000 1.761770 0.000000 
#    z 0.000000 0.000000 1.787850 
# 
# From -- ./inp_files/11120.got.cif
#   From: 2010.03.12/outbox.cif.g09.slc.cpg/sg53_6_cif.got.tgz:11120.got - 2010.04.16 14:36:59.
