data_PCOD8221882
_publ_section_title
;
Structure prediction by ZEFSAII (Michael W. Deem and Ramdas Pophale) SiO2 
 PCOD8221882
Probable space group: P M N A
;
_chemical_formula_sum "Si O2"
_cell_formula_units_Z 32
_cell_length_a 9.857053
_cell_length_b 14.173749
_cell_length_c 10.331978
_cell_angle_alpha 90.000000
_cell_angle_beta 90.000000
_cell_angle_gamma 90.000000
_cell_volume 1443.495061
_symmetry_space_group_name_H-M "P M N A"
_symmetry_group_IT_number 53
_symmetry_cell_setting 'orthorhombic'
loop_
_space_group_symop_operation_xyz
x,y,z
1/2-x,-y,1/2+z
x,-y,-z
1/2-x,y,1/2-z
-x,-y,-z
1/2+x,y,1/2-z
-x,y,z
1/2+x,-y,1/2+z
loop_
_atom_site_type_symbol
_atom_site_label
_atom_site_fract_x
_atom_site_fract_y
_atom_site_fract_z
Si Si1 0.250000 0.094980 0.750000
Si Si2 0.286946 0.752241 0.050207
Si Si3 0.654972 0.453128 0.866315
Si Si4 0.500000 0.204476 0.158605
Si Si5 0.000000 0.028555 0.186478
Si Si6 0.000000 0.784221 0.944557
O O1 0.177918 0.159682 0.642074
O O2 0.364446 0.032711 0.681657
O O3 0.335996 0.659371 0.123362
O O4 0.127568 0.745836 0.023146
O O5 0.365129 0.764656 0.915684
O O6 0.750000 0.490245 0.750000
O O7 0.500000 0.483176 0.836918
O O8 0.705546 0.500000 0.000000
O O9 0.500000 0.256920 0.298062
O O10 0.500000 0.091312 0.181493
O O11 0.000000 0.899810 0.937415
#
# Coordination Sequence:
#
# PCOD8221882 Si02
#       6
#     4   8   8   4   4   4
#     4  12  24  36  68  94 132 190 226 292 346 396
#     4  12  23  43  70  98 139 179 232 291 343 422
#     4  11  27  51  78 112 144 181 233 291 359 437
#     4  10  23  43  61  92 138 181 238 286 339 404
#     4  10  24  42  56 102 134 184 242 278 346 398
#     4  10  25  41  63  98 138 183 240 282 339 410
#
# _framework density 22.168417999999999
#
# number of rings (size 3 to 8) (size 9 to 14) (size 15 to 20)
#    0.750    0.250    2.500    3.750    1.750    8.500 
#    0.000    0.000    0.000    0.000    0.000    0.000 
#    0.000    0.000    0.000    0.000    0.000    0.000 
#
# Total GULP energy -396934.316296 kJ/mol
# GULP energy per Si atom -12404.197384 kJ/mol
# Density = 2.211796 g / cm^3
# Si number density = 22.168418 Si / 1000 Ang^3
#
#
#
# Elastic Constant Matrix: (Units=GPa)
#
#
# Indices 1 2 3 4 5 6 
#
# 1 120.8633 22.3221 36.8745 0.0000 0.0000 0.0000
# 2 22.3221 48.2512 14.7969 0.0000 0.0000 0.0000
# 3 36.8745 14.7969 110.1538 0.0000 0.0000 0.0000
# 4 0.0000 0.0000 0.0000 26.2731 0.0000 0.0000
# 5 0.0000 0.0000 0.0000 0.0000 43.2323 0.0000
# 6 0.0000 0.0000 0.0000 0.0000 0.0000 6.5018
#
#
#
# Elastic Compliance Matrix: (Units=1/GPa)
#
#
# Indices 1 2 3 4 5 6 
#
# 1 0.009804 -0.003681 -0.002788 0.000000 0.000000 0.000000
# 2 -0.003681 0.022997 -0.001857 0.000000 0.000000 0.000000
# 3 -0.002788 -0.001857 0.010261 0.000000 0.000000 0.000000
# 4 0.000000 0.000000 0.000000 0.038062 0.000000 0.000000
# 5 0.000000 0.000000 0.000000 0.000000 0.023131 0.000000
# 6 0.000000 0.000000 0.000000 0.000000 0.000000 0.153803
#
#
# Mechanical properties :
#
#
# Convention : Reuss Voigt Hill
#
# Bulk Modulus (GPa) = 37.86245 47.47281 42.66763
# Shear Modulus (GPa) = 17.63595 28.88644 23.26120
#
# Velocity S-wave (km/s) = 2.82360 3.61369 3.24280
# Velocity P-wave (km/s) = 5.26752 6.23480 5.77146
#
# Compressibility (1/GPa) = 0.02641139
#
# Stress axis : x y z
#
# Youngs Moduli (GPa) = 101.99868 43.48363 97.45819
#
# Poissons Ratio (x) = 0.16005 0.27167
# Poissons Ratio (y) = 0.37543 0.18099
# Poissons Ratio (z) = 0.28432 0.08075
#
# Static dielectric constant tensor:
#      x y z
#    x 4.099010 0.000000 0.000000 
#    y 0.000000 3.885130 0.000000 
#    z 0.000000 0.000000 4.017060 
# 
# 
# High freq. dielectric constant tensor:
#      x y z
#    x 1.877950 0.000000 0.000000 
#    y 0.000000 1.862400 0.000000 
#    z 0.000000 0.000000 1.878780 
# 
# From -- ./inp_files/7355.got.cif
#   From: 2010.03.12/outbox.cif.g09.slc.cpg/sg53_4_cif.got.tgz:7355.got - 2010.04.16 14:36:59.
