data_PCOD8221281
_publ_section_title
;
Structure prediction by ZEFSAII (Michael W. Deem and Ramdas Pophale) SiO2 
 PCOD8221281
Probable space group: P M N A
;
_chemical_formula_sum "Si O2"
_cell_formula_units_Z 48
_cell_length_a 18.619724
_cell_length_b 14.597623
_cell_length_c 8.745851
_cell_angle_alpha 90.000000
_cell_angle_beta 90.000000
_cell_angle_gamma 90.000000
_cell_volume 2377.154760
_symmetry_space_group_name_H-M "P M N A"
_symmetry_group_IT_number 53
_symmetry_cell_setting 'orthorhombic'
loop_
_space_group_symop_operation_xyz
x,y,z
1/2-x,-y,1/2+z
x,-y,-z
1/2-x,y,1/2-z
-x,-y,-z
1/2+x,y,1/2-z
-x,y,z
1/2+x,-y,1/2+z
loop_
_atom_site_type_symbol
_atom_site_label
_atom_site_fract_x
_atom_site_fract_y
_atom_site_fract_z
Si Si1 0.328504 0.659420 0.685531
Si Si2 0.419870 0.710100 0.207703
Si Si3 0.083069 0.209252 0.382509
Si Si4 0.797415 0.251010 0.889580
Si Si5 0.717124 0.904031 0.918371
Si Si6 0.419535 0.509039 0.318646
O O1 0.250000 0.678001 0.750000
O O2 0.383702 0.738614 0.737419
O O3 0.319098 0.665916 0.502654
O O4 0.360904 0.563330 0.742528
O O5 0.500000 0.731136 0.261341
O O6 0.370825 0.781040 0.304582
O O7 0.396882 0.606934 0.251581
O O8 0.410359 0.723025 0.027016
O O9 0.132220 0.119747 0.411558
O O10 0.000000 0.180674 0.352574
O O11 0.750000 0.290598 0.750000
O O12 0.760119 0.169377 0.980256
O O13 0.750000 0.907534 0.750000
O O14 0.726979 0.000000 0.000000
O O15 0.419727 0.500000 0.500000
O O16 0.500000 0.484594 0.258725
#
# Coordination Sequence:
#
# PCOD8221281 Si02
#       6
#     8   8   8   8   8   8
#     4  12  22  40  60  91 130 170 219 264 316 376
#     4  10  22  39  62  93 130 172 219 264 318 378
#     4  11  23  43  68  96 130 169 213 264 324 387
#     4  12  21  40  67  93 125 168 216 265 317 385
#     4  12  25  45  70  97 127 164 209 262 327 400
#     4  10  21  37  57  88 127 171 218 264 315 368
#
# _framework density 20.192207
#
# number of rings (size 3 to 8) (size 9 to 14) (size 15 to 20)
#    0.000    0.833    6.667    1.000    0.000    2.333 
#    3.000    2.500    0.000    1.000    0.000    0.000 
#    0.000    0.000    0.000    0.000    0.000    0.000 
#
# Total GULP energy -594946.255906 kJ/mol
# GULP energy per Si atom -12394.713665 kJ/mol
# Density = 2.014625 g / cm^3
# Si number density = 20.192207 Si / 1000 Ang^3
#
#
#
# Elastic Constant Matrix: (Units=GPa)
#
#
# Indices 1 2 3 4 5 6 
#
# 1 156.8926 50.8113 56.2927 0.0000 0.0000 0.0000
# 2 50.8113 64.4458 25.3241 0.0000 0.0000 0.0000
# 3 56.2927 25.3241 111.2919 0.0000 0.0000 0.0000
# 4 0.0000 0.0000 0.0000 26.1730 0.0000 0.0000
# 5 0.0000 0.0000 0.0000 0.0000 27.0878 0.0000
# 6 0.0000 0.0000 0.0000 0.0000 0.0000 24.5724
#
#
#
# Elastic Compliance Matrix: (Units=1/GPa)
#
#
# Indices 1 2 3 4 5 6 
#
# 1 0.009633 -0.006238 -0.003453 0.000000 0.000000 0.000000
# 2 -0.006238 0.021080 -0.001641 0.000000 0.000000 0.000000
# 3 -0.003453 -0.001641 0.011105 0.000000 0.000000 0.000000
# 4 0.000000 0.000000 0.000000 0.038207 0.000000 0.000000
# 5 0.000000 0.000000 0.000000 0.000000 0.036917 0.000000
# 6 0.000000 0.000000 0.000000 0.000000 0.000000 0.040696
#
#
# Mechanical properties :
#
#
# Convention : Reuss Voigt Hill
#
# Bulk Modulus (GPa) = 52.20956 66.38741 59.29848
# Shear Modulus (GPa) = 26.78254 28.91345 27.84799
#
# Velocity S-wave (km/s) = 3.64590 3.78817 3.71771
# Velocity P-wave (km/s) = 6.60575 7.21684 6.91804
#
# Compressibility (1/GPa) = 0.01915358
#
# Stress axis : x y z
#
# Youngs Moduli (GPa) = 103.80969 47.43768 90.04580
#
# Poissons Ratio (x) = 0.29592 0.31093
# Poissons Ratio (y) = 0.64758 0.14780
# Poissons Ratio (z) = 0.35846 0.07787
#
# Static dielectric constant tensor:
#      x y z
#    x 4.089220 0.000000 0.000000 
#    y 0.000000 3.462740 0.000000 
#    z 0.000000 0.000000 3.915120 
# 
# 
# High freq. dielectric constant tensor:
#      x y z
#    x 1.809550 0.000000 0.000000 
#    y 0.000000 1.754530 0.000000 
#    z 0.000000 0.000000 1.800010 
# 
# From -- ./inp_files/9950.got.cif
#   From: 2010.03.12/outbox.cif.g09.slc.cpg/sg53_5_cif.got.tgz:9950.got - 2010.04.16 14:36:59.
