data_PCOD8221873
_publ_section_title
;
Structure prediction by ZEFSAII (Michael W. Deem and Ramdas Pophale) SiO2 
 PCOD8221873
Probable space group: P M N A
;
_chemical_formula_sum "Si O2"
_cell_formula_units_Z 48
_cell_length_a 8.696131
_cell_length_b 14.983190
_cell_length_c 17.331118
_cell_angle_alpha 90.000000
_cell_angle_beta 90.000000
_cell_angle_gamma 90.000000
_cell_volume 2258.171591
_symmetry_space_group_name_H-M "P M N A"
_symmetry_group_IT_number 53
_symmetry_cell_setting 'orthorhombic'
loop_
_space_group_symop_operation_xyz
x,y,z
1/2-x,-y,1/2+z
x,-y,-z
1/2-x,y,1/2-z
-x,-y,-z
1/2+x,y,1/2-z
-x,y,z
1/2+x,-y,1/2+z
loop_
_atom_site_type_symbol
_atom_site_label
_atom_site_fract_x
_atom_site_fract_y
_atom_site_fract_z
Si Si1 0.681063 0.980654 0.587213
Si Si2 0.318531 0.853561 0.167818
Si Si3 0.679701 0.309489 0.587369
Si Si4 0.680230 0.525468 0.169796
Si Si5 0.321899 0.817174 0.833595
Si Si6 0.324314 0.355791 0.070673
O O1 0.500000 0.990916 0.598133
O O2 0.734177 0.881082 0.606909
O O3 0.732222 0.000000 0.500000
O O4 0.764190 0.047820 0.645442
O O5 0.250000 0.825456 0.250000
O O6 0.500000 0.851295 0.173030
O O7 0.261594 0.784578 0.103049
O O8 0.500000 0.296861 0.599649
O O9 0.741084 0.382152 0.647172
O O10 0.712010 0.338639 0.500171
O O11 0.750000 0.491323 0.250000
O O12 0.500000 0.540842 0.179244
O O13 0.716816 0.452115 0.104974
O O14 0.250000 0.827349 0.750000
O O15 0.500000 0.844090 0.830089
O O16 0.298360 0.716571 0.862518
O O17 0.500000 0.353548 0.040530
#
# Coordination Sequence:
#
# PCOD8221873 Si02
#       6
#     8   8   8   8   8   8
#     4  11  24  42  64  92 125 161 203 251 303 361
#     4  12  25  43  66  91 123 161 204 253 306 364
#     4  12  25  41  63  92 125 161 204 253 306 365
#     4  11  23  41  64  91 125 163 206 254 305 362
#     4  11  23  40  63  91 124 162 204 250 302 360
#     4  10  23  42  64  91 124 163 205 252 305 360
#
# _framework density 21.256136000000001
#
# number of rings (size 3 to 8) (size 9 to 14) (size 15 to 20)
#    0.000    0.833    0.000    7.500    0.000    8.667 
#    0.000    0.000    0.000    0.000    0.000    0.000 
#    0.000    0.000    0.000    0.000    0.000    0.000 
#
# Total GULP energy -595682.803495 kJ/mol
# GULP energy per Si atom -12410.058406 kJ/mol
# Density = 2.120776 g / cm^3
# Si number density = 21.256136 Si / 1000 Ang^3
#
#
#
# Elastic Constant Matrix: (Units=GPa)
#
#
# Indices 1 2 3 4 5 6 
#
# 1 132.4281 28.7810 39.7386 0.0000 0.0000 0.0000
# 2 28.7810 78.9999 0.4419 0.0000 0.0000 0.0000
# 3 39.7386 0.4419 90.0678 0.0000 0.0000 0.0000
# 4 0.0000 0.0000 0.0000 36.0534 0.0000 0.0000
# 5 0.0000 0.0000 0.0000 0.0000 38.1321 0.0000
# 6 0.0000 0.0000 0.0000 0.0000 0.0000 27.4418
#
#
#
# Elastic Compliance Matrix: (Units=1/GPa)
#
#
# Indices 1 2 3 4 5 6 
#
# 1 0.009565 -0.003461 -0.004203 0.000000 0.000000 0.000000
# 2 -0.003461 0.013911 0.001459 0.000000 0.000000 0.000000
# 3 -0.004203 0.001459 0.012950 0.000000 0.000000 0.000000
# 4 0.000000 0.000000 0.000000 0.027737 0.000000 0.000000
# 5 0.000000 0.000000 0.000000 0.000000 0.026225 0.000000
# 6 0.000000 0.000000 0.000000 0.000000 0.000000 0.036441
#
#
# Mechanical properties :
#
#
# Convention : Reuss Voigt Hill
#
# Bulk Modulus (GPa) = 41.64048 48.82430 45.23239
# Shear Modulus (GPa) = 33.95738 35.82774 34.89256
#
# Velocity S-wave (km/s) = 4.00125 4.10997 4.05597
# Velocity P-wave (km/s) = 6.40149 6.74847 6.57727
#
# Compressibility (1/GPa) = 0.02401509
#
# Stress axis : x y z
#
# Youngs Moduli (GPa) = 104.55111 71.88554 77.22007
#
# Poissons Ratio (x) = 0.24880 0.32456
# Poissons Ratio (y) = 0.36186 -0.11265
# Poissons Ratio (z) = 0.43943 -0.10487
#
# Static dielectric constant tensor:
#      x y z
#    x 3.895530 0.000000 0.000000 
#    y 0.000000 3.941080 0.000000 
#    z 0.000000 0.000000 3.838260 
# 
# 
# High freq. dielectric constant tensor:
#      x y z
#    x 1.843130 0.000000 0.000000 
#    y 0.000000 1.847720 0.000000 
#    z 0.000000 0.000000 1.844890 
# 
# From -- ./inp_files/26218.got.cif
#   From: 2010.03.12/outbox.cif.g09.slc.cpg/sg53_14_cif.got.tgz:26218.got - 2010.04.16 14:36:59.
