data_PCOD8221214
_publ_section_title
;
Structure prediction by ZEFSAII (Michael W. Deem and Ramdas Pophale) SiO2 
 PCOD8221214
Probable space group: P M N A
;
_chemical_formula_sum "Si O2"
_cell_formula_units_Z 48
_cell_length_a 19.403280
_cell_length_b 14.362781
_cell_length_c 8.898692
_cell_angle_alpha 90.000000
_cell_angle_beta 90.000000
_cell_angle_gamma 90.000000
_cell_volume 2479.932526
_symmetry_space_group_name_H-M "P M N A"
_symmetry_group_IT_number 53
_symmetry_cell_setting 'orthorhombic'
loop_
_space_group_symop_operation_xyz
x,y,z
1/2-x,-y,1/2+z
x,-y,-z
1/2-x,y,1/2-z
-x,-y,-z
1/2+x,y,1/2-z
-x,y,z
1/2+x,-y,1/2+z
loop_
_atom_site_type_symbol
_atom_site_label
_atom_site_fract_x
_atom_site_fract_y
_atom_site_fract_z
Si Si1 0.079808 0.251208 0.972092
Si Si2 0.344659 0.409492 0.393864
Si Si3 0.180782 0.039845 0.658595
Si Si4 0.191971 0.397917 0.438113
Si Si5 0.423081 0.931055 0.637165
Si Si6 0.673273 0.251750 0.812942
O O1 0.119680 0.270074 0.818695
O O2 0.000000 0.234379 0.935258
O O3 0.091552 0.343050 0.068948
O O4 0.109075 0.164349 0.069930
O O5 0.352358 0.500000 0.500000
O O6 0.270221 0.360733 0.418157
O O7 0.350716 0.419295 0.213835
O O8 0.250000 0.033691 0.750000
O O9 0.158609 0.146548 0.634986
O O10 0.200245 0.000000 0.500000
O O11 0.121969 0.975708 0.731276
O O12 0.198775 0.500000 0.500000
O O13 0.156248 0.323160 0.550207
O O14 0.500000 0.913402 0.702379
O O15 0.426531 0.000000 0.500000
O O16 0.750000 0.268485 0.750000
#
# Coordination Sequence:
#
# PCOD8221214 Si02
#       6
#     8   8   8   8   8   8
#     4  11  23  40  64  89 123 166 205 251 311 375
#     4  10  21  38  62  93 123 158 206 256 309 370
#     4  11  25  38  60  92 125 158 205 261 310 361
#     4  10  21  36  63  93 122 157 202 257 307 363
#     4  10  21  41  63  85 120 166 207 243 302 376
#     4  11  22  39  60  90 123 161 204 257 305 363
#
# _framework density 19.355364999999999
#
# number of rings (size 3 to 8) (size 9 to 14) (size 15 to 20)
#    0.000    1.500    3.333    1.500    7.000    0.667 
#    0.000    0.833    0.000    2.000    0.000    0.000 
#    0.000    0.000    0.000    0.000    0.000    0.000 
#
# Total GULP energy -594858.557406 kJ/mol
# GULP energy per Si atom -12392.886613 kJ/mol
# Density = 1.931131 g / cm^3
# Si number density = 19.355365 Si / 1000 Ang^3
#
#
#
# Elastic Constant Matrix: (Units=GPa)
#
#
# Indices 1 2 3 4 5 6 
#
# 1 60.6157 33.6085 27.9353 0.0000 0.0000 0.0000
# 2 33.6085 107.3303 53.0162 0.0000 0.0000 0.0000
# 3 27.9353 53.0162 114.7859 0.0000 0.0000 0.0000
# 4 0.0000 0.0000 0.0000 41.1695 0.0000 0.0000
# 5 0.0000 0.0000 0.0000 0.0000 16.8300 0.0000
# 6 0.0000 0.0000 0.0000 0.0000 0.0000 28.1320
#
#
#
# Elastic Compliance Matrix: (Units=1/GPa)
#
#
# Indices 1 2 3 4 5 6 
#
# 1 0.020558 -0.005138 -0.002630 0.000000 0.000000 0.000000
# 2 -0.005138 0.013355 -0.004918 0.000000 0.000000 0.000000
# 3 -0.002630 -0.004918 0.011623 0.000000 0.000000 0.000000
# 4 0.000000 0.000000 0.000000 0.024290 0.000000 0.000000
# 5 0.000000 0.000000 0.000000 0.000000 0.059418 0.000000
# 6 0.000000 0.000000 0.000000 0.000000 0.000000 0.035547
#
#
# Mechanical properties :
#
#
# Convention : Reuss Voigt Hill
#
# Bulk Modulus (GPa) = 49.59214 56.87245 53.23229
# Shear Modulus (GPa) = 25.39551 28.43777 26.91664
#
# Velocity S-wave (km/s) = 3.62617 3.83723 3.73319
# Velocity P-wave (km/s) = 6.57341 7.00568 6.79298
#
# Compressibility (1/GPa) = 0.02016449
#
# Stress axis : x y z
#
# Youngs Moduli (GPa) = 48.64180 74.87703 86.03375
#
# Poissons Ratio (x) = 0.38475 0.22627
# Poissons Ratio (y) = 0.24994 0.42310
# Poissons Ratio (z) = 0.12793 0.36823
#
# Static dielectric constant tensor:
#      x y z
#    x 3.531190 0.000000 0.000000 
#    y 0.000000 3.606230 0.000000 
#    z 0.000000 0.000000 3.445150 
# 
# 
# High freq. dielectric constant tensor:
#      x y z
#    x 1.731230 0.000000 0.000000 
#    y 0.000000 1.765070 0.000000 
#    z 0.000000 0.000000 1.758540 
# 
# From -- ./inp_files/9956.got.cif
#   From: 2010.03.12/outbox.cif.g09.slc.cpg/sg53_5_cif.got.tgz:9956.got - 2010.04.16 14:36:59.
