data_PCOD8221258
_publ_section_title
;
Structure prediction by ZEFSAII (Michael W. Deem and Ramdas Pophale) SiO2 
 PCOD8221258
Probable space group: P M N A
;
_chemical_formula_sum "Si O2"
_cell_formula_units_Z 48
_cell_length_a 8.944252
_cell_length_b 30.818764
_cell_length_c 9.092822
_cell_angle_alpha 90.000000
_cell_angle_beta 90.000000
_cell_angle_gamma 90.000000
_cell_volume 2506.443582
_symmetry_space_group_name_H-M "P M N A"
_symmetry_group_IT_number 53
_symmetry_cell_setting 'orthorhombic'
loop_
_space_group_symop_operation_xyz
x,y,z
1/2-x,-y,1/2+z
x,-y,-z
1/2-x,y,1/2-z
-x,-y,-z
1/2+x,y,1/2-z
-x,y,z
1/2+x,-y,1/2+z
loop_
_atom_site_type_symbol
_atom_site_label
_atom_site_fract_x
_atom_site_fract_y
_atom_site_fract_z
Si Si1 0.325365 0.123878 0.092638
Si Si2 0.677097 0.716385 0.591776
Si Si3 0.824294 0.461177 0.903040
Si Si4 0.176481 0.041895 0.591772
Si Si5 0.326063 0.364875 0.595975
Si Si6 0.176842 0.791413 0.406829
O O1 0.250000 0.123793 0.250000
O O2 0.500000 0.118613 0.118948
O O3 0.264467 0.084082 0.995050
O O4 0.285588 0.168149 0.010385
O O5 0.750000 0.723102 0.750000
O O6 0.500000 0.723853 0.603914
O O7 0.718596 0.668593 0.531966
O O8 0.747008 0.749567 0.476794
O O9 0.750000 0.468976 0.750000
O O10 0.780924 0.413027 0.961820
O O11 0.000000 0.465885 0.886423
O O12 0.757652 0.500000 0.000000
O O13 0.250000 0.040140 0.750000
O O14 0.000000 0.043593 0.614108
O O15 0.226834 0.000000 0.500000
O O16 0.250000 0.352795 0.750000
O O17 0.500000 0.362196 0.630296
O O18 0.250000 0.800707 0.250000
O O19 0.000000 0.783970 0.389315
#
# Coordination Sequence:
#
# PCOD8221258 Si02
#       6
#     8   8   8   8   8   8
#     4  10  22  38  57  83 113 145 182 225 271 321
#     4  11  23  38  56  80 110 142 179 223 271 321
#     4   9  18  33  52  75 104 136 172 214 260 312
#     4  10  21  37  57  83 113 145 184 226 270 322
#     4   9  19  35  54  76 103 137 175 216 262 314
#     4  11  23  39  59  83 111 144 183 224 270 323
#
# _framework density 19.150642000000001
#
# number of rings (size 3 to 8) (size 9 to 14) (size 15 to 20)
#    0.000    2.000    0.000    3.000    0.000    7.333 
#    0.000    0.000    0.000    0.000    0.000    0.000 
#    0.000    0.000    0.000    0.000    0.000    0.000 
#
# Total GULP energy -595237.764902 kJ/mol
# GULP energy per Si atom -12400.786769 kJ/mol
# Density = 1.910705 g / cm^3
# Si number density = 19.150642 Si / 1000 Ang^3
#
#
#
# Elastic Constant Matrix: (Units=GPa)
#
#
# Indices 1 2 3 4 5 6 
#
# 1 54.4093 48.2102 53.0058 0.0000 0.0000 0.0000
# 2 48.2102 141.6101 75.3446 0.0000 0.0000 0.0000
# 3 53.0058 75.3446 144.8385 0.0000 0.0000 0.0000
# 4 0.0000 0.0000 0.0000 35.0709 0.0000 0.0000
# 5 0.0000 0.0000 0.0000 0.0000 38.4245 0.0000
# 6 0.0000 0.0000 0.0000 0.0000 0.0000 24.2124
#
#
#
# Elastic Compliance Matrix: (Units=1/GPa)
#
#
# Indices 1 2 3 4 5 6 
#
# 1 0.032412 -0.006531 -0.008464 0.000000 0.000000 0.000000
# 2 -0.006531 0.011080 -0.003374 0.000000 0.000000 0.000000
# 3 -0.008464 -0.003374 0.011757 0.000000 0.000000 0.000000
# 4 0.000000 0.000000 0.000000 0.028514 0.000000 0.000000
# 5 0.000000 0.000000 0.000000 0.000000 0.026025 0.000000
# 6 0.000000 0.000000 0.000000 0.000000 0.000000 0.041301
#
#
# Mechanical properties :
#
#
# Convention : Reuss Voigt Hill
#
# Bulk Modulus (GPa) = 54.02180 77.10881 65.56530
# Shear Modulus (GPa) = 25.77357 30.49471 28.13414
#
# Velocity S-wave (km/s) = 3.67254 3.99477 3.83704
# Velocity P-wave (km/s) = 6.80099 7.85043 7.34448
#
# Compressibility (1/GPa) = 0.01851104
#
# Stress axis : x y z
#
# Youngs Moduli (GPa) = 30.85272 90.25200 85.05671
#
# Poissons Ratio (x) = 0.58944 0.71994
# Poissons Ratio (y) = 0.20150 0.28696
# Poissons Ratio (z) = 0.26115 0.30448
#
# Static dielectric constant tensor:
#      x y z
#    x 3.490980 0.000000 0.000000 
#    y 0.000000 4.078430 0.000000 
#    z 0.000000 0.000000 3.413640 
# 
# 
# High freq. dielectric constant tensor:
#      x y z
#    x 1.742500 0.000000 0.000000 
#    y 0.000000 1.766770 0.000000 
#    z 0.000000 0.000000 1.749170 
# 
# From -- ./inp_files/6570.got.cif
#   From: 2010.03.12/outbox.cif.g09.slc.cpg/sg53_4_cif.got.tgz:6570.got - 2010.04.16 14:36:59.
