data_PCOD8221624
_publ_section_title
;
Structure prediction by ZEFSAII (Michael W. Deem and Ramdas Pophale) SiO2 
 PCOD8221624
Probable space group: P M N A
;
_chemical_formula_sum "Si O2"
_cell_formula_units_Z 20
_cell_length_a 29.707223
_cell_length_b 5.113198
_cell_length_c 5.193604
_cell_angle_alpha 90.000000
_cell_angle_beta 90.000000
_cell_angle_gamma 90.000000
_cell_volume 788.902803
_symmetry_space_group_name_H-M "P M N A"
_symmetry_group_IT_number 53
_symmetry_cell_setting 'orthorhombic'
loop_
_space_group_symop_operation_xyz
x,y,z
1/2-x,-y,1/2+z
x,-y,-z
1/2-x,y,1/2-z
-x,-y,-z
1/2+x,y,1/2-z
-x,y,z
1/2+x,-y,1/2+z
loop_
_atom_site_type_symbol
_atom_site_label
_atom_site_fract_x
_atom_site_fract_y
_atom_site_fract_z
Si Si1 0.500000 0.250714 0.174289
Si Si2 0.096714 0.835831 0.765129
Si Si3 0.221303 0.000000 0.500000
Si Si4 0.338096 0.500000 0.000000
O O1 0.454216 0.252626 0.342811
O O2 0.500000 0.500000 0.000000
O O3 0.500000 0.000000 0.000000
O O4 0.128870 0.583006 0.734987
O O5 0.097520 0.000000 0.500000
O O6 0.117071 0.000000 0.000000
O O7 0.191744 0.749219 0.418794
O O8 0.250000 0.921027 0.750000
#
# Coordination Sequence:
#
# PCOD8221624 Si02
#       4
#     4   8   4   4
#     4  10  21  44  66 105 155 205 250 304 368 435
#     4  11  25  45  73 111 153 201 252 309 369 450
#     4  12  30  52  78 107 146 189 244 318 400 472
#     4  12  26  51  78 112 146 194 252 315 384 468
#
# _framework density 25.351668
#
# number of rings (size 3 to 8) (size 9 to 14) (size 15 to 20)
#    0.000    0.800    4.000    1.800    2.800    4.800 
#    0.000    4.000    0.000    0.000    0.000    0.000 
#    0.000    0.000    0.000    0.000    0.000    0.000 
#
# Total GULP energy -247962.166162 kJ/mol
# GULP energy per Si atom -12398.108308 kJ/mol
# Density = 2.529397 g / cm^3
# Si number density = 25.351668 Si / 1000 Ang^3
#
#
#
# Elastic Constant Matrix: (Units=GPa)
#
#
# Indices 1 2 3 4 5 6 
#
# 1 184.2753 71.9940 51.4119 0.0000 0.0000 0.0000
# 2 71.9940 192.1345 53.2280 0.0000 0.0000 0.0000
# 3 51.4119 53.2280 144.8862 0.0000 0.0000 0.0000
# 4 0.0000 0.0000 0.0000 49.1295 0.0000 0.0000
# 5 0.0000 0.0000 0.0000 0.0000 -16.1428 0.0000
# 6 0.0000 0.0000 0.0000 0.0000 0.0000 349.5455
#
#
#
# Elastic Compliance Matrix: (Units=1/GPa)
#
#
# Indices 1 2 3 4 5 6 
#
# 1 0.006680 -0.002056 -0.001615 0.000000 0.000000 0.000000
# 2 -0.002056 0.006427 -0.001632 0.000000 0.000000 0.000000
# 3 -0.001615 -0.001632 0.008075 0.000000 0.000000 0.000000
# 4 0.000000 0.000000 0.000000 0.020354 0.000000 0.000000
# 5 0.000000 0.000000 0.000000 0.000000 -0.061947 0.000000
# 6 0.000000 0.000000 0.000000 0.000000 0.000000 0.002861
#
#
# Mechanical properties :
#
#
# Convention : Reuss Voigt Hill
#
# Bulk Modulus (GPa) = 94.54769 97.17376 95.86073
# Shear Modulus (GPa) = -1462.52617 99.48391 -681.52113
#
# Velocity S-wave (km/s) = -24.04470 6.27110 -16.41373
# Velocity P-wave (km/s) = 27.08299 9.53148 17.92539
#
# Compressibility (1/GPa) = 0.01057667
#
# Stress axis : x y z
#
# Youngs Moduli (GPa) = 149.69022 155.59330 123.84533
#
# Poissons Ratio (x) = 0.31986 0.20005
# Poissons Ratio (y) = 0.30772 0.20208
# Poissons Ratio (z) = 0.24179 0.25388
#
# Static dielectric constant tensor:
#      x y z
#    x 5.617640 0.000000 0.000000 
#    y 0.000000 4.735610 0.000000 
#    z 0.000000 0.000000 4.080230 
# 
# 
# High freq. dielectric constant tensor:
#      x y z
#    x 2.032050 0.000000 0.000000 
#    y 0.000000 2.029480 0.000000 
#    z 0.000000 0.000000 1.987550 
# 
# From -- ./inp_files/4816.got.cif
#   From: 2010.03.12/outbox.cif.g09.slc.cpg/sg53_3_cif.got.tgz:4816.got - 2010.04.16 14:36:59.
