data_PCOD8221929
_publ_section_title
;
Structure prediction by ZEFSAII (Michael W. Deem and Ramdas Pophale) SiO2 
 PCOD8221929
Probable space group: P M N A
;
_chemical_formula_sum "Si O2"
_cell_formula_units_Z 64
_cell_length_a 27.330825
_cell_length_b 9.113045
_cell_length_c 13.088920
_cell_angle_alpha 90.000000
_cell_angle_beta 90.000000
_cell_angle_gamma 90.000000
_cell_volume 3260.018536
_symmetry_space_group_name_H-M "P M N A"
_symmetry_group_IT_number 53
_symmetry_cell_setting 'orthorhombic'
loop_
_space_group_symop_operation_xyz
x,y,z
1/2-x,-y,1/2+z
x,-y,-z
1/2-x,y,1/2-z
-x,-y,-z
1/2+x,y,1/2-z
-x,y,z
1/2+x,-y,1/2+z
loop_
_atom_site_type_symbol
_atom_site_label
_atom_site_fract_x
_atom_site_fract_y
_atom_site_fract_z
Si Si1 0.818402 0.334133 0.460282
Si Si2 0.145545 0.603447 0.911022
Si Si3 0.942651 0.998683 0.377694
Si Si4 0.278030 0.823597 0.501435
Si Si5 0.895880 0.277386 0.291223
Si Si6 0.295961 0.346338 0.689946
Si Si7 0.946860 0.510925 0.382796
Si Si8 0.625452 0.740065 0.156070
O O1 0.806489 0.500000 0.500000
O O2 0.769371 0.239624 0.439062
O O3 0.848102 0.334358 0.353879
O O4 0.849804 0.247880 0.545224
O O5 0.173153 0.746927 0.954580
O O6 0.108972 0.675642 0.827861
O O7 0.183454 0.491634 0.861237
O O8 0.119742 0.500000 0.000000
O O9 0.919847 0.849917 0.335378
O O10 0.000000 0.011647 0.348086
O O11 0.936250 0.000000 0.500000
O O12 0.907460 0.109009 0.314526
O O13 0.273143 0.773417 0.385215
O O14 0.281405 0.000000 0.500000
O O15 0.945989 0.349390 0.334967
O O16 0.250000 0.410446 0.750000
O O17 0.334513 0.251863 0.755700
O O18 0.931849 0.500000 0.500000
O O19 0.902676 0.588304 0.324708
O O20 0.000000 0.585550 0.370494
#
# Coordination Sequence:
#
# PCOD8221929 Si02
#       8
#     8   8   8   8   8   8   8   8
#     4  12  21  37  59  92 132 164 210 256 308 374
#     4  10  24  44  65  89 120 167 219 271 316 363
#     4  11  24  40  59  93 139 174 203 258 327 396
#     4  11  27  42  59  90 124 168 213 260 312 379
#     4  12  22  37  64  92 124 169 214 256 325 377
#     4  11  22  40  64  90 124 166 211 261 311 371
#     4  11  20  35  60  93 126 158 202 249 304 382
#     4  12  21  37  60  91 127 173 207 249 309 382
#
# _framework density 19.631789999999999
#
# number of rings (size 3 to 8) (size 9 to 14) (size 15 to 20)
#    0.000    0.750    6.250    1.875    5.250    2.000 
#    0.000    0.000    0.000    1.500    0.000    3.500 
#    0.000    0.000    0.000    0.000    0.000    0.000 
#
# Total GULP energy -792876.894146 kJ/mol
# GULP energy per Si atom -12388.701471 kJ/mol
# Density = 1.958711 g / cm^3
# Si number density = 19.631790 Si / 1000 Ang^3
#
#
#
# Elastic Constant Matrix: (Units=GPa)
#
#
# Indices 1 2 3 4 5 6 
#
# 1 71.8845 33.0637 28.8373 0.0000 0.0000 0.0000
# 2 33.0637 91.5614 24.8001 0.0000 0.0000 0.0000
# 3 28.8373 24.8001 93.5761 0.0000 0.0000 0.0000
# 4 0.0000 0.0000 0.0000 22.4594 0.0000 0.0000
# 5 0.0000 0.0000 0.0000 0.0000 -12.7336 0.0000
# 6 0.0000 0.0000 0.0000 0.0000 0.0000 73.4256
#
#
#
# Elastic Compliance Matrix: (Units=1/GPa)
#
#
# Indices 1 2 3 4 5 6 
#
# 1 0.018053 -0.005400 -0.004132 0.000000 0.000000 0.000000
# 2 -0.005400 0.013381 -0.001882 0.000000 0.000000 0.000000
# 3 -0.004132 -0.001882 0.012459 0.000000 0.000000 0.000000
# 4 0.000000 0.000000 0.000000 0.044525 0.000000 0.000000
# 5 0.000000 0.000000 0.000000 0.000000 -0.078533 0.000000
# 6 0.000000 0.000000 0.000000 0.000000 0.000000 0.013619
#
#
# Mechanical properties :
#
#
# Convention : Reuss Voigt Hill
#
# Bulk Modulus (GPa) = 47.47406 47.82491 47.64948
# Shear Modulus (GPa) = 93.71377 27.98502 60.84940
#
# Velocity S-wave (km/s) = 6.91660 3.77967 5.57339
# Velocity P-wave (km/s) = 9.38193 6.59255 8.10809
#
# Compressibility (1/GPa) = 0.02106414
#
# Stress axis : x y z
#
# Youngs Moduli (GPa) = 55.39399 74.73074 80.26467
#
# Poissons Ratio (x) = 0.40352 0.33167
# Poissons Ratio (y) = 0.29911 0.15109
# Poissons Ratio (z) = 0.22890 0.14067
#
# Static dielectric constant tensor:
#      x y z
#    x 3.452080 0.000000 0.000000 
#    y 0.000000 3.635480 0.000000 
#    z 0.000000 0.000000 3.831820 
# 
# 
# High freq. dielectric constant tensor:
#      x y z
#    x 1.759450 0.000000 0.000000 
#    y 0.000000 1.770620 0.000000 
#    z 0.000000 0.000000 1.746010 
# 
# From -- ./inp_files/19048.got.cif
#   From: 2010.03.12/outbox.cif.g09.slc.cpg/sg53_10_cif.got.tgz:19048.got - 2010.04.16 14:36:59.
