data_PCOD8221617
_publ_section_title
;
Structure prediction by ZEFSAII (Michael W. Deem and Ramdas Pophale) SiO2 
 PCOD8221617
Probable space group: P M N A
;
_chemical_formula_sum "Si O2"
_cell_formula_units_Z 56
_cell_length_a 14.312293
_cell_length_b 12.160807
_cell_length_c 14.754119
_cell_angle_alpha 90.000000
_cell_angle_beta 90.000000
_cell_angle_gamma 90.000000
_cell_volume 2567.940143
_symmetry_space_group_name_H-M "P M N A"
_symmetry_group_IT_number 53
_symmetry_cell_setting 'orthorhombic'
loop_
_space_group_symop_operation_xyz
x,y,z
1/2-x,-y,1/2+z
x,-y,-z
1/2-x,y,1/2-z
-x,-y,-z
1/2+x,y,1/2-z
-x,y,z
1/2+x,-y,1/2+z
loop_
_atom_site_type_symbol
_atom_site_label
_atom_site_fract_x
_atom_site_fract_y
_atom_site_fract_z
Si Si1 0.325328 0.385199 0.179732
Si Si2 0.891089 0.181009 0.205617
Si Si3 0.230998 0.749007 0.960701
Si Si4 0.892057 0.809285 0.429370
Si Si5 0.894677 0.383373 0.693049
Si Si6 0.606921 0.056659 0.753900
Si Si7 0.111536 0.741385 0.136704
O O1 0.250000 0.430773 0.250000
O O2 0.374179 0.276534 0.220571
O O3 0.277794 0.359760 0.083260
O O4 0.394430 0.488138 0.167369
O O5 0.832269 0.194222 0.114779
O O6 0.000000 0.179196 0.180611
O O7 0.852457 0.066068 0.245879
O O8 0.318120 0.828669 0.989297
O O9 0.163410 0.717538 0.043105
O O10 0.853398 0.693855 0.386258
O O11 0.879343 0.905796 0.356998
O O12 0.000000 0.804355 0.465039
O O13 0.855174 0.355294 0.793538
O O14 0.000000 0.339039 0.697969
O O15 0.500000 0.051362 0.727862
O O16 0.648967 0.143500 0.681067
O O17 0.000000 0.740930 0.119101
#
# Coordination Sequence:
#
# PCOD8221617 Si02
#       7
#     8   8   8   8   8   8   8
#     4  10  23  39  54  81 126 167 205 240 302 370
#     4  10  21  42  64  85 123 168 206 245 305 375
#     4  11  23  38  57  99 125 158 200 258 312 352
#     4   9  20  39  62  93 122 156 207 255 305 358
#     4   9  19  38  64  86 114 164 210 246 304 372
#     4   8  17  38  65  88 119 163 203 247 305 371
#     4   9  19  38  64  96 123 152 202 258 311 359
#
# _framework density 21.807359999999999
#
# number of rings (size 3 to 8) (size 9 to 14) (size 15 to 20)
#    0.000    2.571    0.000    2.571    2.000    4.000 
#   12.857    3.571    0.000    6.857    0.000    0.000 
#    0.000    0.000    0.000    0.000    0.000    0.000 
#
# Total GULP energy -693885.163628 kJ/mol
# GULP energy per Si atom -12390.806493 kJ/mol
# Density = 2.175773 g / cm^3
# Si number density = 21.807360 Si / 1000 Ang^3
#
#
#
# Elastic Constant Matrix: (Units=GPa)
#
#
# Indices 1 2 3 4 5 6 
#
# 1 95.4435 28.0852 40.8709 0.0000 0.0000 0.0000
# 2 28.0852 156.5405 42.9359 0.0000 0.0000 0.0000
# 3 40.8709 42.9359 61.6048 0.0000 0.0000 0.0000
# 4 0.0000 0.0000 0.0000 8.4310 0.0000 0.0000
# 5 0.0000 0.0000 0.0000 0.0000 41.9101 0.0000
# 6 0.0000 0.0000 0.0000 0.0000 0.0000 -2.7299
#
#
#
# Elastic Compliance Matrix: (Units=1/GPa)
#
#
# Indices 1 2 3 4 5 6 
#
# 1 0.014635 0.000046 -0.009742 0.000000 0.000000 0.000000
# 2 0.000046 0.007898 -0.005535 0.000000 0.000000 0.000000
# 3 -0.009742 -0.005535 0.026553 0.000000 0.000000 0.000000
# 4 0.000000 0.000000 0.000000 0.118611 0.000000 0.000000
# 5 0.000000 0.000000 0.000000 0.000000 0.023861 0.000000
# 6 0.000000 0.000000 0.000000 0.000000 0.000000 -0.366320
#
#
# Mechanical properties :
#
#
# Convention : Reuss Voigt Hill
#
# Bulk Modulus (GPa) = 53.69103 59.70807 56.69955
# Shear Modulus (GPa) = -36.20784 22.96870 -6.61957
#
# Velocity S-wave (km/s) = -4.07916 3.24891 -1.74415
# Velocity P-wave (km/s) = 1.57734 6.44307 4.69047
#
# Compressibility (1/GPa) = 0.01862509
#
# Stress axis : x y z
#
# Youngs Moduli (GPa) = 68.32702 126.61363 37.65982
#
# Poissons Ratio (x) = -0.00585 0.36688
# Poissons Ratio (y) = -0.00316 0.20846
# Poissons Ratio (z) = 0.66564 0.70084
#
# Static dielectric constant tensor:
#      x y z
#    x 3.977260 0.000000 0.000000 
#    y 0.000000 3.866280 0.000000 
#    z 0.000000 0.000000 3.860570 
# 
# 
# High freq. dielectric constant tensor:
#      x y z
#    x 1.868310 0.000000 0.000000 
#    y 0.000000 1.844700 0.000000 
#    z 0.000000 0.000000 1.849160 
# 
# From -- ./inp_files/22805.got.cif
#   From: 2010.03.12/outbox.cif.g09.slc.cpg/sg53_12_cif.got.tgz:22805.got - 2010.04.16 14:36:59.
