data_PCOD8221656
_publ_section_title
;
Structure prediction by ZEFSAII (Michael W. Deem and Ramdas Pophale) SiO2 
 PCOD8221656
Probable space group: P M N A
;
_chemical_formula_sum "Si O2"
_cell_formula_units_Z 56
_cell_length_a 16.953359
_cell_length_b 5.245455
_cell_length_c 29.166634
_cell_angle_alpha 90.000000
_cell_angle_beta 90.000000
_cell_angle_gamma 90.000000
_cell_volume 2593.732812
_symmetry_space_group_name_H-M "P M N A"
_symmetry_group_IT_number 53
_symmetry_cell_setting 'orthorhombic'
loop_
_space_group_symop_operation_xyz
x,y,z
1/2-x,-y,1/2+z
x,-y,-z
1/2-x,y,1/2-z
-x,-y,-z
1/2+x,y,1/2-z
-x,y,z
1/2+x,-y,1/2+z
loop_
_atom_site_type_symbol
_atom_site_label
_atom_site_fract_x
_atom_site_fract_y
_atom_site_fract_z
Si Si1 0.317799 0.485014 0.551922
Si Si2 0.288732 0.531382 0.706829
Si Si3 0.589887 0.021610 0.421935
Si Si4 0.317437 0.426652 0.124745
Si Si5 0.583678 0.792458 0.329707
Si Si6 0.591673 0.947002 0.141990
Si Si7 0.086048 0.885863 0.744324
O O1 0.287180 0.500000 0.500000
O O2 0.381157 0.706724 0.560626
O O3 0.243067 0.526875 0.584016
O O4 0.358331 0.211504 0.559137
O O5 0.250000 0.373094 0.750000
O O6 0.221807 0.647235 0.673940
O O7 0.340095 0.384570 0.668755
O O8 0.342399 0.730491 0.734060
O O9 0.500000 0.986235 0.438572
O O10 0.596799 0.019921 0.366257
O O11 0.370619 0.179607 0.112712
O O12 0.369828 0.678552 0.129449
O O13 0.500000 0.652341 0.342700
O O14 0.575332 0.877140 0.277702
O O15 0.500000 0.930465 0.129784
O O16 0.607262 0.001595 0.195283
O O17 0.000000 0.739659 0.742233
#
# Coordination Sequence:
#
# PCOD8221656 Si02
#       7
#     8   8   8   8   8   8   8
#     4  12  26  46  70  99 136 174 223 286 345 399
#     4  12  22  35  60  92 130 172 218 271 315 379
#     4  11  24  43  68  98 138 186 230 275 328 394
#     4  12  25  44  69  98 132 169 221 277 339 404
#     4  10  22  38  57  84 131 180 220 265 317 378
#     4  11  25  46  69  96 132 174 218 275 336 407
#     4  10  22  37  57  88 131 182 226 261 317 384
#
# _framework density 21.590505
#
# number of rings (size 3 to 8) (size 9 to 14) (size 15 to 20)
#    0.000    0.857    2.857    4.286    2.000    2.286 
#    0.000    0.000    0.000    2.571    0.000    0.000 
#    0.000    0.000    0.000    0.000    0.000    0.000 
#
# Total GULP energy -693892.801361 kJ/mol
# GULP energy per Si atom -12390.942881 kJ/mol
# Density = 2.154136 g / cm^3
# Si number density = 21.590505 Si / 1000 Ang^3
#
#
#
# Elastic Constant Matrix: (Units=GPa)
#
#
# Indices 1 2 3 4 5 6 
#
# 1 131.5986 45.9558 45.0103 0.0000 0.0000 0.0000
# 2 45.9558 90.2856 -0.2970 0.0000 0.0000 0.0000
# 3 45.0103 -0.2970 80.7839 0.0000 0.0000 0.0000
# 4 0.0000 0.0000 0.0000 18.6882 0.0000 0.0000
# 5 0.0000 0.0000 0.0000 0.0000 5.9103 0.0000
# 6 0.0000 0.0000 0.0000 0.0000 0.0000 36.9936
#
#
#
# Elastic Compliance Matrix: (Units=1/GPa)
#
#
# Indices 1 2 3 4 5 6 
#
# 1 0.012054 -0.006158 -0.006739 0.000000 0.000000 0.000000
# 2 -0.006158 0.014222 0.003483 0.000000 0.000000 0.000000
# 3 -0.006739 0.003483 0.016146 0.000000 0.000000 0.000000
# 4 0.000000 0.000000 0.000000 0.053510 0.000000 0.000000
# 5 0.000000 0.000000 0.000000 0.000000 0.169196 0.000000
# 6 0.000000 0.000000 0.000000 0.000000 0.000000 0.027032
#
#
# Mechanical properties :
#
#
# Convention : Reuss Voigt Hill
#
# Bulk Modulus (GPa) = 42.38139 53.77849 48.07994
# Shear Modulus (GPa) = 15.68131 26.45171 21.06651
#
# Velocity S-wave (km/s) = 2.69793 3.50402 3.12706
# Velocity P-wave (km/s) = 5.42009 6.42910 5.94604
#
# Compressibility (1/GPa) = 0.02359526
#
# Stress axis : x y z
#
# Youngs Moduli (GPa) = 82.95956 70.31495 61.93426
#
# Poissons Ratio (x) = 0.43298 0.41736
# Poissons Ratio (y) = 0.51084 -0.21573
# Poissons Ratio (z) = 0.55905 -0.24492
#
# Static dielectric constant tensor:
#      x y z
#    x 4.453110 0.000000 0.000000 
#    y 0.000000 3.746470 0.000000 
#    z 0.000000 0.000000 3.971250 
# 
# 
# High freq. dielectric constant tensor:
#      x y z
#    x 1.869030 0.000000 0.000000 
#    y 0.000000 1.834340 0.000000 
#    z 0.000000 0.000000 1.833780 
# 
# From -- ./inp_files/38886.got.cif
#   From: 2010.03.12/outbox.cif.g09.slc.cpg/sg53_20_cif.got.tgz:38886.got - 2010.04.16 14:36:59.
