data_PCOD8221823
_publ_section_title
;
Structure prediction by ZEFSAII (Michael W. Deem and Ramdas Pophale) SiO2 
 PCOD8221823
Probable space group: P M N A
;
_chemical_formula_sum "Si O2"
_cell_formula_units_Z 64
_cell_length_a 15.284992
_cell_length_b 11.318075
_cell_length_c 17.062348
_cell_angle_alpha 90.000000
_cell_angle_beta 90.000000
_cell_angle_gamma 90.000000
_cell_volume 2951.729656
_symmetry_space_group_name_H-M "P M N A"
_symmetry_group_IT_number 53
_symmetry_cell_setting 'orthorhombic'
loop_
_space_group_symop_operation_xyz
x,y,z
1/2-x,-y,1/2+z
x,-y,-z
1/2-x,y,1/2-z
-x,-y,-z
1/2+x,y,1/2-z
-x,y,z
1/2+x,-y,1/2+z
loop_
_atom_site_type_symbol
_atom_site_label
_atom_site_fract_x
_atom_site_fract_y
_atom_site_fract_z
Si Si1 0.273027 0.979294 0.085744
Si Si2 0.095249 0.089020 0.121238
Si Si3 0.181676 0.509956 0.842565
Si Si4 0.099289 0.110800 0.295119
Si Si5 0.352479 0.370360 0.192881
Si Si6 0.096618 0.670694 0.955904
Si Si7 0.754196 0.283855 0.924357
Si Si8 0.903387 0.628291 0.522087
O O1 0.260841 0.843961 0.114323
O O2 0.176336 0.033268 0.076345
O O3 0.335347 0.045769 0.146308
O O4 0.315947 0.000000 0.000000
O O5 0.101284 0.046949 0.211478
O O6 0.098317 0.231114 0.112385
O O7 0.000000 0.044771 0.088566
O O8 0.128385 0.525929 0.759336
O O9 0.253757 0.613312 0.837172
O O10 0.123347 0.543581 0.917951
O O11 0.231134 0.383834 0.856437
O O12 0.134232 0.240513 0.273319
O O13 0.000000 0.111596 0.329667
O O14 0.412895 0.372011 0.115995
O O15 0.000000 0.655513 0.991705
O O16 0.158292 0.713319 0.025384
O O17 0.670023 0.291658 0.981824
O O18 0.870988 0.500000 0.500000
O O19 0.000000 0.659675 0.488112
#
# Coordination Sequence:
#
# PCOD8221823 Si02
#       8
#     8   8   8   8   8   8   8   8
#     4  12  25  41  67  96 131 180 227 268 328 396
#     4  10  22  43  68  96 125 165 219 278 334 389
#     4  11  23  38  65  95 136 168 210 268 335 406
#     4  11  24  43  69  97 126 165 223 287 329 382
#     4  11  21  39  66  94 122 166 217 271 331 388
#     4  11  21  39  70  99 129 166 211 272 337 397
#     4  12  24  44  61  97 142 176 216 269 334 399
#     4  11  22  40  64  90 126 173 220 266 321 391
#
# _framework density 21.682203000000001
#
# number of rings (size 3 to 8) (size 9 to 14) (size 15 to 20)
#    0.000    0.875    5.000    2.625    1.750    3.000 
#    4.500    0.000    0.000    0.000    0.000    0.000 
#    0.000    0.000    0.000    0.000    0.000    0.000 
#
# Total GULP energy -792907.740308 kJ/mol
# GULP energy per Si atom -12389.183442 kJ/mol
# Density = 2.163285 g / cm^3
# Si number density = 21.682203 Si / 1000 Ang^3
#
#
#
# Elastic Constant Matrix: (Units=GPa)
#
#
# Indices 1 2 3 4 5 6 
#
# 1 123.3606 30.0639 16.8067 0.0000 0.0000 0.0000
# 2 30.0639 103.9010 30.3364 0.0000 0.0000 0.0000
# 3 16.8067 30.3364 79.6565 0.0000 0.0000 0.0000
# 4 0.0000 0.0000 0.0000 31.7022 0.0000 0.0000
# 5 0.0000 0.0000 0.0000 0.0000 16.0452 0.0000
# 6 0.0000 0.0000 0.0000 0.0000 0.0000 21.1944
#
#
#
# Elastic Compliance Matrix: (Units=1/GPa)
#
#
# Indices 1 2 3 4 5 6 
#
# 1 0.008791 -0.002253 -0.000997 0.000000 0.000000 0.000000
# 2 -0.002253 0.011406 -0.003869 0.000000 0.000000 0.000000
# 3 -0.000997 -0.003869 0.014238 0.000000 0.000000 0.000000
# 4 0.000000 0.000000 0.000000 0.031544 0.000000 0.000000
# 5 0.000000 0.000000 0.000000 0.000000 0.062324 0.000000
# 6 0.000000 0.000000 0.000000 0.000000 0.000000 0.047182
#
#
# Mechanical properties :
#
#
# Convention : Reuss Voigt Hill
#
# Bulk Modulus (GPa) = 49.50908 51.25910 50.38409
# Shear Modulus (GPa) = 25.45133 29.10243 27.27688
#
# Velocity S-wave (km/s) = 3.42984 3.66762 3.55072
# Velocity P-wave (km/s) = 6.21037 6.45195 6.33231
#
# Compressibility (1/GPa) = 0.02019831
#
# Stress axis : x y z
#
# Youngs Moduli (GPa) = 113.75111 87.67420 70.23687
#
# Poissons Ratio (x) = 0.19750 0.07002
# Poissons Ratio (y) = 0.25624 0.27171
# Poissons Ratio (z) = 0.11340 0.33917
#
# Static dielectric constant tensor:
#      x y z
#    x 3.990160 0.000000 0.000000 
#    y 0.000000 3.769790 0.000000 
#    z 0.000000 0.000000 3.883660 
# 
# 
# High freq. dielectric constant tensor:
#      x y z
#    x 1.859270 0.000000 0.000000 
#    y 0.000000 1.831000 0.000000 
#    z 0.000000 0.000000 1.848980 
# 
# From -- ./inp_files/28536.got.cif
#   From: 2010.03.12/outbox.cif.g09.slc.cpg/sg53_15_cif.got.tgz:28536.got - 2010.04.16 14:36:59.
