data_PCOD8221899
_publ_section_title
;
Structure prediction by ZEFSAII (Michael W. Deem and Ramdas Pophale) SiO2 
 PCOD8221899
Probable space group: P M N A
;
_chemical_formula_sum "Si O2"
_cell_formula_units_Z 40
_cell_length_a 8.627559
_cell_length_b 14.380389
_cell_length_c 14.901682
_cell_angle_alpha 90.000000
_cell_angle_beta 90.000000
_cell_angle_gamma 90.000000
_cell_volume 1848.816734
_symmetry_space_group_name_H-M "P M N A"
_symmetry_group_IT_number 53
_symmetry_cell_setting 'orthorhombic'
loop_
_space_group_symop_operation_xyz
x,y,z
1/2-x,-y,1/2+z
x,-y,-z
1/2-x,y,1/2-z
-x,-y,-z
1/2+x,y,1/2-z
-x,y,z
1/2+x,-y,1/2+z
loop_
_atom_site_type_symbol
_atom_site_label
_atom_site_fract_x
_atom_site_fract_y
_atom_site_fract_z
Si Si1 0.178157 0.891156 0.495439
Si Si2 0.680605 0.566427 0.579667
Si Si3 0.180297 0.753216 0.650644
Si Si4 0.181503 0.402900 0.660222
Si Si5 0.818780 0.775000 0.153538
O O1 0.221143 0.843945 0.591583
O O2 0.289586 0.857819 0.415991
O O3 0.000000 0.867600 0.471716
O O4 0.207128 0.000000 0.500000
O O5 0.753466 0.500000 0.500000
O O6 0.500000 0.582511 0.564935
O O7 0.760011 0.664334 0.594703
O O8 0.720408 0.498496 0.661712
O O9 0.250000 0.761770 0.750000
O O10 0.000000 0.739196 0.665110
O O11 0.250000 0.354620 0.750000
O O12 0.236665 0.315147 0.599841
O O13 0.000000 0.422931 0.655204
O O14 0.750000 0.806393 0.250000
O O15 0.000000 0.754265 0.164189
#
# Coordination Sequence:
#
# PCOD8221899 Si02
#       5
#     8   8   8   8   8
#     4  10  23  44  67  92 123 160 206 264 328 390
#     4  11  23  38  58  86 122 162 205 253 304 364
#     4  11  24  42  65  92 128 172 217 267 322 386
#     4  11  21  35  56  82 115 152 192 236 287 349
#     4  11  22  38  62  92 126 162 204 256 315 380
#
# _framework density 21.635459999999998
#
# number of rings (size 3 to 8) (size 9 to 14) (size 15 to 20)
#    0.000    1.200    0.000    7.800    0.000    7.600 
#    0.000    2.000    0.000    0.000    0.000    0.000 
#    0.000    0.000    0.000    0.000    0.000    0.000 
#
# Total GULP energy -495542.804403 kJ/mol
# GULP energy per Si atom -12388.570110 kJ/mol
# Density = 2.158622 g / cm^3
# Si number density = 21.635460 Si / 1000 Ang^3
#
#
#
# Elastic Constant Matrix: (Units=GPa)
#
#
# Indices 1 2 3 4 5 6 
#
# 1 114.7533 49.7046 46.7803 0.0000 0.0000 0.0000
# 2 49.7046 156.2683 58.2831 0.0000 0.0000 0.0000
# 3 46.7803 58.2831 109.0846 0.0000 0.0000 0.0000
# 4 0.0000 0.0000 0.0000 21.9511 0.0000 0.0000
# 5 0.0000 0.0000 0.0000 0.0000 29.0826 0.0000
# 6 0.0000 0.0000 0.0000 0.0000 0.0000 23.3928
#
#
#
# Elastic Compliance Matrix: (Units=1/GPa)
#
#
# Indices 1 2 3 4 5 6 
#
# 1 0.011134 -0.002199 -0.003600 0.000000 0.000000 0.000000
# 2 -0.002199 0.008426 -0.003559 0.000000 0.000000 0.000000
# 3 -0.003600 -0.003559 0.012613 0.000000 0.000000 0.000000
# 4 0.000000 0.000000 0.000000 0.045556 0.000000 0.000000
# 5 0.000000 0.000000 0.000000 0.000000 0.034385 0.000000
# 6 0.000000 0.000000 0.000000 0.000000 0.000000 0.042748
#
#
# Mechanical properties :
#
#
# Convention : Reuss Voigt Hill
#
# Bulk Modulus (GPa) = 74.30982 76.62692 75.46837
# Shear Modulus (GPa) = 28.07991 29.90787 28.99389
#
# Velocity S-wave (km/s) = 3.60650 3.72204 3.66472
# Velocity P-wave (km/s) = 7.19467 7.34613 7.27079
#
# Compressibility (1/GPa) = 0.01345717
#
# Stress axis : x y z
#
# Youngs Moduli (GPa) = 89.81209 118.67990 79.28561
#
# Poissons Ratio (x) = 0.26095 0.28544
# Poissons Ratio (y) = 0.19748 0.28218
# Poissons Ratio (z) = 0.32333 0.42238
#
# Static dielectric constant tensor:
#      x y z
#    x 3.736230 0.000000 0.000000 
#    y 0.000000 4.022110 0.000000 
#    z 0.000000 0.000000 4.727620 
# 
# 
# High freq. dielectric constant tensor:
#      x y z
#    x 1.848260 0.000000 0.000000 
#    y 0.000000 1.857290 0.000000 
#    z 0.000000 0.000000 1.859350 
# 
# From -- ./inp_files/19903.got.cif
#   From: 2010.03.12/outbox.cif.g09.slc.cpg/sg53_10_cif.got.tgz:19903.got - 2010.04.16 14:36:59.
