data_PCOD8221631
_publ_section_title
;
Structure prediction by ZEFSAII (Michael W. Deem and Ramdas Pophale) SiO2 
 PCOD8221631
Probable space group: P M N A
;
_chemical_formula_sum "Si O2"
_cell_formula_units_Z 48
_cell_length_a 21.027571
_cell_length_b 5.248447
_cell_length_c 20.607870
_cell_angle_alpha 90.000000
_cell_angle_beta 90.000000
_cell_angle_gamma 90.000000
_cell_volume 2274.327643
_symmetry_space_group_name_H-M "P M N A"
_symmetry_group_IT_number 53
_symmetry_cell_setting 'orthorhombic'
loop_
_space_group_symop_operation_xyz
x,y,z
1/2-x,-y,1/2+z
x,-y,-z
1/2-x,y,1/2-z
-x,-y,-z
1/2+x,y,1/2-z
-x,y,z
1/2+x,-y,1/2+z
loop_
_atom_site_type_symbol
_atom_site_label
_atom_site_fract_x
_atom_site_fract_y
_atom_site_fract_z
Si Si1 0.786982 0.351296 0.317488
Si Si2 0.000000 0.940815 0.277343
Si Si3 0.500000 0.556915 0.690017
Si Si4 0.611077 0.743401 0.347586
Si Si5 0.196376 0.540802 0.930305
Si Si6 0.136504 0.156869 0.701401
Si Si7 0.431343 0.840431 0.564237
O O1 0.750000 0.397930 0.250000
O O2 0.741020 0.315527 0.379310
O O3 0.834790 0.588096 0.331213
O O4 0.823530 0.087703 0.317191
O O5 0.000000 0.218736 0.242707
O O6 0.000000 0.722371 0.223534
O O7 0.063441 0.899899 0.320803
O O8 0.568793 0.525404 0.652204
O O9 0.672449 0.716340 0.394693
O O10 0.639742 0.806059 0.278149
O O11 0.570486 0.979933 0.372368
O O12 0.131624 0.683390 0.948004
O O13 0.231615 0.500000 0.000000
O O14 0.500000 0.690170 0.576520
O O15 0.441345 0.000000 0.500000
#
# Coordination Sequence:
#
# PCOD8221631 Si02
#       7
#     8   4   4   8   8   8   8
#     4  12  25  43  66  93 131 174 221 264 331 394
#     4  10  22  40  64  99 129 154 212 274 340 389
#     4  10  22  34  58  91 130 166 209 268 316 371
#     4  11  22  38  57  88 124 171 220 264 323 377
#     4  12  27  41  61  90 130 181 227 279 323 393
#     4  11  24  42  67  97 124 168 211 275 332 398
#     4  11  24  39  58  86 126 182 234 274 313 370
#
# _framework density 21.105138
#
# number of rings (size 3 to 8) (size 9 to 14) (size 15 to 20)
#    0.000    0.833    4.167    3.500    8.167    0.333 
#    0.000    0.000    0.000    0.000    0.000    3.500 
#    0.000    0.000    0.000    0.000    0.000    0.000 
#
# Total GULP energy -594799.247424 kJ/mol
# GULP energy per Si atom -12391.650988 kJ/mol
# Density = 2.105710 g / cm^3
# Si number density = 21.105138 Si / 1000 Ang^3
#
#
#
# Elastic Constant Matrix: (Units=GPa)
#
#
# Indices 1 2 3 4 5 6 
#
# 1 105.8380 32.2874 55.1249 0.0000 0.0000 0.0000
# 2 32.2874 104.2451 22.9564 0.0000 0.0000 0.0000
# 3 55.1249 22.9564 99.8913 0.0000 0.0000 0.0000
# 4 0.0000 0.0000 0.0000 18.9309 0.0000 0.0000
# 5 0.0000 0.0000 0.0000 0.0000 18.6475 0.0000
# 6 0.0000 0.0000 0.0000 0.0000 0.0000 23.3968
#
#
#
# Elastic Compliance Matrix: (Units=1/GPa)
#
#
# Indices 1 2 3 4 5 6 
#
# 1 0.013980 -0.002771 -0.007078 0.000000 0.000000 0.000000
# 2 -0.002771 0.010654 -0.000919 0.000000 0.000000 0.000000
# 3 -0.007078 -0.000919 0.014128 0.000000 0.000000 0.000000
# 4 0.000000 0.000000 0.000000 0.052824 0.000000 0.000000
# 5 0.000000 0.000000 0.000000 0.000000 0.053626 0.000000
# 6 0.000000 0.000000 0.000000 0.000000 0.000000 0.042741
#
#
# Mechanical properties :
#
#
# Convention : Reuss Voigt Hill
#
# Bulk Modulus (GPa) = 58.05483 58.96797 58.51140
# Shear Modulus (GPa) = 23.23077 25.50210 24.36643
#
# Velocity S-wave (km/s) = 3.32130 3.47988 3.40152
# Velocity P-wave (km/s) = 6.50194 6.64431 6.57351
#
# Compressibility (1/GPa) = 0.01722510
#
# Stress axis : x y z
#
# Youngs Moduli (GPa) = 71.52827 93.86576 70.78056
#
# Poissons Ratio (x) = 0.26014 0.50100
# Poissons Ratio (y) = 0.19823 0.06504
# Poissons Ratio (z) = 0.50629 0.08626
#
# Static dielectric constant tensor:
#      x y z
#    x 4.507270 0.000000 0.000000 
#    y 0.000000 4.136260 0.000000 
#    z 0.000000 0.000000 3.745480 
# 
# 
# High freq. dielectric constant tensor:
#      x y z
#    x 1.832630 0.000000 0.000000 
#    y 0.000000 1.844740 0.000000 
#    z 0.000000 0.000000 1.791560 
# 
# From -- ./inp_files/32984.got.cif
#   From: 2010.03.12/outbox.cif.g09.slc.cpg/sg53_17_cif.got.tgz:32984.got - 2010.04.16 14:36:59.
