data_PCOD8221924
_publ_section_title
;
Structure prediction by ZEFSAII (Michael W. Deem and Ramdas Pophale) SiO2 
 PCOD8221924
Probable space group: P M N A
;
_chemical_formula_sum "Si O2"
_cell_formula_units_Z 20
_cell_length_a 28.454299
_cell_length_b 5.149877
_cell_length_c 5.253737
_cell_angle_alpha 90.000000
_cell_angle_beta 90.000000
_cell_angle_gamma 90.000000
_cell_volume 769.862340
_symmetry_space_group_name_H-M "P M N A"
_symmetry_group_IT_number 53
_symmetry_cell_setting 'orthorhombic'
loop_
_space_group_symop_operation_xyz
x,y,z
1/2-x,-y,1/2+z
x,-y,-z
1/2-x,y,1/2-z
-x,-y,-z
1/2+x,y,1/2-z
-x,y,z
1/2+x,-y,1/2+z
loop_
_atom_site_type_symbol
_atom_site_label
_atom_site_fract_x
_atom_site_fract_y
_atom_site_fract_z
Si Si1 0.173957 0.000000 0.000000
Si Si2 0.750000 0.673280 0.750000
Si Si3 0.500000 0.250943 0.828920
Si Si4 0.101035 0.251072 0.674199
O O1 0.205370 0.861489 0.785182
O O2 0.141816 0.229482 0.883406
O O3 0.758797 0.500000 0.500000
O O4 0.450141 0.259538 0.677087
O O5 0.500000 0.500000 0.000000
O O6 0.500000 0.000000 0.000000
O O7 0.110042 0.500000 0.500000
O O8 0.103114 0.000000 0.500000
#
# Coordination Sequence:
#
# PCOD8221924 Si02
#       4
#     4   4   4   8
#     4  12  30  47  76 116 146 213 268 330 404 478
#     4  12  32  54  80 110 162 206 272 344 416 474
#     4   8  16  39  66 107 155 200 244 314 382 464
#     4  10  24  43  75 112 157 202 259 317 391 473
#
# _framework density 25.978670000000001
#
# number of rings (size 3 to 8) (size 9 to 14) (size 15 to 20)
#    0.000    1.600    0.000    1.200   14.000    0.800 
#    0.000    0.000    0.000   14.400    0.000    4.200 
#    0.000    0.000    0.000    0.000    0.000    0.000 
#
# Total GULP energy -247845.104961 kJ/mol
# GULP energy per Si atom -12392.255248 kJ/mol
# Density = 2.591954 g / cm^3
# Si number density = 25.978670 Si / 1000 Ang^3
#
#
#
# Elastic Constant Matrix: (Units=GPa)
#
#
# Indices 1 2 3 4 5 6 
#
# 1 264.7567 68.3352 78.7756 0.0000 0.0000 0.0000
# 2 68.3352 181.1764 53.5212 0.0000 0.0000 0.0000
# 3 78.7756 53.5212 111.5635 0.0000 0.0000 0.0000
# 4 0.0000 0.0000 0.0000 50.5598 0.0000 0.0000
# 5 0.0000 0.0000 0.0000 0.0000 -486.5063 0.0000
# 6 0.0000 0.0000 0.0000 0.0000 0.0000 360.0785
#
#
#
# Elastic Compliance Matrix: (Units=1/GPa)
#
#
# Indices 1 2 3 4 5 6 
#
# 1 0.004923 -0.000967 -0.003012 0.000000 0.000000 0.000000
# 2 -0.000967 0.006621 -0.002493 0.000000 0.000000 0.000000
# 3 -0.003012 -0.002493 0.012287 0.000000 0.000000 0.000000
# 4 0.000000 0.000000 0.000000 0.019779 0.000000 0.000000
# 5 0.000000 0.000000 0.000000 0.000000 -0.002055 0.000000
# 6 0.000000 0.000000 0.000000 0.000000 0.000000 0.002777
#
#
# Mechanical properties :
#
#
# Convention : Reuss Voigt Hill
#
# Bulk Modulus (GPa) = 91.86886 106.52897 99.19892
# Shear Modulus (GPa) = 82.09622 8.61737 45.35680
#
# Velocity S-wave (km/s) = 5.62761 1.82327 4.18296
# Velocity P-wave (km/s) = 8.81287 6.74742 7.84839
#
# Compressibility (1/GPa) = 0.01088508
#
# Stress axis : x y z
#
# Youngs Moduli (GPa) = 203.13337 151.03940 81.38918
#
# Poissons Ratio (x) = 0.14605 0.24516
# Poissons Ratio (y) = 0.19642 0.20294
# Poissons Ratio (z) = 0.61188 0.37661
#
# Static dielectric constant tensor:
#      x y z
#    x 6.031840 0.000000 0.000000 
#    y 0.000000 4.720570 0.000000 
#    z 0.000000 0.000000 4.285390 
# 
# 
# High freq. dielectric constant tensor:
#      x y z
#    x 2.076560 0.000000 0.000000 
#    y 0.000000 2.068680 0.000000 
#    z 0.000000 0.000000 1.996980 
# 
# From -- ./inp_files/3988.got.cif
#   From: 2010.03.12/outbox.cif.g09.slc.cpg/sg53_2_cif.got.tgz:3988.got - 2010.04.16 14:36:59.
