data_PCOD8221910
_publ_section_title
;
Structure prediction by ZEFSAII (Michael W. Deem and Ramdas Pophale) SiO2 
 PCOD8221910
Probable space group: P M N A
;
_chemical_formula_sum "Si O2"
_cell_formula_units_Z 32
_cell_length_a 26.400742
_cell_length_b 4.840861
_cell_length_c 11.243035
_cell_angle_alpha 90.000000
_cell_angle_beta 90.000000
_cell_angle_gamma 90.000000
_cell_volume 1436.885983
_symmetry_space_group_name_H-M "P M N A"
_symmetry_group_IT_number 53
_symmetry_cell_setting 'orthorhombic'
loop_
_space_group_symop_operation_xyz
x,y,z
1/2-x,-y,1/2+z
x,-y,-z
1/2-x,y,1/2-z
-x,-y,-z
1/2+x,y,1/2-z
-x,y,z
1/2+x,-y,1/2+z
loop_
_atom_site_type_symbol
_atom_site_label
_atom_site_fract_x
_atom_site_fract_y
_atom_site_fract_z
Si Si1 0.668794 0.254708 0.081862
Si Si2 0.750000 0.987942 0.250000
Si Si3 0.106257 0.295957 0.206863
Si Si4 0.840554 0.807416 0.115547
Si Si5 0.500000 0.256272 0.410217
O O1 0.714529 0.182124 0.170677
O O2 0.620812 0.379500 0.157693
O O3 0.689600 0.500000 0.000000
O O4 0.651793 0.000000 0.000000
O O5 0.782894 0.791117 0.162621
O O6 0.125474 0.979600 0.207446
O O7 0.047255 0.281883 0.178178
O O8 0.135762 0.497617 0.111336
O O9 0.845048 0.000000 0.000000
O O10 0.500000 0.500000 0.500000
O O11 0.500000 0.000000 0.500000
#
# Coordination Sequence:
#
# PCOD8221910 Si02
#       5
#     8   4   8   8   4
#     4  11  24  42  63  91 132 176 215 267 321 379
#     4  10  24  38  62  92 122 166 218 256 306 378
#     4  11  24  41  62  93 125 162 210 259 319 387
#     4  11  22  38  60  89 127 163 202 256 316 379
#     4  12  24  42  70  98 126 162 208 272 335 384
#
# _framework density 22.270379999999999
#
# number of rings (size 3 to 8) (size 9 to 14) (size 15 to 20)
#    0.000    1.000    0.000    8.250    0.000   13.000 
#    0.000    1.250    0.000    0.000    0.000    0.000 
#    0.000    0.000    0.000    0.000    0.000    0.000 
#
# Total GULP energy -396476.850520 kJ/mol
# GULP energy per Si atom -12389.901579 kJ/mol
# Density = 2.221969 g / cm^3
# Si number density = 22.270380 Si / 1000 Ang^3
#
#
#
# Elastic Constant Matrix: (Units=GPa)
#
#
# Indices 1 2 3 4 5 6 
#
# 1 172.8044 40.7703 59.3764 0.0000 0.0000 0.0000
# 2 40.7703 114.0748 28.6607 0.0000 0.0000 0.0000
# 3 59.3764 28.6607 118.3111 0.0000 0.0000 0.0000
# 4 0.0000 0.0000 0.0000 27.8567 0.0000 0.0000
# 5 0.0000 0.0000 0.0000 0.0000 27.7369 0.0000
# 6 0.0000 0.0000 0.0000 0.0000 0.0000 23.2578
#
#
#
# Elastic Compliance Matrix: (Units=1/GPa)
#
#
# Indices 1 2 3 4 5 6 
#
# 1 0.007326 -0.001804 -0.003239 0.000000 0.000000 0.000000
# 2 -0.001804 0.009779 -0.001463 0.000000 0.000000 0.000000
# 3 -0.003239 -0.001463 0.010433 0.000000 0.000000 0.000000
# 4 0.000000 0.000000 0.000000 0.035898 0.000000 0.000000
# 5 0.000000 0.000000 0.000000 0.000000 0.036053 0.000000
# 6 0.000000 0.000000 0.000000 0.000000 0.000000 0.042996
#
#
# Mechanical properties :
#
#
# Convention : Reuss Voigt Hill
#
# Bulk Modulus (GPa) = 68.85748 73.64502 71.25125
# Shear Modulus (GPa) = 31.18386 34.19580 32.68983
#
# Velocity S-wave (km/s) = 3.74604 3.92278 3.83542
# Velocity P-wave (km/s) = 7.04957 7.32516 7.18868
#
# Compressibility (1/GPa) = 0.01452275
#
# Stress axis : x y z
#
# Youngs Moduli (GPa) = 136.50639 102.26318 95.85383
#
# Poissons Ratio (x) = 0.18451 0.31051
# Poissons Ratio (y) = 0.24630 0.14027
# Poissons Ratio (z) = 0.44220 0.14965
#
# Static dielectric constant tensor:
#      x y z
#    x 3.812640 0.000000 0.000000 
#    y 0.000000 4.381910 0.000000 
#    z 0.000000 0.000000 4.672420 
# 
# 
# High freq. dielectric constant tensor:
#      x y z
#    x 1.853250 0.000000 0.000000 
#    y 0.000000 1.892450 0.000000 
#    z 0.000000 0.000000 1.884490 
# 
# From -- ./inp_files/18557.got.cif
#   From: 2010.03.12/outbox.cif.g09.slc.cpg/sg53_10_cif.got.tgz:18557.got - 2010.04.16 14:36:59.
