data_PCOD8221041
_publ_section_title
;
Structure prediction by ZEFSAII (Michael W. Deem and Ramdas Pophale) SiO2 
 PCOD8221041
Probable space group: P M N A
;
_chemical_formula_sum "Si O2"
_cell_formula_units_Z 40
_cell_length_a 16.876343
_cell_length_b 9.071344
_cell_length_c 12.482475
_cell_angle_alpha 90.000000
_cell_angle_beta 90.000000
_cell_angle_gamma 90.000000
_cell_volume 1910.955988
_symmetry_space_group_name_H-M "P M N A"
_symmetry_group_IT_number 53
_symmetry_cell_setting 'orthorhombic'
loop_
_space_group_symop_operation_xyz
x,y,z
1/2-x,-y,1/2+z
x,-y,-z
1/2-x,y,1/2-z
-x,-y,-z
1/2+x,y,1/2-z
-x,y,z
1/2+x,-y,1/2+z
loop_
_atom_site_type_symbol
_atom_site_label
_atom_site_fract_x
_atom_site_fract_y
_atom_site_fract_z
Si Si1 0.591980 0.865574 0.627047
Si Si2 0.163619 0.173268 0.906514
Si Si3 0.844908 0.834628 0.472114
Si Si4 0.407583 0.330015 0.170971
Si Si5 0.909530 0.338136 0.719357
O O1 0.500000 0.907613 0.630771
O O2 0.612621 0.793307 0.512703
O O3 0.614996 0.750611 0.718793
O O4 0.641984 0.014428 0.643495
O O5 0.255378 0.174158 0.933316
O O6 0.145950 0.297897 0.819388
O O7 0.854444 0.735076 0.576853
O O8 0.900895 0.776697 0.377586
O O9 0.871252 0.000000 0.500000
O O10 0.500000 0.309500 0.142854
O O11 0.384403 0.500497 0.180264
O O12 0.000000 0.336063 0.758941
#
# Coordination Sequence:
#
# PCOD8221041 Si02
#       5
#     8   8   8   8   8
#     4  10  20  41  70  94 123 168 213 258 309 374
#     4  11  22  41  61  99 129 164 207 261 318 373
#     4  12  24  42  63  95 131 165 209 260 322 374
#     4  10  24  44  66  93 126 168 215 261 311 376
#     4  11  24  44  67  92 127 169 216 262 309 377
#
# _framework density 20.931930000000001
#
# number of rings (size 3 to 8) (size 9 to 14) (size 15 to 20)
#    0.000    1.200    2.000    5.400    0.000    6.400 
#   10.800    3.000    0.000    0.000    0.000    0.000 
#    0.000    0.000    0.000    0.000    0.000    0.000 
#
# Total GULP energy -496275.927073 kJ/mol
# GULP energy per Si atom -12406.898177 kJ/mol
# Density = 2.088429 g / cm^3
# Si number density = 20.931930 Si / 1000 Ang^3
#
#
#
# Elastic Constant Matrix: (Units=GPa)
#
#
# Indices 1 2 3 4 5 6 
#
# 1 63.7103 57.8409 28.8044 0.0000 0.0000 0.0000
# 2 57.8409 135.4060 69.7027 0.0000 0.0000 0.0000
# 3 28.8044 69.7027 115.6389 0.0000 0.0000 0.0000
# 4 0.0000 0.0000 0.0000 34.2872 0.0000 0.0000
# 5 0.0000 0.0000 0.0000 0.0000 -25.0147 0.0000
# 6 0.0000 0.0000 0.0000 0.0000 0.0000 14.5730
#
#
#
# Elastic Compliance Matrix: (Units=1/GPa)
#
#
# Indices 1 2 3 4 5 6 
#
# 1 0.025647 -0.011116 0.000312 0.000000 0.000000 0.000000
# 2 -0.011116 0.015526 -0.006589 0.000000 0.000000 0.000000
# 3 0.000312 -0.006589 0.012542 0.000000 0.000000 0.000000
# 4 0.000000 0.000000 0.000000 0.029165 0.000000 0.000000
# 5 0.000000 0.000000 0.000000 0.000000 -0.039977 0.000000
# 6 0.000000 0.000000 0.000000 0.000000 0.000000 0.068620
#
#
# Mechanical properties :
#
#
# Convention : Reuss Voigt Hill
#
# Bulk Modulus (GPa) = 52.83355 69.71677 61.27516
# Shear Modulus (GPa) = 32.76124 15.32959 24.04541
#
# Velocity S-wave (km/s) = 3.96047 2.70914 3.39299
# Velocity P-wave (km/s) = 6.79773 6.56998 6.68483
#
# Compressibility (1/GPa) = 0.01892737
#
# Stress axis : x y z
#
# Youngs Moduli (GPa) = 38.99085 64.40966 79.73403
#
# Poissons Ratio (x) = 0.71599 -0.02488
# Poissons Ratio (y) = 0.43343 0.52539
# Poissons Ratio (z) = -0.01216 0.42442
#
# Static dielectric constant tensor:
#      x y z
#    x 3.751100 0.000000 0.000000 
#    y 0.000000 3.879580 0.000000 
#    z 0.000000 0.000000 4.005740 
# 
# 
# High freq. dielectric constant tensor:
#      x y z
#    x 1.821280 0.000000 0.000000 
#    y 0.000000 1.820570 0.000000 
#    z 0.000000 0.000000 1.834790 
# 
# From -- ./inp_files/16663.got.cif
#   From: 2010.03.12/outbox.cif.g09.slc.cpg/sg53_9_cif.got.tgz:16663.got - 2010.04.16 14:36:59.
