data_PCOD8221883
_publ_section_title
;
Structure prediction by ZEFSAII (Michael W. Deem and Ramdas Pophale) SiO2 
 PCOD8221883
Probable space group: P M N A
;
_chemical_formula_sum "Si O2"
_cell_formula_units_Z 56
_cell_length_a 9.261582
_cell_length_b 19.753368
_cell_length_c 15.505774
_cell_angle_alpha 90.000000
_cell_angle_beta 90.000000
_cell_angle_gamma 90.000000
_cell_volume 2836.741620
_symmetry_space_group_name_H-M "P M N A"
_symmetry_group_IT_number 53
_symmetry_cell_setting 'orthorhombic'
loop_
_space_group_symop_operation_xyz
x,y,z
1/2-x,-y,1/2+z
x,-y,-z
1/2-x,y,1/2-z
-x,-y,-z
1/2+x,y,1/2-z
-x,y,z
1/2+x,-y,1/2+z
loop_
_atom_site_type_symbol
_atom_site_label
_atom_site_fract_x
_atom_site_fract_y
_atom_site_fract_z
Si Si1 0.667008 0.881215 0.327337
Si Si2 0.339313 0.419818 0.501582
Si Si3 0.161436 0.392460 0.669729
Si Si4 0.836576 0.784182 0.563500
Si Si5 0.658690 0.242312 0.867187
Si Si6 0.660420 0.921243 0.016517
Si Si7 0.671361 0.327658 0.339585
O O1 0.750000 0.919649 0.250000
O O2 0.500000 0.888804 0.312480
O O3 0.715175 0.802784 0.326340
O O4 0.712481 0.914400 0.415853
O O5 0.341797 0.500000 0.500000
O O6 0.500000 0.392350 0.523994
O O7 0.229971 0.402744 0.576932
O O8 0.290287 0.385878 0.410662
O O9 0.250000 0.425029 0.750000
O O10 0.158047 0.312450 0.682752
O O11 0.000000 0.423530 0.671135
O O12 0.811830 0.750915 0.469551
O O13 0.805877 0.866376 0.559982
O O14 0.728464 0.746012 0.628728
O O15 0.000000 0.771175 0.595790
O O16 0.500000 0.208063 0.854431
O O17 0.500000 0.901454 0.051196
O O18 0.662141 0.000000 0.000000
O O19 0.750000 0.347621 0.250000
O O20 0.500000 0.323096 0.324066
#
# Coordination Sequence:
#
# PCOD8221883 Si02
#       7
#     8   8   8   8   8   8   8
#     4  11  21  32  50  77 110 145 185 230 277 336
#     4  10  23  43  63  86 119 157 200 251 307 366
#     4  11  22  36  57  86 119 154 191 235 289 353
#     4   9  17  34  59  86 116 148 190 241 291 350
#     4   9  18  33  54  81 113 147 182 226 282 341
#     4   9  19  37  59  82 113 153 191 235 297 358
#     4  11  23  39  63  90 119 158 205 257 308 363
#
# _framework density 19.740960000000001
#
# number of rings (size 3 to 8) (size 9 to 14) (size 15 to 20)
#    0.000    2.000    1.429    3.429    0.000    6.286 
#    0.000    2.143    0.000    0.000    0.000    0.000 
#    0.000    0.000    0.000    0.000    0.000    0.000 
#
# Total GULP energy -693759.537871 kJ/mol
# GULP energy per Si atom -12388.563176 kJ/mol
# Density = 1.969603 g / cm^3
# Si number density = 19.740960 Si / 1000 Ang^3
#
#
#
# Elastic Constant Matrix: (Units=GPa)
#
#
# Indices 1 2 3 4 5 6 
#
# 1 156.2926 33.0811 74.8554 0.0000 0.0000 0.0000
# 2 33.0811 80.8900 31.8565 0.0000 0.0000 0.0000
# 3 74.8554 31.8565 117.4406 0.0000 0.0000 0.0000
# 4 0.0000 0.0000 0.0000 9.0192 0.0000 0.0000
# 5 0.0000 0.0000 0.0000 0.0000 44.0659 0.0000
# 6 0.0000 0.0000 0.0000 0.0000 0.0000 16.9275
#
#
#
# Elastic Compliance Matrix: (Units=1/GPa)
#
#
# Indices 1 2 3 4 5 6 
#
# 1 0.009405 -0.001663 -0.005544 0.000000 0.000000 0.000000
# 2 -0.001663 0.014135 -0.002774 0.000000 0.000000 0.000000
# 3 -0.005544 -0.002774 0.012801 0.000000 0.000000 0.000000
# 4 0.000000 0.000000 0.000000 0.110874 0.000000 0.000000
# 5 0.000000 0.000000 0.000000 0.000000 0.022693 0.000000
# 6 0.000000 0.000000 0.000000 0.000000 0.000000 0.059075
#
#
# Mechanical properties :
#
#
# Convention : Reuss Voigt Hill
#
# Bulk Modulus (GPa) = 61.05245 70.46770 65.76008
# Shear Modulus (GPa) = 19.65360 28.32454 23.98907
#
# Velocity S-wave (km/s) = 3.15870 3.79200 3.48974
# Velocity P-wave (km/s) = 6.65560 7.41256 7.04426
#
# Compressibility (1/GPa) = 0.01637936
#
# Stress axis : x y z
#
# Youngs Moduli (GPa) = 106.32128 70.74540 78.11897
#
# Poissons Ratio (x) = 0.11766 0.43307
# Poissons Ratio (y) = 0.17684 0.21671
# Poissons Ratio (z) = 0.58942 0.19626
#
# Static dielectric constant tensor:
#      x y z
#    x 3.770110 0.000000 0.000000 
#    y 0.000000 3.718610 0.000000 
#    z 0.000000 0.000000 3.643210 
# 
# 
# High freq. dielectric constant tensor:
#      x y z
#    x 1.775350 0.000000 0.000000 
#    y 0.000000 1.752690 0.000000 
#    z 0.000000 0.000000 1.761360 
# 
# From -- ./inp_files/20487.got.cif
#   From: 2010.03.12/outbox.cif.g09.slc.cpg/sg53_11_cif.got.tgz:20487.got - 2010.04.16 14:36:59.
