data_PCOD8221551
_publ_section_title
;
Structure prediction by ZEFSAII (Michael W. Deem and Ramdas Pophale) SiO2 
 PCOD8221551
Probable space group: P M N A
;
_chemical_formula_sum "Si O2"
_cell_formula_units_Z 64
_cell_length_a 14.238765
_cell_length_b 9.533849
_cell_length_c 25.782134
_cell_angle_alpha 90.000000
_cell_angle_beta 90.000000
_cell_angle_gamma 90.000000
_cell_volume 3499.930761
_symmetry_space_group_name_H-M "P M N A"
_symmetry_group_IT_number 53
_symmetry_cell_setting 'orthorhombic'
loop_
_space_group_symop_operation_xyz
x,y,z
1/2-x,-y,1/2+z
x,-y,-z
1/2-x,y,1/2-z
-x,-y,-z
1/2+x,y,1/2-z
-x,y,z
1/2+x,-y,1/2+z
loop_
_atom_site_type_symbol
_atom_site_label
_atom_site_fract_x
_atom_site_fract_y
_atom_site_fract_z
Si Si1 0.108531 0.014089 0.834671
Si Si2 0.725724 0.515254 0.862061
Si Si3 0.897451 0.612025 0.543785
Si Si4 0.107422 0.308673 0.285116
Si Si5 0.105930 0.692931 0.836439
Si Si6 0.891068 0.854262 0.472300
Si Si7 0.722985 0.814677 0.132762
Si Si8 0.609711 0.008536 0.785565
O O1 0.127643 0.853748 0.851388
O O2 0.135104 0.034779 0.774351
O O3 0.000000 0.054045 0.844432
O O4 0.173768 0.115322 0.869178
O O5 0.671420 0.552930 0.913749
O O6 0.672201 0.577970 0.812729
O O7 0.827848 0.585745 0.867154
O O8 0.734471 0.349324 0.855832
O O9 0.912901 0.500000 0.500000
O O10 0.853895 0.747580 0.515964
O O11 0.000000 0.647039 0.568789
O O12 0.121648 0.328138 0.224394
O O13 0.137442 0.150722 0.301481
O O14 0.000000 0.335899 0.300954
O O15 0.000000 0.654630 0.852124
O O16 0.829117 0.843038 0.421008
O O17 0.000000 0.824469 0.457498
O O18 0.877423 0.000000 0.500000
O O19 0.664817 0.882016 0.179522
O O20 0.500000 0.031826 0.794863
#
# Coordination Sequence:
#
# PCOD8221551 Si02
#       8
#     8   8   8   8   8   8   8   8
#     4   9  20  39  58  77 107 148 188 228 272 315
#     4  12  23  33  55  85 112 146 182 219 275 332
#     4  10  21  40  58  77 113 148 173 212 271 331
#     4   9  19  35  55  81 112 148 187 222 262 320
#     4   9  20  39  58  78 108 146 190 230 263 315
#     4  10  23  40  58  83 111 140 178 224 271 322
#     4  12  23  34  54  85 115 142 180 226 275 330
#     4   9  19  35  55  80 112 148 185 224 266 318
#
# _framework density 18.286076999999999
#
# number of rings (size 3 to 8) (size 9 to 14) (size 15 to 20)
#    0.000    2.000    1.250    3.750    3.500    6.000 
#    0.000    2.500    0.000    1.500    0.000    0.000 
#    0.000    0.000    0.000    0.000    0.000    0.000 
#
# Total GULP energy -793568.235298 kJ/mol
# GULP energy per Si atom -12399.503677 kJ/mol
# Density = 1.824446 g / cm^3
# Si number density = 18.286077 Si / 1000 Ang^3
#
#
#
# Elastic Constant Matrix: (Units=GPa)
#
#
# Indices 1 2 3 4 5 6 
#
# 1 107.6656 66.7769 47.0371 0.0000 0.0000 0.0000
# 2 66.7769 133.2869 44.1025 0.0000 0.0000 0.0000
# 3 47.0371 44.1025 47.7966 0.0000 0.0000 0.0000
# 4 0.0000 0.0000 0.0000 26.2823 0.0000 0.0000
# 5 0.0000 0.0000 0.0000 0.0000 -17.6250 0.0000
# 6 0.0000 0.0000 0.0000 0.0000 0.0000 -0.9251
#
#
#
# Elastic Compliance Matrix: (Units=1/GPa)
#
#
# Indices 1 2 3 4 5 6 
#
# 1 0.018026 -0.004551 -0.013541 0.000000 0.000000 0.000000
# 2 -0.004551 0.011949 -0.006547 0.000000 0.000000 0.000000
# 3 -0.013541 -0.006547 0.040289 0.000000 0.000000 0.000000
# 4 0.000000 0.000000 0.000000 0.038048 0.000000 0.000000
# 5 0.000000 0.000000 0.000000 0.000000 -0.056738 0.000000
# 6 0.000000 0.000000 0.000000 0.000000 0.000000 -1.081002
#
#
# Mechanical properties :
#
#
# Convention : Reuss Voigt Hill
#
# Bulk Modulus (GPa) = 47.64909 67.17580 57.41244
# Shear Modulus (GPa) = -5.13793 10.26862 2.56535
#
# Velocity S-wave (km/s) = -1.67805 2.37228 1.18572
# Velocity P-wave (km/s) = 4.72860 6.65728 5.77404
#
# Compressibility (1/GPa) = 0.02098676
#
# Stress axis : x y z
#
# Youngs Moduli (GPa) = 55.47480 83.69047 24.82098
#
# Poissons Ratio (x) = 0.38085 0.33609
# Poissons Ratio (y) = 0.25245 0.16250
# Poissons Ratio (z) = 0.75117 0.54791
#
# Static dielectric constant tensor:
#      x y z
#    x 3.542370 0.000000 0.000000 
#    y 0.000000 3.506080 0.000000 
#    z 0.000000 0.000000 3.127880 
# 
# 
# High freq. dielectric constant tensor:
#      x y z
#    x 1.713750 0.000000 0.000000 
#    y 0.000000 1.714600 0.000000 
#    z 0.000000 0.000000 1.688160 
# 
# From -- ./inp_files/35365.got.cif
#   From: 2010.03.12/outbox.cif.g09.slc.cpg/sg53_18_cif.got.tgz:35365.got - 2010.04.16 14:36:59.
