data_PCOD8221009
_publ_section_title
;
Structure prediction by ZEFSAII (Michael W. Deem and Ramdas Pophale) SiO2 
 PCOD8221009
Probable space group: P M N A
;
_chemical_formula_sum "Si O2"
_cell_formula_units_Z 36
_cell_length_a 14.756361
_cell_length_b 10.355881
_cell_length_c 11.030775
_cell_angle_alpha 90.000000
_cell_angle_beta 90.000000
_cell_angle_gamma 90.000000
_cell_volume 1685.669189
_symmetry_space_group_name_H-M "P M N A"
_symmetry_group_IT_number 53
_symmetry_cell_setting 'orthorhombic'
loop_
_space_group_symop_operation_xyz
x,y,z
1/2-x,-y,1/2+z
x,-y,-z
1/2-x,y,1/2-z
-x,-y,-z
1/2+x,y,1/2-z
-x,y,z
1/2+x,-y,1/2+z
loop_
_atom_site_type_symbol
_atom_site_label
_atom_site_fract_x
_atom_site_fract_y
_atom_site_fract_z
Si Si1 0.187398 0.185141 0.394562
Si Si2 0.799923 0.435747 0.130282
Si Si3 0.500000 0.756809 0.188820
Si Si4 0.000000 0.506561 0.792178
Si Si5 0.500000 0.313968 0.083618
Si Si6 0.178333 0.901376 0.336205
O O1 0.268424 0.285623 0.365217
O O2 0.089585 0.244691 0.368318
O O3 0.200709 0.144683 0.531380
O O4 0.188631 0.055030 0.316386
O O5 0.750000 0.501525 0.250000
O O6 0.909141 0.442912 0.140591
O O7 0.769503 0.500000 0.000000
O O8 0.500000 0.649078 0.293823
O O9 0.418673 0.854523 0.205886
O O10 0.500000 0.680518 0.061178
O O11 0.000000 0.547671 0.650128
O O12 0.250000 0.830917 0.250000
#
# Coordination Sequence:
#
# PCOD8221009 Si02
#       6
#     8   8   4   4   4   8
#     4  10  22  42  67  98 133 176 229 283 347 412
#     4  12  28  45  71 102 142 184 229 287 350 413
#     4  10  24  39  66 101 135 174 232 284 345 407
#     4  12  26  42  66 101 139 188 219 289 346 411
#     4  10  20  39  68  98 132 170 233 282 340 411
#     4  10  22  40  67  96 131 176 228 289 339 407
#
# _framework density 21.356501000000002
#
# number of rings (size 3 to 8) (size 9 to 14) (size 15 to 20)
#    0.000    1.333    2.222    2.000    9.333    2.667 
#    0.000    0.000    0.000    2.667    0.000    0.000 
#    0.000    0.000    0.000    0.000    0.000    0.000 
#
# Total GULP energy -446031.941797 kJ/mol
# GULP energy per Si atom -12389.776161 kJ/mol
# Density = 2.130789 g / cm^3
# Si number density = 21.356501 Si / 1000 Ang^3
#
#
#
# Elastic Constant Matrix: (Units=GPa)
#
#
# Indices 1 2 3 4 5 6 
#
# 1 176.0977 60.5946 63.2201 0.0000 0.0000 0.0000
# 2 60.5946 130.9104 55.0065 0.0000 0.0000 0.0000
# 3 63.2201 55.0065 65.3917 0.0000 0.0000 0.0000
# 4 0.0000 0.0000 0.0000 -4.5010 0.0000 0.0000
# 5 0.0000 0.0000 0.0000 0.0000 36.2070 0.0000
# 6 0.0000 0.0000 0.0000 0.0000 0.0000 34.2366
#
#
#
# Elastic Compliance Matrix: (Units=1/GPa)
#
#
# Indices 1 2 3 4 5 6 
#
# 1 0.008747 -0.000766 -0.007812 0.000000 0.000000 0.000000
# 2 -0.000766 0.011882 -0.009254 0.000000 0.000000 0.000000
# 3 -0.007812 -0.009254 0.030629 0.000000 0.000000 0.000000
# 4 0.000000 0.000000 0.000000 -0.222175 0.000000 0.000000
# 5 0.000000 0.000000 0.000000 0.000000 0.027619 0.000000
# 6 0.000000 0.000000 0.000000 0.000000 0.000000 0.029209
#
#
# Mechanical properties :
#
#
# Convention : Reuss Voigt Hill
#
# Bulk Modulus (GPa) = 64.12839 81.11582 72.62211
# Shear Modulus (GPa) = -68.28080 26.09376 -21.09352
#
# Velocity S-wave (km/s) = -5.66050 3.49924 -3.14616
# Velocity P-wave (km/s) = 3.55373 7.37499 4.56955
#
# Compressibility (1/GPa) = 0.01559372
#
# Stress axis : x y z
#
# Youngs Moduli (GPa) = 114.32747 84.16155 32.64855
#
# Poissons Ratio (x) = 0.06449 0.25504
# Poissons Ratio (y) = 0.08760 0.30213
# Poissons Ratio (z) = 0.89310 0.77884
#
# Static dielectric constant tensor:
#      x y z
#    x 3.861000 0.000000 0.000000 
#    y 0.000000 4.007970 0.000000 
#    z 0.000000 0.000000 4.008380 
# 
# 
# High freq. dielectric constant tensor:
#      x y z
#    x 1.845280 0.000000 0.000000 
#    y 0.000000 1.837810 0.000000 
#    z 0.000000 0.000000 1.838780 
# 
# From -- ./inp_files/14703.got.cif
#   From: 2010.03.12/outbox.cif.g09.slc.cpg/sg53_8_cif.got.tgz:14703.got - 2010.04.16 14:36:59.
