data_PCOD8221507
_publ_section_title
;
Structure prediction by ZEFSAII (Michael W. Deem and Ramdas Pophale) SiO2 
 PCOD8221507
Probable space group: P M N A
;
_chemical_formula_sum "Si O2"
_cell_formula_units_Z 64
_cell_length_a 28.484957
_cell_length_b 9.047437
_cell_length_c 11.671299
_cell_angle_alpha 90.000000
_cell_angle_beta 90.000000
_cell_angle_gamma 90.000000
_cell_volume 3007.878788
_symmetry_space_group_name_H-M "P M N A"
_symmetry_group_IT_number 53
_symmetry_cell_setting 'orthorhombic'
loop_
_space_group_symop_operation_xyz
x,y,z
1/2-x,-y,1/2+z
x,-y,-z
1/2-x,y,1/2-z
-x,-y,-z
1/2+x,y,1/2-z
-x,y,z
1/2+x,-y,1/2+z
loop_
_atom_site_type_symbol
_atom_site_label
_atom_site_fract_x
_atom_site_fract_y
_atom_site_fract_z
Si Si1 0.392799 0.241012 0.556870
Si Si2 0.444837 0.429968 0.729537
Si Si3 0.696951 0.175856 0.005980
Si Si4 0.300880 0.171338 0.260515
Si Si5 0.554251 0.255738 0.167916
Si Si6 0.394372 0.936419 0.666241
Si Si7 0.208300 0.330213 0.014194
Si Si8 0.609349 0.657732 0.049728
O O1 0.422866 0.379512 0.606456
O O2 0.407330 0.186186 0.430370
O O3 0.337882 0.284308 0.557283
O O4 0.406664 0.103275 0.636869
O O5 0.500000 0.392442 0.731889
O O6 0.435964 0.603825 0.749497
O O7 0.418225 0.344682 0.830876
O O8 0.684495 0.230651 0.135401
O O9 0.748010 0.233930 0.966920
O O10 0.655880 0.244003 0.927687
O O11 0.696650 0.000000 0.000000
O O12 0.250000 0.090781 0.250000
O O13 0.338551 0.057502 0.310333
O O14 0.297908 0.307581 0.349093
O O15 0.500000 0.225666 0.154221
O O16 0.577484 0.110267 0.221607
O O17 0.574153 0.271360 0.041242
O O18 0.220421 0.500000 0.000000
O O19 0.625346 0.500000 0.000000
#
# Coordination Sequence:
#
# PCOD8221507 Si02
#       8
#     8   8   8   8   8   8   8   8
#     4  10  24  38  62  89 124 160 205 262 306 367
#     4  10  23  41  61  90 123 160 210 266 322 373
#     4  11  23  38  63  95 128 167 212 255 312 377
#     4   9  20  37  64  82 123 166 205 253 311 364
#     4  10  21  39  66  91 118 164 212 258 320 381
#     4  10  21  40  60  88 121 161 207 250 315 372
#     4  10  23  41  65  92 127 167 215 253 314 376
#     4  10  21  39  63  89 128 162 207 262 314 373
#
# _framework density 21.277450999999999
#
# number of rings (size 3 to 8) (size 9 to 14) (size 15 to 20)
#    0.000    2.000    1.250    0.750   10.500    2.500 
#    0.000    3.125    0.000    2.250    0.000    0.000 
#    0.000    0.000    0.000    0.000    0.000    0.000 
#
# Total GULP energy -793382.911820 kJ/mol
# GULP energy per Si atom -12396.607997 kJ/mol
# Density = 2.122902 g / cm^3
# Si number density = 21.277451 Si / 1000 Ang^3
#
#
#
# Elastic Constant Matrix: (Units=GPa)
#
#
# Indices 1 2 3 4 5 6 
#
# 1 126.9036 44.8634 32.5226 0.0000 0.0000 0.0000
# 2 44.8634 77.2818 18.2879 0.0000 0.0000 0.0000
# 3 32.5226 18.2879 61.1687 0.0000 0.0000 0.0000
# 4 0.0000 0.0000 0.0000 21.1915 0.0000 0.0000
# 5 0.0000 0.0000 0.0000 0.0000 35.5136 0.0000
# 6 0.0000 0.0000 0.0000 0.0000 0.0000 16.7226
#
#
#
# Elastic Compliance Matrix: (Units=1/GPa)
#
#
# Indices 1 2 3 4 5 6 
#
# 1 0.010821 -0.005295 -0.004170 0.000000 0.000000 0.000000
# 2 -0.005295 0.016516 -0.002123 0.000000 0.000000 0.000000
# 3 -0.004170 -0.002123 0.019200 0.000000 0.000000 0.000000
# 4 0.000000 0.000000 0.000000 0.047189 0.000000 0.000000
# 5 0.000000 0.000000 0.000000 0.000000 0.028158 0.000000
# 6 0.000000 0.000000 0.000000 0.000000 0.000000 0.059799
#
#
# Mechanical properties :
#
#
# Convention : Reuss Voigt Hill
#
# Bulk Modulus (GPa) = 42.80591 50.74464 46.77527
# Shear Modulus (GPa) = 23.51344 25.99756 24.75550
#
# Velocity S-wave (km/s) = 3.32789 3.49927 3.41466
# Velocity P-wave (km/s) = 5.91000 6.34250 6.13007
#
# Compressibility (1/GPa) = 0.02336126
#
# Stress axis : x y z
#
# Youngs Moduli (GPa) = 92.41711 60.54882 52.08316
#
# Poissons Ratio (x) = 0.32059 0.21719
# Poissons Ratio (y) = 0.48932 0.11055
# Poissons Ratio (z) = 0.38539 0.12852
#
# Static dielectric constant tensor:
#      x y z
#    x 3.894120 0.000000 0.000000 
#    y 0.000000 3.589520 0.000000 
#    z 0.000000 0.000000 3.924470 
# 
# 
# High freq. dielectric constant tensor:
#      x y z
#    x 1.842130 0.000000 0.000000 
#    y 0.000000 1.818650 0.000000 
#    z 0.000000 0.000000 1.831890 
# 
# From -- ./inp_files/19040.got.cif
#   From: 2010.03.12/outbox.cif.g09.slc.cpg/sg53_10_cif.got.tgz:19040.got - 2010.04.16 14:36:59.
