data_PCOD8221627
_publ_section_title
;
Structure prediction by ZEFSAII (Michael W. Deem and Ramdas Pophale) SiO2 
 PCOD8221627
Probable space group: P M N A
;
_chemical_formula_sum "Si O2"
_cell_formula_units_Z 20
_cell_length_a 27.783850
_cell_length_b 5.189336
_cell_length_c 5.307586
_cell_angle_alpha 90.000000
_cell_angle_beta 90.000000
_cell_angle_gamma 90.000000
_cell_volume 765.246332
_symmetry_space_group_name_H-M "P M N A"
_symmetry_group_IT_number 53
_symmetry_cell_setting 'orthorhombic'
loop_
_space_group_symop_operation_xyz
x,y,z
1/2-x,-y,1/2+z
x,-y,-z
1/2-x,y,1/2-z
-x,-y,-z
1/2+x,y,1/2-z
-x,y,z
1/2+x,-y,1/2+z
loop_
_atom_site_type_symbol
_atom_site_label
_atom_site_fract_x
_atom_site_fract_y
_atom_site_fract_z
Si Si1 0.250000 0.328829 0.750000
Si Si2 0.897245 0.738059 0.656852
Si Si3 0.000000 0.166136 0.248962
Si Si4 0.327117 0.000000 0.500000
O O1 0.241631 0.500000 0.500000
O O2 0.204645 0.139138 0.786080
O O3 0.876560 0.500000 0.500000
O O4 0.951104 0.663698 0.754797
O O5 0.899293 0.000000 0.500000
O O6 0.860594 0.775862 0.886252
O O7 0.000000 0.000000 0.500000
O O8 0.000000 0.000000 0.000000
#
# Coordination Sequence:
#
# PCOD8221627 Si02
#       4
#     4   8   4   4
#     4  12  32  54  84 114 168 214 284 358 430 498
#     4  11  27  48  82 122 167 217 275 339 415 501
#     4  10  21  50  78 121 169 217 268 337 407 496
#     4  12  30  51  80 122 158 221 284 346 430 500
#
# _framework density 26.135375
#
# number of rings (size 3 to 8) (size 9 to 14) (size 15 to 20)
#    0.000    0.800    2.000    1.800   14.000    0.000 
#    0.000    4.000    0.000    0.000    0.000    1.400 
#    0.000    0.000    0.000    0.000    0.000    0.000 
#
# Total GULP energy -248054.186733 kJ/mol
# GULP energy per Si atom -12402.709337 kJ/mol
# Density = 2.607589 g / cm^3
# Si number density = 26.135375 Si / 1000 Ang^3
#
#
#
# Elastic Constant Matrix: (Units=GPa)
#
#
# Indices 1 2 3 4 5 6 
#
# 1 214.4010 59.1171 64.5749 0.0000 0.0000 0.0000
# 2 59.1171 144.0299 60.2869 0.0000 0.0000 0.0000
# 3 64.5749 60.2869 168.0693 0.0000 0.0000 0.0000
# 4 0.0000 0.0000 0.0000 65.5264 0.0000 0.0000
# 5 0.0000 0.0000 0.0000 0.0000 8.6630 0.0000
# 6 0.0000 0.0000 0.0000 0.0000 0.0000 4.6516
#
#
#
# Elastic Compliance Matrix: (Units=1/GPa)
#
#
# Indices 1 2 3 4 5 6 
#
# 1 0.005586 -0.001641 -0.001558 0.000000 0.000000 0.000000
# 2 -0.001641 0.008652 -0.002473 0.000000 0.000000 0.000000
# 3 -0.001558 -0.002473 0.007435 0.000000 0.000000 0.000000
# 4 0.000000 0.000000 0.000000 0.015261 0.000000 0.000000
# 5 0.000000 0.000000 0.000000 0.000000 0.115433 0.000000
# 6 0.000000 0.000000 0.000000 0.000000 0.000000 0.214981
#
#
# Mechanical properties :
#
#
# Convention : Reuss Voigt Hill
#
# Bulk Modulus (GPa) = 96.80358 99.38422 98.09390
# Shear Modulus (GPa) = 13.08442 38.60295 25.84368
#
# Velocity S-wave (km/s) = 2.23993 3.84739 3.14799
# Velocity P-wave (km/s) = 6.61887 7.60565 7.12935
#
# Compressibility (1/GPa) = 0.01033020
#
# Stress axis : x y z
#
# Youngs Moduli (GPa) = 179.02958 115.58650 134.49113
#
# Poissons Ratio (x) = 0.18964 0.20948
# Poissons Ratio (y) = 0.29373 0.33259
# Poissons Ratio (z) = 0.27885 0.28584
#
# Static dielectric constant tensor:
#      x y z
#    x 5.644640 0.000000 0.000000 
#    y 0.000000 5.002390 0.000000 
#    z 0.000000 0.000000 4.764050 
# 
# 
# High freq. dielectric constant tensor:
#      x y z
#    x 2.076100 0.000000 0.000000 
#    y 0.000000 2.036310 0.000000 
#    z 0.000000 0.000000 2.052030 
# 
# From -- ./inp_files/3994.got.cif
#   From: 2010.03.12/outbox.cif.g09.slc.cpg/sg53_2_cif.got.tgz:3994.got - 2010.04.16 14:36:59.
