data_PCOD8221722
_publ_section_title
;
Structure prediction by ZEFSAII (Michael W. Deem and Ramdas Pophale) SiO2 
 PCOD8221722
Probable space group: P M N A
;
_chemical_formula_sum "Si O2"
_cell_formula_units_Z 56
_cell_length_a 8.760228
_cell_length_b 19.117649
_cell_length_c 16.026538
_cell_angle_alpha 90.000000
_cell_angle_beta 90.000000
_cell_angle_gamma 90.000000
_cell_volume 2684.043876
_symmetry_space_group_name_H-M "P M N A"
_symmetry_group_IT_number 53
_symmetry_cell_setting 'orthorhombic'
loop_
_space_group_symop_operation_xyz
x,y,z
1/2-x,-y,1/2+z
x,-y,-z
1/2-x,y,1/2-z
-x,-y,-z
1/2+x,y,1/2-z
-x,y,z
1/2+x,-y,1/2+z
loop_
_atom_site_type_symbol
_atom_site_label
_atom_site_fract_x
_atom_site_fract_y
_atom_site_fract_z
Si Si1 0.677110 0.793723 0.418188
Si Si2 0.176365 0.796000 0.585311
Si Si3 0.681273 0.927667 0.159238
Si Si4 0.324711 0.653142 0.835970
Si Si5 0.675345 0.651512 0.336698
Si Si6 0.823198 0.417880 0.502960
Si Si7 0.319420 0.929391 0.659755
O O1 0.500000 0.811001 0.433501
O O2 0.756842 0.762665 0.500705
O O3 0.767389 0.864146 0.397901
O O4 0.697307 0.735155 0.347094
O O5 0.196274 0.737004 0.656055
O O6 0.276795 0.864274 0.602529
O O7 0.000000 0.817429 0.575461
O O8 0.750000 0.915280 0.250000
O O9 0.500000 0.931663 0.164551
O O10 0.747124 0.999913 0.121232
O O11 0.250000 0.627194 0.750000
O O12 0.500000 0.631663 0.830017
O O13 0.253189 0.614872 0.917399
O O14 0.750000 0.627509 0.250000
O O15 0.500000 0.630938 0.331708
O O16 0.743321 0.610935 0.414882
O O17 0.796692 0.500000 0.500000
O O18 0.000000 0.396897 0.509240
O O19 0.250000 0.914820 0.750000
O O20 0.500000 0.937894 0.666443
#
# Coordination Sequence:
#
# PCOD8221722 Si02
#       7
#     8   8   8   8   8   8   8
#     4  11  23  39  60  89 121 160 207 261 318 373
#     4  11  22  38  60  87 119 159 207 261 317 373
#     4  11  22  38  59  84 116 157 204 257 314 376
#     4  10  22  39  63  93 126 167 209 259 313 373
#     4  11  24  41  66  96 130 171 215 263 316 378
#     4  10  22  43  68  96 132 170 211 260 315 374
#     4  11  22  38  58  83 117 157 204 258 313 375
#
# _framework density 20.864042000000001
#
# number of rings (size 3 to 8) (size 9 to 14) (size 15 to 20)
#    0.000    1.286    1.429    5.571    0.000    7.143 
#    0.000    4.286    0.000    0.000    0.000    0.000 
#    0.000    0.000    0.000    0.000    0.000    0.000 
#
# Total GULP energy -694535.187870 kJ/mol
# GULP energy per Si atom -12402.414069 kJ/mol
# Density = 2.081655 g / cm^3
# Si number density = 20.864042 Si / 1000 Ang^3
#
#
#
# Elastic Constant Matrix: (Units=GPa)
#
#
# Indices 1 2 3 4 5 6 
#
# 1 144.7029 50.8891 60.4276 0.0000 0.0000 0.0000
# 2 50.8891 81.5228 47.7116 0.0000 0.0000 0.0000
# 3 60.4276 47.7116 149.2086 0.0000 0.0000 0.0000
# 4 0.0000 0.0000 0.0000 24.7533 0.0000 0.0000
# 5 0.0000 0.0000 0.0000 0.0000 39.3164 0.0000
# 6 0.0000 0.0000 0.0000 0.0000 0.0000 84.1729
#
#
#
# Elastic Compliance Matrix: (Units=1/GPa)
#
#
# Indices 1 2 3 4 5 6 
#
# 1 0.009506 -0.004528 -0.002402 0.000000 0.000000 0.000000
# 2 -0.004528 0.017248 -0.003681 0.000000 0.000000 0.000000
# 3 -0.002402 -0.003681 0.008852 0.000000 0.000000 0.000000
# 4 0.000000 0.000000 0.000000 0.040399 0.000000 0.000000
# 5 0.000000 0.000000 0.000000 0.000000 0.025435 0.000000
# 6 0.000000 0.000000 0.000000 0.000000 0.000000 0.011880
#
#
# Mechanical properties :
#
#
# Convention : Reuss Voigt Hill
#
# Bulk Modulus (GPa) = 69.52751 77.05455 73.29103
# Shear Modulus (GPa) = 35.88425 44.07562 39.97993
#
# Velocity S-wave (km/s) = 4.15168 4.60120 4.38221
# Velocity P-wave (km/s) = 7.50855 8.07712 7.79802
#
# Compressibility (1/GPa) = 0.01438280
#
# Stress axis : x y z
#
# Youngs Moduli (GPa) = 105.19356 57.97861 112.96996
#
# Poissons Ratio (x) = 0.26255 0.27134
# Poissons Ratio (y) = 0.47636 0.41587
# Poissons Ratio (z) = 0.25267 0.21344
#
# Static dielectric constant tensor:
#      x y z
#    x 3.827650 0.000000 0.000000 
#    y 0.000000 3.793050 0.000000 
#    z 0.000000 0.000000 3.796120 
# 
# 
# High freq. dielectric constant tensor:
#      x y z
#    x 1.821920 0.000000 0.000000 
#    y 0.000000 1.820010 0.000000 
#    z 0.000000 0.000000 1.819130 
# 
# From -- ./inp_files/20538.got.cif
#   From: 2010.03.12/outbox.cif.g09.slc.cpg/sg53_11_cif.got.tgz:20538.got - 2010.04.16 14:36:59.
