data_PCOD8221154
_publ_section_title
;
Structure prediction by ZEFSAII (Michael W. Deem and Ramdas Pophale) SiO2 
 PCOD8221154
Probable space group: P M N A
;
_chemical_formula_sum "Si O2"
_cell_formula_units_Z 64
_cell_length_a 8.901065
_cell_length_b 21.697037
_cell_length_c 16.173556
_cell_angle_alpha 90.000000
_cell_angle_beta 90.000000
_cell_angle_gamma 90.000000
_cell_volume 3123.546090
_symmetry_space_group_name_H-M "P M N A"
_symmetry_group_IT_number 53
_symmetry_cell_setting 'orthorhombic'
loop_
_space_group_symop_operation_xyz
x,y,z
1/2-x,-y,1/2+z
x,-y,-z
1/2-x,y,1/2-z
-x,-y,-z
1/2+x,y,1/2-z
-x,y,z
1/2+x,-y,1/2+z
loop_
_atom_site_type_symbol
_atom_site_label
_atom_site_fract_x
_atom_site_fract_y
_atom_site_fract_z
Si Si1 0.321702 0.429903 0.000352
Si Si2 0.827058 0.127004 0.833055
Si Si3 0.325017 0.252889 0.584011
Si Si4 0.820985 0.998602 0.092195
Si Si5 0.320771 0.360895 0.834233
Si Si6 0.173442 0.761544 0.581896
Si Si7 0.326932 0.362852 0.164663
Si Si8 0.822270 0.127300 0.164218
O O1 0.500000 0.425023 0.002395
O O2 0.265067 0.399000 0.914839
O O3 0.264828 0.500000 0.000000
O O4 0.257713 0.397277 0.083769
O O5 0.750000 0.149202 0.750000
O O6 0.803400 0.180099 0.900486
O O7 0.755543 0.062556 0.864308
O O8 0.000000 0.116275 0.813527
O O9 0.500000 0.270199 0.576881
O O10 0.247374 0.292134 0.656778
O O11 0.236879 0.269887 0.500692
O O12 0.000000 0.996577 0.089292
O O13 0.764324 0.059382 0.139682
O O14 0.755277 0.000000 0.000000
O O15 0.250000 0.389659 0.750000
O O16 0.500000 0.359206 0.826443
O O17 0.192809 0.710867 0.653940
O O18 0.269152 0.822858 0.597814
O O19 0.000000 0.779511 0.570058
O O20 0.250000 0.384098 0.250000
O O21 0.500000 0.381180 0.172995
O O22 0.750000 0.146815 0.250000
O O23 0.000000 0.129517 0.170651
#
# Coordination Sequence:
#
# PCOD8221154 Si02
#       8
#     8   8   8   8   8   8   8   8
#     4   9  19  39  64  88 121 164 204 244 298 360
#     4  10  21  36  55  80 109 146 189 237 293 352
#     4  11  22  37  60  88 117 154 200 247 302 360
#     4   9  18  35  56  76 104 143 189 240 293 352
#     4  11  22  39  62  91 126 164 206 252 303 360
#     4  11  22  38  59  85 118 154 196 246 301 359
#     4  10  21  38  60  89 119 157 199 242 297 351
#     4  11  22  36  56  82 112 150 193 240 296 357
#
# _framework density 20.489533999999999
#
# number of rings (size 3 to 8) (size 9 to 14) (size 15 to 20)
#    0.000    1.750    1.250    3.375    0.000    6.500 
#    0.000    0.625    0.000    5.250    0.000    0.000 
#    0.000    0.000    0.000    0.000    0.000    0.000 
#
# Total GULP energy -793653.588477 kJ/mol
# GULP energy per Si atom -12400.837320 kJ/mol
# Density = 2.044290 g / cm^3
# Si number density = 20.489534 Si / 1000 Ang^3
#
#
#
# Elastic Constant Matrix: (Units=GPa)
#
#
# Indices 1 2 3 4 5 6 
#
# 1 68.0071 34.7611 42.7695 0.0000 0.0000 0.0000
# 2 34.7611 108.8076 42.8908 0.0000 0.0000 0.0000
# 3 42.7695 42.8908 148.3328 0.0000 0.0000 0.0000
# 4 0.0000 0.0000 0.0000 24.0202 0.0000 0.0000
# 5 0.0000 0.0000 0.0000 0.0000 34.1592 0.0000
# 6 0.0000 0.0000 0.0000 0.0000 0.0000 20.2798
#
#
#
# Elastic Compliance Matrix: (Units=1/GPa)
#
#
# Indices 1 2 3 4 5 6 
#
# 1 0.019812 -0.004602 -0.004382 0.000000 0.000000 0.000000
# 2 -0.004602 0.011442 -0.001981 0.000000 0.000000 0.000000
# 3 -0.004382 -0.001981 0.008578 0.000000 0.000000 0.000000
# 4 0.000000 0.000000 0.000000 0.041632 0.000000 0.000000
# 5 0.000000 0.000000 0.000000 0.000000 0.029275 0.000000
# 6 0.000000 0.000000 0.000000 0.000000 0.000000 0.049310
#
#
# Mechanical properties :
#
#
# Convention : Reuss Voigt Hill
#
# Bulk Modulus (GPa) = 55.86223 62.88780 59.37501
# Shear Modulus (GPa) = 26.60321 29.34024 27.97173
#
# Velocity S-wave (km/s) = 3.60721 3.78823 3.69883
# Velocity P-wave (km/s) = 6.68373 7.06354 6.87626
#
# Compressibility (1/GPa) = 0.01790118
#
# Stress axis : x y z
#
# Youngs Moduli (GPa) = 50.47321 87.39798 116.57744
#
# Poissons Ratio (x) = 0.40223 0.51083
# Poissons Ratio (y) = 0.23229 0.23099
# Poissons Ratio (z) = 0.22117 0.17318
#
# Static dielectric constant tensor:
#      x y z
#    x 3.387460 0.000000 0.000000 
#    y 0.000000 3.740700 0.000000 
#    z 0.000000 0.000000 3.808980 
# 
# 
# High freq. dielectric constant tensor:
#      x y z
#    x 1.773660 0.000000 0.000000 
#    y 0.000000 1.804020 0.000000 
#    z 0.000000 0.000000 1.812110 
# 
# From -- ./inp_files/20924.got.cif
#   From: 2010.03.12/outbox.cif.g09.slc.cpg/sg53_11_cif.got.tgz:20924.got - 2010.04.16 14:36:59.
