data_PCOD8221859
_publ_section_title
;
Structure prediction by ZEFSAII (Michael W. Deem and Ramdas Pophale) SiO2 
 PCOD8221859
Probable space group: P M N A
;
_chemical_formula_sum "Si O2"
_cell_formula_units_Z 56
_cell_length_a 14.981811
_cell_length_b 9.606468
_cell_length_c 17.907073
_cell_angle_alpha 90.000000
_cell_angle_beta 90.000000
_cell_angle_gamma 90.000000
_cell_volume 2577.226917
_symmetry_space_group_name_H-M "P M N A"
_symmetry_group_IT_number 53
_symmetry_cell_setting 'orthorhombic'
loop_
_space_group_symop_operation_xyz
x,y,z
1/2-x,-y,1/2+z
x,-y,-z
1/2-x,y,1/2-z
-x,-y,-z
1/2+x,y,1/2-z
-x,y,z
1/2+x,-y,1/2+z
loop_
_atom_site_type_symbol
_atom_site_label
_atom_site_fract_x
_atom_site_fract_y
_atom_site_fract_z
Si Si1 0.651107 0.048606 0.234638
Si Si2 0.906283 0.165171 0.845525
Si Si3 0.651576 0.642975 0.226032
Si Si4 0.778593 0.849133 0.023777
Si Si5 0.897107 0.645664 0.772832
Si Si6 0.897440 0.631710 0.945937
Si Si7 0.897275 0.852900 0.396500
O O1 0.750000 0.993590 0.250000
O O2 0.649478 0.214422 0.243534
O O3 0.592013 0.978713 0.299128
O O4 0.620783 0.992050 0.153248
O O5 0.912659 0.295393 0.789495
O O6 0.820637 0.184970 0.896351
O O7 0.000000 0.167954 0.891799
O O8 0.750000 0.688358 0.250000
O O9 0.641316 0.476795 0.220700
O O10 0.622411 0.711047 0.148134
O O11 0.670446 0.847360 0.032305
O O12 0.820423 0.743105 0.964503
O O13 0.811992 0.000000 0.000000
O O14 0.879241 0.601330 0.858827
O O15 0.000000 0.667372 0.756876
O O16 0.000000 0.685490 0.956366
O O17 0.881793 0.500000 0.000000
O O18 0.000000 0.855295 0.424973
#
# Coordination Sequence:
#
# PCOD8221859 Si02
#       7
#     8   8   8   8   8   8   8
#     4  11  20  37  58  89 123 155 193 253 317 359
#     4  11  20  36  61  88 122 157 194 247 305 364
#     4  11  20  38  63  94 120 158 200 251 308 366
#     4  12  24  40  61  88 123 165 210 249 291 354
#     4  11  22  36  59  94 125 155 192 247 318 371
#     4  10  23  41  62  91 128 163 197 241 302 372
#     4  11  23  42  64  88 119 160 211 257 296 352
#
# _framework density 21.728781000000001
#
# number of rings (size 3 to 8) (size 9 to 14) (size 15 to 20)
#    0.000    1.000    2.857    6.857    0.000    3.714 
#    0.000    0.000    0.000    0.429    0.000    0.000 
#    0.000    0.000    0.000    0.000    0.000    0.000 
#
# Total GULP energy -694139.636159 kJ/mol
# GULP energy per Si atom -12395.350646 kJ/mol
# Density = 2.167933 g / cm^3
# Si number density = 21.728781 Si / 1000 Ang^3
#
#
#
# Elastic Constant Matrix: (Units=GPa)
#
#
# Indices 1 2 3 4 5 6 
#
# 1 140.9097 14.8497 8.2133 0.0000 0.0000 0.0000
# 2 14.8497 138.2349 17.4295 0.0000 0.0000 0.0000
# 3 8.2133 17.4295 37.7311 0.0000 0.0000 0.0000
# 4 0.0000 0.0000 0.0000 10.7595 0.0000 0.0000
# 5 0.0000 0.0000 0.0000 0.0000 21.3633 0.0000
# 6 0.0000 0.0000 0.0000 0.0000 0.0000 17.3481
#
#
#
# Elastic Compliance Matrix: (Units=1/GPa)
#
#
# Indices 1 2 3 4 5 6 
#
# 1 0.007237 -0.000615 -0.001291 0.000000 0.000000 0.000000
# 2 -0.000615 0.007734 -0.003439 0.000000 0.000000 0.000000
# 3 -0.001291 -0.003439 0.028373 0.000000 0.000000 0.000000
# 4 0.000000 0.000000 0.000000 0.092941 0.000000 0.000000
# 5 0.000000 0.000000 0.000000 0.000000 0.046809 0.000000
# 6 0.000000 0.000000 0.000000 0.000000 0.000000 0.057643
#
#
# Mechanical properties :
#
#
# Convention : Reuss Voigt Hill
#
# Bulk Modulus (GPa) = 30.62413 44.20676 37.41544
# Shear Modulus (GPa) = 19.06132 28.31971 23.69051
#
# Velocity S-wave (km/s) = 2.96503 3.61408 3.30553
# Velocity P-wave (km/s) = 5.08393 6.14853 5.64140
#
# Compressibility (1/GPa) = 0.03265399
#
# Stress axis : x y z
#
# Youngs Moduli (GPa) = 138.18296 129.30498 35.24487
#
# Poissons Ratio (x) = 0.07947 0.04552
# Poissons Ratio (y) = 0.08492 0.12120
# Poissons Ratio (z) = 0.17845 0.44464
#
# Static dielectric constant tensor:
#      x y z
#    x 4.065950 0.000000 0.000000 
#    y 0.000000 3.865720 0.000000 
#    z 0.000000 0.000000 3.566840 
# 
# 
# High freq. dielectric constant tensor:
#      x y z
#    x 1.868920 0.000000 0.000000 
#    y 0.000000 1.853840 0.000000 
#    z 0.000000 0.000000 1.821070 
# 
# From -- ./inp_files/32455.got.cif
#   From: 2010.03.12/outbox.cif.g09.slc.cpg/sg53_17_cif.got.tgz:32455.got - 2010.04.16 14:36:59.
