data_PCOD8221048
_publ_section_title
;
Structure prediction by ZEFSAII (Michael W. Deem and Ramdas Pophale) SiO2 
 PCOD8221048
Probable space group: P M N A
;
_chemical_formula_sum "Si O2"
_cell_formula_units_Z 48
_cell_length_a 18.670614
_cell_length_b 8.484815
_cell_length_c 15.466439
_cell_angle_alpha 90.000000
_cell_angle_beta 90.000000
_cell_angle_gamma 90.000000
_cell_volume 2450.142316
_symmetry_space_group_name_H-M "P M N A"
_symmetry_group_IT_number 53
_symmetry_cell_setting 'orthorhombic'
loop_
_space_group_symop_operation_xyz
x,y,z
1/2-x,-y,1/2+z
x,-y,-z
1/2-x,y,1/2-z
-x,-y,-z
1/2+x,y,1/2-z
-x,y,z
1/2+x,-y,1/2+z
loop_
_atom_site_type_symbol
_atom_site_label
_atom_site_fract_x
_atom_site_fract_y
_atom_site_fract_z
Si Si1 0.804228 0.463809 0.098830
Si Si2 0.180504 0.757623 0.552262
Si Si3 0.420628 0.476776 0.118249
Si Si4 0.802766 0.274112 0.638022
Si Si5 0.079977 0.714542 0.792803
Si Si6 0.322906 0.951853 0.786879
O O1 0.745017 0.328665 0.101669
O O2 0.769061 0.617094 0.147802
O O3 0.875265 0.401592 0.145338
O O4 0.824847 0.500000 0.000000
O O5 0.115868 0.628971 0.542352
O O6 0.202179 0.810829 0.456302
O O7 0.159973 0.902594 0.613954
O O8 0.500000 0.529302 0.089609
O O9 0.375054 0.627393 0.144352
O O10 0.423710 0.363285 0.200069
O O11 0.812226 0.141367 0.711875
O O12 0.000000 0.736844 0.831797
O O13 0.115446 0.888538 0.778505
O O14 0.250000 0.875996 0.750000
#
# Coordination Sequence:
#
# PCOD8221048 Si02
#       6
#     8   8   8   8   8   8
#     4   9  18  35  57  81 106 140 186 237 276 319
#     4   9  18  35  53  80 109 141 184 225 267 331
#     4   9  19  33  53  79 111 147 181 223 271 318
#     4  10  21  31  55  84 110 138 184 229 273 325
#     4  10  21  37  55  78 111 147 184 222 270 338
#     4  11  21  34  55  79 107 148 178 219 277 323
#
# _framework density 19.590699000000001
#
# number of rings (size 3 to 8) (size 9 to 14) (size 15 to 20)
#    0.000    2.333    1.667    2.000    2.333    2.333 
#    0.000    0.000    0.000    5.000    0.000    2.333 
#    0.000    0.000    0.000    0.000    0.000    0.000 
#
# Total GULP energy -594773.662035 kJ/mol
# GULP energy per Si atom -12391.117959 kJ/mol
# Density = 1.954611 g / cm^3
# Si number density = 19.590699 Si / 1000 Ang^3
#
#
#
# Elastic Constant Matrix: (Units=GPa)
#
#
# Indices 1 2 3 4 5 6 
#
# 1 153.2965 51.0926 29.8425 0.0000 0.0000 0.0000
# 2 51.0926 100.5445 28.3734 0.0000 0.0000 0.0000
# 3 29.8425 28.3734 35.9889 0.0000 0.0000 0.0000
# 4 0.0000 0.0000 0.0000 30.5688 0.0000 0.0000
# 5 0.0000 0.0000 0.0000 0.0000 21.5815 0.0000
# 6 0.0000 0.0000 0.0000 0.0000 0.0000 19.6241
#
#
#
# Elastic Compliance Matrix: (Units=1/GPa)
#
#
# Indices 1 2 3 4 5 6 
#
# 1 0.008415 -0.002967 -0.004639 0.000000 0.000000 0.000000
# 2 -0.002967 0.013838 -0.008449 0.000000 0.000000 0.000000
# 3 -0.004639 -0.008449 0.038294 0.000000 0.000000 0.000000
# 4 0.000000 0.000000 0.000000 0.032713 0.000000 0.000000
# 5 0.000000 0.000000 0.000000 0.000000 0.046336 0.000000
# 6 0.000000 0.000000 0.000000 0.000000 0.000000 0.050958
#
#
# Mechanical properties :
#
#
# Convention : Reuss Voigt Hill
#
# Bulk Modulus (GPa) = 35.16547 56.49409 45.82978
# Shear Modulus (GPa) = 21.53836 26.38965 23.96400
#
# Velocity S-wave (km/s) = 3.31934 3.67420 3.50127
# Velocity P-wave (km/s) = 5.71662 6.84832 6.30790
#
# Compressibility (1/GPa) = 0.02843699
#
# Stress axis : x y z
#
# Youngs Moduli (GPa) = 118.83107 72.26443 26.11358
#
# Poissons Ratio (x) = 0.21443 0.12113
# Poissons Ratio (y) = 0.35261 0.22064
# Poissons Ratio (z) = 0.55122 0.61058
#
# Static dielectric constant tensor:
#      x y z
#    x 3.779950 0.000000 0.000000 
#    y 0.000000 3.385380 0.000000 
#    z 0.000000 0.000000 3.434700 
# 
# 
# High freq. dielectric constant tensor:
#      x y z
#    x 1.748320 0.000000 0.000000 
#    y 0.000000 1.754160 0.000000 
#    z 0.000000 0.000000 1.760160 
# 
# From -- ./inp_files/23625.got.cif
#   From: 2010.03.12/outbox.cif.g09.slc.cpg/sg53_12_cif.got.tgz:23625.got - 2010.04.16 14:36:59.
