data_PCOD8221017
_publ_section_title
;
Structure prediction by ZEFSAII (Michael W. Deem and Ramdas Pophale) SiO2 
 PCOD8221017
Probable space group: P M N A
;
_chemical_formula_sum "Si O2"
_cell_formula_units_Z 40
_cell_length_a 8.969965
_cell_length_b 12.342824
_cell_length_c 18.476419
_cell_angle_alpha 90.000000
_cell_angle_beta 90.000000
_cell_angle_gamma 90.000000
_cell_volume 2045.611173
_symmetry_space_group_name_H-M "P M N A"
_symmetry_group_IT_number 53
_symmetry_cell_setting 'orthorhombic'
loop_
_space_group_symop_operation_xyz
x,y,z
1/2-x,-y,1/2+z
x,-y,-z
1/2-x,y,1/2-z
-x,-y,-z
1/2+x,y,1/2-z
-x,y,z
1/2+x,-y,1/2+z
loop_
_atom_site_type_symbol
_atom_site_label
_atom_site_fract_x
_atom_site_fract_y
_atom_site_fract_z
Si Si1 0.326194 0.939243 0.073059
Si Si2 0.328053 0.472459 0.673324
Si Si3 0.171163 0.285541 0.937404
Si Si4 0.823572 0.660316 0.582835
Si Si5 0.826976 0.133547 0.326042
O O1 0.500000 0.907350 0.069789
O O2 0.229599 0.832615 0.083307
O O3 0.288677 0.016853 0.140437
O O4 0.279350 0.000000 0.000000
O O5 0.250000 0.462803 0.750000
O O6 0.500000 0.504381 0.684391
O O7 0.311099 0.357650 0.633962
O O8 0.250405 0.563814 0.626163
O O9 0.000000 0.278443 0.962433
O O10 0.265933 0.340428 0.000960
O O11 0.774294 0.773730 0.618627
O O12 0.000000 0.644511 0.582385
O O13 0.750000 0.149484 0.250000
O O14 0.000000 0.146014 0.311668
#
# Coordination Sequence:
#
# PCOD8221017 Si02
#       5
#     8   8   8   8   8
#     4  10  20  40  63  85 119 159 202 248 297 361
#     4  11  25  43  61  88 125 162 204 254 307 362
#     4  11  24  40  62  92 124 158 204 257 305 361
#     4  11  22  40  65  91 121 161 206 250 307 369
#     4  10  22  38  59  89 122 156 196 248 303 361
#
# _framework density 19.554057
#
# number of rings (size 3 to 8) (size 9 to 14) (size 15 to 20)
#    0.000    1.400    2.000    3.000    0.000   10.800 
#    0.000    4.000    0.000    0.000    0.000    0.000 
#    0.000    0.000    0.000    0.000    0.000    0.000 
#
# Total GULP energy -496223.089330 kJ/mol
# GULP energy per Si atom -12405.577233 kJ/mol
# Density = 1.950955 g / cm^3
# Si number density = 19.554057 Si / 1000 Ang^3
#
#
#
# Elastic Constant Matrix: (Units=GPa)
#
#
# Indices 1 2 3 4 5 6 
#
# 1 587.7077 257.4169 865.5588 0.0000 0.0000 0.0000
# 2 257.4169 199.4664 359.1034 0.0000 0.0000 0.0000
# 3 865.5588 359.1034 1468.2239 0.0000 0.0000 0.0000
# 4 0.0000 0.0000 0.0000 22.8541 0.0000 0.0000
# 5 0.0000 0.0000 0.0000 0.0000 30.1315 0.0000
# 6 0.0000 0.0000 0.0000 0.0000 0.0000 39.5790
#
#
#
# Elastic Compliance Matrix: (Units=1/GPa)
#
#
# Indices 1 2 3 4 5 6 
#
# 1 0.017031 -0.006974 -0.008335 0.000000 0.000000 0.000000
# 2 -0.006974 0.011814 0.001222 0.000000 0.000000 0.000000
# 3 -0.008335 0.001222 0.005296 0.000000 0.000000 0.000000
# 4 0.000000 0.000000 0.000000 0.043756 0.000000 0.000000
# 5 0.000000 0.000000 0.000000 0.000000 0.033188 0.000000
# 6 0.000000 0.000000 0.000000 0.000000 0.000000 0.025266
#
#
# Mechanical properties :
#
#
# Convention : Reuss Voigt Hill
#
# Bulk Modulus (GPa) = 167.58801 579.95069 373.76935
# Shear Modulus (GPa) = 30.02777 70.06753 50.04765
#
# Velocity S-wave (km/s) = 3.92296 5.99254 5.06459
# Velocity P-wave (km/s) = 10.31555 18.57722 15.02537
#
# Compressibility (1/GPa) = 0.00596701
#
# Stress axis : x y z
#
# Youngs Moduli (GPa) = 58.71595 84.64702 188.83557
#
# Poissons Ratio (x) = 0.59036 1.57385
# Poissons Ratio (y) = 0.40951 -0.23078
# Poissons Ratio (z) = 0.48937 -0.10345
#
# Static dielectric constant tensor:
#      x y z
#    x 3.703590 0.000000 0.000000 
#    y 0.000000 3.758860 0.000000 
#    z 0.000000 0.000000 3.029740 
# 
# 
# High freq. dielectric constant tensor:
#      x y z
#    x 1.767740 0.000000 0.000000 
#    y 0.000000 1.774930 0.000000 
#    z 0.000000 0.000000 1.768820 
# 
# From -- ./inp_files/25826.got.cif
#   From: 2010.03.12/outbox.cif.g09.slc.cpg/sg53_13_cif.got.tgz:25826.got - 2010.04.16 14:36:59.
