data_PCOD8221797
_publ_section_title
;
Structure prediction by ZEFSAII (Michael W. Deem and Ramdas Pophale) SiO2 
 PCOD8221797
Probable space group: P M N A
;
_chemical_formula_sum "Si O2"
_cell_formula_units_Z 40
_cell_length_a 8.720816
_cell_length_b 12.277359
_cell_length_c 18.081371
_cell_angle_alpha 90.000000
_cell_angle_beta 90.000000
_cell_angle_gamma 90.000000
_cell_volume 1935.946877
_symmetry_space_group_name_H-M "P M N A"
_symmetry_group_IT_number 53
_symmetry_cell_setting 'orthorhombic'
loop_
_space_group_symop_operation_xyz
x,y,z
1/2-x,-y,1/2+z
x,-y,-z
1/2-x,y,1/2-z
-x,-y,-z
1/2+x,y,1/2-z
-x,y,z
1/2+x,-y,1/2+z
loop_
_atom_site_type_symbol
_atom_site_label
_atom_site_fract_x
_atom_site_fract_y
_atom_site_fract_z
Si Si1 0.819752 0.969831 0.327724
Si Si2 0.675900 0.154094 0.420199
Si Si3 0.679050 0.364504 0.327780
Si Si4 0.319196 0.546043 0.077689
Si Si5 0.822174 0.780395 0.084908
O O1 0.750000 0.008756 0.250000
O O2 0.739568 0.857163 0.350306
O O3 0.000000 0.951664 0.320853
O O4 0.786875 0.062943 0.387670
O O5 0.500000 0.123194 0.401684
O O6 0.719238 0.271090 0.386707
O O7 0.703699 0.158002 0.507581
O O8 0.750000 0.329581 0.250000
O O9 0.500000 0.380494 0.317684
O O10 0.749005 0.477798 0.355132
O O11 0.500000 0.534607 0.081013
O O12 0.272890 0.670229 0.087436
O O13 0.254402 0.500000 0.000000
O O14 0.000000 0.753424 0.097778
#
# Coordination Sequence:
#
# PCOD8221797 Si02
#       5
#     8   8   8   8   8
#     4  12  26  43  64  92 128 168 212 262 318 375
#     4  10  22  41  66  95 127 166 209 258 315 377
#     4  11  23  40  63  94 129 168 212 259 317 374
#     4  11  23  40  64  94 128 165 209 259 311 371
#     4  11  23  42  68  95 127 166 211 259 314 379
#
# _framework density 20.661724
#
# number of rings (size 3 to 8) (size 9 to 14) (size 15 to 20)
#    0.000    1.000    2.000    4.800    0.000    8.800 
#    0.000    4.000    0.000    0.000    0.000    0.000 
#    0.000    0.000    0.000    0.000    0.000    0.000 
#
# Total GULP energy -496360.935722 kJ/mol
# GULP energy per Si atom -12409.023393 kJ/mol
# Density = 2.061470 g / cm^3
# Si number density = 20.661724 Si / 1000 Ang^3
#
#
#
# Elastic Constant Matrix: (Units=GPa)
#
#
# Indices 1 2 3 4 5 6 
#
# 1 85.8401 20.4282 29.7706 0.0000 0.0000 0.0000
# 2 20.4282 84.8145 8.9010 0.0000 0.0000 0.0000
# 3 29.7706 8.9010 61.4290 0.0000 0.0000 0.0000
# 4 0.0000 0.0000 0.0000 28.2350 0.0000 0.0000
# 5 0.0000 0.0000 0.0000 0.0000 33.0947 0.0000
# 6 0.0000 0.0000 0.0000 0.0000 0.0000 40.1701
#
#
#
# Elastic Compliance Matrix: (Units=1/GPa)
#
#
# Indices 1 2 3 4 5 6 
#
# 1 0.014641 -0.002825 -0.006686 0.000000 0.000000 0.000000
# 2 -0.002825 0.012517 -0.000445 0.000000 0.000000 0.000000
# 3 -0.006686 -0.000445 0.019584 0.000000 0.000000 0.000000
# 4 0.000000 0.000000 0.000000 0.035417 0.000000 0.000000
# 5 0.000000 0.000000 0.000000 0.000000 0.030216 0.000000
# 6 0.000000 0.000000 0.000000 0.000000 0.000000 0.024894
#
#
# Mechanical properties :
#
#
# Convention : Reuss Voigt Hill
#
# Bulk Modulus (GPa) = 37.27075 38.92037 38.09556
# Shear Modulus (GPa) = 30.09801 31.83220 30.96511
#
# Velocity S-wave (km/s) = 3.82082 3.92935 3.87547
# Velocity P-wave (km/s) = 6.12720 6.28206 6.20511
#
# Compressibility (1/GPa) = 0.02683069
#
# Stress axis : x y z
#
# Youngs Moduli (GPa) = 68.30323 79.88842 51.06281
#
# Poissons Ratio (x) = 0.22565 0.34141
# Poissons Ratio (y) = 0.19293 0.02272
# Poissons Ratio (z) = 0.45668 0.03554
#
# Static dielectric constant tensor:
#      x y z
#    x 3.733250 0.000000 0.000000 
#    y 0.000000 3.695870 0.000000 
#    z 0.000000 0.000000 3.809740 
# 
# 
# High freq. dielectric constant tensor:
#      x y z
#    x 1.815060 0.000000 0.000000 
#    y 0.000000 1.817670 0.000000 
#    z 0.000000 0.000000 1.813880 
# 
# From -- ./inp_files/25823.got.cif
#   From: 2010.03.12/outbox.cif.g09.slc.cpg/sg53_13_cif.got.tgz:25823.got - 2010.04.16 14:36:59.
