data_PCOD8221015
_publ_section_title
;
Structure prediction by ZEFSAII (Michael W. Deem and Ramdas Pophale) SiO2 
 PCOD8221015
Probable space group: P M N A
;
_chemical_formula_sum "Si O2"
_cell_formula_units_Z 48
_cell_length_a 8.431976
_cell_length_b 14.372739
_cell_length_c 20.336690
_cell_angle_alpha 90.000000
_cell_angle_beta 90.000000
_cell_angle_gamma 90.000000
_cell_volume 2464.615466
_symmetry_space_group_name_H-M "P M N A"
_symmetry_group_IT_number 53
_symmetry_cell_setting 'orthorhombic'
loop_
_space_group_symop_operation_xyz
x,y,z
1/2-x,-y,1/2+z
x,-y,-z
1/2-x,y,1/2-z
-x,-y,-z
1/2+x,y,1/2-z
-x,y,z
1/2+x,-y,1/2+z
loop_
_atom_site_type_symbol
_atom_site_label
_atom_site_fract_x
_atom_site_fract_y
_atom_site_fract_z
Si Si1 0.814852 0.552880 0.321204
Si Si2 0.314918 0.741428 0.370594
Si Si3 0.184942 0.436766 0.060758
Si Si4 0.682146 0.746988 0.987067
Si Si5 0.812624 0.939832 0.179269
Si Si6 0.185847 0.066097 0.060845
O O1 0.750000 0.526458 0.250000
O O2 0.785327 0.661034 0.336174
O O3 0.720385 0.489415 0.372059
O O4 0.000000 0.531257 0.325980
O O5 0.500000 0.725283 0.355664
O O6 0.292388 0.742353 0.448806
O O7 0.249617 0.837742 0.340402
O O8 0.281463 0.340764 0.059303
O O9 0.000000 0.414322 0.055555
O O10 0.242032 0.500000 0.000000
O O11 0.500000 0.745888 0.009233
O O12 0.718130 0.838736 0.945122
O O13 0.750000 0.970418 0.250000
O O14 0.000000 0.937266 0.178527
O O15 0.752516 0.015345 0.126645
O O16 0.000000 0.088850 0.063567
O O17 0.226093 0.000000 0.000000
#
# Coordination Sequence:
#
# PCOD8221015 Si02
#       6
#     8   8   8   8   8   8
#     4  12  25  41  62  92 128 164 204 252 306 366
#     4  11  21  38  61  89 124 164 203 246 303 366
#     4  11  23  41  66  90 120 163 206 251 304 364
#     4  12  24  37  60  95 125 154 199 258 308 358
#     4  10  22  38  60  87 120 160 199 247 300 356
#     4  10  20  40  63  84 117 162 206 247 296 361
#
# _framework density 19.475655
#
# number of rings (size 3 to 8) (size 9 to 14) (size 15 to 20)
#    0.000    1.000    3.333    4.500    0.000    4.333 
#    0.000    0.833    0.000    2.000    0.000    0.000 
#    0.000    0.000    0.000    0.000    0.000    0.000 
#
# Total GULP energy -595559.522052 kJ/mol
# GULP energy per Si atom -12407.490043 kJ/mol
# Density = 1.943133 g / cm^3
# Si number density = 19.475655 Si / 1000 Ang^3
#
#
#
# Elastic Constant Matrix: (Units=GPa)
#
#
# Indices 1 2 3 4 5 6 
#
# 1 56.0145 27.6129 11.8187 0.0000 0.0000 0.0000
# 2 27.6129 117.0139 50.0002 0.0000 0.0000 0.0000
# 3 11.8187 50.0002 140.1005 0.0000 0.0000 0.0000
# 4 0.0000 0.0000 0.0000 24.9759 0.0000 0.0000
# 5 0.0000 0.0000 0.0000 0.0000 30.5035 0.0000
# 6 0.0000 0.0000 0.0000 0.0000 0.0000 25.1638
#
#
#
# Elastic Compliance Matrix: (Units=1/GPa)
#
#
# Indices 1 2 3 4 5 6 
#
# 1 0.020203 -0.004766 -0.000003 0.000000 0.000000 0.000000
# 2 -0.004766 0.011208 -0.003598 0.000000 0.000000 0.000000
# 3 -0.000003 -0.003598 0.008422 0.000000 0.000000 0.000000
# 4 0.000000 0.000000 0.000000 0.040039 0.000000 0.000000
# 5 0.000000 0.000000 0.000000 0.000000 0.032783 0.000000
# 6 0.000000 0.000000 0.000000 0.000000 0.000000 0.039740
#
#
# Mechanical properties :
#
#
# Convention : Reuss Voigt Hill
#
# Bulk Modulus (GPa) = 43.29336 54.66584 48.97960
# Shear Modulus (GPa) = 28.27604 31.04179 29.65891
#
# Velocity S-wave (km/s) = 3.81447 3.99667 3.90663
# Velocity P-wave (km/s) = 6.45585 7.03047 6.74928
#
# Compressibility (1/GPa) = 0.02309823
#
# Stress axis : x y z
#
# Youngs Moduli (GPa) = 49.49837 89.22126 118.73540
#
# Poissons Ratio (x) = 0.42523 0.00040
# Poissons Ratio (y) = 0.23591 0.42721
# Poissons Ratio (z) = 0.00017 0.32102
#
# Static dielectric constant tensor:
#      x y z
#    x 3.441290 0.000000 0.000000 
#    y 0.000000 3.706450 0.000000 
#    z 0.000000 0.000000 3.202670 
# 
# 
# High freq. dielectric constant tensor:
#      x y z
#    x 1.759390 0.000000 0.000000 
#    y 0.000000 1.761200 0.000000 
#    z 0.000000 0.000000 1.756810 
# 
# From -- ./inp_files/26274.got.cif
#   From: 2010.03.12/outbox.cif.g09.slc.cpg/sg53_14_cif.got.tgz:26274.got - 2010.04.16 14:36:59.
