data_PCOD8221075
_publ_section_title
;
Structure prediction by ZEFSAII (Michael W. Deem and Ramdas Pophale) SiO2 
 PCOD8221075
Probable space group: P M N A
;
_chemical_formula_sum "Si O2"
_cell_formula_units_Z 40
_cell_length_a 9.642699
_cell_length_b 25.331828
_cell_length_c 9.020120
_cell_angle_alpha 90.000000
_cell_angle_beta 90.000000
_cell_angle_gamma 90.000000
_cell_volume 2203.319389
_symmetry_space_group_name_H-M "P M N A"
_symmetry_group_IT_number 53
_symmetry_cell_setting 'orthorhombic'
loop_
_space_group_symop_operation_xyz
x,y,z
1/2-x,-y,1/2+z
x,-y,-z
1/2-x,y,1/2-z
-x,-y,-z
1/2+x,y,1/2-z
-x,y,z
1/2+x,-y,1/2+z
loop_
_atom_site_type_symbol
_atom_site_label
_atom_site_fract_x
_atom_site_fract_y
_atom_site_fract_z
Si Si1 0.660542 0.853121 0.895760
Si Si2 0.340239 0.359460 0.889568
Si Si3 0.161171 0.950822 0.397869
Si Si4 0.660165 0.451636 0.105364
Si Si5 0.340059 0.760870 0.109583
O O1 0.750000 0.861491 0.750000
O O2 0.500000 0.856546 0.849644
O O3 0.698493 0.897790 0.014348
O O4 0.697452 0.796751 0.968614
O O5 0.250000 0.377322 0.750000
O O6 0.500000 0.366690 0.843657
O O7 0.306858 0.299336 0.935869
O O8 0.301781 0.396463 0.027071
O O9 0.250000 0.953125 0.250000
O O10 0.000000 0.952644 0.353318
O O11 0.202148 0.000000 0.500000
O O12 0.750000 0.457216 0.250000
O O13 0.500000 0.453450 0.151467
O O14 0.698781 0.500000 0.000000
O O15 0.250000 0.778731 0.250000
O O16 0.500000 0.768469 0.155059
#
# Coordination Sequence:
#
# PCOD8221075 Si02
#       5
#     8   8   8   8   8
#     4  10  21  35  51  74 103 133 167 206 246 291
#     4   9  18  33  52  74 100 129 163 203 245 291
#     4  10  21  36  54  77 103 131 166 206 247 294
#     4  10  21  35  51  73 100 129 163 203 245 291
#     4   9  18  33  52  74 100 130 165 204 245 291
#
# _framework density 18.154427999999999
#
# number of rings (size 3 to 8) (size 9 to 14) (size 15 to 20)
#    0.000    2.400    0.000    1.800    0.000    4.000 
#    0.000    0.000    0.000    0.000    0.000    0.000 
#    0.000    0.000    0.000    0.000    0.000    0.000 
#
# Total GULP energy -496144.015129 kJ/mol
# GULP energy per Si atom -12403.600378 kJ/mol
# Density = 1.811311 g / cm^3
# Si number density = 18.154428 Si / 1000 Ang^3
#
#
#
# Elastic Constant Matrix: (Units=GPa)
#
#
# Indices 1 2 3 4 5 6 
#
# 1 81.1571 54.2360 90.4573 0.0000 0.0000 0.0000
# 2 54.2360 112.5270 76.1545 0.0000 0.0000 0.0000
# 3 90.4573 76.1545 158.4374 0.0000 0.0000 0.0000
# 4 0.0000 0.0000 0.0000 15.5739 0.0000 0.0000
# 5 0.0000 0.0000 0.0000 0.0000 43.7911 0.0000
# 6 0.0000 0.0000 0.0000 0.0000 0.0000 13.1809
#
#
#
# Elastic Compliance Matrix: (Units=1/GPa)
#
#
# Indices 1 2 3 4 5 6 
#
# 1 0.035730 -0.005062 -0.017966 0.000000 0.000000 0.000000
# 2 -0.005062 0.013889 -0.003785 0.000000 0.000000 0.000000
# 3 -0.017966 -0.003785 0.018389 0.000000 0.000000 0.000000
# 4 0.000000 0.000000 0.000000 0.064210 0.000000 0.000000
# 5 0.000000 0.000000 0.000000 0.000000 0.022836 0.000000
# 6 0.000000 0.000000 0.000000 0.000000 0.000000 0.075867
#
#
# Mechanical properties :
#
#
# Convention : Reuss Voigt Hill
#
# Bulk Modulus (GPa) = 69.54446 88.20190 78.87318
# Shear Modulus (GPa) = 17.28069 23.26078 20.27073
#
# Velocity S-wave (km/s) = 3.08859 3.58337 3.34514
# Velocity P-wave (km/s) = 7.14909 8.11236 7.64591
#
# Compressibility (1/GPa) = 0.01437929
#
# Stress axis : x y z
#
# Youngs Moduli (GPa) = 27.98794 72.00185 54.38146
#
# Poissons Ratio (x) = 0.36449 0.97702
# Poissons Ratio (y) = 0.14168 0.20586
# Poissons Ratio (z) = 0.50283 0.27256
#
# Static dielectric constant tensor:
#      x y z
#    x 3.335310 0.000000 0.000000 
#    y 0.000000 3.643010 0.000000 
#    z 0.000000 0.000000 3.133670 
# 
# 
# High freq. dielectric constant tensor:
#      x y z
#    x 1.701670 0.000000 0.000000 
#    y 0.000000 1.723810 0.000000 
#    z 0.000000 0.000000 1.694340 
# 
# From -- ./inp_files/750.got.cif
#   From: 2010.03.12/outbox.cif.g09.slc.cpg/sg53_1_cif.got.tgz:750.got - 2010.04.16 14:36:59.
