data_PCOD8221405
_publ_section_title
;
Structure prediction by ZEFSAII (Michael W. Deem and Ramdas Pophale) SiO2 
 PCOD8221405
Probable space group: P M N A
;
_chemical_formula_sum "Si O2"
_cell_formula_units_Z 64
_cell_length_a 8.842827
_cell_length_b 20.845170
_cell_length_c 18.486273
_cell_angle_alpha 90.000000
_cell_angle_beta 90.000000
_cell_angle_gamma 90.000000
_cell_volume 3407.578993
_symmetry_space_group_name_H-M "P M N A"
_symmetry_group_IT_number 53
_symmetry_cell_setting 'orthorhombic'
loop_
_space_group_symop_operation_xyz
x,y,z
1/2-x,-y,1/2+z
x,-y,-z
1/2-x,y,1/2-z
-x,-y,-z
1/2+x,y,1/2-z
-x,y,z
1/2+x,-y,1/2+z
loop_
_atom_site_type_symbol
_atom_site_label
_atom_site_fract_x
_atom_site_fract_y
_atom_site_fract_z
Si Si1 0.173579 0.874807 0.323050
Si Si2 0.821579 0.193781 0.033421
Si Si3 0.674395 0.499974 0.585086
Si Si4 0.175893 0.395224 0.324884
Si Si5 0.179233 0.253106 0.601298
Si Si6 0.176051 0.245791 0.325231
Si Si7 0.175634 0.930668 0.472811
Si Si8 0.678987 0.613866 0.171738
O O1 0.250000 0.899473 0.250000
O O2 0.236340 0.805282 0.348056
O O3 0.202465 0.926587 0.386404
O O4 0.000000 0.867419 0.304398
O O5 0.756953 0.206230 0.112502
O O6 0.000000 0.201136 0.034203
O O7 0.754011 0.245737 0.977457
O O8 0.776588 0.121704 0.012697
O O9 0.695877 0.500000 0.500000
O O10 0.500000 0.493486 0.607894
O O11 0.741260 0.567399 0.611240
O O12 0.767899 0.441996 0.619037
O O13 0.250000 0.417694 0.250000
O O14 0.203750 0.320709 0.339416
O O15 0.000000 0.413067 0.322786
O O16 0.233557 0.318857 0.637726
O O17 0.000000 0.250229 0.589843
O O18 0.250000 0.224353 0.250000
O O19 0.000000 0.228720 0.323408
O O20 0.000000 0.917192 0.490998
O O21 0.228144 0.000000 0.500000
O O22 0.750000 0.604300 0.250000
O O23 0.500000 0.611780 0.179373
#
# Coordination Sequence:
#
# PCOD8221405 Si02
#       8
#     8   8   8   8   8   8   8   8
#     4   9  17  31  53  81 111 142 182 226 274 326
#     4  11  22  35  57  87 118 150 184 231 283 333
#     4  11  25  41  56  78 110 146 186 234 282 335
#     4  10  21  38  61  83 106 141 183 231 283 339
#     4   9  20  37  56  81 112 149 187 226 274 335
#     4  10  21  38  60  86 114 146 187 235 285 338
#     4   9  19  38  60  80 110 155 198 233 276 331
#     4  11  23  39  60  83 112 147 186 231 282 338
#
# _framework density 18.781663000000002
#
# number of rings (size 3 to 8) (size 9 to 14) (size 15 to 20)
#    0.000    2.000    0.000    4.125    1.750    5.750 
#    0.000    0.625    0.000    1.500    0.000    0.000 
#    0.000    0.000    0.000    0.000    0.000    0.000 
#
# Total GULP energy -793841.315450 kJ/mol
# GULP energy per Si atom -12403.770554 kJ/mol
# Density = 1.873891 g / cm^3
# Si number density = 18.781663 Si / 1000 Ang^3
#
#
#
# Elastic Constant Matrix: (Units=GPa)
#
#
# Indices 1 2 3 4 5 6 
#
# 1 82.7260 31.0714 52.8537 0.0000 0.0000 0.0000
# 2 31.0714 76.0510 49.3855 0.0000 0.0000 0.0000
# 3 52.8537 49.3855 129.0935 0.0000 0.0000 0.0000
# 4 0.0000 0.0000 0.0000 28.5690 0.0000 0.0000
# 5 0.0000 0.0000 0.0000 0.0000 35.2395 0.0000
# 6 0.0000 0.0000 0.0000 0.0000 0.0000 16.4266
#
#
#
# Elastic Compliance Matrix: (Units=1/GPa)
#
#
# Indices 1 2 3 4 5 6 
#
# 1 0.016942 -0.003216 -0.005706 0.000000 0.000000 0.000000
# 2 -0.003216 0.018106 -0.005610 0.000000 0.000000 0.000000
# 3 -0.005706 -0.005610 0.012228 0.000000 0.000000 0.000000
# 4 0.000000 0.000000 0.000000 0.035003 0.000000 0.000000
# 5 0.000000 0.000000 0.000000 0.000000 0.028377 0.000000
# 6 0.000000 0.000000 0.000000 0.000000 0.000000 0.060877
#
#
# Mechanical properties :
#
#
# Convention : Reuss Voigt Hill
#
# Bulk Modulus (GPa) = 54.90839 61.61016 58.25928
# Shear Modulus (GPa) = 24.19347 26.35103 25.27225
#
# Velocity S-wave (km/s) = 3.59296 3.74975 3.67220
# Velocity P-wave (km/s) = 6.81990 7.18485 7.00476
#
# Compressibility (1/GPa) = 0.01821215
#
# Stress axis : x y z
#
# Youngs Moduli (GPa) = 59.02627 55.23052 81.77686
#
# Poissons Ratio (x) = 0.17765 0.46660
# Poissons Ratio (y) = 0.18986 0.45874
# Poissons Ratio (z) = 0.33679 0.30982
#
# Static dielectric constant tensor:
#      x y z
#    x 3.474970 0.000000 0.000000 
#    y 0.000000 3.401130 0.000000 
#    z 0.000000 0.000000 3.545890 
# 
# 
# High freq. dielectric constant tensor:
#      x y z
#    x 1.734790 0.000000 0.000000 
#    y 0.000000 1.720470 0.000000 
#    z 0.000000 0.000000 1.738510 
# 
# From -- ./inp_files/26842.got.cif
#   From: 2010.03.12/outbox.cif.g09.slc.cpg/sg53_14_cif.got.tgz:26842.got - 2010.04.16 14:36:59.
