data_PCOD8221297
_publ_section_title
;
Structure prediction by ZEFSAII (Michael W. Deem and Ramdas Pophale) SiO2 
 PCOD8221297
Probable space group: P M N A
;
_chemical_formula_sum "Si O2"
_cell_formula_units_Z 40
_cell_length_a 8.518400
_cell_length_b 25.438466
_cell_length_c 9.052506
_cell_angle_alpha 90.000000
_cell_angle_beta 90.000000
_cell_angle_gamma 90.000000
_cell_volume 1961.633048
_symmetry_space_group_name_H-M "P M N A"
_symmetry_group_IT_number 53
_symmetry_cell_setting 'orthorhombic'
loop_
_space_group_symop_operation_xyz
x,y,z
1/2-x,-y,1/2+z
x,-y,-z
1/2-x,y,1/2-z
-x,-y,-z
1/2+x,y,1/2-z
-x,y,z
1/2+x,-y,1/2+z
loop_
_atom_site_type_symbol
_atom_site_label
_atom_site_fract_x
_atom_site_fract_y
_atom_site_fract_z
Si Si1 0.314933 0.550837 0.090322
Si Si2 0.184926 0.660769 0.086135
Si Si3 0.819032 0.053030 0.409696
Si Si4 0.315191 0.756669 0.911242
Si Si5 0.815874 0.852594 0.089085
O O1 0.250000 0.539365 0.250000
O O2 0.500000 0.559806 0.092764
O O3 0.235267 0.603463 0.026182
O O4 0.263749 0.500000 0.000000
O O5 0.250000 0.671838 0.250000
O O6 0.000000 0.665309 0.094167
O O7 0.249274 0.701521 0.967355
O O8 0.750000 0.041721 0.250000
O O9 0.717582 0.098416 0.484101
O O10 0.000000 0.070988 0.400736
O O11 0.799729 0.000000 0.500000
O O12 0.250000 0.770651 0.750000
O O13 0.500000 0.753147 0.900973
O O14 0.267393 0.801078 0.027024
O O15 0.750000 0.865735 0.250000
O O16 0.000000 0.842012 0.097645
#
# Coordination Sequence:
#
# PCOD8221297 Si02
#       5
#     8   8   8   8   8
#     4  10  21  37  58  85 117 154 198 246 297 355
#     4  11  22  39  62  88 119 157 200 246 299 357
#     4  11  24  42  65  94 128 166 208 254 305 360
#     4  12  25  43  64  90 123 158 200 248 302 359
#     4  12  25  43  66  93 125 162 205 251 303 360
#
# _framework density 20.391173999999999
#
# number of rings (size 3 to 8) (size 9 to 14) (size 15 to 20)
#    0.000    0.800    0.000    9.600    0.000    5.600 
#    0.000    2.000    0.000    0.000    0.000    0.000 
#    0.000    0.000    0.000    0.000    0.000    0.000 
#
# Total GULP energy -496254.238598 kJ/mol
# GULP energy per Si atom -12406.355965 kJ/mol
# Density = 2.034476 g / cm^3
# Si number density = 20.391174 Si / 1000 Ang^3
#
#
#
# Elastic Constant Matrix: (Units=GPa)
#
#
# Indices 1 2 3 4 5 6 
#
# 1 131.0545 52.4381 22.3934 0.0000 0.0000 0.0000
# 2 52.4381 108.9981 46.1189 0.0000 0.0000 0.0000
# 3 22.3934 46.1189 96.6536 0.0000 0.0000 0.0000
# 4 0.0000 0.0000 0.0000 -28.5632 0.0000 0.0000
# 5 0.0000 0.0000 0.0000 0.0000 33.8476 0.0000
# 6 0.0000 0.0000 0.0000 0.0000 0.0000 83.3541
#
#
#
# Elastic Compliance Matrix: (Units=1/GPa)
#
#
# Indices 1 2 3 4 5 6 
#
# 1 0.009449 -0.004535 -0.000025 0.000000 0.000000 0.000000
# 2 -0.004535 0.013672 -0.005473 0.000000 0.000000 0.000000
# 3 -0.000025 -0.005473 0.012964 0.000000 0.000000 0.000000
# 4 0.000000 0.000000 0.000000 -0.035010 0.000000 0.000000
# 5 0.000000 0.000000 0.000000 0.000000 0.029544 0.000000
# 6 0.000000 0.000000 0.000000 0.000000 0.000000 0.011997
#
#
# Mechanical properties :
#
#
# Convention : Reuss Voigt Hill
#
# Bulk Modulus (GPa) = 62.42989 64.28965 63.35977
# Shear Modulus (GPa) = 73.50501 32.11142 52.80821
#
# Velocity S-wave (km/s) = 6.01047 3.97264 5.09449
# Velocity P-wave (km/s) = 8.87976 7.25528 8.10831
#
# Compressibility (1/GPa) = 0.01601797
#
# Stress axis : x y z
#
# Youngs Moduli (GPa) = 105.82631 73.14162 77.13951
#
# Poissons Ratio (x) = 0.33173 0.00195
# Poissons Ratio (y) = 0.47996 0.42218
# Poissons Ratio (z) = 0.00267 0.40030
#
# Static dielectric constant tensor:
#      x y z
#    x 3.939460 0.000000 0.000000 
#    y 0.000000 4.026340 0.000000 
#    z 0.000000 0.000000 3.729410 
# 
# 
# High freq. dielectric constant tensor:
#      x y z
#    x 1.819510 0.000000 0.000000 
#    y 0.000000 1.815010 0.000000 
#    z 0.000000 0.000000 1.802510 
# 
# From -- ./inp_files/6303.got.cif
#   From: 2010.03.12/outbox.cif.g09.slc.cpg/sg53_4_cif.got.tgz:6303.got - 2010.04.16 14:36:59.
