data_PCOD8221568
_publ_section_title
;
Structure prediction by ZEFSAII (Michael W. Deem and Ramdas Pophale) SiO2 
 PCOD8221568
Probable space group: P M N A
;
_chemical_formula_sum "Si O2"
_cell_formula_units_Z 56
_cell_length_a 18.484077
_cell_length_b 15.658288
_cell_length_c 9.470627
_cell_angle_alpha 90.000000
_cell_angle_beta 90.000000
_cell_angle_gamma 90.000000
_cell_volume 2741.074112
_symmetry_space_group_name_H-M "P M N A"
_symmetry_group_IT_number 53
_symmetry_cell_setting 'orthorhombic'
loop_
_space_group_symop_operation_xyz
x,y,z
1/2-x,-y,1/2+z
x,-y,-z
1/2-x,y,1/2-z
-x,-y,-z
1/2+x,y,1/2-z
-x,y,z
1/2+x,-y,1/2+z
loop_
_atom_site_type_symbol
_atom_site_label
_atom_site_fract_x
_atom_site_fract_y
_atom_site_fract_z
Si Si1 0.150802 0.260139 0.990021
Si Si2 0.916070 0.214198 0.276626
Si Si3 0.315485 0.552851 0.145060
Si Si4 0.081912 0.571068 0.118855
Si Si5 0.334044 0.864632 0.242086
Si Si6 0.084256 0.977238 0.658988
Si Si7 0.684205 0.733932 0.008919
O O1 0.135329 0.353481 0.928045
O O2 0.135908 0.190927 0.870341
O O3 0.095704 0.241533 0.116226
O O4 0.233526 0.252603 0.043193
O O5 0.889297 0.117173 0.299903
O O6 0.868168 0.276940 0.374511
O O7 0.000000 0.225244 0.317075
O O8 0.250000 0.528485 0.250000
O O9 0.388873 0.532580 0.232598
O O10 0.311287 0.500000 0.000000
O O11 0.316147 0.652626 0.110229
O O12 0.000000 0.603986 0.140847
O O13 0.084708 0.500000 0.000000
O O14 0.250000 0.884339 0.250000
O O15 0.375246 0.954043 0.255218
O O16 0.347918 0.813776 0.096630
O O17 0.000000 0.987029 0.688072
O O18 0.105188 0.000000 0.500000
#
# Coordination Sequence:
#
# PCOD8221568 Si02
#       7
#     8   8   8   8   8   8   8
#     4  11  23  43  65  95 132 169 218 275 328 390
#     4  11  25  41  62  97 132 172 220 269 327 391
#     4  12  25  44  71 101 133 170 223 273 325 395
#     4  11  25  45  67  96 140 181 216 271 335 389
#     4  10  21  40  65  91 127 166 213 273 326 386
#     4  10  21  40  63  90 127 170 218 266 324 390
#     4  11  22  42  67  95 128 169 222 261 322 396
#
# _framework density 20.429946999999999
#
# number of rings (size 3 to 8) (size 9 to 14) (size 15 to 20)
#    0.000    1.143    4.286    1.714    2.000    3.714 
#    0.000    1.429    0.000    0.000    0.000    0.000 
#    0.000    0.000    0.000    0.000    0.000    0.000 
#
# Total GULP energy -694585.959777 kJ/mol
# GULP energy per Si atom -12403.320710 kJ/mol
# Density = 2.038345 g / cm^3
# Si number density = 20.429947 Si / 1000 Ang^3
#
#
#
# Elastic Constant Matrix: (Units=GPa)
#
#
# Indices 1 2 3 4 5 6 
#
# 1 86.6913 30.8519 51.8927 0.0000 0.0000 0.0000
# 2 30.8519 67.3610 35.0293 0.0000 0.0000 0.0000
# 3 51.8927 35.0293 115.3259 0.0000 0.0000 0.0000
# 4 0.0000 0.0000 0.0000 32.2471 0.0000 0.0000
# 5 0.0000 0.0000 0.0000 0.0000 19.5837 0.0000
# 6 0.0000 0.0000 0.0000 0.0000 0.0000 29.6748
#
#
#
# Elastic Compliance Matrix: (Units=1/GPa)
#
#
# Indices 1 2 3 4 5 6 
#
# 1 0.016856 -0.004484 -0.006222 0.000000 0.000000 0.000000
# 2 -0.004484 0.018823 -0.003700 0.000000 0.000000 0.000000
# 3 -0.006222 -0.003700 0.012595 0.000000 0.000000 0.000000
# 4 0.000000 0.000000 0.000000 0.031010 0.000000 0.000000
# 5 0.000000 0.000000 0.000000 0.000000 0.051063 0.000000
# 6 0.000000 0.000000 0.000000 0.000000 0.000000 0.033699
#
#
# Mechanical properties :
#
#
# Convention : Reuss Voigt Hill
#
# Bulk Modulus (GPa) = 51.38503 56.10289 53.74396
# Shear Modulus (GPa) = 25.08214 26.40809 25.74512
#
# Velocity S-wave (km/s) = 3.50768 3.59920 3.55373
# Velocity P-wave (km/s) = 6.45070 6.69276 6.57284
#
# Compressibility (1/GPa) = 0.01946092
#
# Stress axis : x y z
#
# Youngs Moduli (GPa) = 59.32693 53.12624 79.39850
#
# Poissons Ratio (x) = 0.23823 0.49405
# Poissons Ratio (y) = 0.26604 0.29374
# Poissons Ratio (z) = 0.36916 0.19655
#
# Static dielectric constant tensor:
#      x y z
#    x 3.745030 0.000000 0.000000 
#    y 0.000000 3.688890 0.000000 
#    z 0.000000 0.000000 3.735760 
# 
# 
# High freq. dielectric constant tensor:
#      x y z
#    x 1.800290 0.000000 0.000000 
#    y 0.000000 1.798510 0.000000 
#    z 0.000000 0.000000 1.803150 
# 
# From -- ./inp_files/11075.got.cif
#   From: 2010.03.12/outbox.cif.g09.slc.cpg/sg53_6_cif.got.tgz:11075.got - 2010.04.16 14:36:59.
