data_PCOD8221347
_publ_section_title
;
Structure prediction by ZEFSAII (Michael W. Deem and Ramdas Pophale) SiO2 
 PCOD8221347
Probable space group: P M N A
;
_chemical_formula_sum "Si O2"
_cell_formula_units_Z 44
_cell_length_a 14.992204
_cell_length_b 5.265957
_cell_length_c 25.393236
_cell_angle_alpha 90.000000
_cell_angle_beta 90.000000
_cell_angle_gamma 90.000000
_cell_volume 2004.752854
_symmetry_space_group_name_H-M "P M N A"
_symmetry_group_IT_number 53
_symmetry_cell_setting 'orthorhombic'
loop_
_space_group_symop_operation_xyz
x,y,z
1/2-x,-y,1/2+z
x,-y,-z
1/2-x,y,1/2-z
-x,-y,-z
1/2+x,y,1/2-z
-x,y,z
1/2+x,-y,1/2+z
loop_
_atom_site_type_symbol
_atom_site_label
_atom_site_fract_x
_atom_site_fract_y
_atom_site_fract_z
Si Si1 0.352293 0.207870 0.738139
Si Si2 0.902640 0.897210 0.437574
Si Si3 0.262942 0.715633 0.896773
Si Si4 0.817025 0.500000 0.500000
Si Si5 0.101748 0.714711 0.825567
Si Si6 0.906006 0.545885 0.340315
O O1 0.250000 0.162094 0.750000
O O2 0.367896 0.451384 0.700950
O O3 0.399861 0.250150 0.793797
O O4 0.392233 0.951063 0.714053
O O5 0.878290 0.757156 0.493861
O O6 0.914491 0.669677 0.397073
O O7 0.000000 0.037479 0.441995
O O8 0.816491 0.044167 0.417187
O O9 0.163211 0.773051 0.876773
O O10 0.317612 0.626177 0.844343
O O11 0.257354 0.522622 0.946863
O O12 0.000000 0.687888 0.845025
O O13 0.000000 0.392659 0.331338
#
# Coordination Sequence:
#
# PCOD8221347 Si02
#       6
#     8   8   8   4   8   8
#     4  12  24  45  68 102 138 183 226 283 339 407
#     4  10  21  38  63  96 134 172 218 279 348 418
#     4  11  23  41  63  93 130 176 226 282 345 406
#     4  10  23  40  63  94 128 172 227 288 353 412
#     4  12  27  45  69 100 141 185 234 284 339 404
#     4  10  21  37  60  94 132 171 218 268 331 408
#
# _framework density 21.947841
#
# number of rings (size 3 to 8) (size 9 to 14) (size 15 to 20)
#    0.000    1.091    1.818    4.636    5.091    2.909 
#    0.000    0.455    0.000    2.182    0.000    0.000 
#    0.000    0.000    0.000    0.000    0.000    0.000 
#
# Total GULP energy -545165.479677 kJ/mol
# GULP energy per Si atom -12390.124538 kJ/mol
# Density = 2.189789 g / cm^3
# Si number density = 21.947841 Si / 1000 Ang^3
#
#
#
# Elastic Constant Matrix: (Units=GPa)
#
#
# Indices 1 2 3 4 5 6 
#
# 1 161.5740 15.4324 40.9408 0.0000 0.0000 0.0000
# 2 15.4324 63.7569 -5.7654 0.0000 0.0000 0.0000
# 3 40.9408 -5.7654 85.8185 0.0000 0.0000 0.0000
# 4 0.0000 0.0000 0.0000 29.3597 0.0000 0.0000
# 5 0.0000 0.0000 0.0000 0.0000 12.0292 0.0000
# 6 0.0000 0.0000 0.0000 0.0000 0.0000 24.5882
#
#
#
# Elastic Compliance Matrix: (Units=1/GPa)
#
#
# Indices 1 2 3 4 5 6 
#
# 1 0.007309 -0.002097 -0.003628 0.000000 0.000000 0.000000
# 2 -0.002097 0.016382 0.002101 0.000000 0.000000 0.000000
# 3 -0.003628 0.002101 0.013524 0.000000 0.000000 0.000000
# 4 0.000000 0.000000 0.000000 0.034060 0.000000 0.000000
# 5 0.000000 0.000000 0.000000 0.000000 0.083131 0.000000
# 6 0.000000 0.000000 0.000000 0.000000 0.000000 0.040670
#
#
# Mechanical properties :
#
#
# Convention : Reuss Voigt Hill
#
# Bulk Modulus (GPa) = 33.36922 45.81833 39.59378
# Shear Modulus (GPa) = 23.55019 30.56488 27.05753
#
# Velocity S-wave (km/s) = 3.27923 3.73582 3.51495
# Velocity P-wave (km/s) = 5.43826 6.28728 5.87812
#
# Compressibility (1/GPa) = 0.02996774
#
# Stress axis : x y z
#
# Youngs Moduli (GPa) = 136.82547 61.04201 73.94154
#
# Poissons Ratio (x) = 0.12801 0.26823
# Poissons Ratio (y) = 0.28693 -0.15535
# Poissons Ratio (z) = 0.49634 -0.12825
#
# Static dielectric constant tensor:
#      x y z
#    x 4.175320 0.000000 0.000000 
#    y 0.000000 3.920550 0.000000 
#    z 0.000000 0.000000 4.185510 
# 
# 
# High freq. dielectric constant tensor:
#      x y z
#    x 1.855640 0.000000 0.000000 
#    y 0.000000 1.861870 0.000000 
#    z 0.000000 0.000000 1.870980 
# 
# From -- ./inp_files/36936.got.cif
#   From: 2010.03.12/outbox.cif.g09.slc.cpg/sg53_19_cif.got.tgz:36936.got - 2010.04.16 14:36:59.
