data_PCOD8221821
_publ_section_title
;
Structure prediction by ZEFSAII (Michael W. Deem and Ramdas Pophale) SiO2 
 PCOD8221821
Probable space group: P M N A
;
_chemical_formula_sum "Si O2"
_cell_formula_units_Z 28
_cell_length_a 14.003095
_cell_length_b 7.946505
_cell_length_c 11.917901
_cell_angle_alpha 90.000000
_cell_angle_beta 90.000000
_cell_angle_gamma 90.000000
_cell_volume 1326.172352
_symmetry_space_group_name_H-M "P M N A"
_symmetry_group_IT_number 53
_symmetry_cell_setting 'orthorhombic'
loop_
_space_group_symop_operation_xyz
x,y,z
1/2-x,-y,1/2+z
x,-y,-z
1/2-x,y,1/2-z
-x,-y,-z
1/2+x,y,1/2-z
-x,y,z
1/2+x,-y,1/2+z
loop_
_atom_site_type_symbol
_atom_site_label
_atom_site_fract_x
_atom_site_fract_y
_atom_site_fract_z
Si Si1 0.349644 0.000000 0.000000
Si Si2 0.293702 0.708197 0.864394
Si Si3 0.000000 0.645779 0.131451
Si Si4 0.500000 0.052480 0.810574
Si Si5 0.500000 0.323710 0.216605
Si Si6 0.841903 0.500000 0.000000
O O1 0.409330 0.937211 0.107711
O O2 0.283088 0.152317 0.038973
O O3 0.250000 0.783066 0.750000
O O4 0.404251 0.648024 0.857095
O O5 0.225561 0.555664 0.898039
O O6 0.000000 0.456189 0.183078
O O7 0.906578 0.651336 0.051870
O O8 0.000000 0.793970 0.222665
O O9 0.500000 0.873373 0.743649
#
# Coordination Sequence:
#
# PCOD8221821 Si02
#       6
#     4   8   4   4   4   4
#     4   9  22  40  64  97 128 168 226 267 326 395
#     4  11  23  41  63  95 132 164 221 272 320 389
#     4  11  23  45  67  92 143 172 215 271 325 394
#     4   9  21  43  67  98 125 172 225 267 327 390
#     4  10  22  43  67  90 132 168 210 285 313 374
#     4  11  26  41  62 104 126 177 224 253 334 406
#
# _framework density 21.113392000000001
#
# number of rings (size 3 to 8) (size 9 to 14) (size 15 to 20)
#    0.000    1.714    2.857    0.857    4.000    5.143 
#    0.000    1.429    0.000    0.000    0.000    0.000 
#    0.000    0.000    0.000    0.000    0.000    0.000 
#
# Total GULP energy -347024.217568 kJ/mol
# GULP energy per Si atom -12393.722056 kJ/mol
# Density = 2.106534 g / cm^3
# Si number density = 21.113392 Si / 1000 Ang^3
#
#
#
# Elastic Constant Matrix: (Units=GPa)
#
#
# Indices 1 2 3 4 5 6 
#
# 1 145.1379 36.3786 38.1749 0.0000 0.0000 0.0000
# 2 36.3786 88.3646 44.3006 0.0000 0.0000 0.0000
# 3 38.1749 44.3006 86.1036 0.0000 0.0000 0.0000
# 4 0.0000 0.0000 0.0000 52.3038 0.0000 0.0000
# 5 0.0000 0.0000 0.0000 0.0000 23.7041 0.0000
# 6 0.0000 0.0000 0.0000 0.0000 0.0000 15.9817
#
#
#
# Elastic Compliance Matrix: (Units=1/GPa)
#
#
# Indices 1 2 3 4 5 6 
#
# 1 0.008068 -0.002059 -0.002518 0.000000 0.000000 0.000000
# 2 -0.002059 0.015776 -0.007204 0.000000 0.000000 0.000000
# 3 -0.002518 -0.007204 0.016436 0.000000 0.000000 0.000000
# 4 0.000000 0.000000 0.000000 0.019119 0.000000 0.000000
# 5 0.000000 0.000000 0.000000 0.000000 0.042187 0.000000
# 6 0.000000 0.000000 0.000000 0.000000 0.000000 0.062571
#
#
# Mechanical properties :
#
#
# Convention : Reuss Voigt Hill
#
# Bulk Modulus (GPa) = 59.81112 61.92381 60.86747
# Shear Modulus (GPa) = 25.86745 31.78140 28.82443
#
# Velocity S-wave (km/s) = 3.50404 3.88399 3.69890
# Velocity P-wave (km/s) = 6.69037 7.03610 6.86541
#
# Compressibility (1/GPa) = 0.01671930
#
# Stress axis : x y z
#
# Youngs Moduli (GPa) = 123.94031 63.38688 60.84029
#
# Poissons Ratio (x) = 0.13054 0.15317
# Poissons Ratio (y) = 0.25525 0.43828
# Poissons Ratio (z) = 0.31203 0.45662
#
# Static dielectric constant tensor:
#      x y z
#    x 3.999200 0.000000 0.000000 
#    y 0.000000 3.601580 0.000000 
#    z 0.000000 0.000000 3.773710 
# 
# 
# High freq. dielectric constant tensor:
#      x y z
#    x 1.841770 0.000000 0.000000 
#    y 0.000000 1.800610 0.000000 
#    z 0.000000 0.000000 1.827090 
# 
# From -- ./inp_files/15367.got.cif
#   From: 2010.03.12/outbox.cif.g09.slc.cpg/sg53_8_cif.got.tgz:15367.got - 2010.04.16 14:36:59.
