data_PCOD8221036
_publ_section_title
;
Structure prediction by ZEFSAII (Michael W. Deem and Ramdas Pophale) SiO2 
 PCOD8221036
Probable space group: P M N A
;
_chemical_formula_sum "Si O2"
_cell_formula_units_Z 40
_cell_length_a 16.552229
_cell_length_b 11.926847
_cell_length_c 8.788515
_cell_angle_alpha 90.000000
_cell_angle_beta 90.000000
_cell_angle_gamma 90.000000
_cell_volume 1734.992623
_symmetry_space_group_name_H-M "P M N A"
_symmetry_group_IT_number 53
_symmetry_cell_setting 'orthorhombic'
loop_
_space_group_symop_operation_xyz
x,y,z
1/2-x,-y,1/2+z
x,-y,-z
1/2-x,y,1/2-z
-x,-y,-z
1/2+x,y,1/2-z
-x,y,z
1/2+x,-y,1/2+z
loop_
_atom_site_type_symbol
_atom_site_label
_atom_site_fract_x
_atom_site_fract_y
_atom_site_fract_z
Si Si1 0.907687 0.876049 0.561778
Si Si2 0.299762 0.693790 0.099479
Si Si3 0.138795 0.660921 0.956623
Si Si4 0.409120 0.524181 0.253977
Si Si5 0.092823 0.901601 0.896999
O O1 0.855926 0.795506 0.453632
O O2 0.867999 0.884714 0.730207
O O3 0.000000 0.830511 0.565923
O O4 0.904941 0.000000 0.500000
O O5 0.250000 0.730577 0.250000
O O6 0.352458 0.581684 0.127823
O O7 0.235887 0.662238 0.968730
O O8 0.117321 0.604396 0.792944
O O9 0.102395 0.783992 0.981244
O O10 0.096748 0.592162 0.090015
O O11 0.500000 0.524271 0.190882
O O12 0.000000 0.935755 0.872603
O O13 0.134111 0.000000 0.000000
#
# Coordination Sequence:
#
# PCOD8221036 Si02
#       5
#     8   8   8   8   8
#     4  10  23  44  68  96 134 178 230 283 339 410
#     4  10  23  41  61 100 135 176 225 288 356 412
#     4  10  21  40  62  97 132 172 223 281 338 417
#     4  10  20  40  70  93 125 176 228 281 337 409
#     4  10  22  40  67 100 133 176 227 280 337 410
#
# _framework density 23.054855
#
# number of rings (size 3 to 8) (size 9 to 14) (size 15 to 20)
#    0.000    2.000    0.000    3.000    5.600    1.600 
#   21.600    0.000    0.000    3.600    0.000    0.000 
#    0.000    0.000    0.000    0.000    0.000    0.000 
#
# Total GULP energy -495926.679116 kJ/mol
# GULP energy per Si atom -12398.166978 kJ/mol
# Density = 2.300238 g / cm^3
# Si number density = 23.054855 Si / 1000 Ang^3
#
#
#
# Elastic Constant Matrix: (Units=GPa)
#
#
# Indices 1 2 3 4 5 6 
#
# 1 125.0983 36.3686 39.9101 0.0000 0.0000 0.0000
# 2 36.3686 142.7754 37.5157 0.0000 0.0000 0.0000
# 3 39.9101 37.5157 68.6338 0.0000 0.0000 0.0000
# 4 0.0000 0.0000 0.0000 37.0034 0.0000 0.0000
# 5 0.0000 0.0000 0.0000 0.0000 23.1788 0.0000
# 6 0.0000 0.0000 0.0000 0.0000 0.0000 5.7538
#
#
#
# Elastic Compliance Matrix: (Units=1/GPa)
#
#
# Indices 1 2 3 4 5 6 
#
# 1 0.009984 -0.001188 -0.005156 0.000000 0.000000 0.000000
# 2 -0.001188 0.008320 -0.003857 0.000000 0.000000 0.000000
# 3 -0.005156 -0.003857 0.019676 0.000000 0.000000 0.000000
# 4 0.000000 0.000000 0.000000 0.027025 0.000000 0.000000
# 5 0.000000 0.000000 0.000000 0.000000 0.043143 0.000000
# 6 0.000000 0.000000 0.000000 0.000000 0.000000 0.173797
#
#
# Mechanical properties :
#
#
# Convention : Reuss Voigt Hill
#
# Bulk Modulus (GPa) = 56.88886 62.67736 59.78311
# Shear Modulus (GPa) = 16.22286 28.03475 22.12881
#
# Velocity S-wave (km/s) = 2.65554 3.49091 3.10148
# Velocity P-wave (km/s) = 5.84222 6.59498 6.22998
#
# Compressibility (1/GPa) = 0.01757814
#
# Stress axis : x y z
#
# Youngs Moduli (GPa) = 100.15859 120.19039 50.82206
#
# Poissons Ratio (x) = 0.14283 0.26205
# Poissons Ratio (y) = 0.11903 0.19601
# Poissons Ratio (z) = 0.51643 0.46355
#
# Static dielectric constant tensor:
#      x y z
#    x 4.148290 0.000000 0.000000 
#    y 0.000000 4.288680 0.000000 
#    z 0.000000 0.000000 4.346720 
# 
# 
# High freq. dielectric constant tensor:
#      x y z
#    x 1.902070 0.000000 0.000000 
#    y 0.000000 1.917610 0.000000 
#    z 0.000000 0.000000 1.904810 
# 
# From -- ./inp_files/9659.got.cif
#   From: 2010.03.12/outbox.cif.g09.slc.cpg/sg53_5_cif.got.tgz:9659.got - 2010.04.16 14:36:59.
