data_PCOD8221645
_publ_section_title
;
Structure prediction by ZEFSAII (Michael W. Deem and Ramdas Pophale) SiO2 
 PCOD8221645
Probable space group: P M N A
;
_chemical_formula_sum "Si O2"
_cell_formula_units_Z 64
_cell_length_a 15.518101
_cell_length_b 23.991881
_cell_length_c 8.858860
_cell_angle_alpha 90.000000
_cell_angle_beta 90.000000
_cell_angle_gamma 90.000000
_cell_volume 3298.228281
_symmetry_space_group_name_H-M "P M N A"
_symmetry_group_IT_number 53
_symmetry_cell_setting 'orthorhombic'
loop_
_space_group_symop_operation_xyz
x,y,z
1/2-x,-y,1/2+z
x,-y,-z
1/2-x,y,1/2-z
-x,-y,-z
1/2+x,y,1/2-z
-x,y,z
1/2+x,-y,1/2+z
loop_
_atom_site_type_symbol
_atom_site_label
_atom_site_fract_x
_atom_site_fract_y
_atom_site_fract_z
Si Si1 0.747544 0.559419 0.430552
Si Si2 0.169172 0.355883 0.361504
Si Si3 0.402777 0.857114 0.392197
Si Si4 0.903350 0.375209 0.061080
Si Si5 0.100906 0.746678 0.960729
Si Si6 0.402730 0.871469 0.038235
Si Si7 0.399238 0.759738 0.877198
Si Si8 0.257415 0.058845 0.571504
O O1 0.771030 0.500000 0.500000
O O2 0.750000 0.558316 0.250000
O O3 0.817827 0.602283 0.498636
O O4 0.652383 0.576114 0.486400
O O5 0.250000 0.353845 0.250000
O O6 0.148970 0.295722 0.435935
O O7 0.094096 0.376093 0.245691
O O8 0.500000 0.865803 0.459227
O O9 0.369365 0.793987 0.421860
O O10 0.404592 0.864711 0.215646
O O11 0.336652 0.900084 0.469676
O O12 0.000000 0.383976 0.001844
O O13 0.861169 0.315224 0.007976
O O14 0.126924 0.769258 0.796209
O O15 0.000000 0.736949 0.967883
O O16 0.500000 0.887039 0.979891
O O17 0.332625 0.919057 0.998789
O O18 0.368487 0.813927 0.967894
O O19 0.500000 0.750579 0.901955
O O20 0.250000 0.052439 0.750000
O O21 0.280293 0.000000 0.500000
#
# Coordination Sequence:
#
# PCOD8221645 Si02
#       8
#     8   8   8   8   8   8   8   8
#     4  11  23  39  56  76 106 144 185 226 270 320
#     4   9  18  33  54  79 108 141 174 214 266 316
#     4   9  18  34  53  73 102 134 164 205 256 307
#     4   9  18  35  58  82 110 142 177 219 266 316
#     4   8  15  29  51  79 107 134 164 203 254 309
#     4   9  19  34  51  73 103 135 163 202 257 310
#     4   9  17  31  52  79 108 134 166 208 254 307
#     4  10  22  37  51  71  97 129 172 215 254 300
#
# _framework density 19.404357999999998
#
# number of rings (size 3 to 8) (size 9 to 14) (size 15 to 20)
#    0.000    2.750    0.000    2.250    0.000    5.750 
#    0.000    3.750    0.000    2.625    0.000    0.000 
#    0.000    0.000    0.000    0.000    0.000    0.000 
#
# Total GULP energy -793142.619167 kJ/mol
# GULP energy per Si atom -12392.853424 kJ/mol
# Density = 1.936019 g / cm^3
# Si number density = 19.404358 Si / 1000 Ang^3
#
#
#
# Elastic Constant Matrix: (Units=GPa)
#
#
# Indices 1 2 3 4 5 6 
#
# 1 47.8146 12.8572 11.0818 0.0000 0.0000 0.0000
# 2 12.8572 81.2388 24.2361 0.0000 0.0000 0.0000
# 3 11.0818 24.2361 43.7097 0.0000 0.0000 0.0000
# 4 0.0000 0.0000 0.0000 37.1463 0.0000 0.0000
# 5 0.0000 0.0000 0.0000 0.0000 19.0313 0.0000
# 6 0.0000 0.0000 0.0000 0.0000 0.0000 30.4882
#
#
#
# Elastic Compliance Matrix: (Units=1/GPa)
#
#
# Indices 1 2 3 4 5 6 
#
# 1 0.022553 -0.002233 -0.004480 0.000000 0.000000 0.000000
# 2 -0.002233 0.014970 -0.007735 0.000000 0.000000 0.000000
# 3 -0.004480 -0.007735 0.028303 0.000000 0.000000 0.000000
# 4 0.000000 0.000000 0.000000 0.026921 0.000000 0.000000
# 5 0.000000 0.000000 0.000000 0.000000 0.052545 0.000000
# 6 0.000000 0.000000 0.000000 0.000000 0.000000 0.032800
#
#
# Mechanical properties :
#
#
# Convention : Reuss Voigt Hill
#
# Bulk Modulus (GPa) = 27.07734 29.90148 28.48941
# Shear Modulus (GPa) = 22.80027 25.63903 24.21965
#
# Velocity S-wave (km/s) = 3.43156 3.63892 3.53676
# Velocity P-wave (km/s) = 5.44842 5.75315 5.60286
#
# Compressibility (1/GPa) = 0.03693125
#
# Stress axis : x y z
#
# Youngs Moduli (GPa) = 44.34044 66.79926 35.33242
#
# Poissons Ratio (x) = 0.14915 0.15828
# Poissons Ratio (y) = 0.09901 0.27328
# Poissons Ratio (z) = 0.19863 0.51666
#
# Static dielectric constant tensor:
#      x y z
#    x 3.876620 0.000000 0.000000 
#    y 0.000000 3.638040 0.000000 
#    z 0.000000 0.000000 3.433030 
# 
# 
# High freq. dielectric constant tensor:
#      x y z
#    x 1.754220 0.000000 0.000000 
#    y 0.000000 1.754180 0.000000 
#    z 0.000000 0.000000 1.731710 
# 
# From -- ./inp_files/8933.got.cif
#   From: 2010.03.12/outbox.cif.g09.slc.cpg/sg53_5_cif.got.tgz:8933.got - 2010.04.16 14:36:59.
