data_PCOD8221037
_publ_section_title
;
Structure prediction by ZEFSAII (Michael W. Deem and Ramdas Pophale) SiO2 
 PCOD8221037
Probable space group: P M N A
;
_chemical_formula_sum "Si O2"
_cell_formula_units_Z 40
_cell_length_a 27.618612
_cell_length_b 7.227833
_cell_length_c 9.043412
_cell_angle_alpha 90.000000
_cell_angle_beta 90.000000
_cell_angle_gamma 90.000000
_cell_volume 1805.270458
_symmetry_space_group_name_H-M "P M N A"
_symmetry_group_IT_number 53
_symmetry_cell_setting 'orthorhombic'
loop_
_space_group_symop_operation_xyz
x,y,z
1/2-x,-y,1/2+z
x,-y,-z
1/2-x,y,1/2-z
-x,-y,-z
1/2+x,y,1/2-z
-x,y,z
1/2+x,-y,1/2+z
loop_
_atom_site_type_symbol
_atom_site_label
_atom_site_fract_x
_atom_site_fract_y
_atom_site_fract_z
Si Si1 0.918960 0.951553 0.658613
Si Si2 0.053265 0.635181 0.847762
Si Si3 0.386677 0.187222 0.593868
Si Si4 0.862535 0.604211 0.652771
Si Si5 0.207872 0.587325 0.149469
O O1 0.954554 0.832695 0.763493
O O2 0.870864 0.823791 0.629006
O O3 0.942906 0.000000 0.500000
O O4 0.905167 0.141452 0.741240
O O5 0.091959 0.517614 0.749266
O O6 0.000000 0.541779 0.859525
O O7 0.075585 0.670360 0.013260
O O8 0.332684 0.265581 0.604197
O O9 0.383345 0.000000 0.500000
O O10 0.858520 0.500000 0.500000
O O11 0.814676 0.576755 0.750045
O O12 0.250000 0.680393 0.250000
O O13 0.230157 0.500000 0.000000
#
# Coordination Sequence:
#
# PCOD8221037 Si02
#       5
#     8   8   8   8   8
#     4   9  19  35  60  86 125 160 197 250 307 351
#     4   9  20  37  62  89 123 166 206 246 307 369
#     4  10  20  41  63  87 129 157 202 258 306 367
#     4  10  21  39  59  86 127 161 199 254 302 359
#     4  12  23  41  64  90 114 159 206 250 311 371
#
# _framework density 22.157346
#
# number of rings (size 3 to 8) (size 9 to 14) (size 15 to 20)
#    1.200    0.800    2.000    1.800    0.000    4.400 
#    0.000    9.000    0.000    0.000    0.000    0.000 
#    0.000    0.000    0.000    0.000    0.000    0.000 
#
# Total GULP energy -495619.923384 kJ/mol
# GULP energy per Si atom -12390.498085 kJ/mol
# Density = 2.210691 g / cm^3
# Si number density = 22.157346 Si / 1000 Ang^3
#
#
#
# Elastic Constant Matrix: (Units=GPa)
#
#
# Indices 1 2 3 4 5 6 
#
# 1 113.5504 1.8386 35.9225 0.0000 0.0000 0.0000
# 2 1.8386 33.3009 14.4925 0.0000 0.0000 0.0000
# 3 35.9225 14.4925 179.3854 0.0000 0.0000 0.0000
# 4 0.0000 0.0000 0.0000 30.0228 0.0000 0.0000
# 5 0.0000 0.0000 0.0000 0.0000 6.2210 0.0000
# 6 0.0000 0.0000 0.0000 0.0000 0.0000 13.3386
#
#
#
# Elastic Compliance Matrix: (Units=1/GPa)
#
#
# Indices 1 2 3 4 5 6 
#
# 1 0.009405 0.000311 -0.001909 0.000000 0.000000 0.000000
# 2 0.000311 0.031134 -0.002578 0.000000 0.000000 0.000000
# 3 -0.001909 -0.002578 0.006165 0.000000 0.000000 0.000000
# 4 0.000000 0.000000 0.000000 0.033308 0.000000 0.000000
# 5 0.000000 0.000000 0.000000 0.000000 0.160747 0.000000
# 6 0.000000 0.000000 0.000000 0.000000 0.000000 0.074970
#
#
# Mechanical properties :
#
#
# Convention : Reuss Voigt Hill
#
# Bulk Modulus (GPa) = 26.07262 47.86046 36.96654
# Shear Modulus (GPa) = 14.84277 28.18200 21.51239
#
# Velocity S-wave (km/s) = 2.59101 3.57024 3.11929
# Velocity P-wave (km/s) = 4.55453 6.21632 5.44915
#
# Compressibility (1/GPa) = 0.03835441
#
# Stress axis : x y z
#
# Youngs Moduli (GPa) = 106.32163 32.11943 162.20481
#
# Poissons Ratio (x) = -0.01000 0.30959
# Poissons Ratio (y) = -0.03310 0.41811
# Poissons Ratio (z) = 0.20293 0.08279
#
# Static dielectric constant tensor:
#      x y z
#    x 3.596350 0.000000 0.000000 
#    y 0.000000 3.964160 0.000000 
#    z 0.000000 0.000000 4.309420 
# 
# 
# High freq. dielectric constant tensor:
#      x y z
#    x 1.842090 0.000000 0.000000 
#    y 0.000000 1.860790 0.000000 
#    z 0.000000 0.000000 1.900930 
# 
# From -- ./inp_files/12300.got.cif
#   From: 2010.03.12/outbox.cif.g09.slc.cpg/sg53_7_cif.got.tgz:12300.got - 2010.04.16 14:36:59.
