data_PCOD8221483
_publ_section_title
;
Structure prediction by ZEFSAII (Michael W. Deem and Ramdas Pophale) SiO2 
 PCOD8221483
Probable space group: P M N A
;
_chemical_formula_sum "Si O2"
_cell_formula_units_Z 64
_cell_length_a 19.114186
_cell_length_b 11.019511
_cell_length_c 15.177241
_cell_angle_alpha 90.000000
_cell_angle_beta 90.000000
_cell_angle_gamma 90.000000
_cell_volume 3196.766835
_symmetry_space_group_name_H-M "P M N A"
_symmetry_group_IT_number 53
_symmetry_cell_setting 'orthorhombic'
loop_
_space_group_symop_operation_xyz
x,y,z
1/2-x,-y,1/2+z
x,-y,-z
1/2-x,y,1/2-z
-x,-y,-z
1/2+x,y,1/2-z
-x,y,z
1/2+x,-y,1/2+z
loop_
_atom_site_type_symbol
_atom_site_label
_atom_site_fract_x
_atom_site_fract_y
_atom_site_fract_z
Si Si1 0.918477 0.377826 0.046680
Si Si2 0.921509 0.502616 0.596678
Si Si3 0.322756 0.147468 0.224353
Si Si4 0.673354 0.873204 0.272778
Si Si5 0.921117 0.769284 0.378219
Si Si6 0.839430 0.859408 0.026041
Si Si7 0.321175 0.864170 0.980017
Si Si8 0.919361 0.347597 0.242692
O O1 0.907272 0.412664 0.149260
O O2 0.000000 0.359138 0.023742
O O3 0.888595 0.500000 0.000000
O O4 0.881663 0.249126 0.021901
O O5 0.883072 0.500000 0.500000
O O6 0.924416 0.372194 0.642037
O O7 0.884046 0.584374 0.672440
O O8 0.000000 0.552634 0.579631
O O9 0.250000 0.213228 0.250000
O O10 0.334574 0.154924 0.121405
O O11 0.386661 0.215464 0.269442
O O12 0.320576 0.016874 0.268153
O O13 0.750000 0.816728 0.250000
O O14 0.614842 0.832513 0.204486
O O15 0.648759 0.838383 0.370242
O O16 0.875628 0.781994 0.466725
O O17 0.000000 0.821771 0.390530
O O18 0.758239 0.836955 0.005853
O O19 0.860818 0.000000 0.000000
O O20 0.342323 0.000000 0.000000
O O21 0.000000 0.332520 0.263446
#
# Coordination Sequence:
#
# PCOD8221483 Si02
#       8
#     8   8   8   8   8   8   8   8
#     4  10  23  42  63  91 127 166 210 266 324 370
#     4   9  19  37  59  84 120 163 200 245 310 371
#     4  11  21  37  62  89 121 157 205 245 308 373
#     4  11  21  40  61  87 125 161 198 256 318 372
#     4  11  23  38  61  93 123 160 210 255 314 384
#     4  11  22  40  68  89 122 167 216 258 313 378
#     4  11  20  39  60  88 126 166 201 254 318 375
#     4  10  21  39  61  85 120 161 202 253 310 367
#
# _framework density 20.020227999999999
#
# number of rings (size 3 to 8) (size 9 to 14) (size 15 to 20)
#    0.000    1.500    2.500    4.500    1.750    3.000 
#    0.000    3.750    0.000    0.000    0.000    0.000 
#    0.000    0.000    0.000    0.000    0.000    0.000 
#
# Total GULP energy -793103.452714 kJ/mol
# GULP energy per Si atom -12392.241449 kJ/mol
# Density = 1.997466 g / cm^3
# Si number density = 20.020228 Si / 1000 Ang^3
#
#
#
# Elastic Constant Matrix: (Units=GPa)
#
#
# Indices 1 2 3 4 5 6 
#
# 1 67.6596 36.9850 31.3784 0.0000 0.0000 0.0000
# 2 36.9850 87.6260 23.9293 0.0000 0.0000 0.0000
# 3 31.3784 23.9293 104.4471 0.0000 0.0000 0.0000
# 4 0.0000 0.0000 0.0000 28.9974 0.0000 0.0000
# 5 0.0000 0.0000 0.0000 0.0000 22.5883 0.0000
# 6 0.0000 0.0000 0.0000 0.0000 0.0000 14.4091
#
#
#
# Elastic Compliance Matrix: (Units=1/GPa)
#
#
# Indices 1 2 3 4 5 6 
#
# 1 0.021086 -0.007649 -0.004582 0.000000 0.000000 0.000000
# 2 -0.007649 0.014948 -0.001127 0.000000 0.000000 0.000000
# 3 -0.004582 -0.001127 0.011209 0.000000 0.000000 0.000000
# 4 0.000000 0.000000 0.000000 0.034486 0.000000 0.000000
# 5 0.000000 0.000000 0.000000 0.000000 0.044271 0.000000
# 6 0.000000 0.000000 0.000000 0.000000 0.000000 0.069401
#
#
# Mechanical properties :
#
#
# Convention : Reuss Voigt Hill
#
# Bulk Modulus (GPa) = 48.71511 49.36869 49.04190
# Shear Modulus (GPa) = 21.83800 24.36162 23.09981
#
# Velocity S-wave (km/s) = 3.30630 3.49212 3.40048
# Velocity P-wave (km/s) = 6.24190 6.40100 6.32195
#
# Compressibility (1/GPa) = 0.02052751
#
# Stress axis : x y z
#
# Youngs Moduli (GPa) = 47.42481 66.89785 89.21352
#
# Poissons Ratio (x) = 0.51167 0.40881
# Poissons Ratio (y) = 0.36273 0.10053
# Poissons Ratio (z) = 0.21732 0.07539
#
# Static dielectric constant tensor:
#      x y z
#    x 3.647390 0.000000 0.000000 
#    y 0.000000 3.604470 0.000000 
#    z 0.000000 0.000000 3.651490 
# 
# 
# High freq. dielectric constant tensor:
#      x y z
#    x 1.763770 0.000000 0.000000 
#    y 0.000000 1.773620 0.000000 
#    z 0.000000 0.000000 1.805410 
# 
# From -- ./inp_files/23917.got.cif
#   From: 2010.03.12/outbox.cif.g09.slc.cpg/sg53_12_cif.got.tgz:23917.got - 2010.04.16 14:36:59.
