data_PCOD8221506
_publ_section_title
;
Structure prediction by ZEFSAII (Michael W. Deem and Ramdas Pophale) SiO2 
 PCOD8221506
Probable space group: P M N A
;
_chemical_formula_sum "Si O2"
_cell_formula_units_Z 64
_cell_length_a 14.846790
_cell_length_b 24.396687
_cell_length_c 8.864845
_cell_angle_alpha 90.000000
_cell_angle_beta 90.000000
_cell_angle_gamma 90.000000
_cell_volume 3210.957568
_symmetry_space_group_name_H-M "P M N A"
_symmetry_group_IT_number 53
_symmetry_cell_setting 'orthorhombic'
loop_
_space_group_symop_operation_xyz
x,y,z
1/2-x,-y,1/2+z
x,-y,-z
1/2-x,y,1/2-z
-x,-y,-z
1/2+x,y,1/2-z
-x,y,z
1/2+x,-y,1/2+z
loop_
_atom_site_type_symbol
_atom_site_label
_atom_site_fract_x
_atom_site_fract_y
_atom_site_fract_z
Si Si1 0.605417 0.364644 0.426213
Si Si2 0.750071 0.941177 0.573174
Si Si3 0.893281 0.254097 0.580794
Si Si4 0.897179 0.143961 0.072824
Si Si5 0.397177 0.144090 0.073191
Si Si6 0.393285 0.253969 0.581035
Si Si7 0.105424 0.635200 0.573924
Si Si8 0.250077 0.440504 0.570773
O O1 0.500000 0.373325 0.460573
O O2 0.639496 0.305246 0.481930
O O3 0.659649 0.410340 0.516670
O O4 0.626865 0.369732 0.250087
O O5 0.750000 0.949878 0.750000
O O6 0.661302 0.908118 0.521360
O O7 0.838706 0.907961 0.521508
O O8 0.750297 0.000000 0.500000
O O9 0.857445 0.197868 0.508330
O O10 0.854722 0.260004 0.749898
O O11 0.860429 0.305457 0.482092
O O12 0.000000 0.252323 0.581212
O O13 0.888203 0.154992 0.249789
O O14 0.000000 0.131817 0.025792
O O15 0.857433 0.197685 0.991069
O O16 0.500000 0.131988 0.026083
O O17 0.500000 0.252149 0.581570
O O18 0.159651 0.589403 0.483794
O O19 0.000000 0.626507 0.539610
O O20 0.250426 0.500000 0.500000
O O21 0.250000 0.444357 0.750000
#
# Coordination Sequence:
#
# PCOD8221506 Si02
#       8
#     8   8   8   8   8   8   8   8
#     4  10  21  39  63  89 119 155 192 233 284 341
#     4  10  22  37  52  73 100 133 177 223 265 318
#     4   9  17  31  54  85 116 144 179 224 275 331
#     4   9  18  34  54  75 103 139 175 215 267 324
#     4   9  18  34  54  75 103 139 175 215 267 324
#     4   9  17  31  54  85 116 144 179 224 275 331
#     4  10  21  39  63  89 119 155 192 233 284 341
#     4  12  26  43  62  85 116 153 197 245 287 336
#
# _framework density 19.931749
#
# number of rings (size 3 to 8) (size 9 to 14) (size 15 to 20)
#    0.000    2.250    0.000    2.625    0.000    7.500 
#    0.000    3.750    0.000    0.000    0.000    0.000 
#    0.000    0.000    0.000    0.000    0.000    0.000 
#
# Total GULP energy -793689.278918 kJ/mol
# GULP energy per Si atom -12401.394983 kJ/mol
# Density = 1.988638 g / cm^3
# Si number density = 19.931749 Si / 1000 Ang^3
#
#
#
# Elastic Constant Matrix: (Units=GPa)
#
#
# Indices 1 2 3 4 5 6 
#
# 1 95.6199 71.2759 47.3468 0.0000 0.0000 0.0000
# 2 71.2759 197.1774 80.4569 0.0000 0.0000 0.0000
# 3 47.3468 80.4569 123.4073 0.0000 0.0000 0.0000
# 4 0.0000 0.0000 0.0000 43.0931 0.0000 0.0000
# 5 0.0000 0.0000 0.0000 0.0000 21.6525 0.0000
# 6 0.0000 0.0000 0.0000 0.0000 0.0000 40.3827
#
#
#
# Elastic Compliance Matrix: (Units=1/GPa)
#
#
# Indices 1 2 3 4 5 6 
#
# 1 0.015112 -0.004219 -0.003047 0.000000 0.000000 0.000000
# 2 -0.004219 0.008088 -0.003654 0.000000 0.000000 0.000000
# 3 -0.003047 -0.003654 0.011655 0.000000 0.000000 0.000000
# 4 0.000000 0.000000 0.000000 0.023206 0.000000 0.000000
# 5 0.000000 0.000000 0.000000 0.000000 0.046184 0.000000
# 6 0.000000 0.000000 0.000000 0.000000 0.000000 0.024763
#
#
# Mechanical properties :
#
#
# Convention : Reuss Voigt Hill
#
# Bulk Modulus (GPa) = 76.84410 90.48488 83.66449
# Shear Modulus (GPa) = 32.21937 35.50065 33.86001
#
# Velocity S-wave (km/s) = 4.02491 4.22490 4.12612
# Velocity P-wave (km/s) = 7.76126 8.32440 8.04776
#
# Compressibility (1/GPa) = 0.01301336
#
# Stress axis : x y z
#
# Youngs Moduli (GPa) = 66.17262 123.64219 85.80257
#
# Poissons Ratio (x) = 0.52169 0.26144
# Poissons Ratio (y) = 0.27921 0.31354
# Poissons Ratio (z) = 0.20163 0.45181
#
# Static dielectric constant tensor:
#      x y z
#    x 3.694110 0.000000 0.000000 
#    y 0.000000 3.781020 0.000000 
#    z 0.000000 0.000000 3.727430 
# 
# 
# High freq. dielectric constant tensor:
#      x y z
#    x 1.778590 0.000000 0.000000 
#    y 0.000000 1.777310 0.000000 
#    z 0.000000 0.000000 1.780660 
# 
# From -- ./inp_files/8916.got.cif
#   From: 2010.03.12/outbox.cif.g09.slc.cpg/sg53_5_cif.got.tgz:8916.got - 2010.04.16 14:36:59.
