data_PCOD8221151
_publ_section_title
;
Structure prediction by ZEFSAII (Michael W. Deem and Ramdas Pophale) SiO2 
 PCOD8221151
Probable space group: P M N A
;
_chemical_formula_sum "Si O2"
_cell_formula_units_Z 32
_cell_length_a 9.051809
_cell_length_b 7.764575
_cell_length_c 26.460360
_cell_angle_alpha 90.000000
_cell_angle_beta 90.000000
_cell_angle_gamma 90.000000
_cell_volume 1859.725386
_symmetry_space_group_name_H-M "P M N A"
_symmetry_group_IT_number 53
_symmetry_cell_setting 'orthorhombic'
loop_
_space_group_symop_operation_xyz
x,y,z
1/2-x,-y,1/2+z
x,-y,-z
1/2-x,y,1/2-z
-x,-y,-z
1/2+x,y,1/2-z
-x,y,z
1/2+x,-y,1/2+z
loop_
_atom_site_type_symbol
_atom_site_label
_atom_site_fract_x
_atom_site_fract_y
_atom_site_fract_z
Si Si1 0.327341 0.478688 0.442496
Si Si2 0.326090 0.877761 0.608111
Si Si3 0.166560 0.791865 0.395509
Si Si4 0.833088 0.002934 0.698208
O O1 0.274997 0.500000 0.500000
O O2 0.500000 0.515909 0.436601
O O3 0.285262 0.287501 0.425032
O O4 0.242046 0.611668 0.407252
O O5 0.500000 0.902058 0.614136
O O6 0.252499 0.859340 0.664126
O O7 0.257770 0.046971 0.580091
O O8 0.000000 0.793758 0.417001
O O9 0.166296 0.819238 0.334434
O O10 0.750000 0.037729 0.750000
O O11 0.000000 0.939594 0.708880
#
# Coordination Sequence:
#
# PCOD8221151 Si02
#       4
#     8   8   8   8
#     4  10  21  36  55  79 106 141 182 220 262 314
#     4   9  18  34  55  77 107 141 175 218 262 308
#     4   9  20  35  53  78 108 140 175 219 264 313
#     4   9  18  33  55  80 105 138 175 214 264 315
#
# _framework density 17.206842000000002
#
# number of rings (size 3 to 8) (size 9 to 14) (size 15 to 20)
#    1.500    1.250    0.000    1.500    0.000    3.500 
#    0.000    6.250    0.000    3.000    0.000    0.000 
#    0.000    0.000    0.000    0.000    0.000    0.000 
#
# Total GULP energy -396479.959744 kJ/mol
# GULP energy per Si atom -12389.998742 kJ/mol
# Density = 1.716768 g / cm^3
# Si number density = 17.206842 Si / 1000 Ang^3
#
#
#
# Elastic Constant Matrix: (Units=GPa)
#
#
# Indices 1 2 3 4 5 6 
#
# 1 100.4146 42.0423 27.4308 0.0000 0.0000 0.0000
# 2 42.0423 70.7736 10.4282 0.0000 0.0000 0.0000
# 3 27.4308 10.4282 61.5589 0.0000 0.0000 0.0000
# 4 0.0000 0.0000 0.0000 24.9730 0.0000 0.0000
# 5 0.0000 0.0000 0.0000 0.0000 18.1885 0.0000
# 6 0.0000 0.0000 0.0000 0.0000 0.0000 24.4443
#
#
#
# Elastic Compliance Matrix: (Units=1/GPa)
#
#
# Indices 1 2 3 4 5 6 
#
# 1 0.014722 -0.007978 -0.005209 0.000000 0.000000 0.000000
# 2 -0.007978 0.018815 0.000368 0.000000 0.000000 0.000000
# 3 -0.005209 0.000368 0.018503 0.000000 0.000000 0.000000
# 4 0.000000 0.000000 0.000000 0.040043 0.000000 0.000000
# 5 0.000000 0.000000 0.000000 0.000000 0.054980 0.000000
# 6 0.000000 0.000000 0.000000 0.000000 0.000000 0.040909
#
#
# Mechanical properties :
#
#
# Convention : Reuss Voigt Hill
#
# Bulk Modulus (GPa) = 37.87568 43.61662 40.74615
# Shear Modulus (GPa) = 22.48099 23.71088 23.09594
#
# Velocity S-wave (km/s) = 3.61850 3.71616 3.66765
# Velocity P-wave (km/s) = 6.28632 6.61941 6.45501
#
# Compressibility (1/GPa) = 0.02640217
#
# Stress axis : x y z
#
# Youngs Moduli (GPa) = 67.92647 53.15034 54.04445
#
# Poissons Ratio (x) = 0.42403 0.28150
# Poissons Ratio (y) = 0.54191 -0.01987
# Poissons Ratio (z) = 0.35380 -0.01954
#
# Static dielectric constant tensor:
#      x y z
#    x 3.293110 0.000000 0.000000 
#    y 0.000000 2.970740 0.000000 
#    z 0.000000 0.000000 3.007000 
# 
# 
# High freq. dielectric constant tensor:
#      x y z
#    x 1.681270 0.000000 0.000000 
#    y 0.000000 1.643670 0.000000 
#    z 0.000000 0.000000 1.647180 
# 
# From -- ./inp_files/33543.got.cif
#   From: 2010.03.12/outbox.cif.g09.slc.cpg/sg53_17_cif.got.tgz:33543.got - 2010.04.16 14:36:59.
