data_PCOD8221570
_publ_section_title
;
Structure prediction by ZEFSAII (Michael W. Deem and Ramdas Pophale) SiO2 
 PCOD8221570
Probable space group: P M N A
;
_chemical_formula_sum "Si O2"
_cell_formula_units_Z 32
_cell_length_a 12.737877
_cell_length_b 8.670730
_cell_length_c 13.370418
_cell_angle_alpha 90.000000
_cell_angle_beta 90.000000
_cell_angle_gamma 90.000000
_cell_volume 1476.718442
_symmetry_space_group_name_H-M "P M N A"
_symmetry_group_IT_number 53
_symmetry_cell_setting 'orthorhombic'
loop_
_space_group_symop_operation_xyz
x,y,z
1/2-x,-y,1/2+z
x,-y,-z
1/2-x,y,1/2-z
-x,-y,-z
1/2+x,y,1/2-z
-x,y,z
1/2+x,-y,1/2+z
loop_
_atom_site_type_symbol
_atom_site_label
_atom_site_fract_x
_atom_site_fract_y
_atom_site_fract_z
Si Si1 0.500000 0.410808 0.362146
Si Si2 0.500000 0.527266 0.862105
Si Si3 0.173237 0.244745 0.009770
Si Si4 0.821132 0.500000 0.500000
Si Si5 0.000000 0.218415 0.866399
Si Si6 0.668682 0.000000 0.000000
Si Si7 0.500000 0.159677 0.862086
O O1 0.500000 0.390905 0.243745
O O2 0.396475 0.327932 0.405124
O O3 0.500000 0.594452 0.381397
O O4 0.605996 0.582974 0.916540
O O5 0.500000 0.342683 0.873762
O O6 0.245584 0.370702 0.952805
O O7 0.102977 0.160743 0.925052
O O8 0.254228 0.121063 0.056059
O O9 0.000000 0.138693 0.758162
O O10 0.601145 0.917667 0.086781
#
# Coordination Sequence:
#
# PCOD8221570 Si02
#       7
#     4   4   8   4   4   4   4
#     4  10  21  40  64 101 129 162 227 276 315 380
#     4  10  22  38  65  97 128 172 222 276 316 379
#     4  11  21  41  66  95 134 171 209 272 331 381
#     4  11  20  39  64  94 128 169 220 273 318 370
#     4  10  21  40  68  97 124 169 225 273 314 392
#     4  11  24  41  64  94 136 183 206 267 338 394
#     4  10  22  42  63  93 135 171 223 263 323 399
#
# _framework density 21.66967
#
# number of rings (size 3 to 8) (size 9 to 14) (size 15 to 20)
#    0.000    1.500    5.000    0.750    0.000    4.000 
#    0.000    7.500    0.000    0.000    0.000    0.000 
#    0.000    0.000    0.000    0.000    0.000    0.000 
#
# Total GULP energy -396431.623848 kJ/mol
# GULP energy per Si atom -12388.488245 kJ/mol
# Density = 2.162035 g / cm^3
# Si number density = 21.669670 Si / 1000 Ang^3
#
#
#
# Elastic Constant Matrix: (Units=GPa)
#
#
# Indices 1 2 3 4 5 6 
#
# 1 171.6729 56.4806 73.6423 0.0000 0.0000 0.0000
# 2 56.4806 75.7810 32.9212 0.0000 0.0000 0.0000
# 3 73.6423 32.9212 161.8227 0.0000 0.0000 0.0000
# 4 0.0000 0.0000 0.0000 32.6967 0.0000 0.0000
# 5 0.0000 0.0000 0.0000 0.0000 7.8340 0.0000
# 6 0.0000 0.0000 0.0000 0.0000 0.0000 85.4062
#
#
#
# Elastic Compliance Matrix: (Units=1/GPa)
#
#
# Indices 1 2 3 4 5 6 
#
# 1 0.008831 -0.005305 -0.002940 0.000000 0.000000 0.000000
# 2 -0.005305 0.017662 -0.001179 0.000000 0.000000 0.000000
# 3 -0.002940 -0.001179 0.007757 0.000000 0.000000 0.000000
# 4 0.000000 0.000000 0.000000 0.030584 0.000000 0.000000
# 5 0.000000 0.000000 0.000000 0.000000 0.127649 0.000000
# 6 0.000000 0.000000 0.000000 0.000000 0.000000 0.011709
#
#
# Mechanical properties :
#
#
# Convention : Reuss Voigt Hill
#
# Bulk Modulus (GPa) = 64.92149 81.70719 73.31434
# Shear Modulus (GPa) = 21.91308 41.60289 31.75798
#
# Velocity S-wave (km/s) = 3.18344 4.38638 3.83240
# Velocity P-wave (km/s) = 6.59826 7.96501 7.31363
#
# Compressibility (1/GPa) = 0.01540322
#
# Stress axis : x y z
#
# Youngs Moduli (GPa) = 113.23131 56.61858 128.91136
#
# Poissons Ratio (x) = 0.30037 0.37897
# Poissons Ratio (y) = 0.60070 0.15198
# Poissons Ratio (z) = 0.33287 0.06675
#
# Static dielectric constant tensor:
#      x y z
#    x 4.251540 0.000000 0.000000 
#    y 0.000000 3.963290 0.000000 
#    z 0.000000 0.000000 3.707420 
# 
# 
# High freq. dielectric constant tensor:
#      x y z
#    x 1.880820 0.000000 0.000000 
#    y 0.000000 1.850020 0.000000 
#    z 0.000000 0.000000 1.817180 
# 
# From -- ./inp_files/21524.got.cif
#   From: 2010.03.12/outbox.cif.g09.slc.cpg/sg53_11_cif.got.tgz:21524.got - 2010.04.16 14:36:59.
