data_PCOD8221432
_publ_section_title
;
Structure prediction by ZEFSAII (Michael W. Deem and Ramdas Pophale) SiO2 
 PCOD8221432
Probable space group: P M N A
;
_chemical_formula_sum "Si O2"
_cell_formula_units_Z 48
_cell_length_a 8.416553
_cell_length_b 11.664782
_cell_length_c 25.177924
_cell_angle_alpha 90.000000
_cell_angle_beta 90.000000
_cell_angle_gamma 90.000000
_cell_volume 2471.899488
_symmetry_space_group_name_H-M "P M N A"
_symmetry_group_IT_number 53
_symmetry_cell_setting 'orthorhombic'
loop_
_space_group_symop_operation_xyz
x,y,z
1/2-x,-y,1/2+z
x,-y,-z
1/2-x,y,1/2-z
-x,-y,-z
1/2+x,y,1/2-z
-x,y,z
1/2+x,-y,1/2+z
loop_
_atom_site_type_symbol
_atom_site_label
_atom_site_fract_x
_atom_site_fract_y
_atom_site_fract_z
Si Si1 0.817343 0.740723 0.092230
Si Si2 0.686712 0.131481 0.191624
Si Si3 0.317465 0.276252 0.402254
Si Si4 0.314412 0.885627 0.306551
Si Si5 0.183530 0.869408 0.505256
Si Si6 0.184158 0.491782 0.560663
O O1 0.777890 0.786927 0.150908
O O2 0.782256 0.605677 0.091346
O O3 0.000000 0.764340 0.077587
O O4 0.706690 0.805080 0.050216
O O5 0.750000 0.157793 0.250000
O O6 0.500000 0.151331 0.188047
O O7 0.774176 0.219469 0.153290
O O8 0.726462 0.001337 0.175051
O O9 0.500000 0.313738 0.402340
O O10 0.289398 0.186784 0.449397
O O11 0.210634 0.388458 0.409985
O O12 0.250000 0.841615 0.250000
O O13 0.500000 0.913793 0.301456
O O14 0.000000 0.860781 0.522292
O O15 0.239318 0.000000 0.500000
O O16 0.245096 0.500000 0.500000
O O17 0.000000 0.458546 0.562023
#
# Coordination Sequence:
#
# PCOD8221432 Si02
#       6
#     8   8   8   8   8   8
#     4  11  23  38  59  87 118 154 198 245 295 354
#     4  11  22  39  63  90 122 158 199 243 296 352
#     4  12  24  39  61  87 119 155 198 245 296 353
#     4  10  21  38  61  90 122 157 199 242 294 352
#     4  11  23  37  56  85 119 154 193 240 296 354
#     4  11  23  40  62  86 116 156 202 246 296 357
#
# _framework density 19.418264000000001
#
# number of rings (size 3 to 8) (size 9 to 14) (size 15 to 20)
#    0.000    1.000    1.667    7.000    0.000    7.333 
#    0.000    0.833    0.000    2.000    0.000    0.000 
#    0.000    0.000    0.000    0.000    0.000    0.000 
#
# Total GULP energy -595576.489905 kJ/mol
# GULP energy per Si atom -12407.843540 kJ/mol
# Density = 1.937407 g / cm^3
# Si number density = 19.418264 Si / 1000 Ang^3
#
#
#
# Elastic Constant Matrix: (Units=GPa)
#
#
# Indices 1 2 3 4 5 6 
#
# 1 68.4724 8.7627 20.8058 0.0000 0.0000 0.0000
# 2 8.7627 121.4600 59.1474 0.0000 0.0000 0.0000
# 3 20.8058 59.1474 108.2041 0.0000 0.0000 0.0000
# 4 0.0000 0.0000 0.0000 59.6973 0.0000 0.0000
# 5 0.0000 0.0000 0.0000 0.0000 29.7403 0.0000
# 6 0.0000 0.0000 0.0000 0.0000 0.0000 28.5609
#
#
#
# Elastic Compliance Matrix: (Units=1/GPa)
#
#
# Indices 1 2 3 4 5 6 
#
# 1 0.015529 0.000455 -0.003235 0.000000 0.000000 0.000000
# 2 0.000455 0.011233 -0.006228 0.000000 0.000000 0.000000
# 3 -0.003235 -0.006228 0.013268 0.000000 0.000000 0.000000
# 4 0.000000 0.000000 0.000000 0.016751 0.000000 0.000000
# 5 0.000000 0.000000 0.000000 0.000000 0.033624 0.000000
# 6 0.000000 0.000000 0.000000 0.000000 0.000000 0.035013
#
#
# Mechanical properties :
#
#
# Convention : Reuss Voigt Hill
#
# Bulk Modulus (GPa) = 45.42340 52.84092 49.13216
# Shear Modulus (GPa) = 33.16263 37.56108 35.36186
#
# Velocity S-wave (km/s) = 4.13704 4.40286 4.27202
# Velocity P-wave (km/s) = 6.80170 7.28820 7.04915
#
# Compressibility (1/GPa) = 0.02201508
#
# Stress axis : x y z
#
# Youngs Moduli (GPa) = 64.39537 89.02277 75.36923
#
# Poissons Ratio (x) = -0.04049 0.24379
# Poissons Ratio (y) = -0.02929 0.46938
# Poissons Ratio (z) = 0.20829 0.55441
#
# Static dielectric constant tensor:
#      x y z
#    x 3.928810 0.000000 0.000000 
#    y 0.000000 3.540020 0.000000 
#    z 0.000000 0.000000 3.501630 
# 
# 
# High freq. dielectric constant tensor:
#      x y z
#    x 1.771430 0.000000 0.000000 
#    y 0.000000 1.755760 0.000000 
#    z 0.000000 0.000000 1.755110 
# 
# From -- ./inp_files/33849.got.cif
#   From: 2010.03.12/outbox.cif.g09.slc.cpg/sg53_17_cif.got.tgz:33849.got - 2010.04.16 14:36:59.
