data_PCOD8221533
_publ_section_title
;
Structure prediction by ZEFSAII (Michael W. Deem and Ramdas Pophale) SiO2 
 PCOD8221533
Probable space group: P M N A
;
_chemical_formula_sum "Si O2"
_cell_formula_units_Z 56
_cell_length_a 19.192901
_cell_length_b 9.278201
_cell_length_c 14.981484
_cell_angle_alpha 90.000000
_cell_angle_beta 90.000000
_cell_angle_gamma 90.000000
_cell_volume 2667.836651
_symmetry_space_group_name_H-M "P M N A"
_symmetry_group_IT_number 53
_symmetry_cell_setting 'orthorhombic'
loop_
_space_group_symop_operation_xyz
x,y,z
1/2-x,-y,1/2+z
x,-y,-z
1/2-x,y,1/2-z
-x,-y,-z
1/2+x,y,1/2-z
-x,y,z
1/2+x,-y,1/2+z
loop_
_atom_site_type_symbol
_atom_site_label
_atom_site_fract_x
_atom_site_fract_y
_atom_site_fract_z
Si Si1 0.180805 0.140564 0.053924
Si Si2 0.798580 0.335021 0.491671
Si Si3 0.417540 0.664131 0.856752
Si Si4 0.193023 0.812680 0.319593
Si Si5 0.581309 0.352965 0.546868
Si Si6 0.419568 0.375894 0.750098
Si Si7 0.324770 0.125010 0.247390
O O1 0.151882 0.090492 0.150719
O O2 0.245710 0.248949 0.072570
O O3 0.121117 0.219485 0.996934
O O4 0.205155 0.000000 0.000000
O O5 0.773518 0.500000 0.500000
O O6 0.877029 0.333772 0.451441
O O7 0.790046 0.247741 0.583223
O O8 0.500000 0.681950 0.874512
O O9 0.398803 0.519631 0.803314
O O10 0.389243 0.792019 0.795598
O O11 0.250000 0.750547 0.250000
O O12 0.116577 0.759249 0.295227
O O13 0.190781 0.985265 0.314419
O O14 0.602320 0.500000 0.500000
O O15 0.500000 0.317688 0.537783
O O16 0.604406 0.382263 0.648046
O O17 0.500000 0.345117 0.758565
O O18 0.250000 0.209061 0.250000
#
# Coordination Sequence:
#
# PCOD8221533 Si02
#       7
#     8   8   8   8   8   8   8
#     4  12  24  41  68 100 138 180 230 284 346 413
#     4  12  25  44  68 100 134 175 228 289 339 413
#     4  11  25  44  69 100 134 181 229 282 344 409
#     4  11  24  42  66  97 131 174 222 276 338 402
#     4  10  21  39  64  97 134 177 227 285 342 403
#     4  10  21  40  63  92 131 170 220 277 336 396
#     4  11  23  43  65  93 136 176 222 280 336 406
#
# _framework density 20.990791000000002
#
# number of rings (size 3 to 8) (size 9 to 14) (size 15 to 20)
#    0.000    1.000    2.857    4.714    0.000    5.143 
#    0.000    0.714    0.000    0.000    0.000    0.000 
#    0.000    0.000    0.000    0.000    0.000    0.000 
#
# Total GULP energy -694337.377912 kJ/mol
# GULP energy per Si atom -12398.881748 kJ/mol
# Density = 2.094301 g / cm^3
# Si number density = 20.990791 Si / 1000 Ang^3
#
#
#
# Elastic Constant Matrix: (Units=GPa)
#
#
# Indices 1 2 3 4 5 6 
#
# 1 84.2776 49.3166 31.4708 0.0000 0.0000 0.0000
# 2 49.3166 98.4464 27.8458 0.0000 0.0000 0.0000
# 3 31.4708 27.8458 106.1921 0.0000 0.0000 0.0000
# 4 0.0000 0.0000 0.0000 38.8143 0.0000 0.0000
# 5 0.0000 0.0000 0.0000 0.0000 37.8264 0.0000
# 6 0.0000 0.0000 0.0000 0.0000 0.0000 36.2503
#
#
#
# Elastic Compliance Matrix: (Units=1/GPa)
#
#
# Indices 1 2 3 4 5 6 
#
# 1 0.017715 -0.007981 -0.003157 0.000000 0.000000 0.000000
# 2 -0.007981 0.014567 -0.001455 0.000000 0.000000 0.000000
# 3 -0.003157 -0.001455 0.010734 0.000000 0.000000 0.000000
# 4 0.000000 0.000000 0.000000 0.025764 0.000000 0.000000
# 5 0.000000 0.000000 0.000000 0.000000 0.026437 0.000000
# 6 0.000000 0.000000 0.000000 0.000000 0.000000 0.027586
#
#
# Mechanical properties :
#
#
# Convention : Reuss Voigt Hill
#
# Bulk Modulus (GPa) = 56.08393 56.24248 56.16320
# Shear Modulus (GPa) = 32.48196 34.59707 33.53952
#
# Velocity S-wave (km/s) = 3.93802 4.06421 4.00161
# Velocity P-wave (km/s) = 6.88866 6.99112 6.94008
#
# Compressibility (1/GPa) = 0.01783042
#
# Stress axis : x y z
#
# Youngs Moduli (GPa) = 56.45000 68.64636 93.16243
#
# Poissons Ratio (x) = 0.54788 0.29412
# Poissons Ratio (y) = 0.45054 0.13551
# Poissons Ratio (z) = 0.17822 0.09985
#
# Static dielectric constant tensor:
#      x y z
#    x 3.759430 0.000000 0.000000 
#    y 0.000000 3.769140 0.000000 
#    z 0.000000 0.000000 4.243810 
# 
# 
# High freq. dielectric constant tensor:
#      x y z
#    x 1.822780 0.000000 0.000000 
#    y 0.000000 1.819430 0.000000 
#    z 0.000000 0.000000 1.839490 
# 
# From -- ./inp_files/24309.got.cif
#   From: 2010.03.12/outbox.cif.g09.slc.cpg/sg53_13_cif.got.tgz:24309.got - 2010.04.16 14:36:59.
