data_PCOD8221230
_publ_section_title
;
Structure prediction by ZEFSAII (Michael W. Deem and Ramdas Pophale) SiO2 
 PCOD8221230
Probable space group: P M N A
;
_chemical_formula_sum "Si O2"
_cell_formula_units_Z 64
_cell_length_a 8.980651
_cell_length_b 23.938118
_cell_length_c 15.085293
_cell_angle_alpha 90.000000
_cell_angle_beta 90.000000
_cell_angle_gamma 90.000000
_cell_volume 3243.034530
_symmetry_space_group_name_H-M "P M N A"
_symmetry_group_IT_number 53
_symmetry_cell_setting 'orthorhombic'
loop_
_space_group_symop_operation_xyz
x,y,z
1/2-x,-y,1/2+z
x,-y,-z
1/2-x,y,1/2-z
-x,-y,-z
1/2+x,y,1/2-z
-x,y,z
1/2+x,-y,1/2+z
loop_
_atom_site_type_symbol
_atom_site_label
_atom_site_fract_x
_atom_site_fract_y
_atom_site_fract_z
Si Si1 0.325349 0.576274 0.338826
Si Si2 0.326191 0.191087 0.654623
Si Si3 0.173859 0.839854 0.655581
Si Si4 0.674850 0.549914 0.660921
Si Si5 0.823366 0.753140 0.507834
Si Si6 0.674058 0.036626 0.154667
Si Si7 0.327726 0.932827 0.344382
Si Si8 0.675295 0.638120 0.514489
O O1 0.250000 0.599445 0.250000
O O2 0.500000 0.576715 0.324322
O O3 0.271262 0.513169 0.360374
O O4 0.278308 0.617393 0.417258
O O5 0.250000 0.198140 0.750000
O O6 0.500000 0.205417 0.665466
O O7 0.251956 0.233485 0.586097
O O8 0.304912 0.128546 0.613409
O O9 0.250000 0.829217 0.750000
O O10 0.232594 0.796058 0.583228
O O11 0.206915 0.901888 0.614910
O O12 0.000000 0.832327 0.673100
O O13 0.750000 0.572696 0.750000
O O14 0.500000 0.551801 0.674820
O O15 0.724400 0.589469 0.581151
O O16 0.769745 0.692505 0.538877
O O17 0.000000 0.755370 0.496701
O O18 0.750000 0.036215 0.250000
O O19 0.500000 0.024973 0.161977
O O20 0.748808 0.984131 0.100821
O O21 0.250000 0.929282 0.250000
O O22 0.500000 0.947480 0.333439
O O23 0.500000 0.651180 0.521144
#
# Coordination Sequence:
#
# PCOD8221230 Si02
#       8
#     8   8   8   8   8   8   8   8
#     4   9  18  34  57  84 112 142 177 216 262 318
#     4  10  21  38  59  81 107 142 181 223 274 327
#     4   9  20  37  56  78 105 141 182 226 275 325
#     4   9  18  34  57  84 113 144 177 217 265 318
#     4  11  24  40  56  78 109 144 188 234 272 318
#     4   9  15  26  47  74 102 132 169 213 266 325
#     4   9  16  27  47  76 105 132 167 212 265 325
#     4  10  21  37  56  78 108 146 184 221 266 319
#
# _framework density 19.734603
#
# number of rings (size 3 to 8) (size 9 to 14) (size 15 to 20)
#    0.000    2.500    0.000    2.625    0.000    6.500 
#    0.000    4.375    0.000    7.500    0.000    0.000 
#    0.000    0.000    0.000    0.000    0.000    0.000 
#
# Total GULP energy -793284.382456 kJ/mol
# GULP energy per Si atom -12395.068476 kJ/mol
# Density = 1.968969 g / cm^3
# Si number density = 19.734603 Si / 1000 Ang^3
#
#
#
# Elastic Constant Matrix: (Units=GPa)
#
#
# Indices 1 2 3 4 5 6 
#
# 1 70.2278 25.9100 19.9014 0.0000 0.0000 0.0000
# 2 25.9100 73.5200 14.5420 0.0000 0.0000 0.0000
# 3 19.9014 14.5420 59.6136 0.0000 0.0000 0.0000
# 4 0.0000 0.0000 0.0000 21.5519 0.0000 0.0000
# 5 0.0000 0.0000 0.0000 0.0000 23.8894 0.0000
# 6 0.0000 0.0000 0.0000 0.0000 0.0000 34.0811
#
#
#
# Elastic Compliance Matrix: (Units=1/GPa)
#
#
# Indices 1 2 3 4 5 6 
#
# 1 0.017468 -0.005256 -0.004549 0.000000 0.000000 0.000000
# 2 -0.005256 0.015873 -0.002117 0.000000 0.000000 0.000000
# 3 -0.004549 -0.002117 0.018810 0.000000 0.000000 0.000000
# 4 0.000000 0.000000 0.000000 0.046400 0.000000 0.000000
# 5 0.000000 0.000000 0.000000 0.000000 0.041860 0.000000
# 6 0.000000 0.000000 0.000000 0.000000 0.000000 0.029342
#
#
# Mechanical properties :
#
#
# Convention : Reuss Voigt Hill
#
# Bulk Modulus (GPa) = 35.32924 36.00757 35.66841
# Shear Modulus (GPa) = 24.62663 25.43834 25.03248
#
# Velocity S-wave (km/s) = 3.53638 3.59419 3.56540
# Velocity P-wave (km/s) = 5.88351 5.95901 5.92138
#
# Compressibility (1/GPa) = 0.02830516
#
# Stress axis : x y z
#
# Youngs Moduli (GPa) = 57.24821 63.00042 53.16342
#
# Poissons Ratio (x) = 0.33114 0.24186
# Poissons Ratio (y) = 0.30091 0.11256
# Poissons Ratio (z) = 0.26044 0.13339
#
# Static dielectric constant tensor:
#      x y z
#    x 3.579710 0.000000 0.000000 
#    y 0.000000 4.212100 0.000000 
#    z 0.000000 0.000000 3.074830 
# 
# 
# High freq. dielectric constant tensor:
#      x y z
#    x 1.768360 0.000000 0.000000 
#    y 0.000000 1.780970 0.000000 
#    z 0.000000 0.000000 1.746860 
# 
# From -- ./inp_files/20856.got.cif
#   From: 2010.03.12/outbox.cif.g09.slc.cpg/sg53_11_cif.got.tgz:20856.got - 2010.04.16 14:36:59.
