data_PCOD8221759
_publ_section_title
;
Structure prediction by ZEFSAII (Michael W. Deem and Ramdas Pophale) SiO2 
 PCOD8221759
Probable space group: P M N A
;
_chemical_formula_sum "Si O2"
_cell_formula_units_Z 64
_cell_length_a 8.525248
_cell_length_b 11.985477
_cell_length_c 30.958718
_cell_angle_alpha 90.000000
_cell_angle_beta 90.000000
_cell_angle_gamma 90.000000
_cell_volume 3163.335918
_symmetry_space_group_name_H-M "P M N A"
_symmetry_group_IT_number 53
_symmetry_cell_setting 'orthorhombic'
loop_
_space_group_symop_operation_xyz
x,y,z
1/2-x,-y,1/2+z
x,-y,-z
1/2-x,y,1/2-z
-x,-y,-z
1/2+x,y,1/2-z
-x,y,z
1/2+x,-y,1/2+z
loop_
_atom_site_type_symbol
_atom_site_label
_atom_site_fract_x
_atom_site_fract_y
_atom_site_fract_z
Si Si1 0.314132 0.479207 0.452708
Si Si2 0.181758 0.033443 0.451291
Si Si3 0.186603 0.371653 0.875157
Si Si4 0.182247 0.752967 0.912695
Si Si5 0.815886 0.485872 0.204790
Si Si6 0.182111 0.251636 0.320162
Si Si7 0.314051 0.117278 0.621963
Si Si8 0.314535 0.020322 0.294024
O O1 0.240109 0.500000 0.500000
O O2 0.500000 0.489818 0.455012
O O3 0.247807 0.569675 0.418636
O O4 0.263714 0.356226 0.438257
O O5 0.288668 0.140798 0.442583
O O6 0.000000 0.063147 0.444561
O O7 0.218677 0.000000 0.500000
O O8 0.228989 0.933360 0.419578
O O9 0.254754 0.438485 0.833857
O O10 0.243914 0.244437 0.873621
O O11 0.000000 0.378418 0.874638
O O12 0.287439 0.764978 0.870593
O O13 0.000000 0.746699 0.899092
O O14 0.750000 0.531124 0.250000
O O15 0.774347 0.357152 0.198081
O O16 0.000000 0.498859 0.205661
O O17 0.240142 0.142610 0.295530
O O18 0.000000 0.270230 0.311129
O O19 0.500000 0.108945 0.615297
O O20 0.260000 0.052553 0.665022
O O21 0.250000 0.963093 0.250000
O O22 0.500000 0.029425 0.292826
#
# Coordination Sequence:
#
# PCOD8221759 Si02
#       8
#     8   8   8   8   8   8   8   8
#     4   9  18  33  58  92 122 150 191 243 296 347
#     4  11  25  42  60  87 126 165 201 246 302 358
#     4   9  19  37  59  85 120 156 195 249 298 346
#     4  11  21  37  64  94 121 156 200 249 300 354
#     4  11  22  39  61  88 122 157 200 248 298 353
#     4  12  23  38  61  89 124 160 196 244 305 360
#     4  10  22  40  64  89 116 157 208 253 297 357
#     4  11  23  39  60  89 120 155 202 249 301 360
#
# _framework density 20.231808000000001
#
# number of rings (size 3 to 8) (size 9 to 14) (size 15 to 20)
#    0.000    1.500    2.500    3.000    1.750    2.000 
#    0.000    1.250    0.000    1.500    0.000    0.000 
#    0.000    0.000    0.000    0.000    0.000    0.000 
#
# Total GULP energy -793834.141112 kJ/mol
# GULP energy per Si atom -12403.658455 kJ/mol
# Density = 2.018576 g / cm^3
# Si number density = 20.231808 Si / 1000 Ang^3
#
#
#
# Elastic Constant Matrix: (Units=GPa)
#
#
# Indices 1 2 3 4 5 6 
#
# 1 42.4282 10.9581 23.9948 0.0000 0.0000 0.0000
# 2 10.9581 139.0190 64.3947 0.0000 0.0000 0.0000
# 3 23.9948 64.3947 176.4499 0.0000 0.0000 0.0000
# 4 0.0000 0.0000 0.0000 52.7164 0.0000 0.0000
# 5 0.0000 0.0000 0.0000 0.0000 27.4640 0.0000
# 6 0.0000 0.0000 0.0000 0.0000 0.0000 0.1511
#
#
#
# Elastic Compliance Matrix: (Units=1/GPa)
#
#
# Indices 1 2 3 4 5 6 
#
# 1 0.025560 -0.000487 -0.003298 0.000000 0.000000 0.000000
# 2 -0.000487 0.008666 -0.003096 0.000000 0.000000 0.000000
# 3 -0.003298 -0.003096 0.007246 0.000000 0.000000 0.000000
# 4 0.000000 0.000000 0.000000 0.018969 0.000000 0.000000
# 5 0.000000 0.000000 0.000000 0.000000 0.036411 0.000000
# 6 0.000000 0.000000 0.000000 0.000000 0.000000 6.619268
#
#
# Mechanical properties :
#
#
# Convention : Reuss Voigt Hill
#
# Bulk Modulus (GPa) = 36.08943 61.84359 48.96651
# Shear Modulus (GPa) = 0.74194 33.30292 17.02243
#
# Velocity S-wave (km/s) = 0.60623 4.06158 2.90378
# Velocity P-wave (km/s) = 4.28564 7.25459 5.95801
#
# Compressibility (1/GPa) = 0.02770895
#
# Stress axis : x y z
#
# Youngs Moduli (GPa) = 39.12326 115.39468 138.01044
#
# Poissons Ratio (x) = 0.05621 0.45517
# Poissons Ratio (y) = 0.01906 0.42733
# Poissons Ratio (z) = 0.12903 0.35730
#
# Static dielectric constant tensor:
#      x y z
#    x 3.398300 0.000000 0.000000 
#    y 0.000000 3.773330 0.000000 
#    z 0.000000 0.000000 4.015240 
# 
# 
# High freq. dielectric constant tensor:
#      x y z
#    x 1.766760 0.000000 0.000000 
#    y 0.000000 1.793330 0.000000 
#    z 0.000000 0.000000 1.808780 
# 
# From -- ./inp_files/38226.got.cif
#   From: 2010.03.12/outbox.cif.g09.slc.cpg/sg53_20_cif.got.tgz:38226.got - 2010.04.16 14:36:59.
