data_PCOD8221815
_publ_section_title
;
Structure prediction by ZEFSAII (Michael W. Deem and Ramdas Pophale) SiO2 
 PCOD8221815
Probable space group: P M N A
;
_chemical_formula_sum "Si O2"
_cell_formula_units_Z 20
_cell_length_a 13.512138
_cell_length_b 5.102271
_cell_length_c 13.431292
_cell_angle_alpha 90.000000
_cell_angle_beta 90.000000
_cell_angle_gamma 90.000000
_cell_volume 925.988056
_symmetry_space_group_name_H-M "P M N A"
_symmetry_group_IT_number 53
_symmetry_cell_setting 'orthorhombic'
loop_
_space_group_symop_operation_xyz
x,y,z
1/2-x,-y,1/2+z
x,-y,-z
1/2-x,y,1/2-z
-x,-y,-z
1/2+x,y,1/2-z
-x,y,z
1/2+x,-y,1/2+z
loop_
_atom_site_type_symbol
_atom_site_label
_atom_site_fract_x
_atom_site_fract_y
_atom_site_fract_z
Si Si1 0.164012 0.500000 0.000000
Si Si2 0.000000 0.818592 0.267095
Si Si3 0.647076 0.259661 0.939111
Si Si4 0.500000 0.324104 0.364975
O O1 0.234841 0.680844 0.070597
O O2 0.097740 0.303224 0.066403
O O3 0.900919 0.773232 0.331044
O O4 0.000000 0.616730 0.177507
O O5 0.000000 0.109720 0.221440
O O6 0.596733 0.500000 0.000000
O O7 0.624946 0.000000 0.000000
#
# Coordination Sequence:
#
# PCOD8221815 Si02
#       4
#     4   4   8   4
#     4   9  26  45  66  90 142 183 214 255 358 392
#     4  12  24  42  68 103 128 165 232 280 317 378
#     4  10  22  42  69  93 131 177 217 270 332 401
#     4  11  26  43  66  97 138 173 216 278 326 397
#
# _framework density 21.598551
#
# number of rings (size 3 to 8) (size 9 to 14) (size 15 to 20)
#    1.200    0.400    0.000    3.600    5.600    3.200 
#    0.000    0.000    0.000    0.000    0.000    0.000 
#    0.000    0.000    0.000    0.000    0.000    0.000 
#
# Total GULP energy -247896.120173 kJ/mol
# GULP energy per Si atom -12394.806009 kJ/mol
# Density = 2.154939 g / cm^3
# Si number density = 21.598551 Si / 1000 Ang^3
#
#
#
# Elastic Constant Matrix: (Units=GPa)
#
#
# Indices 1 2 3 4 5 6 
#
# 1 167.7150 30.0480 67.6749 0.0000 0.0000 0.0000
# 2 30.0480 126.6044 32.9082 0.0000 0.0000 0.0000
# 3 67.6749 32.9082 101.7955 0.0000 0.0000 0.0000
# 4 0.0000 0.0000 0.0000 53.2733 0.0000 0.0000
# 5 0.0000 0.0000 0.0000 0.0000 10.3843 0.0000
# 6 0.0000 0.0000 0.0000 0.0000 0.0000 0.3711
#
#
#
# Elastic Compliance Matrix: (Units=1/GPa)
#
#
# Indices 1 2 3 4 5 6 
#
# 1 0.008187 -0.000577 -0.005256 0.000000 0.000000 0.000000
# 2 -0.000577 0.008664 -0.002417 0.000000 0.000000 0.000000
# 3 -0.005256 -0.002417 0.014099 0.000000 0.000000 0.000000
# 4 0.000000 0.000000 0.000000 0.018771 0.000000 0.000000
# 5 0.000000 0.000000 0.000000 0.000000 0.096299 0.000000
# 6 0.000000 0.000000 0.000000 0.000000 0.000000 2.694945
#
#
# Mechanical properties :
#
#
# Convention : Reuss Voigt Hill
#
# Bulk Modulus (GPa) = 69.20707 73.04188 71.12448
# Shear Modulus (GPa) = 1.74686 30.50465 16.12576
#
# Velocity S-wave (km/s) = 0.90030 3.76220 2.73539
# Velocity P-wave (km/s) = 5.76131 7.26385 6.55577
#
# Compressibility (1/GPa) = 0.01444939
#
# Stress axis : x y z
#
# Youngs Moduli (GPa) = 122.14831 115.42200 70.92455
#
# Poissons Ratio (x) = 0.06657 0.37279
# Poissons Ratio (y) = 0.07045 0.17145
# Poissons Ratio (z) = 0.64204 0.27902
#
# Static dielectric constant tensor:
#      x y z
#    x 3.969340 0.000000 0.000000 
#    y 0.000000 3.772600 0.000000 
#    z 0.000000 0.000000 4.778890 
# 
# 
# High freq. dielectric constant tensor:
#      x y z
#    x 1.858620 0.000000 0.000000 
#    y 0.000000 1.853200 0.000000 
#    z 0.000000 0.000000 1.834430 
# 
# From -- ./inp_files/15160.got.cif
#   From: 2010.03.12/outbox.cif.g09.slc.cpg/sg53_8_cif.got.tgz:15160.got - 2010.04.16 14:36:59.
