data_PCOD8221951
_publ_section_title
;
Structure prediction by ZEFSAII (Michael W. Deem and Ramdas Pophale) SiO2 
 PCOD8221951
Probable space group: P M N A
;
_chemical_formula_sum "Si O2"
_cell_formula_units_Z 64
_cell_length_a 19.559672
_cell_length_b 15.488026
_cell_length_c 11.265029
_cell_angle_alpha 90.000000
_cell_angle_beta 90.000000
_cell_angle_gamma 90.000000
_cell_volume 3412.635866
_symmetry_space_group_name_H-M "P M N A"
_symmetry_group_IT_number 53
_symmetry_cell_setting 'orthorhombic'
loop_
_space_group_symop_operation_xyz
x,y,z
1/2-x,-y,1/2+z
x,-y,-z
1/2-x,y,1/2-z
-x,-y,-z
1/2+x,y,1/2-z
-x,y,z
1/2+x,-y,1/2+z
loop_
_atom_site_type_symbol
_atom_site_label
_atom_site_fract_x
_atom_site_fract_y
_atom_site_fract_z
Si Si1 0.671589 0.622950 0.726126
Si Si2 0.827132 0.175851 0.797449
Si Si3 0.357357 0.694933 0.962317
Si Si4 0.577844 0.957402 0.191652
Si Si5 0.922777 0.126659 0.435297
Si Si6 0.301952 0.299517 0.504803
Si Si7 0.576170 0.321834 0.800583
Si Si8 0.623157 0.547566 0.382844
O O1 0.750000 0.638103 0.750000
O O2 0.626743 0.641912 0.842250
O O3 0.655658 0.690207 0.618313
O O4 0.660296 0.524530 0.693014
O O5 0.750000 0.165671 0.750000
O O6 0.868587 0.085514 0.785148
O O7 0.868906 0.247616 0.725311
O O8 0.824310 0.209156 0.933789
O O9 0.373077 0.793115 0.928884
O O10 0.278543 0.693451 0.995242
O O11 0.403105 0.650477 0.065450
O O12 0.500000 0.950376 0.241006
O O13 0.597902 0.057211 0.166662
O O14 0.583861 0.911214 0.066108
O O15 0.000000 0.157165 0.412226
O O16 0.319763 0.383261 0.582820
O O17 0.500000 0.281391 0.803049
O O18 0.572355 0.400958 0.706063
O O19 0.588869 0.500000 0.500000
#
# Coordination Sequence:
#
# PCOD8221951 Si02
#       8
#     8   8   8   8   8   8   8   8
#     4   9  20  34  53  75 106 149 189 228 290 347
#     4  11  18  31  55  83 114 139 185 236 284 332
#     4  11  19  33  54  80 113 145 187 238 280 337
#     4   9  17  30  52  80 110 145 182 222 277 337
#     4   9  17  31  51  77 111 146 179 219 278 345
#     4   9  19  34  53  80 107 143 188 232 281 340
#     4  11  22  33  54  83 112 148 186 237 297 337
#     4   9  20  37  54  76 109 145 190 233 287 347
#
# _framework density 18.753831999999999
#
# number of rings (size 3 to 8) (size 9 to 14) (size 15 to 20)
#    0.000    2.250    2.500    1.500    1.750    0.750 
#    0.000    3.750    0.000    9.750    0.000    1.750 
#    0.000    0.000    0.000    0.000    0.000    0.000 
#
# Total GULP energy -792838.136209 kJ/mol
# GULP energy per Si atom -12388.095878 kJ/mol
# Density = 1.871115 g / cm^3
# Si number density = 18.753832 Si / 1000 Ang^3
#
#
#
# Elastic Constant Matrix: (Units=GPa)
#
#
# Indices 1 2 3 4 5 6 
#
# 1 88.9687 32.5553 40.8974 0.0000 0.0000 0.0000
# 2 32.5553 81.2897 50.5049 0.0000 0.0000 0.0000
# 3 40.8974 50.5049 106.0379 0.0000 0.0000 0.0000
# 4 0.0000 0.0000 0.0000 31.5800 0.0000 0.0000
# 5 0.0000 0.0000 0.0000 0.0000 15.7844 0.0000
# 6 0.0000 0.0000 0.0000 0.0000 0.0000 11.9186
#
#
#
# Elastic Compliance Matrix: (Units=1/GPa)
#
#
# Indices 1 2 3 4 5 6 
#
# 1 0.014243 -0.003254 -0.003944 0.000000 0.000000 0.000000
# 2 -0.003254 0.018215 -0.007421 0.000000 0.000000 0.000000
# 3 -0.003944 -0.007421 0.014486 0.000000 0.000000 0.000000
# 4 0.000000 0.000000 0.000000 0.031666 0.000000 0.000000
# 5 0.000000 0.000000 0.000000 0.000000 0.063354 0.000000
# 6 0.000000 0.000000 0.000000 0.000000 0.000000 0.083903
#
#
# Mechanical properties :
#
#
# Convention : Reuss Voigt Hill
#
# Bulk Modulus (GPa) = 56.47200 58.24573 57.35886
# Shear Modulus (GPa) = 19.15662 22.01251 20.58456
#
# Velocity S-wave (km/s) = 3.19952 3.42974 3.31663
# Velocity P-wave (km/s) = 6.62019 6.84175 6.73188
#
# Compressibility (1/GPa) = 0.01770789
#
# Stress axis : x y z
#
# Youngs Moduli (GPa) = 70.20759 54.89859 69.03209
#
# Poissons Ratio (x) = 0.17865 0.27223
# Poissons Ratio (y) = 0.22847 0.51227
# Poissons Ratio (z) = 0.27687 0.40739
#
# Static dielectric constant tensor:
#      x y z
#    x 3.330970 0.000000 0.000000 
#    y 0.000000 3.647510 0.000000 
#    z 0.000000 0.000000 3.875000 
# 
# 
# High freq. dielectric constant tensor:
#      x y z
#    x 1.712320 0.000000 0.000000 
#    y 0.000000 1.717560 0.000000 
#    z 0.000000 0.000000 1.723190 
# 
# From -- ./inp_files/17083.got.cif
#   From: 2010.03.12/outbox.cif.g09.slc.cpg/sg53_9_cif.got.tgz:17083.got - 2010.04.16 14:36:59.
