data_PCOD8221394
_publ_section_title
;
Structure prediction by ZEFSAII (Michael W. Deem and Ramdas Pophale) SiO2 
 PCOD8221394
Probable space group: P M N A
;
_chemical_formula_sum "Si O2"
_cell_formula_units_Z 48
_cell_length_a 8.623601
_cell_length_b 30.009814
_cell_length_c 9.471319
_cell_angle_alpha 90.000000
_cell_angle_beta 90.000000
_cell_angle_gamma 90.000000
_cell_volume 2451.107857
_symmetry_space_group_name_H-M "P M N A"
_symmetry_group_IT_number 53
_symmetry_cell_setting 'orthorhombic'
loop_
_space_group_symop_operation_xyz
x,y,z
1/2-x,-y,1/2+z
x,-y,-z
1/2-x,y,1/2-z
-x,-y,-z
1/2+x,y,1/2-z
-x,y,z
1/2+x,-y,1/2+z
loop_
_atom_site_type_symbol
_atom_site_label
_atom_site_fract_x
_atom_site_fract_y
_atom_site_fract_z
Si Si1 0.817921 0.287783 0.100250
Si Si2 0.683309 0.618485 0.904287
Si Si3 0.317704 0.542391 0.405092
Si Si4 0.182883 0.958987 0.904935
Si Si5 0.319814 0.216671 0.900187
Si Si6 0.320728 0.886510 0.098922
O O1 0.750000 0.274681 0.250000
O O2 0.737569 0.332829 0.044539
O O3 0.000000 0.296353 0.110136
O O4 0.781097 0.245820 0.004696
O O5 0.750000 0.606281 0.750000
O O6 0.500000 0.616731 0.893353
O O7 0.740581 0.584972 0.023345
O O8 0.275698 0.500000 0.500000
O O9 0.250000 0.534646 0.250000
O O10 0.500000 0.550189 0.394000
O O11 0.250000 0.964695 0.750000
O O12 0.000000 0.958230 0.893757
O O13 0.238961 0.913121 0.973918
O O14 0.242313 0.000000 0.000000
O O15 0.250000 0.227983 0.750000
O O16 0.500000 0.229922 0.906442
O O17 0.294359 0.165093 0.937435
O O18 0.250000 0.899508 0.250000
O O19 0.500000 0.899262 0.104410
#
# Coordination Sequence:
#
# PCOD8221394 Si02
#       6
#     8   8   8   8   8   8
#     4  11  22  38  60  86 117 154 195 239 289 343
#     4  11  22  39  62  87 118 154 194 240 290 344
#     4  11  24  41  62  89 120 154 194 239 288 343
#     4  11  24  40  60  86 116 151 191 236 286 341
#     4  10  21  38  59  86 117 152 193 237 288 342
#     4  10  21  38  61  86 116 152 191 237 287 342
#
# _framework density 19.582982000000001
#
# number of rings (size 3 to 8) (size 9 to 14) (size 15 to 20)
#    0.000    1.333    0.000    7.000    0.000    8.667 
#    0.000    3.333    0.000    0.000    0.000    0.000 
#    0.000    0.000    0.000    0.000    0.000    0.000 
#
# Total GULP energy -595443.873557 kJ/mol
# GULP energy per Si atom -12405.080699 kJ/mol
# Density = 1.953841 g / cm^3
# Si number density = 19.582982 Si / 1000 Ang^3
#
#
#
# Elastic Constant Matrix: (Units=GPa)
#
#
# Indices 1 2 3 4 5 6 
#
# 1 114.5890 53.3242 74.9731 0.0000 0.0000 0.0000
# 2 53.3242 104.0312 84.8672 0.0000 0.0000 0.0000
# 3 74.9731 84.8672 145.2863 0.0000 0.0000 0.0000
# 4 0.0000 0.0000 0.0000 50.3553 0.0000 0.0000
# 5 0.0000 0.0000 0.0000 0.0000 39.8273 0.0000
# 6 0.0000 0.0000 0.0000 0.0000 0.0000 0.8602
#
#
#
# Elastic Compliance Matrix: (Units=1/GPa)
#
#
# Indices 1 2 3 4 5 6 
#
# 1 0.013471 -0.002357 -0.005575 0.000000 0.000000 0.000000
# 2 -0.002357 0.018776 -0.009751 0.000000 0.000000 0.000000
# 3 -0.005575 -0.009751 0.015456 0.000000 0.000000 0.000000
# 4 0.000000 0.000000 0.000000 0.019859 0.000000 0.000000
# 5 0.000000 0.000000 0.000000 0.000000 0.025108 0.000000
# 6 0.000000 0.000000 0.000000 0.000000 0.000000 1.162501
#
#
# Mechanical properties :
#
#
# Convention : Reuss Voigt Hill
#
# Bulk Modulus (GPa) = 81.06110 87.80394 84.43252
# Shear Modulus (GPa) = 3.86205 28.25803 16.06004
#
# Velocity S-wave (km/s) = 1.40585 3.80279 2.86685
# Velocity P-wave (km/s) = 6.64219 8.01348 7.35984
#
# Compressibility (1/GPa) = 0.01233637
#
# Stress axis : x y z
#
# Youngs Moduli (GPa) = 74.23251 53.26062 64.70140
#
# Poissons Ratio (x) = 0.12555 0.36068
# Poissons Ratio (y) = 0.17499 0.63091
# Poissons Ratio (z) = 0.41382 0.51935
#
# Static dielectric constant tensor:
#      x y z
#    x 3.775780 0.000000 0.000000 
#    y 0.000000 3.678610 0.000000 
#    z 0.000000 0.000000 3.531500 
# 
# 
# High freq. dielectric constant tensor:
#      x y z
#    x 1.784160 0.000000 0.000000 
#    y 0.000000 1.773800 0.000000 
#    z 0.000000 0.000000 1.766910 
# 
# From -- ./inp_files/6709.got.cif
#   From: 2010.03.12/outbox.cif.g09.slc.cpg/sg53_4_cif.got.tgz:6709.got - 2010.04.16 14:36:59.
