data_PCOD8221862
_publ_section_title
;
Structure prediction by ZEFSAII (Michael W. Deem and Ramdas Pophale) SiO2 
 PCOD8221862
Probable space group: P M N A
;
_chemical_formula_sum "Si O2"
_cell_formula_units_Z 60
_cell_length_a 13.610077
_cell_length_b 11.256025
_cell_length_c 18.441614
_cell_angle_alpha 90.000000
_cell_angle_beta 90.000000
_cell_angle_gamma 90.000000
_cell_volume 2825.169824
_symmetry_space_group_name_H-M "P M N A"
_symmetry_group_IT_number 53
_symmetry_cell_setting 'orthorhombic'
loop_
_space_group_symop_operation_xyz
x,y,z
1/2-x,-y,1/2+z
x,-y,-z
1/2-x,y,1/2-z
-x,-y,-z
1/2+x,y,1/2-z
-x,y,z
1/2+x,-y,1/2+z
loop_
_atom_site_type_symbol
_atom_site_label
_atom_site_fract_x
_atom_site_fract_y
_atom_site_fract_z
Si Si1 0.750000 0.406606 0.250000
Si Si2 0.894374 0.777241 0.222164
Si Si3 0.358638 0.957771 0.772952
Si Si4 0.249202 0.258321 0.594908
Si Si5 0.614508 0.863730 0.516725
Si Si6 0.611912 0.956504 0.077058
Si Si7 0.613057 0.579632 0.160210
Si Si8 0.394322 0.238371 0.329133
O O1 0.666875 0.477829 0.206044
O O2 0.808540 0.329994 0.190557
O O3 0.888344 0.914184 0.243777
O O4 0.809905 0.735189 0.169043
O O5 0.889740 0.699576 0.293880
O O6 0.000000 0.758207 0.183622
O O7 0.250000 0.925865 0.750000
O O8 0.377590 0.944959 0.859516
O O9 0.419650 0.854416 0.734682
O O10 0.322431 0.233757 0.528237
O O11 0.174234 0.152287 0.604148
O O12 0.183139 0.380868 0.591134
O O13 0.500000 0.846656 0.496955
O O14 0.637847 0.836667 0.600171
O O15 0.646364 0.000000 0.500000
O O16 0.500000 0.915615 0.066719
O O17 0.654202 0.000000 0.000000
O O18 0.500000 0.541906 0.138796
O O19 0.500000 0.303814 0.343692
#
# Coordination Sequence:
#
# PCOD8221862 Si02
#       8
#     4   8   8   8   8   8   8   8
#     4  12  24  46  68  92 126 178 228 282 330 386
#     4  11  20  34  61  96 128 158 206 271 333 395
#     4  12  21  38  62  91 126 167 213 269 334 404
#     4  12  20  36  60  92 129 166 211 266 331 387
#     4  10  23  41  63  99 142 180 216 266 336 414
#     4  11  24  37  54  87 133 174 208 257 331 406
#     4  11  23  41  66  96 126 165 222 282 332 388
#     4  11  25  43  66  95 131 174 223 274 329 407
#
# _framework density 21.237660000000002
#
# number of rings (size 3 to 8) (size 9 to 14) (size 15 to 20)
#    0.000    0.800    4.667    3.600    1.867    1.067 
#    0.000    0.667    0.000    4.800    0.000    0.000 
#    0.000    0.000    0.000    0.000    0.000    0.000 
#
# Total GULP energy -743506.431446 kJ/mol
# GULP energy per Si atom -12391.773857 kJ/mol
# Density = 2.118932 g / cm^3
# Si number density = 21.237660 Si / 1000 Ang^3
#
#
#
# Elastic Constant Matrix: (Units=GPa)
#
#
# Indices 1 2 3 4 5 6 
#
# 1 147.8574 40.2480 39.9930 0.0000 0.0000 0.0000
# 2 40.2480 74.6258 24.1927 0.0000 0.0000 0.0000
# 3 39.9930 24.1927 115.0406 0.0000 0.0000 0.0000
# 4 0.0000 0.0000 0.0000 26.7634 0.0000 0.0000
# 5 0.0000 0.0000 0.0000 0.0000 34.8963 0.0000
# 6 0.0000 0.0000 0.0000 0.0000 0.0000 14.6799
#
#
#
# Elastic Compliance Matrix: (Units=1/GPa)
#
#
# Indices 1 2 3 4 5 6 
#
# 1 0.008377 -0.003835 -0.002106 0.000000 0.000000 0.000000
# 2 -0.003835 0.016137 -0.002060 0.000000 0.000000 0.000000
# 3 -0.002106 -0.002060 0.009858 0.000000 0.000000 0.000000
# 4 0.000000 0.000000 0.000000 0.037364 0.000000 0.000000
# 5 0.000000 0.000000 0.000000 0.000000 0.028656 0.000000
# 6 0.000000 0.000000 0.000000 0.000000 0.000000 0.068120
#
#
# Mechanical properties :
#
#
# Convention : Reuss Voigt Hill
#
# Bulk Modulus (GPa) = 54.43916 60.71013 57.57464
# Shear Modulus (GPa) = 26.22782 30.80726 28.51754
#
# Velocity S-wave (km/s) = 3.51802 3.81280 3.66837
# Velocity P-wave (km/s) = 6.49546 6.93047 6.71648
#
# Compressibility (1/GPa) = 0.01836913
#
# Stress axis : x y z
#
# Youngs Moduli (GPa) = 119.37742 61.97113 101.44225
#
# Poissons Ratio (x) = 0.23768 0.21360
# Poissons Ratio (y) = 0.45784 0.20899
# Poissons Ratio (z) = 0.25136 0.12767
#
# Static dielectric constant tensor:
#      x y z
#    x 4.499000 0.000000 0.000000 
#    y 0.000000 3.558370 0.000000 
#    z 0.000000 0.000000 3.824830 
# 
# 
# High freq. dielectric constant tensor:
#      x y z
#    x 1.873360 0.000000 0.000000 
#    y 0.000000 1.796730 0.000000 
#    z 0.000000 0.000000 1.817330 
# 
# From -- ./inp_files/28464.got.cif
#   From: 2010.03.12/outbox.cif.g09.slc.cpg/sg53_15_cif.got.tgz:28464.got - 2010.04.16 14:36:59.
