data_PCOD8221396
_publ_section_title
;
Structure prediction by ZEFSAII (Michael W. Deem and Ramdas Pophale) SiO2 
 PCOD8221396
Probable space group: P M N A
;
_chemical_formula_sum "Si O2"
_cell_formula_units_Z 48
_cell_length_a 21.190819
_cell_length_b 5.039799
_cell_length_c 20.645935
_cell_angle_alpha 90.000000
_cell_angle_beta 90.000000
_cell_angle_gamma 90.000000
_cell_volume 2204.933591
_symmetry_space_group_name_H-M "P M N A"
_symmetry_group_IT_number 53
_symmetry_cell_setting 'orthorhombic'
loop_
_space_group_symop_operation_xyz
x,y,z
1/2-x,-y,1/2+z
x,-y,-z
1/2-x,y,1/2-z
-x,-y,-z
1/2+x,y,1/2-z
-x,y,z
1/2+x,-y,1/2+z
loop_
_atom_site_type_symbol
_atom_site_label
_atom_site_fract_x
_atom_site_fract_y
_atom_site_fract_z
Si Si1 0.845093 0.404929 0.715768
Si Si2 0.143670 0.737013 0.541899
Si Si3 0.172690 0.128424 0.836774
Si Si4 0.069347 0.949434 0.354743
Si Si5 0.930613 0.811562 0.785468
Si Si6 0.255575 0.377723 0.373323
O O1 0.816632 0.164559 0.758957
O O2 0.884296 0.305635 0.651853
O O3 0.886807 0.558517 0.769886
O O4 0.786808 0.572981 0.690215
O O5 0.110889 0.500000 0.500000
O O6 0.211586 0.620534 0.563256
O O7 0.152341 0.000000 0.500000
O O8 0.100214 0.814701 0.603385
O O9 0.188088 0.401710 0.876340
O O10 0.101547 0.003176 0.840276
O O11 0.220107 0.918549 0.866929
O O12 0.000000 0.873513 0.383406
O O13 0.060200 0.037811 0.281582
O O14 0.000000 0.724055 0.811129
#
# Coordination Sequence:
#
# PCOD8221396 Si02
#       6
#     8   8   8   8   8   8
#     4  11  21  35  61  90 126 163 199 241 300 366
#     4  12  26  44  61  84 115 161 218 279 319 338
#     4  11  24  36  60  93 120 160 197 238 298 381
#     4  10  22  39  59  85 121 169 213 252 301 354
#     4  10  21  38  59  91 130 165 197 234 293 373
#     4  12  24  39  60  85 121 154 209 252 310 359
#
# _framework density 21.769362000000001
#
# number of rings (size 3 to 8) (size 9 to 14) (size 15 to 20)
#    0.000    1.000    3.333    4.000    4.667    1.333 
#    0.000    0.000    0.000    0.000    0.000    0.000 
#    0.000   13.333    0.000    0.000    0.000    0.000 
#
# Total GULP energy -594639.570793 kJ/mol
# GULP energy per Si atom -12388.324392 kJ/mol
# Density = 2.171981 g / cm^3
# Si number density = 21.769362 Si / 1000 Ang^3
#
#
#
# Elastic Constant Matrix: (Units=GPa)
#
#
# Indices 1 2 3 4 5 6 
#
# 1 72.7127 16.7755 10.5165 0.0000 0.0000 0.0000
# 2 16.7755 104.0464 10.6878 0.0000 0.0000 0.0000
# 3 10.5165 10.6878 23.8602 0.0000 0.0000 0.0000
# 4 0.0000 0.0000 0.0000 30.1007 0.0000 0.0000
# 5 0.0000 0.0000 0.0000 0.0000 -0.2829 0.0000
# 6 0.0000 0.0000 0.0000 0.0000 0.0000 35.2005
#
#
#
# Elastic Compliance Matrix: (Units=1/GPa)
#
#
# Indices 1 2 3 4 5 6 
#
# 1 0.015013 -0.001825 -0.005799 0.000000 0.000000 0.000000
# 2 -0.001825 0.010296 -0.003808 0.000000 0.000000 0.000000
# 3 -0.005799 -0.003808 0.046173 0.000000 0.000000 0.000000
# 4 0.000000 0.000000 0.000000 0.033222 0.000000 0.000000
# 5 0.000000 0.000000 0.000000 0.000000 -3.534999 0.000000
# 6 0.000000 0.000000 0.000000 0.000000 0.000000 0.028409
#
#
# Mechanical properties :
#
#
# Convention : Reuss Voigt Hill
#
# Bulk Modulus (GPa) = 20.56877 30.73098 25.64987
# Shear Modulus (GPa) = -1.48685 23.84629 11.17972
#
# Velocity S-wave (km/s) = -0.82734 3.31328 2.26863
# Velocity P-wave (km/s) = 2.92513 5.36511 4.32092
#
# Compressibility (1/GPa) = 0.04861740
#
# Stress axis : x y z
#
# Youngs Moduli (GPa) = 66.61109 97.12092 21.65789
#
# Poissons Ratio (x) = 0.17722 0.12560
# Poissons Ratio (y) = 0.12155 0.08247
# Poissons Ratio (z) = 0.38631 0.36982
#
# Static dielectric constant tensor:
#      x y z
#    x 4.463270 0.000000 0.000000 
#    y 0.000000 4.140130 0.000000 
#    z 0.000000 0.000000 3.605710 
# 
# 
# High freq. dielectric constant tensor:
#      x y z
#    x 1.852880 0.000000 0.000000 
#    y 0.000000 1.874170 0.000000 
#    z 0.000000 0.000000 1.795760 
# 
# From -- ./inp_files/32967.got.cif
#   From: 2010.03.12/outbox.cif.g09.slc.cpg/sg53_17_cif.got.tgz:32967.got - 2010.04.16 14:36:59.
