data_PCOD8221671
_publ_section_title
;
Structure prediction by ZEFSAII (Michael W. Deem and Ramdas Pophale) SiO2 
 PCOD8221671
Probable space group: P M N A
;
_chemical_formula_sum "Si O2"
_cell_formula_units_Z 64
_cell_length_a 13.718260
_cell_length_b 9.473900
_cell_length_c 24.680802
_cell_angle_alpha 90.000000
_cell_angle_beta 90.000000
_cell_angle_gamma 90.000000
_cell_volume 3207.650882
_symmetry_space_group_name_H-M "P M N A"
_symmetry_group_IT_number 53
_symmetry_cell_setting 'orthorhombic'
loop_
_space_group_symop_operation_xyz
x,y,z
1/2-x,-y,1/2+z
x,-y,-z
1/2-x,y,1/2-z
-x,-y,-z
1/2+x,y,1/2-z
-x,y,z
1/2+x,-y,1/2+z
loop_
_atom_site_type_symbol
_atom_site_label
_atom_site_fract_x
_atom_site_fract_y
_atom_site_fract_z
Si Si1 0.607099 0.074069 0.663245
Si Si2 0.639943 0.418728 0.233781
Si Si3 0.306962 0.533481 0.121817
Si Si4 0.383840 0.288437 0.058342
Si Si5 0.640165 0.892935 0.764312
Si Si6 0.805891 0.961805 0.621072
Si Si7 0.605993 0.400617 0.665965
Si Si8 0.386696 0.784409 0.062981
O O1 0.500000 0.064674 0.634335
O O2 0.592541 0.995002 0.720429
O O3 0.690914 0.000150 0.627023
O O4 0.635503 0.236806 0.674564
O O5 0.750000 0.401952 0.250000
O O6 0.631403 0.486042 0.174148
O O7 0.589501 0.262715 0.234026
O O8 0.590607 0.525406 0.275874
O O9 0.346452 0.446240 0.070211
O O10 0.189989 0.520710 0.131339
O O11 0.328779 0.695100 0.107712
O O12 0.500000 0.271412 0.067459
O O13 0.319001 0.197011 0.100005
O O14 0.353001 0.250067 0.997641
O O15 0.750000 0.862496 0.750000
O O16 0.636450 0.973074 0.822028
O O17 0.859723 0.054806 0.575836
O O18 0.500000 0.411578 0.636316
O O19 0.500000 0.755216 0.069451
#
# Coordination Sequence:
#
# PCOD8221671 Si02
#       8
#     8   8   8   8   8   8   8   8
#     4  10  22  38  59  89 124 160 197 238 285 348
#     4   9  19  35  56  85 119 154 194 237 281 340
#     4  11  21  40  63  86 120 159 193 243 297 351
#     4  11  24  42  62  87 119 149 196 254 304 353
#     4   9  19  35  56  85 119 154 194 237 281 340
#     4  11  21  40  63  86 120 159 193 243 297 351
#     4  10  22  38  59  89 124 160 197 238 285 348
#     4  11  24  40  62  89 113 151 200 248 304 357
#
# _framework density 19.952297000000002
#
# number of rings (size 3 to 8) (size 9 to 14) (size 15 to 20)
#    0.000    1.750    2.500    1.500    3.500    6.000 
#    0.000    0.000    0.000    4.500    0.000    0.000 
#    0.000    0.000    0.000    0.000    0.000    0.000 
#
# Total GULP energy -793259.624956 kJ/mol
# GULP energy per Si atom -12394.681640 kJ/mol
# Density = 1.990688 g / cm^3
# Si number density = 19.952297 Si / 1000 Ang^3
#
#
#
# Elastic Constant Matrix: (Units=GPa)
#
#
# Indices 1 2 3 4 5 6 
#
# 1 106.2278 25.1945 33.9520 0.0000 0.0000 0.0000
# 2 25.1945 79.3151 15.9334 0.0000 0.0000 0.0000
# 3 33.9520 15.9334 79.0301 0.0000 0.0000 0.0000
# 4 0.0000 0.0000 0.0000 32.1729 0.0000 0.0000
# 5 0.0000 0.0000 0.0000 0.0000 17.5551 0.0000
# 6 0.0000 0.0000 0.0000 0.0000 0.0000 -6.9977
#
#
#
# Elastic Compliance Matrix: (Units=1/GPa)
#
#
# Indices 1 2 3 4 5 6 
#
# 1 0.011466 -0.002765 -0.004368 0.000000 0.000000 0.000000
# 2 -0.002765 0.013807 -0.001596 0.000000 0.000000 0.000000
# 3 -0.004368 -0.001596 0.014852 0.000000 0.000000 0.000000
# 4 0.000000 0.000000 0.000000 0.031082 0.000000 0.000000
# 5 0.000000 0.000000 0.000000 0.000000 0.056963 0.000000
# 6 0.000000 0.000000 0.000000 0.000000 0.000000 -0.142903
#
#
# Mechanical properties :
#
#
# Convention : Reuss Voigt Hill
#
# Bulk Modulus (GPa) = 44.11792 46.08143 45.09968
# Shear Modulus (GPa) = 486.40509 21.17893 253.79201
#
# Velocity S-wave (km/s) = 15.63052 3.26157 11.29051
# Velocity P-wave (km/s) = 18.65236 6.10980 13.87877
#
# Compressibility (1/GPa) = 0.02266653
#
# Stress axis : x y z
#
# Youngs Moduli (GPa) = 87.21742 72.42865 67.33162
#
# Poissons Ratio (x) = 0.20023 0.29413
# Poissons Ratio (y) = 0.24111 0.10746
# Poissons Ratio (z) = 0.38100 0.11559
#
# Static dielectric constant tensor:
#      x y z
#    x 3.573480 0.000000 0.000000 
#    y 0.000000 3.755680 0.000000 
#    z 0.000000 0.000000 3.549070 
# 
# 
# High freq. dielectric constant tensor:
#      x y z
#    x 1.779230 0.000000 0.000000 
#    y 0.000000 1.793490 0.000000 
#    z 0.000000 0.000000 1.755430 
# 
# From -- ./inp_files/35379.got.cif
#   From: 2010.03.12/outbox.cif.g09.slc.cpg/sg53_18_cif.got.tgz:35379.got - 2010.04.16 14:36:59.
