data_PCOD8221205
_publ_section_title
;
Structure prediction by ZEFSAII (Michael W. Deem and Ramdas Pophale) SiO2 
 PCOD8221205
Probable space group: P M N A
;
_chemical_formula_sum "Si O2"
_cell_formula_units_Z 60
_cell_length_a 13.719265
_cell_length_b 14.715530
_cell_length_c 13.088546
_cell_angle_alpha 90.000000
_cell_angle_beta 90.000000
_cell_angle_gamma 90.000000
_cell_volume 2642.397544
_symmetry_space_group_name_H-M "P M N A"
_symmetry_group_IT_number 53
_symmetry_cell_setting 'orthorhombic'
loop_
_space_group_symop_operation_xyz
x,y,z
1/2-x,-y,1/2+z
x,-y,-z
1/2-x,y,1/2-z
-x,-y,-z
1/2+x,y,1/2-z
-x,y,z
1/2+x,-y,1/2+z
loop_
_atom_site_type_symbol
_atom_site_label
_atom_site_fract_x
_atom_site_fract_y
_atom_site_fract_z
Si Si1 0.885888 0.497287 0.292269
Si Si2 0.607199 0.773183 0.220945
Si Si3 0.111923 0.307509 0.350114
Si Si4 0.115394 0.893330 0.653862
Si Si5 0.191194 0.355304 0.562555
Si Si6 0.746122 0.000000 0.000000
Si Si7 0.893756 0.627450 0.110899
Si Si8 0.613577 0.958101 0.319933
O O1 0.844084 0.393719 0.287739
O O2 0.840674 0.549537 0.388642
O O3 0.861053 0.545665 0.186057
O O4 0.000000 0.498430 0.312515
O O5 0.500000 0.772269 0.168369
O O6 0.684104 0.725569 0.146280
O O7 0.598658 0.720458 0.327338
O O8 0.640115 0.875863 0.243492
O O9 0.155567 0.208726 0.322586
O O10 0.124233 0.329243 0.469081
O O11 0.000000 0.301129 0.322184
O O12 0.175906 0.927942 0.555894
O O13 0.000000 0.895380 0.625955
O O14 0.136125 0.950709 0.756108
O O15 0.305952 0.363345 0.529365
O O16 0.817385 0.951600 0.081511
O O17 0.000000 0.607584 0.059122
O O18 0.500000 0.953228 0.353845
#
# Coordination Sequence:
#
# PCOD8221205 Si02
#       8
#     8   8   8   8   8   4   8   8
#     4   9  17  33  55  84 118 148 188 246 304 360
#     4   9  18  32  54  85 118 150 190 247 313 364
#     4  10  21  36  58  89 122 155 196 249 316 378
#     4  10  24  42  61  93 130 165 208 264 322 378
#     4  11  19  30  56  89 119 152 197 247 303 370
#     4  12  24  40  66  92 124 168 220 260 312 382
#     4   9  19  33  51  82 117 153 195 241 297 358
#     4  10  23  43  65  90 127 168 210 262 320 382
#
# _framework density 22.70665
#
# number of rings (size 3 to 8) (size 9 to 14) (size 15 to 20)
#    0.000    2.133    0.000    4.800    3.733    2.133 
#    0.000    2.667    0.000    1.600    0.000    0.000 
#    0.000    0.000    0.000    0.000    0.000    0.000 
#
# Total GULP energy -743606.259165 kJ/mol
# GULP energy per Si atom -12393.437653 kJ/mol
# Density = 2.265497 g / cm^3
# Si number density = 22.706650 Si / 1000 Ang^3
#
#
#
# Elastic Constant Matrix: (Units=GPa)
#
#
# Indices 1 2 3 4 5 6 
#
# 1 70.2981 21.5626 37.0447 0.0000 0.0000 0.0000
# 2 21.5626 170.4463 25.2135 0.0000 0.0000 0.0000
# 3 37.0447 25.2135 33.9263 0.0000 0.0000 0.0000
# 4 0.0000 0.0000 0.0000 7.2470 0.0000 0.0000
# 5 0.0000 0.0000 0.0000 0.0000 32.7037 0.0000
# 6 0.0000 0.0000 0.0000 0.0000 0.0000 -6.9985
#
#
#
# Elastic Compliance Matrix: (Units=1/GPa)
#
#
# Indices 1 2 3 4 5 6 
#
# 1 0.033768 0.001329 -0.037859 0.000000 0.000000 0.000000
# 2 0.001329 0.006644 -0.006388 0.000000 0.000000 0.000000
# 3 -0.037859 -0.006388 0.075563 0.000000 0.000000 0.000000
# 4 0.000000 0.000000 0.000000 0.137987 0.000000 0.000000
# 5 0.000000 0.000000 0.000000 0.000000 0.030578 0.000000
# 6 0.000000 0.000000 0.000000 0.000000 0.000000 -0.142888
#
#
# Mechanical properties :
#
#
# Convention : Reuss Voigt Hill
#
# Bulk Modulus (GPa) = 33.18242 49.14581 41.16411
# Shear Modulus (GPa) = 21.04949 19.31378 20.18163
#
# Velocity S-wave (km/s) = 3.04800 2.91963 2.98451
# Velocity P-wave (km/s) = 5.19926 5.74947 5.48128
#
# Compressibility (1/GPa) = 0.03013644
#
# Stress axis : x y z
#
# Youngs Moduli (GPa) = 29.61357 150.51457 13.23403
#
# Poissons Ratio (x) = -0.19996 0.50103
# Poissons Ratio (y) = -0.03934 0.08454
# Poissons Ratio (z) = 1.12116 0.96152
#
# Static dielectric constant tensor:
#      x y z
#    x 4.318610 0.000000 0.000000 
#    y 0.000000 4.553730 0.000000 
#    z 0.000000 0.000000 3.544450 
# 
# 
# High freq. dielectric constant tensor:
#      x y z
#    x 1.914530 0.000000 0.000000 
#    y 0.000000 1.906480 0.000000 
#    z 0.000000 0.000000 1.844440 
# 
# From -- ./inp_files/22986.got.cif
#   From: 2010.03.12/outbox.cif.g09.slc.cpg/sg53_12_cif.got.tgz:22986.got - 2010.04.16 14:36:59.
