data_PCOD8221439
_publ_section_title
;
Structure prediction by ZEFSAII (Michael W. Deem and Ramdas Pophale) SiO2 
 PCOD8221439
Probable space group: P M N A
;
_chemical_formula_sum "Si O2"
_cell_formula_units_Z 48
_cell_length_a 8.634903
_cell_length_b 29.924807
_cell_length_c 9.121692
_cell_angle_alpha 90.000000
_cell_angle_beta 90.000000
_cell_angle_gamma 90.000000
_cell_volume 2357.025197
_symmetry_space_group_name_H-M "P M N A"
_symmetry_group_IT_number 53
_symmetry_cell_setting 'orthorhombic'
loop_
_space_group_symop_operation_xyz
x,y,z
1/2-x,-y,1/2+z
x,-y,-z
1/2-x,y,1/2-z
-x,-y,-z
1/2+x,y,1/2-z
-x,y,z
1/2+x,-y,1/2+z
loop_
_atom_site_type_symbol
_atom_site_label
_atom_site_fract_x
_atom_site_fract_y
_atom_site_fract_z
Si Si1 0.816707 0.296050 0.090465
Si Si2 0.318780 0.882282 0.096663
Si Si3 0.817028 0.623815 0.409704
Si Si4 0.678694 0.544659 0.592327
Si Si5 0.317670 0.042362 0.407157
Si Si6 0.682420 0.779423 0.094455
O O1 0.750000 0.307408 0.250000
O O2 0.000000 0.297942 0.099149
O O3 0.755912 0.331041 0.971678
O O4 0.761138 0.247359 0.038192
O O5 0.250000 0.899079 0.250000
O O6 0.500000 0.889538 0.102824
O O7 0.274371 0.830935 0.067049
O O8 0.248351 0.911325 0.967363
O O9 0.750000 0.613411 0.250000
O O10 0.776074 0.583453 0.516745
O O11 0.000000 0.629459 0.399265
O O12 0.696091 0.500000 0.500000
O O13 0.750000 0.534948 0.750000
O O14 0.500000 0.559562 0.605695
O O15 0.250000 0.033505 0.250000
O O16 0.500000 0.046476 0.401202
O O17 0.261861 0.000000 0.500000
O O18 0.750000 0.763069 0.250000
O O19 0.500000 0.770890 0.094230
#
# Coordination Sequence:
#
# PCOD8221439 Si02
#       6
#     8   8   8   8   8   8
#     4  12  25  42  63  89 122 160 202 249 302 357
#     4  10  21  38  62  89 120 156 196 243 294 352
#     4  12  25  43  66  92 124 161 204 252 303 360
#     4  11  24  42  65  94 128 165 206 252 303 359
#     4  11  24  40  60  86 117 154 196 243 295 352
#     4  10  21  39  62  90 121 157 199 243 295 353
#
# _framework density 20.364653000000001
#
# number of rings (size 3 to 8) (size 9 to 14) (size 15 to 20)
#    0.000    1.000    0.000    7.000    0.000    8.000 
#    0.000    0.000    0.000    0.000    0.000    0.000 
#    0.000    0.000    0.000    0.000    0.000    0.000 
#
# Total GULP energy -595579.425243 kJ/mol
# GULP energy per Si atom -12407.904693 kJ/mol
# Density = 2.031830 g / cm^3
# Si number density = 20.364653 Si / 1000 Ang^3
#
#
#
# Elastic Constant Matrix: (Units=GPa)
#
#
# Indices 1 2 3 4 5 6 
#
# 1 131.2708 47.5604 50.2165 0.0000 0.0000 0.0000
# 2 47.5604 93.0161 46.2080 0.0000 0.0000 0.0000
# 3 50.2165 46.2080 133.3566 0.0000 0.0000 0.0000
# 4 0.0000 0.0000 0.0000 26.4436 0.0000 0.0000
# 5 0.0000 0.0000 0.0000 0.0000 40.2080 0.0000
# 6 0.0000 0.0000 0.0000 0.0000 0.0000 -27.8152
#
#
#
# Elastic Compliance Matrix: (Units=1/GPa)
#
#
# Indices 1 2 3 4 5 6 
#
# 1 0.009945 -0.003895 -0.002395 0.000000 0.000000 0.000000
# 2 -0.003895 0.014512 -0.003562 0.000000 0.000000 0.000000
# 3 -0.002395 -0.003562 0.009635 0.000000 0.000000 0.000000
# 4 0.000000 0.000000 0.000000 0.037816 0.000000 0.000000
# 5 0.000000 0.000000 0.000000 0.000000 0.024871 0.000000
# 6 0.000000 0.000000 0.000000 0.000000 0.000000 -0.035952
#
#
# Mechanical properties :
#
#
# Convention : Reuss Voigt Hill
#
# Bulk Modulus (GPa) = 69.50382 71.73481 70.61932
# Shear Modulus (GPa) = 58.59765 22.01119 40.30442
#
# Velocity S-wave (km/s) = 5.36998 3.29120 4.45357
# Velocity P-wave (km/s) = 8.52365 7.05296 7.82294
#
# Compressibility (1/GPa) = 0.01438770
#
# Stress axis : x y z
#
# Youngs Moduli (GPa) = 100.54855 68.90923 103.79115
#
# Poissons Ratio (x) = 0.26842 0.24861
# Poissons Ratio (y) = 0.39167 0.36966
# Poissons Ratio (z) = 0.24084 0.24542
#
# Static dielectric constant tensor:
#      x y z
#    x 3.875270 0.000000 0.000000 
#    y 0.000000 3.867120 0.000000 
#    z 0.000000 0.000000 3.794390 
# 
# 
# High freq. dielectric constant tensor:
#      x y z
#    x 1.815150 0.000000 0.000000 
#    y 0.000000 1.808950 0.000000 
#    z 0.000000 0.000000 1.805330 
# 
# From -- ./inp_files/6649.got.cif
#   From: 2010.03.12/outbox.cif.g09.slc.cpg/sg53_4_cif.got.tgz:6649.got - 2010.04.16 14:36:59.
