data_PCOD8221267
_publ_section_title
;
Structure prediction by ZEFSAII (Michael W. Deem and Ramdas Pophale) SiO2 
 PCOD8221267
Probable space group: P M N A
;
_chemical_formula_sum "Si O2"
_cell_formula_units_Z 48
_cell_length_a 17.509838
_cell_length_b 26.548393
_cell_length_c 5.066766
_cell_angle_alpha 90.000000
_cell_angle_beta 90.000000
_cell_angle_gamma 90.000000
_cell_volume 2355.327016
_symmetry_space_group_name_H-M "P M N A"
_symmetry_group_IT_number 53
_symmetry_cell_setting 'orthorhombic'
loop_
_space_group_symop_operation_xyz
x,y,z
1/2-x,-y,1/2+z
x,-y,-z
1/2-x,y,1/2-z
-x,-y,-z
1/2+x,y,1/2-z
-x,y,z
1/2+x,-y,1/2+z
loop_
_atom_site_type_symbol
_atom_site_label
_atom_site_fract_x
_atom_site_fract_y
_atom_site_fract_z
Si Si1 0.837750 0.966283 0.747630
Si Si2 0.086877 0.707893 0.120339
Si Si3 0.414359 0.643146 0.865719
Si Si4 0.589691 0.860709 0.747826
Si Si5 0.698745 0.557258 0.998016
Si Si6 0.840142 0.811797 0.245090
O O1 0.750000 0.947539 0.750000
O O2 0.892765 0.918992 0.705487
O O3 0.854847 0.000000 0.500000
O O4 0.858425 0.000000 0.000000
O O5 0.088374 0.683792 0.406008
O O6 0.140169 0.756325 0.139127
O O7 0.000000 0.723359 0.041779
O O8 0.120200 0.669320 0.898520
O O9 0.500000 0.625498 0.801141
O O10 0.372635 0.593708 0.970965
O O11 0.500000 0.850590 0.752432
O O12 0.623469 0.850560 0.459310
O O13 0.627055 0.823747 0.965162
O O14 0.750000 0.567698 0.750000
O O15 0.668017 0.500000 0.000000
O O16 0.750000 0.570061 0.250000
O O17 0.750000 0.818823 0.250000
#
# Coordination Sequence:
#
# PCOD8221267 Si02
#       6
#     8   8   8   8   8   8
#     4  10  21  38  61  89 122 158 197 246 301 355
#     4  10  21  38  59  86 119 152 191 241 297 350
#     4  10  21  37  59  85 115 152 192 239 293 351
#     4  12  25  42  65  92 125 163 202 250 305 359
#     4  10  21  37  57  83 116 153 193 240 291 344
#     4  12  25  42  64  91 122 160 207 251 299 362
#
# _framework density 20.379335000000001
#
# number of rings (size 3 to 8) (size 9 to 14) (size 15 to 20)
#    0.000    1.333    0.000    6.000    0.000    5.667 
#    0.000    0.000    0.000    6.000    0.000    0.000 
#    0.000    0.000    0.000    0.000    0.000    0.000 
#
# Total GULP energy -595313.797377 kJ/mol
# GULP energy per Si atom -12402.370779 kJ/mol
# Density = 2.033295 g / cm^3
# Si number density = 20.379335 Si / 1000 Ang^3
#
#
#
# Elastic Constant Matrix: (Units=GPa)
#
#
# Indices 1 2 3 4 5 6 
#
# 1 119.9073 50.3692 29.8589 0.0000 0.0000 0.0000
# 2 50.3692 102.5776 23.4600 0.0000 0.0000 0.0000
# 3 29.8589 23.4600 119.0767 0.0000 0.0000 0.0000
# 4 0.0000 0.0000 0.0000 70.0657 0.0000 0.0000
# 5 0.0000 0.0000 0.0000 0.0000 20.1753 0.0000
# 6 0.0000 0.0000 0.0000 0.0000 0.0000 28.3700
#
#
#
# Elastic Compliance Matrix: (Units=1/GPa)
#
#
# Indices 1 2 3 4 5 6 
#
# 1 0.010844 -0.004925 -0.001749 0.000000 0.000000 0.000000
# 2 -0.004925 0.012445 -0.001217 0.000000 0.000000 0.000000
# 3 -0.001749 -0.001217 0.009076 0.000000 0.000000 0.000000
# 4 0.000000 0.000000 0.000000 0.014272 0.000000 0.000000
# 5 0.000000 0.000000 0.000000 0.000000 0.049566 0.000000
# 6 0.000000 0.000000 0.000000 0.000000 0.000000 0.035248
#
#
# Mechanical properties :
#
#
# Convention : Reuss Voigt Hill
#
# Bulk Modulus (GPa) = 60.29859 60.99309 60.64584
# Shear Modulus (GPa) = 32.73076 39.58043 36.15559
#
# Velocity S-wave (km/s) = 4.01194 4.41180 4.21661
# Velocity P-wave (km/s) = 7.14935 7.47970 7.31639
#
# Compressibility (1/GPa) = 0.01658414
#
# Stress axis : x y z
#
# Youngs Moduli (GPa) = 92.21655 80.35155 110.17742
#
# Poissons Ratio (x) = 0.39572 0.19269
# Poissons Ratio (y) = 0.45415 0.13409
# Poissons Ratio (z) = 0.16128 0.09779
#
# Static dielectric constant tensor:
#      x y z
#    x 1.803620 0.000000 0.000000 
#    y 0.000000 3.528510 0.000000 
#    z 0.000000 0.000000 3.984680 
# 
# 
# High freq. dielectric constant tensor:
#      x y z
#    x 1.787310 0.000000 0.000000 
#    y 0.000000 1.802100 0.000000 
#    z 0.000000 0.000000 1.820560 
# 
# From -- ./inp_files/1437.got.cif
#   From: 2010.03.12/outbox.cif.g09.slc.cpg/sg53_1_cif.got.tgz:1437.got - 2010.04.16 14:36:59.
