data_PCOD8221404
_publ_section_title
;
Structure prediction by ZEFSAII (Michael W. Deem and Ramdas Pophale) SiO2 
 PCOD8221404
Probable space group: P M N A
;
_chemical_formula_sum "Si O2"
_cell_formula_units_Z 64
_cell_length_a 9.084546
_cell_length_b 14.592836
_cell_length_c 24.861726
_cell_angle_alpha 90.000000
_cell_angle_beta 90.000000
_cell_angle_gamma 90.000000
_cell_volume 3295.901362
_symmetry_space_group_name_H-M "P M N A"
_symmetry_group_IT_number 53
_symmetry_cell_setting 'orthorhombic'
loop_
_space_group_symop_operation_xyz
x,y,z
1/2-x,-y,1/2+z
x,-y,-z
1/2-x,y,1/2-z
-x,-y,-z
1/2+x,y,1/2-z
-x,y,z
1/2+x,-y,1/2+z
loop_
_atom_site_type_symbol
_atom_site_label
_atom_site_fract_x
_atom_site_fract_y
_atom_site_fract_z
Si Si1 0.326310 0.782808 0.305726
Si Si2 0.668938 0.527246 0.941059
Si Si3 0.169992 0.292778 0.095223
Si Si4 0.830145 0.984384 0.152816
Si Si5 0.835474 0.942044 0.446793
Si Si6 0.671125 0.821160 0.696757
Si Si7 0.668809 0.663455 0.104498
Si Si8 0.168932 0.231757 0.979383
O O1 0.250000 0.756251 0.250000
O O2 0.500000 0.768679 0.300392
O O3 0.287076 0.888237 0.319373
O O4 0.266779 0.712500 0.350365
O O5 0.500000 0.555173 0.949839
O O6 0.750268 0.611582 0.913573
O O7 0.684047 0.446381 0.896620
O O8 0.735380 0.500000 0.000000
O O9 0.233856 0.236049 0.145834
O O10 0.000000 0.315740 0.104124
O O11 0.192118 0.228043 0.043256
O O12 0.724255 0.002801 0.102150
O O13 0.000000 0.984333 0.134222
O O14 0.798740 0.069992 0.191724
O O15 0.717420 0.862108 0.452179
O O16 0.000000 0.904772 0.434195
O O17 0.839331 0.000000 0.500000
O O18 0.750000 0.784290 0.750000
O O19 0.500000 0.801278 0.702818
O O20 0.500000 0.693995 0.112307
O O21 0.727165 0.690352 0.045309
O O22 0.000000 0.250476 0.963577
#
# Coordination Sequence:
#
# PCOD8221404 Si02
#       8
#     8   8   8   8   8   8   8   8
#     4  11  23  39  61  89 119 159 204 245 295 350
#     4  10  21  38  61  90 121 154 192 240 300 356
#     4  10  22  38  60  89 120 155 198 245 295 357
#     4  10  21  38  60  85 117 155 200 246 292 351
#     4  11  23  35  51  81 119 159 201 243 292 350
#     4  10  22  41  61  86 118 156 201 248 295 344
#     4  11  22  38  60  87 122 156 192 244 296 351
#     4  11  21  35  57  85 118 156 193 237 297 356
#
# _framework density 19.418057000000001
#
# number of rings (size 3 to 8) (size 9 to 14) (size 15 to 20)
#    0.000    1.500    2.500    2.625    0.000    5.250 
#    0.000    0.625    0.000    1.500    0.000    0.000 
#    0.000    0.000    0.000    0.000    0.000    0.000 
#
# Total GULP energy -793588.443656 kJ/mol
# GULP energy per Si atom -12399.819432 kJ/mol
# Density = 1.937386 g / cm^3
# Si number density = 19.418057 Si / 1000 Ang^3
#
#
#
# Elastic Constant Matrix: (Units=GPa)
#
#
# Indices 1 2 3 4 5 6 
#
# 1 79.8145 36.2891 51.2131 0.0000 0.0000 0.0000
# 2 36.2891 83.9092 38.1323 0.0000 0.0000 0.0000
# 3 51.2131 38.1323 125.2257 0.0000 0.0000 0.0000
# 4 0.0000 0.0000 0.0000 22.1717 0.0000 0.0000
# 5 0.0000 0.0000 0.0000 0.0000 27.0824 0.0000
# 6 0.0000 0.0000 0.0000 0.0000 0.0000 29.9277
#
#
#
# Elastic Compliance Matrix: (Units=1/GPa)
#
#
# Indices 1 2 3 4 5 6 
#
# 1 0.018887 -0.005406 -0.006078 0.000000 0.000000 0.000000
# 2 -0.005406 0.015379 -0.002472 0.000000 0.000000 0.000000
# 3 -0.006078 -0.002472 0.011224 0.000000 0.000000 0.000000
# 4 0.000000 0.000000 0.000000 0.045103 0.000000 0.000000
# 5 0.000000 0.000000 0.000000 0.000000 0.036924 0.000000
# 6 0.000000 0.000000 0.000000 0.000000 0.000000 0.033414
#
#
# Mechanical properties :
#
#
# Convention : Reuss Voigt Hill
#
# Bulk Modulus (GPa) = 56.89019 60.02426 58.45722
# Shear Modulus (GPa) = 25.68019 26.72401 26.20210
#
# Velocity S-wave (km/s) = 3.64055 3.71380 3.67736
# Velocity P-wave (km/s) = 6.85804 7.02627 6.94266
#
# Compressibility (1/GPa) = 0.01757772
#
# Stress axis : x y z
#
# Youngs Moduli (GPa) = 52.94663 65.02298 89.09455
#
# Poissons Ratio (x) = 0.35152 0.54151
# Poissons Ratio (y) = 0.28624 0.22026
# Poissons Ratio (z) = 0.32180 0.16075
#
# Static dielectric constant tensor:
#      x y z
#    x 3.575720 0.000000 0.000000 
#    y 0.000000 3.697240 0.000000 
#    z 0.000000 0.000000 3.572860 
# 
# 
# High freq. dielectric constant tensor:
#      x y z
#    x 1.759120 0.000000 0.000000 
#    y 0.000000 1.750370 0.000000 
#    z 0.000000 0.000000 1.753280 
# 
# From -- ./inp_files/34234.got.cif
#   From: 2010.03.12/outbox.cif.g09.slc.cpg/sg53_18_cif.got.tgz:34234.got - 2010.04.16 14:36:59.
