data_PCOD8221171
_publ_section_title
;
Structure prediction by ZEFSAII (Michael W. Deem and Ramdas Pophale) SiO2 
 PCOD8221171
Probable space group: P M N A
;
_chemical_formula_sum "Si O2"
_cell_formula_units_Z 64
_cell_length_a 14.721005
_cell_length_b 9.396353
_cell_length_c 24.173539
_cell_angle_alpha 90.000000
_cell_angle_beta 90.000000
_cell_angle_gamma 90.000000
_cell_volume 3343.774795
_symmetry_space_group_name_H-M "P M N A"
_symmetry_group_IT_number 53
_symmetry_cell_setting 'orthorhombic'
loop_
_space_group_symop_operation_xyz
x,y,z
1/2-x,-y,1/2+z
x,-y,-z
1/2-x,y,1/2-z
-x,-y,-z
1/2+x,y,1/2-z
-x,y,z
1/2+x,-y,1/2+z
loop_
_atom_site_type_symbol
_atom_site_label
_atom_site_fract_x
_atom_site_fract_y
_atom_site_fract_z
Si Si1 0.599487 0.563719 0.942463
Si Si2 0.140726 0.307787 0.626729
Si Si3 0.602151 0.679536 0.664859
Si Si4 0.801060 0.600961 0.196387
Si Si5 0.096532 0.828674 0.260034
Si Si6 0.850485 0.148557 0.267429
Si Si7 0.711301 0.215381 0.118613
Si Si8 0.394023 0.030080 0.935448
O O1 0.500000 0.637496 0.949547
O O2 0.587625 0.443196 0.896250
O O3 0.676150 0.675073 0.926553
O O4 0.633706 0.500000 0.000000
O O5 0.241478 0.361849 0.642709
O O6 0.093840 0.252386 0.681874
O O7 0.136152 0.190706 0.578127
O O8 0.500000 0.687997 0.638131
O O9 0.625436 0.513694 0.675691
O O10 0.594829 0.758154 0.723657
O O11 0.679668 0.759025 0.627507
O O12 0.750000 0.531364 0.250000
O O13 0.835462 0.756065 0.216765
O O14 0.000000 0.807631 0.231023
O O15 0.106862 0.993813 0.273928
O O16 0.750000 0.112777 0.250000
O O17 0.844789 0.238045 0.324409
O O18 0.682573 0.060090 0.097272
O O19 0.500000 0.001728 0.917468
O O20 0.383172 0.000000 0.000000
#
# Coordination Sequence:
#
# PCOD8221171 Si02
#       8
#     8   8   8   8   8   8   8   8
#     4  11  23  38  58  87 117 149 194 241 290 353
#     4  11  21  37  57  82 118 156 187 230 288 347
#     4  11  23  39  59  86 118 155 202 245 284 340
#     4  10  21  37  55  82 117 157 193 238 284 345
#     4  11  21  33  54  85 117 154 192 230 281 345
#     4  10  21  36  55  83 118 153 191 233 285 347
#     4  11  22  39  61  86 120 159 191 237 297 348
#     4  11  23  39  61  91 122 152 192 238 290 356
#
# _framework density 19.140046000000002
#
# number of rings (size 3 to 8) (size 9 to 14) (size 15 to 20)
#    0.000    1.250    2.500    5.250    3.500    3.500 
#    0.000    0.000    0.000    0.750    0.000    0.000 
#    0.000    0.000    0.000    0.000    0.000    0.000 
#
# Total GULP energy -793013.391565 kJ/mol
# GULP energy per Si atom -12390.834243 kJ/mol
# Density = 1.909648 g / cm^3
# Si number density = 19.140046 Si / 1000 Ang^3
#
#
#
# Elastic Constant Matrix: (Units=GPa)
#
#
# Indices 1 2 3 4 5 6 
#
# 1 116.5129 26.6788 25.3822 0.0000 0.0000 0.0000
# 2 26.6788 61.8787 -2.8151 0.0000 0.0000 0.0000
# 3 25.3822 -2.8151 53.1080 0.0000 0.0000 0.0000
# 4 0.0000 0.0000 0.0000 31.6108 0.0000 0.0000
# 5 0.0000 0.0000 0.0000 0.0000 18.8713 0.0000
# 6 0.0000 0.0000 0.0000 0.0000 0.0000 134.8591
#
#
#
# Elastic Compliance Matrix: (Units=1/GPa)
#
#
# Indices 1 2 3 4 5 6 
#
# 1 0.010910 -0.004953 -0.005477 0.000000 0.000000 0.000000
# 2 -0.004953 0.018448 0.003345 0.000000 0.000000 0.000000
# 3 -0.005477 0.003345 0.021624 0.000000 0.000000 0.000000
# 4 0.000000 0.000000 0.000000 0.031635 0.000000 0.000000
# 5 0.000000 0.000000 0.000000 0.000000 0.052991 0.000000
# 6 0.000000 0.000000 0.000000 0.000000 0.000000 0.007415
#
#
# Mechanical properties :
#
#
# Convention : Reuss Voigt Hill
#
# Bulk Modulus (GPa) = 27.16407 36.66571 31.91489
# Shear Modulus (GPa) = 29.50485 49.21849 39.36167
#
# Velocity S-wave (km/s) = 3.93048 5.07649 4.53979
# Velocity P-wave (km/s) = 5.90096 7.31841 6.64757
#
# Compressibility (1/GPa) = 0.03681334
#
# Stress axis : x y z
#
# Youngs Moduli (GPa) = 91.65920 54.20553 46.24396
#
# Poissons Ratio (x) = 0.26848 0.25327
# Poissons Ratio (y) = 0.45398 -0.15469
# Poissons Ratio (z) = 0.50200 -0.18132
#
# Static dielectric constant tensor:
#      x y z
#    x 3.524820 0.000000 0.000000 
#    y 0.000000 3.596250 0.000000 
#    z 0.000000 0.000000 3.581760 
# 
# 
# High freq. dielectric constant tensor:
#      x y z
#    x 1.735390 0.000000 0.000000 
#    y 0.000000 1.757790 0.000000 
#    z 0.000000 0.000000 1.724310 
# 
# From -- ./inp_files/35311.got.cif
#   From: 2010.03.12/outbox.cif.g09.slc.cpg/sg53_18_cif.got.tgz:35311.got - 2010.04.16 14:36:59.
