data_PCOD8221111
_publ_section_title
;
Structure prediction by ZEFSAII (Michael W. Deem and Ramdas Pophale) SiO2 
 PCOD8221111
Probable space group: P M N A
;
_chemical_formula_sum "Si O2"
_cell_formula_units_Z 56
_cell_length_a 20.182601
_cell_length_b 9.738742
_cell_length_c 13.931783
_cell_angle_alpha 90.000000
_cell_angle_beta 90.000000
_cell_angle_gamma 90.000000
_cell_volume 2738.335751
_symmetry_space_group_name_H-M "P M N A"
_symmetry_group_IT_number 53
_symmetry_cell_setting 'orthorhombic'
loop_
_space_group_symop_operation_xyz
x,y,z
1/2-x,-y,1/2+z
x,-y,-z
1/2-x,y,1/2-z
-x,-y,-z
1/2+x,y,1/2-z
-x,y,z
1/2+x,-y,1/2+z
loop_
_atom_site_type_symbol
_atom_site_label
_atom_site_fract_x
_atom_site_fract_y
_atom_site_fract_z
Si Si1 0.826354 0.012913 0.250659
Si Si2 0.426274 0.240943 0.749583
Si Si3 0.810017 0.208092 0.418066
Si Si4 0.379405 0.610734 0.435836
Si Si5 0.616798 0.373692 0.940968
Si Si6 0.329420 0.865932 0.549142
Si Si7 0.744623 0.504845 0.858538
O O1 0.750000 0.962195 0.250000
O O2 0.842016 0.098818 0.345617
O O3 0.840356 0.117467 0.163180
O O4 0.872034 0.878510 0.246700
O O5 0.500000 0.177554 0.741813
O O6 0.416151 0.345162 0.661173
O O7 0.424446 0.328475 0.848351
O O8 0.871611 0.246443 0.486666
O O9 0.748873 0.142553 0.476835
O O10 0.777301 0.336403 0.361297
O O11 0.421179 0.500000 0.500000
O O12 0.368478 0.739495 0.505104
O O13 0.313237 0.525779 0.410259
O O14 0.690771 0.414333 0.912206
O O15 0.582236 0.500000 0.000000
O O16 0.359739 0.000000 0.500000
O O17 0.750000 0.454097 0.750000
#
# Coordination Sequence:
#
# PCOD8221111 Si02
#       7
#     8   8   8   8   8   8   8
#     4  10  24  40  66  95 135 171 221 273 328 391
#     4  12  28  46  64  92 131 177 229 275 330 397
#     4  10  21  35  59 102 135 164 207 275 329 391
#     4  12  23  39  67  97 137 173 214 273 339 402
#     4  10  22  38  63  95 130 165 211 270 334 391
#     4  11  20  35  60 100 136 168 211 264 332 392
#     4  11  18  33  63 101 135 160 207 267 337 386
#
# _framework density 20.450378000000001
#
# number of rings (size 3 to 8) (size 9 to 14) (size 15 to 20)
#    0.000    1.143    5.714    1.714    6.000    0.571 
#    0.000    2.857    0.000    4.286    0.000    0.000 
#    0.000    0.000    0.000    0.000    0.000    0.000 
#
# Total GULP energy -694191.282794 kJ/mol
# GULP energy per Si atom -12396.272907 kJ/mol
# Density = 2.040383 g / cm^3
# Si number density = 20.450378 Si / 1000 Ang^3
#
#
#
# Elastic Constant Matrix: (Units=GPa)
#
#
# Indices 1 2 3 4 5 6 
#
# 1 73.0944 31.7585 34.9640 0.0000 0.0000 0.0000
# 2 31.7585 119.3381 61.8577 0.0000 0.0000 0.0000
# 3 34.9640 61.8577 140.9292 0.0000 0.0000 0.0000
# 4 0.0000 0.0000 0.0000 44.6688 0.0000 0.0000
# 5 0.0000 0.0000 0.0000 0.0000 -1.4879 0.0000
# 6 0.0000 0.0000 0.0000 0.0000 0.0000 6.8794
#
#
#
# Elastic Compliance Matrix: (Units=1/GPa)
#
#
# Indices 1 2 3 4 5 6 
#
# 1 0.016261 -0.002895 -0.002764 0.000000 0.000000 0.000000
# 2 -0.002895 0.011363 -0.004269 0.000000 0.000000 0.000000
# 3 -0.002764 -0.004269 0.009655 0.000000 0.000000 0.000000
# 4 0.000000 0.000000 0.000000 0.022387 0.000000 0.000000
# 5 0.000000 0.000000 0.000000 0.000000 -0.672074 0.000000
# 6 0.000000 0.000000 0.000000 0.000000 0.000000 0.145361
#
#
# Mechanical properties :
#
#
# Convention : Reuss Voigt Hill
#
# Bulk Modulus (GPa) = 57.39405 65.61358 61.50381
# Shear Modulus (GPa) = -11.32800 23.66416 6.16808
#
# Velocity S-wave (km/s) = -2.35612 3.40538 1.73858
# Velocity P-wave (km/s) = 4.55239 6.90044 5.84553
#
# Compressibility (1/GPa) = 0.01742341
#
# Stress axis : x y z
#
# Youngs Moduli (GPa) = 61.49822 88.00596 103.57013
#
# Poissons Ratio (x) = 0.25476 0.28622
# Poissons Ratio (y) = 0.17803 0.44217
# Poissons Ratio (z) = 0.16996 0.37572
#
# Static dielectric constant tensor:
#      x y z
#    x 3.193530 0.000000 0.000000 
#    y 0.000000 3.879580 0.000000 
#    z 0.000000 0.000000 4.082590 
# 
# 
# High freq. dielectric constant tensor:
#      x y z
#    x 1.743630 0.000000 0.000000 
#    y 0.000000 1.807840 0.000000 
#    z 0.000000 0.000000 1.824440 
# 
# From -- ./inp_files/24340.got.cif
#   From: 2010.03.12/outbox.cif.g09.slc.cpg/sg53_13_cif.got.tgz:24340.got - 2010.04.16 14:36:59.
