data_PCOD8221238
_publ_section_title
;
Structure prediction by ZEFSAII (Michael W. Deem and Ramdas Pophale) SiO2 
 PCOD8221238
Probable space group: P M N A
;
_chemical_formula_sum "Si O2"
_cell_formula_units_Z 32
_cell_length_a 16.623632
_cell_length_b 10.358556
_cell_length_c 9.063865
_cell_angle_alpha 90.000000
_cell_angle_beta 90.000000
_cell_angle_gamma 90.000000
_cell_volume 1560.768757
_symmetry_space_group_name_H-M "P M N A"
_symmetry_group_IT_number 53
_symmetry_cell_setting 'orthorhombic'
loop_
_space_group_symop_operation_xyz
x,y,z
1/2-x,-y,1/2+z
x,-y,-z
1/2-x,y,1/2-z
-x,-y,-z
1/2+x,y,1/2-z
-x,y,z
1/2+x,-y,1/2+z
loop_
_atom_site_type_symbol
_atom_site_label
_atom_site_fract_x
_atom_site_fract_y
_atom_site_fract_z
Si Si1 0.592382 0.993398 0.661168
Si Si2 0.595980 0.782267 0.128295
Si Si3 0.337715 0.242629 0.192936
Si Si4 0.911616 0.496339 0.675526
O O1 0.500000 0.031713 0.644025
O O2 0.629070 0.099390 0.773625
O O3 0.634297 0.000000 0.500000
O O4 0.600163 0.849676 0.723348
O O5 0.500000 0.791656 0.089921
O O6 0.614150 0.649551 0.219483
O O7 0.649165 0.781844 0.980283
O O8 0.250000 0.203314 0.250000
O O9 0.352836 0.392574 0.237184
O O10 0.914212 0.500000 0.500000
O O11 0.000000 0.527023 0.739432
#
# Coordination Sequence:
#
# PCOD8221238 Si02
#       4
#     8   8   8   8
#     4  10  21  37  56  80 109 143 188 237 278 321
#     4   9  18  37  64  84 103 142 193 237 276 326
#     4  11  21  33  52  83 115 146 181 221 277 337
#     4   8  15  32  58  82 103 136 187 234 268 317
#
# _framework density 20.502715999999999
#
# number of rings (size 3 to 8) (size 9 to 14) (size 15 to 20)
#    0.000    2.500    0.000    4.500    0.000    4.000 
#    0.000   10.000    0.000    6.000    0.000    0.000 
#    0.000    0.000    0.000    0.000    0.000    0.000 
#
# Total GULP energy -396572.442481 kJ/mol
# GULP energy per Si atom -12392.888828 kJ/mol
# Density = 2.045605 g / cm^3
# Si number density = 20.502716 Si / 1000 Ang^3
#
#
#
# Elastic Constant Matrix: (Units=GPa)
#
#
# Indices 1 2 3 4 5 6 
#
# 1 49.2354 27.5065 33.5362 0.0000 0.0000 0.0000
# 2 27.5065 149.5015 61.6150 0.0000 0.0000 0.0000
# 3 33.5362 61.6150 96.1654 0.0000 0.0000 0.0000
# 4 0.0000 0.0000 0.0000 22.2218 0.0000 0.0000
# 5 0.0000 0.0000 0.0000 0.0000 20.0481 0.0000
# 6 0.0000 0.0000 0.0000 0.0000 0.0000 13.1853
#
#
#
# Elastic Compliance Matrix: (Units=1/GPa)
#
#
# Indices 1 2 3 4 5 6 
#
# 1 0.026874 -0.001470 -0.008430 0.000000 0.000000 0.000000
# 2 -0.001470 0.009169 -0.005362 0.000000 0.000000 0.000000
# 3 -0.008430 -0.005362 0.016774 0.000000 0.000000 0.000000
# 4 0.000000 0.000000 0.000000 0.045001 0.000000 0.000000
# 5 0.000000 0.000000 0.000000 0.000000 0.049880 0.000000
# 6 0.000000 0.000000 0.000000 0.000000 0.000000 0.075842
#
#
# Mechanical properties :
#
#
# Convention : Reuss Voigt Hill
#
# Bulk Modulus (GPa) = 44.85756 60.02420 52.44088
# Shear Modulus (GPa) = 19.12075 22.57402 20.84738
#
# Velocity S-wave (km/s) = 3.05716 3.32177 3.19221
# Velocity P-wave (km/s) = 5.86412 6.63717 6.26258
#
# Compressibility (1/GPa) = 0.02229279
#
# Stress axis : x y z
#
# Youngs Moduli (GPa) = 37.21089 109.05843 59.61522
#
# Poissons Ratio (x) = 0.16034 0.50255
# Poissons Ratio (y) = 0.05471 0.31967
# Poissons Ratio (z) = 0.31368 0.58480
#
# Static dielectric constant tensor:
#      x y z
#    x 3.293060 0.000000 0.000000 
#    y 0.000000 4.211640 0.000000 
#    z 0.000000 0.000000 3.527320 
# 
# 
# High freq. dielectric constant tensor:
#      x y z
#    x 1.766420 0.000000 0.000000 
#    y 0.000000 1.825220 0.000000 
#    z 0.000000 0.000000 1.772000 
# 
# From -- ./inp_files/7973.got.cif
#   From: 2010.03.12/outbox.cif.g09.slc.cpg/sg53_4_cif.got.tgz:7973.got - 2010.04.16 14:36:59.
