data_PCOD8221799
_publ_section_title
;
Structure prediction by ZEFSAII (Michael W. Deem and Ramdas Pophale) SiO2 
 PCOD8221799
Probable space group: P M N A
;
_chemical_formula_sum "Si O2"
_cell_formula_units_Z 40
_cell_length_a 13.600932
_cell_length_b 8.943687
_cell_length_c 15.950120
_cell_angle_alpha 90.000000
_cell_angle_beta 90.000000
_cell_angle_gamma 90.000000
_cell_volume 1940.212133
_symmetry_space_group_name_H-M "P M N A"
_symmetry_group_IT_number 53
_symmetry_cell_setting 'orthorhombic'
loop_
_space_group_symop_operation_xyz
x,y,z
1/2-x,-y,1/2+z
x,-y,-z
1/2-x,y,1/2-z
-x,-y,-z
1/2+x,y,1/2-z
-x,y,z
1/2+x,-y,1/2+z
loop_
_atom_site_type_symbol
_atom_site_label
_atom_site_fract_x
_atom_site_fract_y
_atom_site_fract_z
Si Si1 0.771325 0.339496 0.963142
Si Si2 0.386777 0.756950 0.162166
Si Si3 0.885221 0.453486 0.815818
Si Si4 0.887838 0.090509 0.282977
Si Si5 0.706771 0.238338 0.359923
O O1 0.675355 0.267476 0.921532
O O2 0.859862 0.350563 0.896382
O O3 0.740687 0.500000 0.000000
O O4 0.807761 0.234941 0.039883
O O5 0.500000 0.741919 0.136825
O O6 0.357079 0.634391 0.231419
O O7 0.363537 0.919281 0.198791
O O8 0.819943 0.601601 0.820039
O O9 0.000000 0.494162 0.818871
O O10 0.820319 0.200831 0.338424
O O11 0.863600 0.115765 0.184257
O O12 0.000000 0.131722 0.303250
#
# Coordination Sequence:
#
# PCOD8221799 Si02
#       5
#     8   8   8   8   8
#     4  10  23  38  63  97 127 160 212 263 320 365
#     4  10  23  43  66  92 127 170 214 260 311 379
#     4  10  22  41  67  92 124 170 217 264 314 371
#     4  10  23  42  63  90 127 170 209 251 318 381
#     4  10  23  39  61  98 123 165 208 262 312 373
#
# _framework density 20.616301
#
# number of rings (size 3 to 8) (size 9 to 14) (size 15 to 20)
#    0.000    2.000    0.000    1.200   16.800    6.400 
#    0.000    2.000    0.000    3.600    0.000    0.000 
#    0.000    0.000    0.000    0.000    0.000    0.000 
#
# Total GULP energy -495996.825580 kJ/mol
# GULP energy per Si atom -12399.920639 kJ/mol
# Density = 2.056938 g / cm^3
# Si number density = 20.616301 Si / 1000 Ang^3
#
#
#
# Elastic Constant Matrix: (Units=GPa)
#
#
# Indices 1 2 3 4 5 6 
#
# 1 95.5512 44.9433 14.8568 0.0000 0.0000 0.0000
# 2 44.9433 81.8907 35.1098 0.0000 0.0000 0.0000
# 3 14.8568 35.1098 101.5193 0.0000 0.0000 0.0000
# 4 0.0000 0.0000 0.0000 31.3036 0.0000 0.0000
# 5 0.0000 0.0000 0.0000 0.0000 21.1356 0.0000
# 6 0.0000 0.0000 0.0000 0.0000 0.0000 36.3830
#
#
#
# Elastic Compliance Matrix: (Units=1/GPa)
#
#
# Indices 1 2 3 4 5 6 
#
# 1 0.014152 -0.008077 0.000722 0.000000 0.000000 0.000000
# 2 -0.008077 0.018947 -0.005371 0.000000 0.000000 0.000000
# 3 0.000722 -0.005371 0.011602 0.000000 0.000000 0.000000
# 4 0.000000 0.000000 0.000000 0.031945 0.000000 0.000000
# 5 0.000000 0.000000 0.000000 0.000000 0.047313 0.000000
# 6 0.000000 0.000000 0.000000 0.000000 0.000000 0.027485
#
#
# Mechanical properties :
#
#
# Convention : Reuss Voigt Hill
#
# Bulk Modulus (GPa) = 51.94613 52.08679 52.01646
# Shear Modulus (GPa) = 27.27590 30.03454 28.65522
#
# Velocity S-wave (km/s) = 3.64129 3.82099 3.73222
# Velocity P-wave (km/s) = 6.55210 6.69226 6.62255
#
# Compressibility (1/GPa) = 0.01925071
#
# Stress axis : x y z
#
# Youngs Moduli (GPa) = 70.66028 52.77986 86.19165
#
# Poissons Ratio (x) = 0.42628 -0.06224
# Poissons Ratio (y) = 0.57070 0.46290
# Poissons Ratio (z) = -0.05103 0.28346
#
# Static dielectric constant tensor:
#      x y z
#    x 3.735030 0.000000 0.000000 
#    y 0.000000 3.732400 0.000000 
#    z 0.000000 0.000000 3.908900 
# 
# 
# High freq. dielectric constant tensor:
#      x y z
#    x 1.810670 0.000000 0.000000 
#    y 0.000000 1.804680 0.000000 
#    z 0.000000 0.000000 1.806150 
# 
# From -- ./inp_files/22398.got.cif
#   From: 2010.03.12/outbox.cif.g09.slc.cpg/sg53_12_cif.got.tgz:22398.got - 2010.04.16 14:36:59.
