data_PCOD8221102
_publ_section_title
;
Structure prediction by ZEFSAII (Michael W. Deem and Ramdas Pophale) SiO2 
 PCOD8221102
Probable space group: P M N A
;
_chemical_formula_sum "Si O2"
_cell_formula_units_Z 44
_cell_length_a 13.372109
_cell_length_b 9.306159
_cell_length_c 18.546769
_cell_angle_alpha 90.000000
_cell_angle_beta 90.000000
_cell_angle_gamma 90.000000
_cell_volume 2308.015065
_symmetry_space_group_name_H-M "P M N A"
_symmetry_group_IT_number 53
_symmetry_cell_setting 'orthorhombic'
loop_
_space_group_symop_operation_xyz
x,y,z
1/2-x,-y,1/2+z
x,-y,-z
1/2-x,y,1/2-z
-x,-y,-z
1/2+x,y,1/2-z
-x,y,z
1/2+x,-y,1/2+z
loop_
_atom_site_type_symbol
_atom_site_label
_atom_site_fract_x
_atom_site_fract_y
_atom_site_fract_z
Si Si1 0.754912 0.602609 0.565998
Si Si2 0.612279 0.168839 0.825537
Si Si3 0.385915 0.162980 0.991258
Si Si4 0.882813 0.293695 0.182716
Si Si5 0.885123 0.483637 0.692985
Si Si6 0.750000 0.053749 0.250000
O O1 0.725541 0.500000 0.500000
O O2 0.816061 0.740708 0.540709
O O3 0.652831 0.654778 0.603986
O O4 0.821226 0.517432 0.622926
O O5 0.500000 0.111785 0.810276
O O6 0.624839 0.210138 0.908894
O O7 0.632401 0.317843 0.782703
O O8 0.688744 0.045037 0.804769
O O9 0.500000 0.180480 0.018517
O O10 0.349915 0.000000 0.000000
O O11 0.854205 0.416219 0.240428
O O12 0.826273 0.147960 0.203601
O O13 0.000000 0.262079 0.179853
O O14 0.000000 0.508586 0.671527
#
# Coordination Sequence:
#
# PCOD8221102 Si02
#       6
#     8   8   8   8   8   4
#     4  12  22  37  64  90 120 166 200 248 311 367
#     4  10  22  37  58  91 122 154 196 251 305 361
#     4  10  21  35  55  89 127 154 190 245 307 366
#     4  11  25  43  62  89 121 161 213 256 298 362
#     4  10  21  39  62  91 124 155 205 258 302 357
#     4  12  22  38  68  84 124 166 204 246 306 368
#
# _framework density 19.064
#
# number of rings (size 3 to 8) (size 9 to 14) (size 15 to 20)
#    0.000    1.273    3.636    2.182    2.545    1.091 
#    0.000    0.000    0.000    6.000    0.000    0.000 
#    0.000    0.000    0.000    0.000    0.000    0.000 
#
# Total GULP energy -545733.000542 kJ/mol
# GULP energy per Si atom -12403.022740 kJ/mol
# Density = 1.902061 g / cm^3
# Si number density = 19.064000 Si / 1000 Ang^3
#
#
#
# Elastic Constant Matrix: (Units=GPa)
#
#
# Indices 1 2 3 4 5 6 
#
# 1 117.8732 66.6398 57.6031 0.0000 0.0000 0.0000
# 2 66.6398 126.5043 47.7998 0.0000 0.0000 0.0000
# 3 57.6031 47.7998 92.2034 0.0000 0.0000 0.0000
# 4 0.0000 0.0000 0.0000 33.0206 0.0000 0.0000
# 5 0.0000 0.0000 0.0000 0.0000 33.3584 0.0000
# 6 0.0000 0.0000 0.0000 0.0000 0.0000 22.2992
#
#
#
# Elastic Compliance Matrix: (Units=1/GPa)
#
#
# Indices 1 2 3 4 5 6 
#
# 1 0.014579 -0.005271 -0.006376 0.000000 0.000000 0.000000
# 2 -0.005271 0.011736 -0.002791 0.000000 0.000000 0.000000
# 3 -0.006376 -0.002791 0.016276 0.000000 0.000000 0.000000
# 4 0.000000 0.000000 0.000000 0.030284 0.000000 0.000000
# 5 0.000000 0.000000 0.000000 0.000000 0.029977 0.000000
# 6 0.000000 0.000000 0.000000 0.000000 0.000000 0.044845
#
#
# Mechanical properties :
#
#
# Convention : Reuss Voigt Hill
#
# Bulk Modulus (GPa) = 72.91074 75.62957 74.27015
# Shear Modulus (GPa) = 27.60213 28.70486 28.15349
#
# Velocity S-wave (km/s) = 3.80921 3.88456 3.84707
# Velocity P-wave (km/s) = 7.59441 7.73804 7.66656
#
# Compressibility (1/GPa) = 0.01371540
#
# Stress axis : x y z
#
# Youngs Moduli (GPa) = 68.58976 85.20631 61.44101
#
# Poissons Ratio (x) = 0.44913 0.39173
# Poissons Ratio (y) = 0.36154 0.17150
# Poissons Ratio (z) = 0.43731 0.23783
#
# Static dielectric constant tensor:
#      x y z
#    x 3.478980 0.000000 0.000000 
#    y 0.000000 3.620050 0.000000 
#    z 0.000000 0.000000 3.460310 
# 
# 
# High freq. dielectric constant tensor:
#      x y z
#    x 1.738540 0.000000 0.000000 
#    y 0.000000 1.756790 0.000000 
#    z 0.000000 0.000000 1.732290 
# 
# From -- ./inp_files/28161.got.cif
#   From: 2010.03.12/outbox.cif.g09.slc.cpg/sg53_15_cif.got.tgz:28161.got - 2010.04.16 14:36:59.
