data_PCOD8221257
_publ_section_title
;
Structure prediction by ZEFSAII (Michael W. Deem and Ramdas Pophale) SiO2 
 PCOD8221257
Probable space group: P M N A
;
_chemical_formula_sum "Si O2"
_cell_formula_units_Z 48
_cell_length_a 21.913922
_cell_length_b 5.066145
_cell_length_c 22.209546
_cell_angle_alpha 90.000000
_cell_angle_beta 90.000000
_cell_angle_gamma 90.000000
_cell_volume 2465.683950
_symmetry_space_group_name_H-M "P M N A"
_symmetry_group_IT_number 53
_symmetry_cell_setting 'orthorhombic'
loop_
_space_group_symop_operation_xyz
x,y,z
1/2-x,-y,1/2+z
x,-y,-z
1/2-x,y,1/2-z
-x,-y,-z
1/2+x,y,1/2-z
-x,y,z
1/2+x,-y,1/2+z
loop_
_atom_site_type_symbol
_atom_site_label
_atom_site_fract_x
_atom_site_fract_y
_atom_site_fract_z
Si Si1 0.331008 0.978512 0.931267
Si Si2 0.375335 0.474941 0.626814
Si Si3 0.570835 0.973206 0.568319
Si Si4 0.930041 0.027921 0.332156
Si Si5 0.251639 0.478749 0.931014
Si Si6 0.429746 0.473166 0.753977
O O1 0.303724 0.691943 0.917413
O O2 0.389696 0.027407 0.890453
O O3 0.278741 0.191542 0.917438
O O4 0.353397 0.000000 0.000000
O O5 0.391840 0.176327 0.609251
O O6 0.304727 0.530136 0.613163
O O7 0.385771 0.517054 0.697467
O O8 0.417395 0.675965 0.589568
O O9 0.500000 0.042027 0.574240
O O10 0.593728 0.000000 0.500000
O O11 0.916402 0.813135 0.281021
O O12 0.000000 0.011614 0.353489
O O13 0.914156 0.311640 0.304514
O O14 0.228829 0.500000 0.000000
O O15 0.500000 0.500171 0.732686
#
# Coordination Sequence:
#
# PCOD8221257 Si02
#       6
#     8   8   8   8   8   8
#     4  10  21  39  61  85 113 143 181 232 288 342
#     4  12  22  37  57  80 112 158 196 224 276 339
#     4  11  22  34  52  80 111 144 192 252 291 318
#     4  10  21  39  61  85 113 143 181 232 288 342
#     4  10  21  37  57  82 114 151 189 231 277 330
#     4  10  21  37  57  82 114 151 189 231 277 330
#
# _framework density 19.467216000000001
#
# number of rings (size 3 to 8) (size 9 to 14) (size 15 to 20)
#    0.000    1.500    0.000    6.000    0.000    4.333 
#    0.000    5.000    0.000    6.000    0.000    0.000 
#    0.000    0.000    0.000    0.000    0.000    0.000 
#
# Total GULP energy -595566.152874 kJ/mol
# GULP energy per Si atom -12407.628185 kJ/mol
# Density = 1.942291 g / cm^3
# Si number density = 19.467216 Si / 1000 Ang^3
#
#
#
# Elastic Constant Matrix: (Units=GPa)
#
#
# Indices 1 2 3 4 5 6 
#
# 1 89.6719 9.8922 68.0090 0.0000 0.0000 0.0000
# 2 9.8922 76.1299 12.4356 0.0000 0.0000 0.0000
# 3 68.0090 12.4356 105.1132 0.0000 0.0000 0.0000
# 4 0.0000 0.0000 0.0000 20.9375 0.0000 0.0000
# 5 0.0000 0.0000 0.0000 0.0000 37.9400 0.0000
# 6 0.0000 0.0000 0.0000 0.0000 0.0000 18.8681
#
#
#
# Elastic Compliance Matrix: (Units=1/GPa)
#
#
# Indices 1 2 3 4 5 6 
#
# 1 0.021918 -0.000542 -0.014117 0.000000 0.000000 0.000000
# 2 -0.000542 0.013408 -0.001236 0.000000 0.000000 0.000000
# 3 -0.014117 -0.001236 0.018794 0.000000 0.000000 0.000000
# 4 0.000000 0.000000 0.000000 0.047761 0.000000 0.000000
# 5 0.000000 0.000000 0.000000 0.000000 0.026357 0.000000
# 6 0.000000 0.000000 0.000000 0.000000 0.000000 0.053000
#
#
# Mechanical properties :
#
#
# Convention : Reuss Voigt Hill
#
# Bulk Modulus (GPa) = 44.78245 50.17652 47.47948
# Shear Modulus (GPa) = 22.67874 27.58766 25.13320
#
# Velocity S-wave (km/s) = 3.41687 3.76857 3.59702
# Velocity P-wave (km/s) = 6.21455 6.69081 6.45707
#
# Compressibility (1/GPa) = 0.02233018
#
# Stress axis : x y z
#
# Youngs Moduli (GPa) = 45.62388 74.58402 53.20946
#
# Poissons Ratio (x) = 0.04043 0.75117
# Poissons Ratio (y) = 0.02473 0.06574
# Poissons Ratio (z) = 0.64408 0.09215
#
# Static dielectric constant tensor:
#      x y z
#    x 3.341100 0.000000 0.000000 
#    y 0.000000 3.699720 0.000000 
#    z 0.000000 0.000000 3.414260 
# 
# 
# High freq. dielectric constant tensor:
#      x y z
#    x 1.746780 0.000000 0.000000 
#    y 0.000000 1.779080 0.000000 
#    z 0.000000 0.000000 1.749770 
# 
# From -- ./inp_files/32971.got.cif
#   From: 2010.03.12/outbox.cif.g09.slc.cpg/sg53_17_cif.got.tgz:32971.got - 2010.04.16 14:36:59.
