data_PCOD8221754
_publ_section_title
;
Structure prediction by ZEFSAII (Michael W. Deem and Ramdas Pophale) SiO2 
 PCOD8221754
Probable space group: P M N A
;
_chemical_formula_sum "Si O2"
_cell_formula_units_Z 64
_cell_length_a 15.969581
_cell_length_b 20.409401
_cell_length_c 9.950567
_cell_angle_alpha 90.000000
_cell_angle_beta 90.000000
_cell_angle_gamma 90.000000
_cell_volume 3243.184147
_symmetry_space_group_name_H-M "P M N A"
_symmetry_group_IT_number 53
_symmetry_cell_setting 'orthorhombic'
loop_
_space_group_symop_operation_xyz
x,y,z
1/2-x,-y,1/2+z
x,-y,-z
1/2-x,y,1/2-z
-x,-y,-z
1/2+x,y,1/2-z
-x,y,z
1/2+x,-y,1/2+z
loop_
_atom_site_type_symbol
_atom_site_label
_atom_site_fract_x
_atom_site_fract_y
_atom_site_fract_z
Si Si1 0.751771 0.063159 0.907826
Si Si2 0.595524 0.496736 0.848039
Si Si3 0.593421 0.704787 0.021031
Si Si4 0.596326 0.841642 0.411185
Si Si5 0.097808 0.297277 0.021921
Si Si6 0.843083 0.632637 0.721353
Si Si7 0.594406 0.151984 0.901569
Si Si8 0.344097 0.632794 0.269387
O O1 0.750000 0.044585 0.750000
O O2 0.836376 0.102275 0.947402
O O3 0.666082 0.101250 0.944400
O O4 0.752462 0.000000 0.000000
O O5 0.500000 0.473002 0.852624
O O6 0.600652 0.567481 0.777746
O O7 0.646659 0.444303 0.760871
O O8 0.631948 0.500000 0.000000
O O9 0.500000 0.690789 0.967618
O O10 0.657337 0.667563 0.923704
O O11 0.611594 0.781974 0.015713
O O12 0.599246 0.676483 0.171066
O O13 0.500000 0.861264 0.452358
O O14 0.628197 0.776040 0.485732
O O15 0.601081 0.828295 0.253459
O O16 0.132947 0.352729 0.922872
O O17 0.000000 0.298582 0.007950
O O18 0.124990 0.314390 0.172131
O O19 0.750000 0.609022 0.750000
O O20 0.500000 0.124620 0.932227
O O21 0.250000 0.655777 0.250000
#
# Coordination Sequence:
#
# PCOD8221754 Si02
#       8
#     8   8   8   8   8   8   8   8
#     4  10  22  40  63  90 126 163 202 246 298 358
#     4  11  23  42  64  82 113 163 212 251 302 377
#     4  11  21  40  65  90 119 162 211 247 300 373
#     4   9  19  37  63  91 123 162 205 248 299 364
#     4  11  23  40  61  91 125 156 199 256 314 366
#     4  12  26  41  59  90 125 158 197 260 320 366
#     4   9  19  36  64  93 120 159 211 253 290 356
#     4  12  24  37  64  94 118 153 204 261 306 362
#
# _framework density 19.733692000000001
#
# number of rings (size 3 to 8) (size 9 to 14) (size 15 to 20)
#    0.000    1.375    2.500    3.375    3.500    1.000 
#    2.250    1.250    0.000    0.000    0.000    0.000 
#    0.000    0.000    0.000    0.000    0.000    0.000 
#
# Total GULP energy -793721.156219 kJ/mol
# GULP energy per Si atom -12401.893066 kJ/mol
# Density = 1.968878 g / cm^3
# Si number density = 19.733692 Si / 1000 Ang^3
#
#
#
# Elastic Constant Matrix: (Units=GPa)
#
#
# Indices 1 2 3 4 5 6 
#
# 1 91.7047 55.8361 21.6758 0.0000 0.0000 0.0000
# 2 55.8361 129.9905 43.8582 0.0000 0.0000 0.0000
# 3 21.6758 43.8582 58.7213 0.0000 0.0000 0.0000
# 4 0.0000 0.0000 0.0000 37.3368 0.0000 0.0000
# 5 0.0000 0.0000 0.0000 0.0000 26.5096 0.0000
# 6 0.0000 0.0000 0.0000 0.0000 0.0000 23.7546
#
#
#
# Elastic Compliance Matrix: (Units=1/GPa)
#
#
# Indices 1 2 3 4 5 6 
#
# 1 0.014807 -0.006037 -0.000956 0.000000 0.000000 0.000000
# 2 -0.006037 0.012746 -0.007291 0.000000 0.000000 0.000000
# 3 -0.000956 -0.007291 0.022829 0.000000 0.000000 0.000000
# 4 0.000000 0.000000 0.000000 0.026783 0.000000 0.000000
# 5 0.000000 0.000000 0.000000 0.000000 0.037722 0.000000
# 6 0.000000 0.000000 0.000000 0.000000 0.000000 0.042097
#
#
# Mechanical properties :
#
#
# Convention : Reuss Voigt Hill
#
# Bulk Modulus (GPa) = 45.84828 58.12852 51.98840
# Shear Modulus (GPa) = 25.93031 28.12328 27.02679
#
# Velocity S-wave (km/s) = 3.62886 3.77920 3.70479
# Velocity P-wave (km/s) = 6.39079 6.96876 6.68602
#
# Compressibility (1/GPa) = 0.02181107
#
# Stress axis : x y z
#
# Youngs Moduli (GPa) = 67.53761 78.45440 43.80485
#
# Poissons Ratio (x) = 0.47366 0.04189
# Poissons Ratio (y) = 0.40775 0.31940
# Poissons Ratio (z) = 0.06459 0.57205
#
# Static dielectric constant tensor:
#      x y z
#    x 3.821300 0.000000 0.000000 
#    y 0.000000 3.478040 0.000000 
#    z 0.000000 0.000000 3.451540 
# 
# 
# High freq. dielectric constant tensor:
#      x y z
#    x 1.783500 0.000000 0.000000 
#    y 0.000000 1.760880 0.000000 
#    z 0.000000 0.000000 1.754670 
# 
# From -- ./inp_files/8946.got.cif
#   From: 2010.03.12/outbox.cif.g09.slc.cpg/sg53_5_cif.got.tgz:8946.got - 2010.04.16 14:36:59.
