data_PCOD8221787
_publ_section_title
;
Structure prediction by ZEFSAII (Michael W. Deem and Ramdas Pophale) SiO2 
 PCOD8221787
Probable space group: P M N A
;
_chemical_formula_sum "Si O2"
_cell_formula_units_Z 56
_cell_length_a 18.644303
_cell_length_b 8.800389
_cell_length_c 17.000459
_cell_angle_alpha 90.000000
_cell_angle_beta 90.000000
_cell_angle_gamma 90.000000
_cell_volume 2789.386335
_symmetry_space_group_name_H-M "P M N A"
_symmetry_group_IT_number 53
_symmetry_cell_setting 'orthorhombic'
loop_
_space_group_symop_operation_xyz
x,y,z
1/2-x,-y,1/2+z
x,-y,-z
1/2-x,y,1/2-z
-x,-y,-z
1/2+x,y,1/2-z
-x,y,z
1/2+x,-y,1/2+z
loop_
_atom_site_type_symbol
_atom_site_label
_atom_site_fract_x
_atom_site_fract_y
_atom_site_fract_z
Si Si1 0.857963 0.819210 0.008165
Si Si2 0.417835 0.205511 0.201847
Si Si3 0.203127 0.159360 0.540528
Si Si4 0.917111 0.291569 0.836083
Si Si5 0.084221 0.633898 0.860852
Si Si6 0.418429 0.340674 0.037968
Si Si7 0.173628 0.091647 0.714121
O O1 0.778314 0.753865 0.026435
O O2 0.911608 0.790327 0.080240
O O3 0.881334 0.726388 0.931808
O O4 0.860301 0.000000 0.000000
O O5 0.500000 0.151105 0.206124
O O6 0.392864 0.282324 0.281784
O O7 0.408177 0.330426 0.132339
O O8 0.369871 0.057984 0.190570
O O9 0.133238 0.218764 0.498320
O O10 0.188629 0.173969 0.632599
O O11 0.217074 0.000000 0.500000
O O12 0.887658 0.462053 0.850540
O O13 0.869948 0.204259 0.771060
O O14 0.000000 0.291166 0.807835
O O15 0.000000 0.631540 0.875307
O O16 0.500000 0.300651 0.014576
O O17 0.396128 0.500000 0.000000
O O18 0.250000 0.043341 0.750000
#
# Coordination Sequence:
#
# PCOD8221787 Si02
#       7
#     8   8   8   8   8   8   8
#     4  11  23  41  66  94 127 168 210 263 317 380
#     4  10  22  41  64  93 124 166 214 259 319 379
#     4  11  24  43  63  91 127 166 216 261 317 379
#     4  11  24  42  66  96 129 167 210 263 319 378
#     4  10  23  41  65  96 131 165 209 263 318 383
#     4  10  23  41  63  91 126 166 214 267 316 374
#     4  12  24  43  64  93 130 165 211 266 314 380
#
# _framework density 20.0761
#
# number of rings (size 3 to 8) (size 9 to 14) (size 15 to 20)
#    0.000    1.286    2.857    2.143    4.000    6.000 
#    0.000    0.714    0.000    0.000    0.000    0.000 
#    0.000    0.000    0.000    0.000    0.000    0.000 
#
# Total GULP energy -694206.509056 kJ/mol
# GULP energy per Si atom -12396.544805 kJ/mol
# Density = 2.003041 g / cm^3
# Si number density = 20.076100 Si / 1000 Ang^3
#
#
#
# Elastic Constant Matrix: (Units=GPa)
#
#
# Indices 1 2 3 4 5 6 
#
# 1 74.3679 35.0912 39.9807 0.0000 0.0000 0.0000
# 2 35.0912 95.6578 39.5074 0.0000 0.0000 0.0000
# 3 39.9807 39.5074 152.2574 0.0000 0.0000 0.0000
# 4 0.0000 0.0000 0.0000 36.1788 0.0000 0.0000
# 5 0.0000 0.0000 0.0000 0.0000 482.8709 0.0000
# 6 0.0000 0.0000 0.0000 0.0000 0.0000 20.7736
#
#
#
# Elastic Compliance Matrix: (Units=1/GPa)
#
#
# Indices 1 2 3 4 5 6 
#
# 1 0.017632 -0.005103 -0.003306 0.000000 0.000000 0.000000
# 2 -0.005103 0.013185 -0.002081 0.000000 0.000000 0.000000
# 3 -0.003306 -0.002081 0.007976 0.000000 0.000000 0.000000
# 4 0.000000 0.000000 0.000000 0.027640 0.000000 0.000000
# 5 0.000000 0.000000 0.000000 0.000000 0.002071 0.000000
# 6 0.000000 0.000000 0.000000 0.000000 0.000000 0.048138
#
#
# Mechanical properties :
#
#
# Convention : Reuss Voigt Hill
#
# Bulk Modulus (GPa) = 56.13809 61.27131 58.70470
# Shear Modulus (GPa) = 34.82861 121.81158 78.32010
#
# Velocity S-wave (km/s) = 4.16965 7.79786 6.25270
# Velocity P-wave (km/s) = 7.15574 10.56699 9.02402
#
# Compressibility (1/GPa) = 0.01781322
#
# Stress axis : x y z
#
# Youngs Moduli (GPa) = 56.71626 75.84113 125.37669
#
# Poissons Ratio (x) = 0.38699 0.41447
# Poissons Ratio (y) = 0.28941 0.26096
# Poissons Ratio (z) = 0.18749 0.15786
#
# Static dielectric constant tensor:
#      x y z
#    x 3.842310 0.000000 0.000000 
#    y 0.000000 3.511400 0.000000 
#    z 0.000000 0.000000 3.898980 
# 
# 
# High freq. dielectric constant tensor:
#      x y z
#    x 1.795220 0.000000 0.000000 
#    y 0.000000 1.777830 0.000000 
#    z 0.000000 0.000000 1.801560 
# 
# From -- ./inp_files/24358.got.cif
#   From: 2010.03.12/outbox.cif.g09.slc.cpg/sg53_13_cif.got.tgz:24358.got - 2010.04.16 14:36:59.
