data_PCOD8221106
_publ_section_title
;
Structure prediction by ZEFSAII (Michael W. Deem and Ramdas Pophale) SiO2 
 PCOD8221106
Probable space group: P M N A
;
_chemical_formula_sum "Si O2"
_cell_formula_units_Z 64
_cell_length_a 13.903206
_cell_length_b 9.307471
_cell_length_c 24.540108
_cell_angle_alpha 90.000000
_cell_angle_beta 90.000000
_cell_angle_gamma 90.000000
_cell_volume 3175.580446
_symmetry_space_group_name_H-M "P M N A"
_symmetry_group_IT_number 53
_symmetry_cell_setting 'orthorhombic'
loop_
_space_group_symop_operation_xyz
x,y,z
1/2-x,-y,1/2+z
x,-y,-z
1/2-x,y,1/2-z
-x,-y,-z
1/2+x,y,1/2-z
-x,y,z
1/2+x,-y,1/2+z
loop_
_atom_site_type_symbol
_atom_site_label
_atom_site_fract_x
_atom_site_fract_y
_atom_site_fract_z
Si Si1 0.395170 0.166950 0.773961
Si Si2 0.794349 0.211784 0.617598
Si Si3 0.612168 0.959653 0.937919
Si Si4 0.889188 0.681058 0.163531
Si Si5 0.612926 0.540545 0.060148
Si Si6 0.644252 0.157947 0.232855
Si Si7 0.194821 0.709559 0.621226
Si Si8 0.105366 0.345840 0.165290
O O1 0.500000 0.231726 0.786442
O O2 0.326207 0.230553 0.820000
O O3 0.359856 0.225857 0.716065
O O4 0.407920 0.994291 0.772626
O O5 0.682049 0.260762 0.615467
O O6 0.859602 0.296221 0.573688
O O7 0.815216 0.047908 0.601015
O O8 0.500000 0.976085 0.920670
O O9 0.650994 0.798606 0.929474
O O10 0.626995 0.000000 0.000000
O O11 0.871236 0.513179 0.175947
O O12 0.000000 0.708968 0.145772
O O13 0.500000 0.514676 0.064417
O O14 0.668281 0.453224 0.107139
O O15 0.650304 0.500000 0.000000
O O16 0.750000 0.114813 0.250000
O O17 0.640836 0.243364 0.176113
O O18 0.597941 0.263135 0.277355
O O19 0.310950 0.722105 0.627499
O O20 0.000000 0.330174 0.136791
#
# Coordination Sequence:
#
# PCOD8221106 Si02
#       8
#     8   8   8   8   8   8   8   8
#     4  11  22  35  57  90 124 159 196 238 291 355
#     4  12  22  39  63  87 121 158 197 243 297 355
#     4  11  24  42  64  90 121 156 196 245 302 358
#     4  10  23  40  60  87 122 161 199 243 291 348
#     4  11  24  40  60  88 117 150 198 251 302 354
#     4  10  21  35  56  88 122 158 197 238 287 352
#     4  11  22  39  63  88 120 160 196 244 296 354
#     4  10  22  40  60  88 123 160 200 242 292 346
#
# _framework density 20.153794999999999
#
# number of rings (size 3 to 8) (size 9 to 14) (size 15 to 20)
#    0.000    1.250    2.500    3.750    3.500    4.500 
#    0.000    0.000    0.000    4.500    0.000    0.000 
#    0.000    0.000    0.000    0.000    0.000    0.000 
#
# Total GULP energy -793478.677807 kJ/mol
# GULP energy per Si atom -12398.104341 kJ/mol
# Density = 2.010792 g / cm^3
# Si number density = 20.153795 Si / 1000 Ang^3
#
#
#
# Elastic Constant Matrix: (Units=GPa)
#
#
# Indices 1 2 3 4 5 6 
#
# 1 120.4277 22.8672 43.8758 0.0000 0.0000 0.0000
# 2 22.8672 64.0614 17.8087 0.0000 0.0000 0.0000
# 3 43.8758 17.8087 69.0596 0.0000 0.0000 0.0000
# 4 0.0000 0.0000 0.0000 31.3044 0.0000 0.0000
# 5 0.0000 0.0000 0.0000 0.0000 22.2494 0.0000
# 6 0.0000 0.0000 0.0000 0.0000 0.0000 31.5983
#
#
#
# Elastic Compliance Matrix: (Units=1/GPa)
#
#
# Indices 1 2 3 4 5 6 
#
# 1 0.011073 -0.002151 -0.006480 0.000000 0.000000 0.000000
# 2 -0.002151 0.017233 -0.003077 0.000000 0.000000 0.000000
# 3 -0.006480 -0.003077 0.019391 0.000000 0.000000 0.000000
# 4 0.000000 0.000000 0.000000 0.031944 0.000000 0.000000
# 5 0.000000 0.000000 0.000000 0.000000 0.044945 0.000000
# 6 0.000000 0.000000 0.000000 0.000000 0.000000 0.031647
#
#
# Mechanical properties :
#
#
# Convention : Reuss Voigt Hill
#
# Bulk Modulus (GPa) = 41.18656 46.96135 44.07396
# Shear Modulus (GPa) = 26.63179 28.29689 27.46434
#
# Velocity S-wave (km/s) = 3.63909 3.75113 3.69553
# Velocity P-wave (km/s) = 6.17558 6.48948 6.33447
#
# Compressibility (1/GPa) = 0.02427976
#
# Stress axis : x y z
#
# Youngs Moduli (GPa) = 90.30768 58.02695 51.57011
#
# Poissons Ratio (x) = 0.12482 0.33420
# Poissons Ratio (y) = 0.19426 0.15870
# Poissons Ratio (z) = 0.58524 0.17857
#
# Static dielectric constant tensor:
#      x y z
#    x 3.716840 0.000000 0.000000 
#    y 0.000000 3.656360 0.000000 
#    z 0.000000 0.000000 3.426320 
# 
# 
# High freq. dielectric constant tensor:
#      x y z
#    x 1.794110 0.000000 0.000000 
#    y 0.000000 1.798310 0.000000 
#    z 0.000000 0.000000 1.763060 
# 
# From -- ./inp_files/35374.got.cif
#   From: 2010.03.12/outbox.cif.g09.slc.cpg/sg53_18_cif.got.tgz:35374.got - 2010.04.16 14:36:59.
