data_PCOD8221984
_publ_section_title
;
Structure prediction by ZEFSAII (Michael W. Deem and Ramdas Pophale) SiO2 
 PCOD8221984
Probable space group: P M N A
;
_chemical_formula_sum "Si O2"
_cell_formula_units_Z 48
_cell_length_a 16.852902
_cell_length_b 9.980633
_cell_length_c 14.909803
_cell_angle_alpha 90.000000
_cell_angle_beta 90.000000
_cell_angle_gamma 90.000000
_cell_volume 2507.868075
_symmetry_space_group_name_H-M "P M N A"
_symmetry_group_IT_number 53
_symmetry_cell_setting 'orthorhombic'
loop_
_space_group_symop_operation_xyz
x,y,z
1/2-x,-y,1/2+z
x,-y,-z
1/2-x,y,1/2-z
-x,-y,-z
1/2+x,y,1/2-z
-x,y,z
1/2+x,-y,1/2+z
loop_
_atom_site_type_symbol
_atom_site_label
_atom_site_fract_x
_atom_site_fract_y
_atom_site_fract_z
Si Si1 0.905895 0.016504 0.605088
Si Si2 0.916387 0.594464 0.917427
Si Si3 0.805761 0.738919 0.333006
Si Si4 0.261212 0.658479 0.513211
Si Si5 0.909473 0.496332 0.270042
Si Si6 0.323397 0.236646 0.180236
O O1 0.874533 0.155419 0.645879
O O2 0.000000 0.010543 0.617859
O O3 0.883339 0.000000 0.500000
O O4 0.864509 0.906140 0.667829
O O5 0.845563 0.697187 0.940140
O O6 0.897385 0.490718 0.836686
O O7 0.000000 0.672058 0.897756
O O8 0.929106 0.500000 0.000000
O O9 0.750000 0.780874 0.250000
O O10 0.747663 0.730659 0.418185
O O11 0.848704 0.596224 0.318280
O O12 0.253724 0.500000 0.500000
O O13 0.196404 0.711968 0.581098
O O14 0.888797 0.341123 0.286376
O O15 0.000000 0.525753 0.300909
O O16 0.250000 0.227977 0.250000
#
# Coordination Sequence:
#
# PCOD8221984 Si02
#       6
#     8   8   8   8   8   8
#     4  11  25  44  62  85 120 161 200 244 303 358
#     4   9  18  33  54  87 126 158 188 237 297 352
#     4  12  23  40  63  90 119 158 202 247 294 352
#     4  11  20  35  60  91 123 152 197 244 293 351
#     4  11  22  37  61  93 123 155 196 245 301 352
#     4  12  22  40  62  91 120 156 200 244 296 353
#
# _framework density 19.139764
#
# number of rings (size 3 to 8) (size 9 to 14) (size 15 to 20)
#    0.000    1.000    5.000    4.000    0.000    0.000 
#    0.000    1.667    0.000    0.000    0.000    2.333 
#    0.000    0.000    0.000    0.000    0.000    0.000 
#
# Total GULP energy -594869.824424 kJ/mol
# GULP energy per Si atom -12393.121342 kJ/mol
# Density = 1.909620 g / cm^3
# Si number density = 19.139764 Si / 1000 Ang^3
#
#
#
# Elastic Constant Matrix: (Units=GPa)
#
#
# Indices 1 2 3 4 5 6 
#
# 1 107.3273 28.8159 32.7444 0.0000 0.0000 0.0000
# 2 28.8159 84.2502 24.6651 0.0000 0.0000 0.0000
# 3 32.7444 24.6651 99.8540 0.0000 0.0000 0.0000
# 4 0.0000 0.0000 0.0000 22.1553 0.0000 0.0000
# 5 0.0000 0.0000 0.0000 0.0000 41.6563 0.0000
# 6 0.0000 0.0000 0.0000 0.0000 0.0000 32.9776
#
#
#
# Elastic Compliance Matrix: (Units=1/GPa)
#
#
# Indices 1 2 3 4 5 6 
#
# 1 0.010978 -0.002911 -0.002881 0.000000 0.000000 0.000000
# 2 -0.002911 0.013567 -0.002396 0.000000 0.000000 0.000000
# 3 -0.002881 -0.002396 0.011551 0.000000 0.000000 0.000000
# 4 0.000000 0.000000 0.000000 0.045136 0.000000 0.000000
# 5 0.000000 0.000000 0.000000 0.000000 0.024006 0.000000
# 6 0.000000 0.000000 0.000000 0.000000 0.000000 0.030324
#
#
# Mechanical properties :
#
#
# Convention : Reuss Voigt Hill
#
# Bulk Modulus (GPa) = 50.71318 51.54246 51.12782
# Shear Modulus (GPa) = 31.54351 33.03827 32.29089
#
# Velocity S-wave (km/s) = 4.06404 4.15921 4.11190
# Velocity P-wave (km/s) = 6.96962 7.07484 7.02243
#
# Compressibility (1/GPa) = 0.01971874
#
# Stress axis : x y z
#
# Youngs Moduli (GPa) = 91.09260 73.70962 86.57081
#
# Poissons Ratio (x) = 0.21459 0.24939
# Poissons Ratio (y) = 0.26520 0.20746
# Poissons Ratio (z) = 0.26242 0.17664
#
# Static dielectric constant tensor:
#      x y z
#    x 4.520660 0.000000 0.000000 
#    y 0.000000 2.777250 0.000000 
#    z 0.000000 0.000000 3.850870 
# 
# 
# High freq. dielectric constant tensor:
#      x y z
#    x 1.759810 0.000000 0.000000 
#    y 0.000000 1.711130 0.000000 
#    z 0.000000 0.000000 1.764980 
# 
# From -- ./inp_files/23647.got.cif
#   From: 2010.03.12/outbox.cif.g09.slc.cpg/sg53_12_cif.got.tgz:23647.got - 2010.04.16 14:36:59.
