data_PCOD8221024
_publ_section_title
;
Structure prediction by ZEFSAII (Michael W. Deem and Ramdas Pophale) SiO2 
 PCOD8221024
Probable space group: P M N A
;
_chemical_formula_sum "Si O2"
_cell_formula_units_Z 56
_cell_length_a 16.463298
_cell_length_b 13.851948
_cell_length_c 11.973543
_cell_angle_alpha 90.000000
_cell_angle_beta 90.000000
_cell_angle_gamma 90.000000
_cell_volume 2730.551488
_symmetry_space_group_name_H-M "P M N A"
_symmetry_group_IT_number 53
_symmetry_cell_setting 'orthorhombic'
loop_
_space_group_symop_operation_xyz
x,y,z
1/2-x,-y,1/2+z
x,-y,-z
1/2-x,y,1/2-z
-x,-y,-z
1/2+x,y,1/2-z
-x,y,z
1/2+x,-y,1/2+z
loop_
_atom_site_type_symbol
_atom_site_label
_atom_site_fract_x
_atom_site_fract_y
_atom_site_fract_z
Si Si1 0.645085 0.127681 0.080017
Si Si2 0.908670 0.268368 0.237997
Si Si3 0.658359 0.757711 0.285166
Si Si4 0.407753 0.927596 0.149300
Si Si5 0.299467 0.743095 0.537154
Si Si6 0.331260 0.398629 0.097081
Si Si7 0.407354 0.600643 0.120808
O O1 0.594718 0.182685 0.173575
O O2 0.733739 0.172065 0.055654
O O3 0.651939 0.018581 0.128709
O O4 0.594701 0.134051 0.964898
O O5 0.871868 0.234405 0.121381
O O6 0.855148 0.356827 0.283001
O O7 0.000000 0.302703 0.217561
O O8 0.750000 0.749852 0.250000
O O9 0.622207 0.861968 0.252320
O O10 0.656221 0.744350 0.417672
O O11 0.608733 0.673260 0.222353
O O12 0.500000 0.961374 0.172454
O O13 0.258842 0.637761 0.561470
O O14 0.340809 0.513609 0.114642
O O15 0.392728 0.353164 0.002239
O O16 0.500000 0.562812 0.131095
#
# Coordination Sequence:
#
# PCOD8221024 Si02
#       7
#     8   8   8   8   8   8   8
#     4  10  20  40  64  93 122 156 217 268 317 374
#     4  11  22  39  62  88 125 164 210 259 307 373
#     4  12  23  41  58  88 132 172 206 250 319 387
#     4  11  22  38  66  96 123 160 208 270 326 370
#     4  11  24  42  61  92 127 174 212 251 321 384
#     4  10  20  40  64  93 122 156 217 268 317 374
#     4  11  22  38  66  96 123 160 208 270 326 370
#
# _framework density 20.508676999999999
#
# number of rings (size 3 to 8) (size 9 to 14) (size 15 to 20)
#    0.000    1.143    2.857    6.429    0.000    3.429 
#    0.000    0.000    0.000    3.429    0.000    0.000 
#    0.000    0.000    0.000    0.000    0.000    0.000 
#
# Total GULP energy -694110.793924 kJ/mol
# GULP energy per Si atom -12394.835606 kJ/mol
# Density = 2.046200 g / cm^3
# Si number density = 20.508677 Si / 1000 Ang^3
#
#
#
# Elastic Constant Matrix: (Units=GPa)
#
#
# Indices 1 2 3 4 5 6 
#
# 1 51.9127 13.1879 43.5868 0.0000 0.0000 0.0000
# 2 13.1879 76.0578 26.4521 0.0000 0.0000 0.0000
# 3 43.5868 26.4521 118.8803 0.0000 0.0000 0.0000
# 4 0.0000 0.0000 0.0000 10.0918 0.0000 0.0000
# 5 0.0000 0.0000 0.0000 0.0000 77.0732 0.0000
# 6 0.0000 0.0000 0.0000 0.0000 0.0000 21.2980
#
#
#
# Elastic Compliance Matrix: (Units=1/GPa)
#
#
# Indices 1 2 3 4 5 6 
#
# 1 0.027966 -0.001391 -0.009944 0.000000 0.000000 0.000000
# 2 -0.001391 0.014320 -0.002676 0.000000 0.000000 0.000000
# 3 -0.009944 -0.002676 0.012653 0.000000 0.000000 0.000000
# 4 0.000000 0.000000 0.000000 0.099090 0.000000 0.000000
# 5 0.000000 0.000000 0.000000 0.000000 0.012975 0.000000
# 6 0.000000 0.000000 0.000000 0.000000 0.000000 0.046953
#
#
# Mechanical properties :
#
#
# Convention : Reuss Voigt Hill
#
# Bulk Modulus (GPa) = 37.15188 45.92272 41.53730
# Shear Modulus (GPa) = 19.92424 32.60087 26.26255
#
# Velocity S-wave (km/s) = 3.12028 3.99132 3.58237
# Velocity P-wave (km/s) = 5.57997 6.60918 6.11626
#
# Compressibility (1/GPa) = 0.02691654
#
# Stress axis : x y z
#
# Youngs Moduli (GPa) = 35.75826 69.83306 79.03094
#
# Poissons Ratio (x) = 0.09711 0.78588
# Poissons Ratio (y) = 0.04973 0.21152
# Poissons Ratio (z) = 0.35558 0.18690
#
# Static dielectric constant tensor:
#      x y z
#    x 3.616140 0.000000 0.000000 
#    y 0.000000 3.756900 0.000000 
#    z 0.000000 0.000000 4.242730 
# 
# 
# High freq. dielectric constant tensor:
#      x y z
#    x 1.787130 0.000000 0.000000 
#    y 0.000000 1.799620 0.000000 
#    z 0.000000 0.000000 1.803530 
# 
# From -- ./inp_files/16089.got.cif
#   From: 2010.03.12/outbox.cif.g09.slc.cpg/sg53_9_cif.got.tgz:16089.got - 2010.04.16 14:36:59.
