data_PCOD8221241
_publ_section_title
;
Structure prediction by ZEFSAII (Michael W. Deem and Ramdas Pophale) SiO2 
 PCOD8221241
Probable space group: P M N A
;
_chemical_formula_sum "Si O2"
_cell_formula_units_Z 64
_cell_length_a 8.845684
_cell_length_b 14.922537
_cell_length_c 24.143213
_cell_angle_alpha 90.000000
_cell_angle_beta 90.000000
_cell_angle_gamma 90.000000
_cell_volume 3186.905245
_symmetry_space_group_name_H-M "P M N A"
_symmetry_group_IT_number 53
_symmetry_cell_setting 'orthorhombic'
loop_
_space_group_symop_operation_xyz
x,y,z
1/2-x,-y,1/2+z
x,-y,-z
1/2-x,y,1/2-z
-x,-y,-z
1/2+x,y,1/2-z
-x,y,z
1/2+x,-y,1/2+z
loop_
_atom_site_type_symbol
_atom_site_label
_atom_site_fract_x
_atom_site_fract_y
_atom_site_fract_z
Si Si1 0.679241 0.985458 0.311237
Si Si2 0.177377 0.832546 0.385062
Si Si3 0.329036 0.498709 0.805447
Si Si4 0.322116 0.158340 0.379649
Si Si5 0.671406 0.694523 0.809183
Si Si6 0.826901 0.792838 0.511032
Si Si7 0.327929 0.598759 0.023105
Si Si8 0.825619 0.347449 0.870011
O O1 0.750000 0.978126 0.250000
O O2 0.500000 0.980840 0.304454
O O3 0.733695 0.075952 0.341692
O O4 0.731896 0.907336 0.352131
O O5 0.224569 0.827165 0.450009
O O6 0.222575 0.738436 0.357336
O O7 0.000000 0.849106 0.377921
O O8 0.250000 0.529045 0.750000
O O9 0.500000 0.461366 0.799826
O O10 0.329464 0.594566 0.836494
O O11 0.218145 0.424201 0.827854
O O12 0.500000 0.162144 0.380500
O O13 0.256708 0.248405 0.354690
O O14 0.267109 0.152225 0.443347
O O15 0.750000 0.705359 0.750000
O O16 0.500000 0.728699 0.801724
O O17 0.805861 0.684196 0.517822
O O18 0.000000 0.818601 0.520516
O O19 0.500000 0.602554 0.047078
O O20 0.205143 0.611038 0.070274
O O21 0.296358 0.500000 0.000000
O O22 0.000000 0.321164 0.863536
#
# Coordination Sequence:
#
# PCOD8221241 Si02
#       8
#     8   8   8   8   8   8   8   8
#     4  11  25  44  66  94 123 157 200 251 309 367
#     4  10  22  43  67  90 120 159 202 252 306 366
#     4  10  21  37  56  81 114 154 200 248 299 357
#     4  11  24  39  60  90 126 162 200 250 304 364
#     4  10  21  37  58  82 115 157 201 251 305 361
#     4   9  20  38  60  89 122 162 207 249 302 361
#     4   9  19  36  57  82 117 160 206 250 294 348
#     4  11  22  36  57  86 119 154 194 244 298 355
#
# _framework density 20.082177999999999
#
# number of rings (size 3 to 8) (size 9 to 14) (size 15 to 20)
#    0.000    1.875    0.000    4.125    1.750    8.250 
#    0.000    5.000    0.000    0.000    0.000    0.000 
#    0.000    0.000    0.000    0.000    0.000    0.000 
#
# Total GULP energy -793235.645015 kJ/mol
# GULP energy per Si atom -12394.306953 kJ/mol
# Density = 2.003647 g / cm^3
# Si number density = 20.082178 Si / 1000 Ang^3
#
#
#
# Elastic Constant Matrix: (Units=GPa)
#
#
# Indices 1 2 3 4 5 6 
#
# 1 65.1623 34.3677 38.7132 0.0000 0.0000 0.0000
# 2 34.3677 103.5166 60.5225 0.0000 0.0000 0.0000
# 3 38.7132 60.5225 99.5150 0.0000 0.0000 0.0000
# 4 0.0000 0.0000 0.0000 38.1374 0.0000 0.0000
# 5 0.0000 0.0000 0.0000 0.0000 38.5445 0.0000
# 6 0.0000 0.0000 0.0000 0.0000 0.0000 33.7411
#
#
#
# Elastic Compliance Matrix: (Units=1/GPa)
#
#
# Indices 1 2 3 4 5 6 
#
# 1 0.020684 -0.003356 -0.006006 0.000000 0.000000 0.000000
# 2 -0.003356 0.015535 -0.008143 0.000000 0.000000 0.000000
# 3 -0.006006 -0.008143 0.017337 0.000000 0.000000 0.000000
# 4 0.000000 0.000000 0.000000 0.026221 0.000000 0.000000
# 5 0.000000 0.000000 0.000000 0.000000 0.025944 0.000000
# 6 0.000000 0.000000 0.000000 0.000000 0.000000 0.029637
#
#
# Mechanical properties :
#
#
# Convention : Reuss Voigt Hill
#
# Bulk Modulus (GPa) = 53.91317 59.48896 56.70106
# Shear Modulus (GPa) = 28.32065 31.05731 29.68898
#
# Velocity S-wave (km/s) = 3.75939 3.93684 3.84914
# Velocity P-wave (km/s) = 6.76377 7.09591 6.93183
#
# Compressibility (1/GPa) = 0.01854834
#
# Stress axis : x y z
#
# Youngs Moduli (GPa) = 48.34614 64.37026 57.67990
#
# Poissons Ratio (x) = 0.21602 0.34640
# Poissons Ratio (y) = 0.16225 0.46966
# Poissons Ratio (z) = 0.29034 0.52414
#
# Static dielectric constant tensor:
#      x y z
#    x 3.631610 0.000000 0.000000 
#    y 0.000000 3.873250 0.000000 
#    z 0.000000 0.000000 3.522790 
# 
# 
# High freq. dielectric constant tensor:
#      x y z
#    x 1.789600 0.000000 0.000000 
#    y 0.000000 1.791330 0.000000 
#    z 0.000000 0.000000 1.776410 
# 
# From -- ./inp_files/34204.got.cif
#   From: 2010.03.12/outbox.cif.g09.slc.cpg/sg53_18_cif.got.tgz:34204.got - 2010.04.16 14:36:59.
