data_PCOD8221447
_publ_section_title
;
Structure prediction by ZEFSAII (Michael W. Deem and Ramdas Pophale) SiO2 
 PCOD8221447
Probable space group: P M N A
;
_chemical_formula_sum "Si O2"
_cell_formula_units_Z 40
_cell_length_a 28.721354
_cell_length_b 7.875951
_cell_length_c 8.436516
_cell_angle_alpha 90.000000
_cell_angle_beta 90.000000
_cell_angle_gamma 90.000000
_cell_volume 1908.407215
_symmetry_space_group_name_H-M "P M N A"
_symmetry_group_IT_number 53
_symmetry_cell_setting 'orthorhombic'
loop_
_space_group_symop_operation_xyz
x,y,z
1/2-x,-y,1/2+z
x,-y,-z
1/2-x,y,1/2-z
-x,-y,-z
1/2+x,y,1/2-z
-x,y,z
1/2+x,-y,1/2+z
loop_
_atom_site_type_symbol
_atom_site_label
_atom_site_fract_x
_atom_site_fract_y
_atom_site_fract_z
Si Si1 0.644761 0.698161 0.196188
Si Si2 0.703908 0.420895 0.329548
Si Si3 0.874237 0.805783 0.960439
Si Si4 0.572006 0.500000 0.000000
Si Si5 0.377805 0.000000 0.000000
Si Si6 0.948505 0.793508 0.712504
O O1 0.687994 0.568320 0.204607
O O2 0.626339 0.709470 0.374440
O O3 0.656077 0.874530 0.102582
O O4 0.602068 0.627744 0.100307
O O5 0.715386 0.500000 0.500000
O O6 0.750000 0.340589 0.250000
O O7 0.665159 0.272554 0.342750
O O8 0.925138 0.770901 0.885558
O O9 0.862843 0.000000 0.000000
O O10 0.542656 0.615687 0.878930
O O11 0.412096 0.914608 0.874325
O O12 0.000000 0.877026 0.731625
#
# Coordination Sequence:
#
# PCOD8221447 Si02
#       6
#     8   8   8   4   4   8
#     4  10  21  40  65  90 123 171 204 261 318 384
#     4  10  23  41  69  93 122 164 210 259 323 396
#     4  11  22  43  63  92 132 164 209 265 321 372
#     4  10  21  38  64  88 126 164 216 260 315 370
#     4  10  21  38  62  92 128 172 212 262 321 366
#     4  11  22  38  62  93 129 173 217 261 315 378
#
# _framework density 20.959889
#
# number of rings (size 3 to 8) (size 9 to 14) (size 15 to 20)
#    0.000    1.600    4.000    0.600    1.400    0.400 
#    0.000    7.000    4.400    0.000    0.000    0.000 
#    0.000    0.000    0.000    0.000    0.000    0.000 
#
# Total GULP energy -495683.468323 kJ/mol
# GULP energy per Si atom -12392.086708 kJ/mol
# Density = 2.091218 g / cm^3
# Si number density = 20.959889 Si / 1000 Ang^3
#
#
#
# Elastic Constant Matrix: (Units=GPa)
#
#
# Indices 1 2 3 4 5 6 
#
# 1 102.3513 39.5696 44.1663 0.0000 0.0000 0.0000
# 2 39.5696 105.9677 30.3503 0.0000 0.0000 0.0000
# 3 44.1663 30.3503 84.9617 0.0000 0.0000 0.0000
# 4 0.0000 0.0000 0.0000 35.3610 0.0000 0.0000
# 5 0.0000 0.0000 0.0000 0.0000 12.5012 0.0000
# 6 0.0000 0.0000 0.0000 0.0000 0.0000 7.4954
#
#
#
# Elastic Compliance Matrix: (Units=1/GPa)
#
#
# Indices 1 2 3 4 5 6 
#
# 1 0.013616 -0.003406 -0.005862 0.000000 0.000000 0.000000
# 2 -0.003406 0.011364 -0.002289 0.000000 0.000000 0.000000
# 3 -0.005862 -0.002289 0.015635 0.000000 0.000000 0.000000
# 4 0.000000 0.000000 0.000000 0.028280 0.000000 0.000000
# 5 0.000000 0.000000 0.000000 0.000000 0.079992 0.000000
# 6 0.000000 0.000000 0.000000 0.000000 0.000000 0.133416
#
#
# Mechanical properties :
#
#
# Convention : Reuss Voigt Hill
#
# Bulk Modulus (GPa) = 57.13511 57.93921 57.53716
# Shear Modulus (GPa) = 16.06424 23.01781 19.54103
#
# Velocity S-wave (km/s) = 2.77145 3.31748 3.05668
# Velocity P-wave (km/s) = 6.12859 6.50977 6.32206
#
# Compressibility (1/GPa) = 0.01750237
#
# Stress axis : x y z
#
# Youngs Moduli (GPa) = 73.44117 87.99575 63.95949
#
# Poissons Ratio (x) = 0.29968 0.37491
# Poissons Ratio (y) = 0.25011 0.14641
# Poissons Ratio (z) = 0.43049 0.20144
#
# Static dielectric constant tensor:
#      x y z
#    x 3.457380 0.000000 0.000000 
#    y 0.000000 4.082660 0.000000 
#    z 0.000000 0.000000 4.313330 
# 
# 
# High freq. dielectric constant tensor:
#      x y z
#    x 1.793750 0.000000 0.000000 
#    y 0.000000 1.821590 0.000000 
#    z 0.000000 0.000000 1.839480 
# 
# From -- ./inp_files/12358.got.cif
#   From: 2010.03.12/outbox.cif.g09.slc.cpg/sg53_7_cif.got.tgz:12358.got - 2010.04.16 14:36:59.
