data_PCOD8221303
_publ_section_title
;
Structure prediction by ZEFSAII (Michael W. Deem and Ramdas Pophale) SiO2 
 PCOD8221303
Probable space group: P M N A
;
_chemical_formula_sum "Si O2"
_cell_formula_units_Z 64
_cell_length_a 8.577280
_cell_length_b 23.849440
_cell_length_c 15.447835
_cell_angle_alpha 90.000000
_cell_angle_beta 90.000000
_cell_angle_gamma 90.000000
_cell_volume 3160.060487
_symmetry_space_group_name_H-M "P M N A"
_symmetry_group_IT_number 53
_symmetry_cell_setting 'orthorhombic'
loop_
_space_group_symop_operation_xyz
x,y,z
1/2-x,-y,1/2+z
x,-y,-z
1/2-x,y,1/2-z
-x,-y,-z
1/2+x,y,1/2-z
-x,y,z
1/2+x,-y,1/2+z
loop_
_atom_site_type_symbol
_atom_site_label
_atom_site_fract_x
_atom_site_fract_y
_atom_site_fract_z
Si Si1 0.316567 0.637133 0.158478
Si Si2 0.683004 0.132968 0.838451
Si Si3 0.314031 0.563193 0.000364
Si Si4 0.683634 0.636058 0.841620
Si Si5 0.680970 0.935158 0.492949
Si Si6 0.183169 0.244338 0.411217
Si Si7 0.316573 0.134653 0.338400
Si Si8 0.318003 0.753050 0.401148
O O1 0.250000 0.617061 0.250000
O O2 0.500000 0.632493 0.162163
O O3 0.272926 0.700749 0.138013
O O4 0.249432 0.595913 0.084434
O O5 0.750000 0.105760 0.750000
O O6 0.500000 0.143017 0.831962
O O7 0.716683 0.091413 0.917399
O O8 0.769171 0.192021 0.849314
O O9 0.500000 0.563797 0.000987
O O10 0.250138 0.594483 0.915059
O O11 0.248667 0.500000 0.000000
O O12 0.750000 0.616635 0.750000
O O13 0.500000 0.631957 0.837531
O O14 0.736902 0.699044 0.863723
O O15 0.500000 0.925624 0.470509
O O16 0.725628 0.906914 0.583770
O O17 0.723880 0.000000 0.500000
O O18 0.226773 0.193252 0.349345
O O19 0.278923 0.237455 0.498933
O O20 0.000000 0.245145 0.432999
O O21 0.250000 0.107411 0.250000
O O22 0.500000 0.145391 0.331945
O O23 0.500000 0.742302 0.389278
#
# Coordination Sequence:
#
# PCOD8221303 Si02
#       8
#     8   8   8   8   8   8   8   8
#     4  11  22  39  61  89 122 158 202 249 302 363
#     4  12  25  42  66  94 127 164 206 255 308 369
#     4   9  19  38  61  83 115 160 203 245 299 359
#     4  10  21  37  58  87 118 155 196 240 295 353
#     4  10  23  44  66  91 126 166 209 259 307 358
#     4  11  21  37  61  90 123 158 198 247 305 369
#     4  11  23  39  62  91 125 164 204 250 304 363
#     4  12  23  38  62  92 125 160 199 247 309 371
#
# _framework density 20.252776999999998
#
# number of rings (size 3 to 8) (size 9 to 14) (size 15 to 20)
#    0.000    1.250    2.500    4.125    0.000    3.750 
#    0.000    1.250    0.000    2.625    0.000    0.000 
#    0.000    0.000    0.000    0.000    0.000    0.000 
#
# Total GULP energy -793956.102401 kJ/mol
# GULP energy per Si atom -12405.564100 kJ/mol
# Density = 2.020668 g / cm^3
# Si number density = 20.252777 Si / 1000 Ang^3
#
#
#
# Elastic Constant Matrix: (Units=GPa)
#
#
# Indices 1 2 3 4 5 6 
#
# 1 56.8445 20.1002 32.7328 0.0000 0.0000 0.0000
# 2 20.1002 135.2031 62.4913 0.0000 0.0000 0.0000
# 3 32.7328 62.4913 170.9543 0.0000 0.0000 0.0000
# 4 0.0000 0.0000 0.0000 7.5149 0.0000 0.0000
# 5 0.0000 0.0000 0.0000 0.0000 37.4435 0.0000
# 6 0.0000 0.0000 0.0000 0.0000 0.0000 10.6967
#
#
#
# Elastic Compliance Matrix: (Units=1/GPa)
#
#
# Indices 1 2 3 4 5 6 
#
# 1 0.020005 -0.001448 -0.003301 0.000000 0.000000 0.000000
# 2 -0.001448 0.009005 -0.003014 0.000000 0.000000 0.000000
# 3 -0.003301 -0.003014 0.007583 0.000000 0.000000 0.000000
# 4 0.000000 0.000000 0.000000 0.133068 0.000000 0.000000
# 5 0.000000 0.000000 0.000000 0.000000 0.026707 0.000000
# 6 0.000000 0.000000 0.000000 0.000000 0.000000 0.093487
#
#
# Mechanical properties :
#
#
# Convention : Reuss Voigt Hill
#
# Bulk Modulus (GPa) = 47.47030 65.96119 56.71575
# Shear Modulus (GPa) = 16.00492 27.64287 21.82390
#
# Velocity S-wave (km/s) = 2.81420 3.69845 3.28621
# Velocity P-wave (km/s) = 5.83519 7.13286 6.51641
#
# Compressibility (1/GPa) = 0.02106580
#
# Stress axis : x y z
#
# Youngs Moduli (GPa) = 49.98815 111.05138 131.86672
#
# Poissons Ratio (x) = 0.16084 0.43528
# Poissons Ratio (y) = 0.07240 0.39749
# Poissons Ratio (z) = 0.16501 0.33475
#
# Static dielectric constant tensor:
#      x y z
#    x 3.517860 0.000000 0.000000 
#    y 0.000000 3.733630 0.000000 
#    z 0.000000 0.000000 4.001710 
# 
# 
# High freq. dielectric constant tensor:
#      x y z
#    x 1.781810 0.000000 0.000000 
#    y 0.000000 1.787080 0.000000 
#    z 0.000000 0.000000 1.810100 
# 
# From -- ./inp_files/20893.got.cif
#   From: 2010.03.12/outbox.cif.g09.slc.cpg/sg53_11_cif.got.tgz:20893.got - 2010.04.16 14:36:59.
