data_PCOD8221633
_publ_section_title
;
Structure prediction by ZEFSAII (Michael W. Deem and Ramdas Pophale) SiO2 
 PCOD8221633
Probable space group: P M N A
;
_chemical_formula_sum "Si O2"
_cell_formula_units_Z 48
_cell_length_a 31.032738
_cell_length_b 7.566382
_cell_length_c 9.580793
_cell_angle_alpha 90.000000
_cell_angle_beta 90.000000
_cell_angle_gamma 90.000000
_cell_volume 2249.623372
_symmetry_space_group_name_H-M "P M N A"
_symmetry_group_IT_number 53
_symmetry_cell_setting 'orthorhombic'
loop_
_space_group_symop_operation_xyz
x,y,z
1/2-x,-y,1/2+z
x,-y,-z
1/2-x,y,1/2-z
-x,-y,-z
1/2+x,y,1/2-z
-x,y,z
1/2+x,-y,1/2+z
loop_
_atom_site_type_symbol
_atom_site_label
_atom_site_fract_x
_atom_site_fract_y
_atom_site_fract_z
Si Si1 0.500000 0.680869 0.581623
Si Si2 0.000000 0.321685 0.410833
Si Si3 0.588309 0.289959 0.985013
Si Si4 0.860481 0.798051 0.238927
Si Si5 0.850169 0.188802 0.286047
Si Si6 0.906708 0.705568 0.967906
Si Si7 0.207161 0.497193 0.666752
O O1 0.500000 0.500000 0.500000
O O2 0.500000 0.638679 0.746833
O O3 0.544154 0.783646 0.538564
O O4 0.000000 0.500000 0.500000
O O5 0.042970 0.215263 0.456136
O O6 0.595032 0.227898 0.825626
O O7 0.591131 0.500000 0.000000
O O8 0.628536 0.201515 0.062346
O O9 0.828250 0.644331 0.285328
O O10 0.837101 0.986283 0.259301
O O11 0.875850 0.798891 0.079335
O O12 0.885801 0.264050 0.181454
O O13 0.807399 0.308498 0.282159
O O14 0.908850 0.500000 0.000000
O O15 0.214673 0.500000 0.500000
O O16 0.250000 0.446800 0.750000
#
# Coordination Sequence:
#
# PCOD8221633 Si02
#       7
#     4   4   8   8   8   8   8
#     4  10  22  36  61  97 138 185 229 282 328 376
#     4  10  22  34  63  99 134 179 239 280 324 386
#     4  11  20  41  67  96 135 181 227 276 329 385
#     4  12  25  43  71 102 132 180 224 272 336 401
#     4  12  23  45  71  99 136 177 221 275 332 400
#     4  11  22  41  68  97 141 184 230 274 328 394
#     4  12  28  49  74 102 134 171 213 277 341 407
#
# _framework density 21.336904000000001
#
# number of rings (size 3 to 8) (size 9 to 14) (size 15 to 20)
#    0.000    0.667    6.667    1.000    9.333    0.667 
#    0.000    5.000    0.000    0.000    0.000    0.000 
#    0.000    0.000    0.000    0.000    0.000    0.000 
#
# Total GULP energy -595088.017073 kJ/mol
# GULP energy per Si atom -12397.667022 kJ/mol
# Density = 2.128834 g / cm^3
# Si number density = 21.336904 Si / 1000 Ang^3
#
#
#
# Elastic Constant Matrix: (Units=GPa)
#
#
# Indices 1 2 3 4 5 6 
#
# 1 112.2160 24.0054 52.5668 0.0000 0.0000 0.0000
# 2 24.0054 105.9406 24.2124 0.0000 0.0000 0.0000
# 3 52.5668 24.2124 96.8334 0.0000 0.0000 0.0000
# 4 0.0000 0.0000 0.0000 28.1271 0.0000 0.0000
# 5 0.0000 0.0000 0.0000 0.0000 31.8067 0.0000
# 6 0.0000 0.0000 0.0000 0.0000 0.0000 3.4030
#
#
#
# Elastic Compliance Matrix: (Units=1/GPa)
#
#
# Indices 1 2 3 4 5 6 
#
# 1 0.012121 -0.001318 -0.006251 0.000000 0.000000 0.000000
# 2 -0.001318 0.010155 -0.001824 0.000000 0.000000 0.000000
# 3 -0.006251 -0.001824 0.014176 0.000000 0.000000 0.000000
# 4 0.000000 0.000000 0.000000 0.035553 0.000000 0.000000
# 5 0.000000 0.000000 0.000000 0.000000 0.031440 0.000000
# 6 0.000000 0.000000 0.000000 0.000000 0.000000 0.293858
#
#
# Mechanical properties :
#
#
# Convention : Reuss Voigt Hill
#
# Bulk Modulus (GPa) = 56.60032 57.39547 56.99790
# Shear Modulus (GPa) = 11.84899 26.94773 19.39836
#
# Velocity S-wave (km/s) = 2.35910 3.55768 3.01848
# Velocity P-wave (km/s) = 5.83138 6.62073 6.23855
#
# Compressibility (1/GPa) = 0.01766774
#
# Stress axis : x y z
#
# Youngs Moduli (GPa) = 82.49856 98.47668 70.54081
#
# Poissons Ratio (x) = 0.12980 0.44093
# Poissons Ratio (y) = 0.10874 0.12864
# Poissons Ratio (z) = 0.51567 0.17958
#
# Static dielectric constant tensor:
#      x y z
#    x 4.140900 0.000000 0.000000 
#    y 0.000000 3.738980 0.000000 
#    z 0.000000 0.000000 4.256510 
# 
# 
# High freq. dielectric constant tensor:
#      x y z
#    x 1.828990 0.000000 0.000000 
#    y 0.000000 1.822520 0.000000 
#    z 0.000000 0.000000 1.854810 
# 
# From -- ./inp_files/13109.got.cif
#   From: 2010.03.12/outbox.cif.g09.slc.cpg/sg53_7_cif.got.tgz:13109.got - 2010.04.16 14:36:59.
