data_PCOD8221333
_publ_section_title
;
Structure prediction by ZEFSAII (Michael W. Deem and Ramdas Pophale) SiO2 
 PCOD8221333
Probable space group: P M N A
;
_chemical_formula_sum "Si O2"
_cell_formula_units_Z 32
_cell_length_a 18.397649
_cell_length_b 14.099037
_cell_length_c 5.229645
_cell_angle_alpha 90.000000
_cell_angle_beta 90.000000
_cell_angle_gamma 90.000000
_cell_volume 1356.513087
_symmetry_space_group_name_H-M "P M N A"
_symmetry_group_IT_number 53
_symmetry_cell_setting 'orthorhombic'
loop_
_space_group_symop_operation_xyz
x,y,z
1/2-x,-y,1/2+z
x,-y,-z
1/2-x,y,1/2-z
-x,-y,-z
1/2+x,y,1/2-z
-x,y,z
1/2+x,-y,1/2+z
loop_
_atom_site_type_symbol
_atom_site_label
_atom_site_fract_x
_atom_site_fract_y
_atom_site_fract_z
Si Si1 0.716420 0.894070 0.003201
Si Si2 0.083394 0.087904 0.821663
Si Si3 0.086795 0.392205 0.513212
Si Si4 0.415249 0.291180 0.486484
O O1 0.750000 0.840118 0.250000
O O2 0.628965 0.901624 0.054942
O O3 0.750000 0.842596 0.750000
O O4 0.749912 0.000000 0.000000
O O5 0.097887 0.178749 0.000571
O O6 0.000000 0.079843 0.732706
O O7 0.107993 0.000000 0.000000
O O8 0.114400 0.500000 0.500000
O O9 0.119262 0.343643 0.767440
O O10 0.000000 0.387462 0.512227
O O11 0.119254 0.332966 0.273520
O O12 0.500000 0.315202 0.485790
#
# Coordination Sequence:
#
# PCOD8221333 Si02
#       4
#     8   8   8   8
#     4  10  21  38  57  77 107 154 207 252 295 345
#     4  10  21  37  59  89 126 166 205 249 306 369
#     4   9  16  28  46  68 101 148 195 238 290 348
#     4   9  18  30  46  74 110 148 193 240 288 349
#
# _framework density 23.589896
#
# number of rings (size 3 to 8) (size 9 to 14) (size 15 to 20)
#    0.000    2.500    0.000    3.000    0.000    7.500 
#    0.000    8.750    0.000    0.750    0.000    0.000 
#    0.000    6.000    0.000   12.750    0.000   10.500 
#
# Total GULP energy -396495.453446 kJ/mol
# GULP energy per Si atom -12390.482920 kJ/mol
# Density = 2.353620 g / cm^3
# Si number density = 23.589896 Si / 1000 Ang^3
#
#
#
# Elastic Constant Matrix: (Units=GPa)
#
#
# Indices 1 2 3 4 5 6 
#
# 1 106.3867 2.6553 42.7938 0.0000 0.0000 0.0000
# 2 2.6553 142.1334 63.8340 0.0000 0.0000 0.0000
# 3 42.7938 63.8340 215.5191 0.0000 0.0000 0.0000
# 4 0.0000 0.0000 0.0000 26.7939 0.0000 0.0000
# 5 0.0000 0.0000 0.0000 0.0000 30.0425 0.0000
# 6 0.0000 0.0000 0.0000 0.0000 0.0000 -2.7630
#
#
#
# Elastic Compliance Matrix: (Units=1/GPa)
#
#
# Indices 1 2 3 4 5 6 
#
# 1 0.010301 0.000838 -0.002294 0.000000 0.000000 0.000000
# 2 0.000838 0.008183 -0.002590 0.000000 0.000000 0.000000
# 3 -0.002294 -0.002590 0.005863 0.000000 0.000000 0.000000
# 4 0.000000 0.000000 0.000000 0.037322 0.000000 0.000000
# 5 0.000000 0.000000 0.000000 0.000000 0.033286 0.000000
# 6 0.000000 0.000000 0.000000 0.000000 0.000000 -0.361921
#
#
# Mechanical properties :
#
#
# Convention : Reuss Voigt Hill
#
# Bulk Modulus (GPa) = 61.51929 75.84504 68.68216
# Shear Modulus (GPa) = -19.72734 34.46507 7.36886
#
# Velocity S-wave (km/s) = -2.89496 3.82646 1.76933
# Velocity P-wave (km/s) = 3.86793 7.19331 5.77515
#
# Compressibility (1/GPa) = 0.01625506
#
# Stress axis : x y z
#
# Youngs Moduli (GPa) = 97.07477 122.20102 170.57511
#
# Poissons Ratio (x) = -0.10236 0.39122
# Poissons Ratio (y) = -0.08131 0.44180
# Poissons Ratio (z) = 0.22264 0.31651
#
# Static dielectric constant tensor:
#      x y z
#    x 3.782750 0.000000 0.000000 
#    y 0.000000 4.095220 0.000000 
#    z 0.000000 0.000000 4.609880 
# 
# 
# High freq. dielectric constant tensor:
#      x y z
#    x 1.883060 0.000000 0.000000 
#    y 0.000000 1.907980 0.000000 
#    z 0.000000 0.000000 1.951400 
# 
# From -- ./inp_files/2623.got.cif
#   From: 2010.03.12/outbox.cif.g09.slc.cpg/sg53_2_cif.got.tgz:2623.got - 2010.04.16 14:36:59.
