data_PCOD8221424
_publ_section_title
;
Structure prediction by ZEFSAII (Michael W. Deem and Ramdas Pophale) SiO2 
 PCOD8221424
Probable space group: P M N A
;
_chemical_formula_sum "Si O2"
_cell_formula_units_Z 64
_cell_length_a 14.635000
_cell_length_b 24.008043
_cell_length_c 9.118091
_cell_angle_alpha 90.000000
_cell_angle_beta 90.000000
_cell_angle_gamma 90.000000
_cell_volume 3203.711567
_symmetry_space_group_name_H-M "P M N A"
_symmetry_group_IT_number 53
_symmetry_cell_setting 'orthorhombic'
loop_
_space_group_symop_operation_xyz
x,y,z
1/2-x,-y,1/2+z
x,-y,-z
1/2-x,y,1/2-z
-x,-y,-z
1/2+x,y,1/2-z
-x,y,z
1/2+x,-y,1/2+z
loop_
_atom_site_type_symbol
_atom_site_label
_atom_site_fract_x
_atom_site_fract_y
_atom_site_fract_z
Si Si1 0.393769 0.556664 0.580010
Si Si2 0.252892 0.747521 0.514255
Si Si3 0.252543 0.130295 0.584480
Si Si4 0.605747 0.231169 0.243310
Si Si5 0.105844 0.057928 0.063275
Si Si6 0.602228 0.107180 0.138910
Si Si7 0.393766 0.442724 0.078156
Si Si8 0.748929 0.627191 0.416519
O O1 0.364241 0.500000 0.500000
O O2 0.500000 0.569105 0.557593
O O3 0.367761 0.552800 0.750945
O O4 0.339985 0.606459 0.503338
O O5 0.243223 0.803051 0.417751
O O6 0.347200 0.751246 0.605046
O O7 0.162713 0.739608 0.614160
O O8 0.255956 0.694006 0.410429
O O9 0.250000 0.109063 0.750000
O O10 0.346598 0.110383 0.513348
O O11 0.170128 0.100739 0.496605
O O12 0.500000 0.250912 0.240669
O O13 0.615510 0.165115 0.224475
O O14 0.122082 0.059755 0.239204
O O15 0.000000 0.064499 0.024614
O O16 0.145142 0.000000 0.000000
O O17 0.500000 0.102058 0.075315
O O18 0.500000 0.429671 0.055676
O O19 0.365364 0.500000 0.000000
O O20 0.338991 0.392951 0.001998
O O21 0.750000 0.604805 0.250000
#
# Coordination Sequence:
#
# PCOD8221424 Si02
#       8
#     8   8   8   8   8   8   8   8
#     4  10  22  41  64  88 115 149 195 246 295 353
#     4  10  22  37  56  87 120 154 201 244 291 360
#     4  11  22  37  59  87 123 162 200 245 297 355
#     4   9  18  35  61  85 111 151 195 246 296 345
#     4  10  21  38  61  88 117 154 203 253 301 355
#     4   9  18  37  62  86 114 154 200 244 295 351
#     4  10  22  41  65  89 116 154 199 246 298 355
#     4  12  25  39  57  85 124 161 193 241 299 354
#
# _framework density 19.976831000000001
#
# number of rings (size 3 to 8) (size 9 to 14) (size 15 to 20)
#    0.000    1.875    1.250    2.250    3.500    4.000 
#    0.000    0.000    0.000    7.125    0.000    0.000 
#    0.000    0.000    0.000    0.000    0.000    0.000 
#
# Total GULP energy -793710.688791 kJ/mol
# GULP energy per Si atom -12401.729512 kJ/mol
# Density = 1.993136 g / cm^3
# Si number density = 19.976831 Si / 1000 Ang^3
#
#
#
# Elastic Constant Matrix: (Units=GPa)
#
#
# Indices 1 2 3 4 5 6 
#
# 1 116.8206 36.1619 58.7622 0.0000 0.0000 0.0000
# 2 36.1619 83.7870 41.5040 0.0000 0.0000 0.0000
# 3 58.7622 41.5040 143.7727 0.0000 0.0000 0.0000
# 4 0.0000 0.0000 0.0000 30.4480 0.0000 0.0000
# 5 0.0000 0.0000 0.0000 0.0000 22.0532 0.0000
# 6 0.0000 0.0000 0.0000 0.0000 0.0000 19.1025
#
#
#
# Elastic Compliance Matrix: (Units=1/GPa)
#
#
# Indices 1 2 3 4 5 6 
#
# 1 0.011406 -0.003050 -0.003782 0.000000 0.000000 0.000000
# 2 -0.003050 0.014742 -0.003009 0.000000 0.000000 0.000000
# 3 -0.003782 -0.003009 0.009370 0.000000 0.000000 0.000000
# 4 0.000000 0.000000 0.000000 0.032843 0.000000 0.000000
# 5 0.000000 0.000000 0.000000 0.000000 0.045345 0.000000
# 6 0.000000 0.000000 0.000000 0.000000 0.000000 0.052349
#
#
# Mechanical properties :
#
#
# Convention : Reuss Voigt Hill
#
# Bulk Modulus (GPa) = 63.14333 68.58184 65.86259
# Shear Modulus (GPa) = 26.17598 28.18421 27.18010
#
# Velocity S-wave (km/s) = 3.62376 3.76020 3.69261
# Velocity P-wave (km/s) = 7.01325 7.29776 7.15692
#
# Compressibility (1/GPa) = 0.01583699
#
# Stress axis : x y z
#
# Youngs Moduli (GPa) = 87.67050 67.83401 106.72700
#
# Poissons Ratio (x) = 0.20687 0.40360
# Poissons Ratio (y) = 0.26737 0.32116
# Poissons Ratio (z) = 0.33153 0.20413
#
# Static dielectric constant tensor:
#      x y z
#    x 3.712790 0.000000 0.000000 
#    y 0.000000 3.510790 0.000000 
#    z 0.000000 0.000000 3.559000 
# 
# 
# High freq. dielectric constant tensor:
#      x y z
#    x 1.787020 0.000000 0.000000 
#    y 0.000000 1.769860 0.000000 
#    z 0.000000 0.000000 1.776690 
# 
# From -- ./inp_files/8941.got.cif
#   From: 2010.03.12/outbox.cif.g09.slc.cpg/sg53_5_cif.got.tgz:8941.got - 2010.04.16 14:36:59.
