data_PCOD8221931
_publ_section_title
;
Structure prediction by ZEFSAII (Michael W. Deem and Ramdas Pophale) SiO2 
 PCOD8221931
Probable space group: P M N A
;
_chemical_formula_sum "Si O2"
_cell_formula_units_Z 48
_cell_length_a 17.225379
_cell_length_b 8.770631
_cell_length_c 15.178616
_cell_angle_alpha 90.000000
_cell_angle_beta 90.000000
_cell_angle_gamma 90.000000
_cell_volume 2293.146494
_symmetry_space_group_name_H-M "P M N A"
_symmetry_group_IT_number 53
_symmetry_cell_setting 'orthorhombic'
loop_
_space_group_symop_operation_xyz
x,y,z
1/2-x,-y,1/2+z
x,-y,-z
1/2-x,y,1/2-z
-x,-y,-z
1/2+x,y,1/2-z
-x,y,z
1/2+x,-y,1/2+z
loop_
_atom_site_type_symbol
_atom_site_label
_atom_site_fract_x
_atom_site_fract_y
_atom_site_fract_z
Si Si1 0.409374 0.569135 0.729998
Si Si2 0.726131 0.819697 0.983026
Si Si3 0.087888 0.623802 0.573597
Si Si4 0.340081 0.380945 0.578291
Si Si5 0.680385 0.855193 0.683379
Si Si6 0.913195 0.078741 0.911557
O O1 0.500000 0.541580 0.704401
O O2 0.394127 0.539602 0.833571
O O3 0.349633 0.465731 0.672657
O O4 0.387712 0.745776 0.717063
O O5 0.642168 0.766431 0.949567
O O6 0.786794 0.782136 0.905942
O O7 0.759511 0.718000 0.065789
O O8 0.719880 0.000000 0.000000
O O9 0.102975 0.500000 0.500000
O O10 0.000000 0.686296 0.573359
O O11 0.351239 0.500000 0.500000
O O12 0.410288 0.259924 0.576747
O O13 0.750000 0.880259 0.750000
O O14 0.641317 0.020544 0.667808
O O15 0.000000 0.025033 0.892594
O O16 0.880629 0.000000 0.000000
#
# Coordination Sequence:
#
# PCOD8221931 Si02
#       6
#     8   8   8   8   8   8
#     4  11  24  41  66 100 135 176 224 271 336 403
#     4  12  23  44  66  96 135 173 224 270 331 402
#     4  10  24  48  72  94 130 179 228 284 332 385
#     4  12  22  39  66 100 139 172 214 268 334 406
#     4  12  22  41  64  94 132 177 222 268 329 396
#     4  11  22  40  63  91 134 178 218 269 336 401
#
# _framework density 20.931936
#
# number of rings (size 3 to 8) (size 9 to 14) (size 15 to 20)
#    0.000    0.667    6.667    1.500    0.000    3.000 
#    3.000    0.833    0.000    0.000    0.000    0.000 
#    0.000    0.000    0.000    0.000    0.000    0.000 
#
# Total GULP energy -594918.319816 kJ/mol
# GULP energy per Si atom -12394.131663 kJ/mol
# Density = 2.088429 g / cm^3
# Si number density = 20.931936 Si / 1000 Ang^3
#
#
#
# Elastic Constant Matrix: (Units=GPa)
#
#
# Indices 1 2 3 4 5 6 
#
# 1 105.6766 51.2347 58.7725 0.0000 0.0000 0.0000
# 2 51.2347 131.4360 67.4394 0.0000 0.0000 0.0000
# 3 58.7725 67.4394 121.0613 0.0000 0.0000 0.0000
# 4 0.0000 0.0000 0.0000 25.4762 0.0000 0.0000
# 5 0.0000 0.0000 0.0000 0.0000 31.8752 0.0000
# 6 0.0000 0.0000 0.0000 0.0000 0.0000 29.8029
#
#
#
# Elastic Compliance Matrix: (Units=1/GPa)
#
#
# Indices 1 2 3 4 5 6 
#
# 1 0.013605 -0.002681 -0.005112 0.000000 0.000000 0.000000
# 2 -0.002681 0.011181 -0.004927 0.000000 0.000000 0.000000
# 3 -0.005112 -0.004927 0.013487 0.000000 0.000000 0.000000
# 4 0.000000 0.000000 0.000000 0.039252 0.000000 0.000000
# 5 0.000000 0.000000 0.000000 0.000000 0.031372 0.000000
# 6 0.000000 0.000000 0.000000 0.000000 0.000000 0.033554
#
#
# Mechanical properties :
#
#
# Convention : Reuss Voigt Hill
#
# Bulk Modulus (GPa) = 77.91835 79.22967 78.57401
# Shear Modulus (GPa) = 29.04107 29.47935 29.26021
#
# Velocity S-wave (km/s) = 3.72883 3.75686 3.74287
# Velocity P-wave (km/s) = 7.47291 7.53339 7.50321
#
# Compressibility (1/GPa) = 0.01283395
#
# Stress axis : x y z
#
# Youngs Moduli (GPa) = 73.50001 89.43383 74.14618
#
# Poissons Ratio (x) = 0.23974 0.37902
# Poissons Ratio (y) = 0.19703 0.36535
# Poissons Ratio (z) = 0.37572 0.44068
#
# Static dielectric constant tensor:
#      x y z
#    x 3.828240 0.000000 0.000000 
#    y 0.000000 3.721540 0.000000 
#    z 0.000000 0.000000 4.010560 
# 
# 
# High freq. dielectric constant tensor:
#      x y z
#    x 1.825270 0.000000 0.000000 
#    y 0.000000 1.816440 0.000000 
#    z 0.000000 0.000000 1.813850 
# 
# From -- ./inp_files/23628.got.cif
#   From: 2010.03.12/outbox.cif.g09.slc.cpg/sg53_12_cif.got.tgz:23628.got - 2010.04.16 14:36:59.
