data_PCOD8221134
_publ_section_title
;
Structure prediction by ZEFSAII (Michael W. Deem and Ramdas Pophale) SiO2 
 PCOD8221134
Probable space group: P M N A
;
_chemical_formula_sum "Si O2"
_cell_formula_units_Z 64
_cell_length_a 8.743564
_cell_length_b 15.154427
_cell_length_c 24.676257
_cell_angle_alpha 90.000000
_cell_angle_beta 90.000000
_cell_angle_gamma 90.000000
_cell_volume 3269.695413
_symmetry_space_group_name_H-M "P M N A"
_symmetry_group_IT_number 53
_symmetry_cell_setting 'orthorhombic'
loop_
_space_group_symop_operation_xyz
x,y,z
1/2-x,-y,1/2+z
x,-y,-z
1/2-x,y,1/2-z
-x,-y,-z
1/2+x,y,1/2-z
-x,y,z
1/2+x,-y,1/2+z
loop_
_atom_site_type_symbol
_atom_site_label
_atom_site_fract_x
_atom_site_fract_y
_atom_site_fract_z
Si Si1 0.665704 0.056533 0.049633
Si Si2 0.319534 0.770984 0.115704
Si Si3 0.680362 0.570533 0.693706
Si Si4 0.819231 0.280392 0.114750
Si Si5 0.320601 0.951573 0.359100
Si Si6 0.819216 0.369518 0.806939
Si Si7 0.321469 0.221510 0.497973
Si Si8 0.320117 0.870979 0.693936
O O1 0.500000 0.089206 0.075091
O O2 0.782727 0.130875 0.031277
O O3 0.765366 0.990767 0.084989
O O4 0.611307 0.000000 0.000000
O O5 0.500000 0.768751 0.119766
O O6 0.262142 0.857538 0.148312
O O7 0.249107 0.685977 0.144073
O O8 0.274233 0.765547 0.052486
O O9 0.750000 0.604139 0.750000
O O10 0.500000 0.577990 0.698742
O O11 0.744351 0.633419 0.645909
O O12 0.730284 0.470318 0.681495
O O13 0.775932 0.289878 0.050749
O O14 0.756715 0.190038 0.144125
O O15 0.000000 0.276709 0.119574
O O16 0.500000 0.932873 0.360261
O O17 0.275874 0.025654 0.314395
O O18 0.750000 0.336775 0.750000
O O19 0.000000 0.357430 0.804822
O O20 0.500000 0.226034 0.513201
O O21 0.250000 0.837025 0.750000
O O22 0.500000 0.860102 0.697849
#
# Coordination Sequence:
#
# PCOD8221134 Si02
#       8
#     8   8   8   8   8   8   8   8
#     4  11  21  33  52  80 111 144 190 241 284 330
#     4  12  25  40  58  85 117 150 192 245 291 341
#     4   9  18  35  62  90 117 145 187 237 284 341
#     4   9  18  35  57  85 117 150 189 233 280 340
#     4  11  22  37  56  78 108 150 195 237 282 341
#     4  10  21  40  65  91 114 147 187 234 290 343
#     4  11  21  36  58  82 115 156 195 235 283 341
#     4  10  21  36  53  79 113 150 190 232 283 338
#
# _framework density 19.573689000000002
#
# number of rings (size 3 to 8) (size 9 to 14) (size 15 to 20)
#    0.000    1.625    2.500    3.000    0.000    2.500 
#    0.000    3.125    0.000    3.750    0.000    0.000 
#    0.000    0.000    0.000    0.000    0.000    0.000 
#
# Total GULP energy -793089.546588 kJ/mol
# GULP energy per Si atom -12392.024165 kJ/mol
# Density = 1.952914 g / cm^3
# Si number density = 19.573689 Si / 1000 Ang^3
#
#
#
# Elastic Constant Matrix: (Units=GPa)
#
#
# Indices 1 2 3 4 5 6 
#
# 1 62.5852 28.4610 18.8688 0.0000 0.0000 0.0000
# 2 28.4610 95.0662 37.1253 0.0000 0.0000 0.0000
# 3 18.8688 37.1253 67.8277 0.0000 0.0000 0.0000
# 4 0.0000 0.0000 0.0000 32.7919 0.0000 0.0000
# 5 0.0000 0.0000 0.0000 0.0000 32.7512 0.0000
# 6 0.0000 0.0000 0.0000 0.0000 0.0000 12.3611
#
#
#
# Elastic Compliance Matrix: (Units=1/GPa)
#
#
# Indices 1 2 3 4 5 6 
#
# 1 0.018890 -0.004583 -0.002747 0.000000 0.000000 0.000000
# 2 -0.004583 0.014490 -0.006656 0.000000 0.000000 0.000000
# 3 -0.002747 -0.006656 0.019151 0.000000 0.000000 0.000000
# 4 0.000000 0.000000 0.000000 0.030495 0.000000 0.000000
# 5 0.000000 0.000000 0.000000 0.000000 0.030533 0.000000
# 6 0.000000 0.000000 0.000000 0.000000 0.000000 0.080899
#
#
# Mechanical properties :
#
#
# Convention : Reuss Voigt Hill
#
# Bulk Modulus (GPa) = 40.71707 43.82103 42.26905
# Shear Modulus (GPa) = 21.68090 24.98242 23.33166
#
# Velocity S-wave (km/s) = 3.33176 3.57645 3.45627
# Velocity P-wave (km/s) = 5.97059 6.28418 6.12939
#
# Compressibility (1/GPa) = 0.02455972
#
# Stress axis : x y z
#
# Youngs Moduli (GPa) = 52.93706 69.01102 52.21736
#
# Poissons Ratio (x) = 0.31626 0.14343
# Poissons Ratio (y) = 0.24260 0.34758
# Poissons Ratio (z) = 0.14540 0.45937
#
# Static dielectric constant tensor:
#      x y z
#    x 3.477110 0.000000 0.000000 
#    y 0.000000 3.730490 0.000000 
#    z 0.000000 0.000000 3.798020 
# 
# 
# High freq. dielectric constant tensor:
#      x y z
#    x 1.762020 0.000000 0.000000 
#    y 0.000000 1.753610 0.000000 
#    z 0.000000 0.000000 1.762640 
# 
# From -- ./inp_files/34321.got.cif
#   From: 2010.03.12/outbox.cif.g09.slc.cpg/sg53_18_cif.got.tgz:34321.got - 2010.04.16 14:36:59.
