data_PCOD8221010
_publ_section_title
;
Structure prediction by ZEFSAII (Michael W. Deem and Ramdas Pophale) SiO2 
 PCOD8221010
Probable space group: P M N A
;
_chemical_formula_sum "Si O2"
_cell_formula_units_Z 56
_cell_length_a 14.917410
_cell_length_b 14.110978
_cell_length_c 12.549239
_cell_angle_alpha 90.000000
_cell_angle_beta 90.000000
_cell_angle_gamma 90.000000
_cell_volume 2641.605326
_symmetry_space_group_name_H-M "P M N A"
_symmetry_group_IT_number 53
_symmetry_cell_setting 'orthorhombic'
loop_
_space_group_symop_operation_xyz
x,y,z
1/2-x,-y,1/2+z
x,-y,-z
1/2-x,y,1/2-z
-x,-y,-z
1/2+x,y,1/2-z
-x,y,z
1/2+x,-y,1/2+z
loop_
_atom_site_type_symbol
_atom_site_label
_atom_site_fract_x
_atom_site_fract_y
_atom_site_fract_z
Si Si1 0.100849 0.583724 0.755934
Si Si2 0.600655 0.794295 0.076904
Si Si3 0.323045 0.374009 0.039216
Si Si4 0.784100 0.890012 0.021579
Si Si5 0.298664 0.585488 0.354696
Si Si6 0.689438 0.758567 0.658274
Si Si7 0.396642 0.228194 0.673656
O O1 0.129994 0.564948 0.633024
O O2 0.156182 0.516451 0.835360
O O3 0.110564 0.695092 0.788338
O O4 0.000000 0.551128 0.768344
O O5 0.500000 0.837606 0.060140
O O6 0.678372 0.862929 0.030293
O O7 0.618582 0.772810 0.200259
O O8 0.603576 0.694393 0.015159
O O9 0.245826 0.314630 0.091787
O O10 0.273934 0.434991 0.947182
O O11 0.836678 0.857626 0.127162
O O12 0.838035 0.841634 0.922309
O O13 0.791984 0.000000 0.000000
O O14 0.250000 0.623042 0.250000
O O15 0.367532 0.671376 0.380295
O O16 0.750000 0.806308 0.750000
O O17 0.500000 0.211252 0.643930
#
# Coordination Sequence:
#
# PCOD8221010 Si02
#       7
#     8   8   8   8   8   8   8
#     4  11  25  41  61  96 135 171 224 277 323 386
#     4  10  20  39  68  98 133 172 214 269 328 391
#     4  10  20  41  64  89 127 176 217 258 319 387
#     4  11  23  41  67  96 130 172 216 272 340 400
#     4  12  21  40  66  92 129 176 220 262 327 388
#     4   9  20  40  61  86 121 171 213 263 322 385
#     4  11  22  40  64  97 133 169 220 270 325 392
#
# _framework density 21.199231000000001
#
# number of rings (size 3 to 8) (size 9 to 14) (size 15 to 20)
#    0.000    1.429    4.286    2.571    0.000    4.571 
#    0.000    1.429    0.000    3.429    0.000    0.000 
#    0.000    0.000    0.000    0.000    0.000    0.000 
#
# Total GULP energy -694006.712774 kJ/mol
# GULP energy per Si atom -12392.977014 kJ/mol
# Density = 2.115098 g / cm^3
# Si number density = 21.199231 Si / 1000 Ang^3
#
#
#
# Elastic Constant Matrix: (Units=GPa)
#
#
# Indices 1 2 3 4 5 6 
#
# 1 107.5518 43.4282 36.9589 0.0000 0.0000 0.0000
# 2 43.4282 111.6161 22.9184 0.0000 0.0000 0.0000
# 3 36.9589 22.9184 92.7494 0.0000 0.0000 0.0000
# 4 0.0000 0.0000 0.0000 34.9625 0.0000 0.0000
# 5 0.0000 0.0000 0.0000 0.0000 19.9305 0.0000
# 6 0.0000 0.0000 0.0000 0.0000 0.0000 18.8690
#
#
#
# Elastic Compliance Matrix: (Units=1/GPa)
#
#
# Indices 1 2 3 4 5 6 
#
# 1 0.012236 -0.003961 -0.003897 0.000000 0.000000 0.000000
# 2 -0.003961 0.010720 -0.001071 0.000000 0.000000 0.000000
# 3 -0.003897 -0.001071 0.012599 0.000000 0.000000 0.000000
# 4 0.000000 0.000000 0.000000 0.028602 0.000000 0.000000
# 5 0.000000 0.000000 0.000000 0.000000 0.050174 0.000000
# 6 0.000000 0.000000 0.000000 0.000000 0.000000 0.052997
#
#
# Mechanical properties :
#
#
# Convention : Reuss Voigt Hill
#
# Bulk Modulus (GPa) = 56.50206 57.61427 57.05817
# Shear Modulus (GPa) = 26.16619 28.65985 27.41302
#
# Velocity S-wave (km/s) = 3.51707 3.68085 3.59989
# Velocity P-wave (km/s) = 6.57296 6.73063 6.65226
#
# Compressibility (1/GPa) = 0.01769847
#
# Stress axis : x y z
#
# Youngs Moduli (GPa) = 81.72329 93.28183 79.36951
#
# Poissons Ratio (x) = 0.36947 0.30932
# Poissons Ratio (y) = 0.32369 0.08498
# Poissons Ratio (z) = 0.31850 0.09987
#
# Static dielectric constant tensor:
#      x y z
#    x 3.798100 0.000000 0.000000 
#    y 0.000000 3.994700 0.000000 
#    z 0.000000 0.000000 2.497820 
# 
# 
# High freq. dielectric constant tensor:
#      x y z
#    x 1.820100 0.000000 0.000000 
#    y 0.000000 1.804830 0.000000 
#    z 0.000000 0.000000 1.849490 
# 
# From -- ./inp_files/16042.got.cif
#   From: 2010.03.12/outbox.cif.g09.slc.cpg/sg53_9_cif.got.tgz:16042.got - 2010.04.16 14:36:59.
