data_PCOD8221226
_publ_section_title
;
Structure prediction by ZEFSAII (Michael W. Deem and Ramdas Pophale) SiO2 
 PCOD8221226
Probable space group: P M N A
;
_chemical_formula_sum "Si O2"
_cell_formula_units_Z 40
_cell_length_a 8.667984
_cell_length_b 18.593695
_cell_length_c 13.503230
_cell_angle_alpha 90.000000
_cell_angle_beta 90.000000
_cell_angle_gamma 90.000000
_cell_volume 2176.313564
_symmetry_space_group_name_H-M "P M N A"
_symmetry_group_IT_number 53
_symmetry_cell_setting 'orthorhombic'
loop_
_space_group_symop_operation_xyz
x,y,z
1/2-x,-y,1/2+z
x,-y,-z
1/2-x,y,1/2-z
-x,-y,-z
1/2+x,y,1/2-z
-x,y,z
1/2+x,-y,1/2+z
loop_
_atom_site_type_symbol
_atom_site_label
_atom_site_fract_x
_atom_site_fract_y
_atom_site_fract_z
Si Si1 0.184100 0.536912 0.644597
Si Si2 0.818965 0.966941 0.647155
Si Si3 0.183785 0.398408 0.954020
Si Si4 0.180717 0.750260 0.142099
Si Si5 0.681975 0.111659 0.951828
O O1 0.250000 0.562386 0.750000
O O2 0.241626 0.593626 0.562550
O O3 0.250923 0.458501 0.619831
O O4 0.000000 0.534185 0.646334
O O5 0.750000 0.940290 0.750000
O O6 0.771943 0.909405 0.563742
O O7 0.000000 0.970273 0.656041
O O8 0.760554 0.047012 0.619369
O O9 0.238126 0.322325 0.910599
O O10 0.000000 0.406083 0.961749
O O11 0.250000 0.758574 0.250000
O O12 0.228706 0.816350 0.073779
O O13 0.000000 0.749049 0.154612
O O14 0.500000 0.124200 0.940778
#
# Coordination Sequence:
#
# PCOD8221226 Si02
#       5
#     8   8   8   8   8
#     4  11  21  35  57  82 107 139 177 217 262 311
#     4   9  18  33  53  77 103 136 174 215 260 307
#     4  10  21  37  55  79 109 139 176 219 259 310
#     4  11  23  36  54  79 107 138 172 211 259 310
#     4   9  19  35  53  75 106 138 173 214 258 308
#
# _framework density 18.379705000000001
#
# number of rings (size 3 to 8) (size 9 to 14) (size 15 to 20)
#    0.000    2.000    0.000    6.600    0.000    8.000 
#    0.000    3.000    0.000    2.400    0.000    0.000 
#    0.000    0.000    0.000    0.000    0.000    0.000 
#
# Total GULP energy -496061.167623 kJ/mol
# GULP energy per Si atom -12401.529191 kJ/mol
# Density = 1.833787 g / cm^3
# Si number density = 18.379705 Si / 1000 Ang^3
#
#
#
# Elastic Constant Matrix: (Units=GPa)
#
#
# Indices 1 2 3 4 5 6 
#
# 1 55.1404 21.8394 25.2127 0.0000 0.0000 0.0000
# 2 21.8394 111.5914 47.1849 0.0000 0.0000 0.0000
# 3 25.2127 47.1849 135.0750 0.0000 0.0000 0.0000
# 4 0.0000 0.0000 0.0000 22.0461 0.0000 0.0000
# 5 0.0000 0.0000 0.0000 0.0000 33.3835 0.0000
# 6 0.0000 0.0000 0.0000 0.0000 0.0000 43.1719
#
#
#
# Elastic Compliance Matrix: (Units=1/GPa)
#
#
# Indices 1 2 3 4 5 6 
#
# 1 0.020556 -0.002817 -0.002853 0.000000 0.000000 0.000000
# 2 -0.002817 0.010900 -0.003282 0.000000 0.000000 0.000000
# 3 -0.002853 -0.003282 0.009082 0.000000 0.000000 0.000000
# 4 0.000000 0.000000 0.000000 0.045360 0.000000 0.000000
# 5 0.000000 0.000000 0.000000 0.000000 0.029955 0.000000
# 6 0.000000 0.000000 0.000000 0.000000 0.000000 0.023163
#
#
# Mechanical properties :
#
#
# Convention : Reuss Voigt Hill
#
# Bulk Modulus (GPa) = 44.17918 54.47565 49.32741
# Shear Modulus (GPa) = 30.40183 33.55829 31.98006
#
# Velocity S-wave (km/s) = 4.07147 4.27761 4.17582
# Velocity P-wave (km/s) = 6.79644 7.35532 7.08139
#
# Compressibility (1/GPa) = 0.02263510
#
# Stress axis : x y z
#
# Youngs Moduli (GPa) = 48.64858 91.74121 110.10439
#
# Poissons Ratio (x) = 0.25840 0.31412
# Poissons Ratio (y) = 0.13702 0.36136
# Poissons Ratio (z) = 0.13879 0.30109
#
# Static dielectric constant tensor:
#      x y z
#    x 3.362360 0.000000 0.000000 
#    y 0.000000 3.404920 0.000000 
#    z 0.000000 0.000000 4.249770 
# 
# 
# High freq. dielectric constant tensor:
#      x y z
#    x 1.718470 0.000000 0.000000 
#    y 0.000000 1.702600 0.000000 
#    z 0.000000 0.000000 1.723710 
# 
# From -- ./inp_files/20020.got.cif
#   From: 2010.03.12/outbox.cif.g09.slc.cpg/sg53_11_cif.got.tgz:20020.got - 2010.04.16 14:36:59.
