data_PCOD8221950
_publ_section_title
;
Structure prediction by ZEFSAII (Michael W. Deem and Ramdas Pophale) SiO2 
 PCOD8221950
Probable space group: P M N A
;
_chemical_formula_sum "Si O2"
_cell_formula_units_Z 64
_cell_length_a 14.586583
_cell_length_b 15.301017
_cell_length_c 13.249773
_cell_angle_alpha 90.000000
_cell_angle_beta 90.000000
_cell_angle_gamma 90.000000
_cell_volume 2957.210932
_symmetry_space_group_name_H-M "P M N A"
_symmetry_group_IT_number 53
_symmetry_cell_setting 'orthorhombic'
loop_
_space_group_symop_operation_xyz
x,y,z
1/2-x,-y,1/2+z
x,-y,-z
1/2-x,y,1/2-z
-x,-y,-z
1/2+x,y,1/2-z
-x,y,z
1/2+x,-y,1/2+z
loop_
_atom_site_type_symbol
_atom_site_label
_atom_site_fract_x
_atom_site_fract_y
_atom_site_fract_z
Si Si1 0.391576 0.373249 0.420586
Si Si2 0.396608 0.778967 0.028316
Si Si3 0.901515 0.964192 0.387720
Si Si4 0.100675 0.149387 0.876953
Si Si5 0.148918 0.711604 0.272144
Si Si6 0.607431 0.559709 0.364812
Si Si7 0.209457 0.795986 0.930748
Si Si8 0.209944 0.016244 0.120023
O O1 0.500000 0.353636 0.414669
O O2 0.356319 0.392398 0.534326
O O3 0.361959 0.458202 0.355078
O O4 0.336649 0.288624 0.379142
O O5 0.500000 0.771359 0.981661
O O6 0.386547 0.861424 0.102356
O O7 0.376611 0.702067 0.109264
O O8 0.320193 0.782379 0.939868
O O9 0.000000 0.984528 0.332623
O O10 0.907880 0.000000 0.500000
O O11 0.812149 0.004024 0.330091
O O12 0.085928 0.218001 0.786118
O O13 0.169000 0.191635 0.957472
O O14 0.000000 0.133564 0.925122
O O15 0.137817 0.054856 0.836330
O O16 0.250000 0.746449 0.250000
O O17 0.139103 0.612528 0.232638
O O18 0.500000 0.559016 0.377269
O O19 0.184013 0.881756 0.863491
O O20 0.218627 0.000000 0.000000
#
# Coordination Sequence:
#
# PCOD8221950 Si02
#       8
#     8   8   8   8   8   8   8   8
#     4   9  17  29  47  68  93 122 157 203 250 297
#     4  11  20  29  45  72 103 135 168 204 248 300
#     4   9  14  26  43  60  92 133 170 206 238 275
#     4  11  20  30  43  66 103 138 164 197 244 296
#     4  12  20  32  49  71 103 134 161 200 251 311
#     4   9  17  30  46  68  94 121 155 200 251 300
#     4  11  18  30  46  69 100 128 164 204 240 289
#     4   9  17  28  40  64  95 131 167 199 236 283
#
# _framework density 21.642014
#
# number of rings (size 3 to 8) (size 9 to 14) (size 15 to 20)
#    0.000    1.875    6.250    2.250    0.000    2.750 
#    0.000    0.000    0.000    0.000    0.000   11.375 
#    0.000    2.000    0.000    0.500    0.000    0.000 
#
# Total GULP energy -793032.106645 kJ/mol
# GULP energy per Si atom -12391.126666 kJ/mol
# Density = 2.159276 g / cm^3
# Si number density = 21.642014 Si / 1000 Ang^3
#
#
#
# Elastic Constant Matrix: (Units=GPa)
#
#
# Indices 1 2 3 4 5 6 
#
# 1 130.1505 52.7088 -8.2370 0.0000 0.0000 0.0000
# 2 52.7088 157.4812 18.4882 0.0000 0.0000 0.0000
# 3 -8.2370 18.4882 10.3101 0.0000 0.0000 0.0000
# 4 0.0000 0.0000 0.0000 19.7690 0.0000 0.0000
# 5 0.0000 0.0000 0.0000 0.0000 5.5156 0.0000
# 6 0.0000 0.0000 0.0000 0.0000 0.0000 27.7474
#
#
#
# Elastic Compliance Matrix: (Units=1/GPa)
#
#
# Indices 1 2 3 4 5 6 
#
# 1 0.011502 -0.006242 0.020383 0.000000 0.000000 0.000000
# 2 -0.006242 0.011431 -0.025486 0.000000 0.000000 0.000000
# 3 0.020383 -0.025486 0.158978 0.000000 0.000000 0.000000
# 4 0.000000 0.000000 0.000000 0.050584 0.000000 0.000000
# 5 0.000000 0.000000 0.000000 0.000000 0.181304 0.000000
# 6 0.000000 0.000000 0.000000 0.000000 0.000000 0.036039
#
#
# Mechanical properties :
#
#
# Convention : Reuss Voigt Hill
#
# Bulk Modulus (GPa) = 6.28063 47.09577 26.68820
# Shear Modulus (GPa) = 9.51288 26.27185 17.89236
#
# Velocity S-wave (km/s) = 2.09883 3.48793 2.87843
# Velocity P-wave (km/s) = 2.96341 6.16679 4.83793
#
# Compressibility (1/GPa) = 0.15921975
#
# Stress axis : x y z
#
# Youngs Moduli (GPa) = 86.94506 87.47857 6.29017
#
# Poissons Ratio (x) = 0.54608 -0.12821
# Poissons Ratio (y) = 0.54275 0.16031
# Poissons Ratio (z) = -1.77219 2.22949
#
# Static dielectric constant tensor:
#      x y z
#    x 4.126580 0.000000 0.000000 
#    y 0.000000 2.976650 0.000000 
#    z 0.000000 0.000000 4.165830 
# 
# 
# High freq. dielectric constant tensor:
#      x y z
#    x 1.854990 0.000000 0.000000 
#    y 0.000000 1.842490 0.000000 
#    z 0.000000 0.000000 1.794990 
# 
# From -- ./inp_files/28644.got.cif
#   From: 2010.03.12/outbox.cif.g09.slc.cpg/sg53_15_cif.got.tgz:28644.got - 2010.04.16 14:36:59.
