data_PCOD8221920
_publ_section_title
;
Structure prediction by ZEFSAII (Michael W. Deem and Ramdas Pophale) SiO2 
 PCOD8221920
Probable space group: P M N A
;
_chemical_formula_sum "Si O2"
_cell_formula_units_Z 56
_cell_length_a 20.748958
_cell_length_b 8.517061
_cell_length_c 15.404941
_cell_angle_alpha 90.000000
_cell_angle_beta 90.000000
_cell_angle_gamma 90.000000
_cell_volume 2722.363345
_symmetry_space_group_name_H-M "P M N A"
_symmetry_group_IT_number 53
_symmetry_cell_setting 'orthorhombic'
loop_
_space_group_symop_operation_xyz
x,y,z
1/2-x,-y,1/2+z
x,-y,-z
1/2-x,y,1/2-z
-x,-y,-z
1/2+x,y,1/2-z
-x,y,z
1/2+x,-y,1/2+z
loop_
_atom_site_type_symbol
_atom_site_label
_atom_site_fract_x
_atom_site_fract_y
_atom_site_fract_z
Si Si1 0.350262 0.882419 0.071096
Si Si2 0.187997 0.193406 0.811108
Si Si3 0.691516 0.836571 0.642694
Si Si4 0.927514 0.299608 0.693294
Si Si5 0.926816 0.589084 0.585768
Si Si6 0.226703 0.321085 0.979578
Si Si7 0.835195 0.177581 0.327301
O O1 0.409141 0.772207 0.098926
O O2 0.290188 0.787906 0.031139
O O3 0.332746 0.987762 0.157120
O O4 0.377336 0.000000 0.000000
O O5 0.250000 0.215188 0.750000
O O6 0.121377 0.237598 0.764823
O O7 0.191231 0.322551 0.887245
O O8 0.188251 0.025168 0.859534
O O9 0.675881 0.755556 0.550092
O O10 0.647182 0.787074 0.725792
O O11 0.762970 0.764822 0.656923
O O12 0.922574 0.484934 0.673787
O O13 0.000000 0.250618 0.720037
O O14 0.900675 0.500000 0.500000
O O15 0.883105 0.740972 0.604470
O O16 0.000000 0.644196 0.569705
O O17 0.246024 0.500000 0.000000
#
# Coordination Sequence:
#
# PCOD8221920 Si02
#       7
#     8   8   8   8   8   8   8
#     4  12  21  39  63  92 133 167 212 264 322 393
#     4  12  21  45  67  94 132 171 213 275 336 389
#     4  11  21  39  61  94 129 165 213 271 327 387
#     4  11  25  42  65  95 135 179 218 267 331 396
#     4  10  24  43  62  93 136 180 224 266 319 398
#     4  12  26  38  64 101 130 167 217 277 335 392
#     4  11  21  37  63  90 130 172 209 263 325 383
#
# _framework density 20.570361999999999
#
# number of rings (size 3 to 8) (size 9 to 14) (size 15 to 20)
#    0.000    0.714    7.143    1.286    4.000    0.857 
#    0.000    0.000    0.000    3.000    0.000    0.000 
#    0.000    0.000    0.000    0.000    0.000    0.000 
#
# Total GULP energy -693833.016779 kJ/mol
# GULP energy per Si atom -12389.875300 kJ/mol
# Density = 2.052354 g / cm^3
# Si number density = 20.570362 Si / 1000 Ang^3
#
#
#
# Elastic Constant Matrix: (Units=GPa)
#
#
# Indices 1 2 3 4 5 6 
#
# 1 93.3942 39.5936 35.7607 0.0000 0.0000 0.0000
# 2 39.5936 105.4922 50.9119 0.0000 0.0000 0.0000
# 3 35.7607 50.9119 118.4639 0.0000 0.0000 0.0000
# 4 0.0000 0.0000 0.0000 39.1594 0.0000 0.0000
# 5 0.0000 0.0000 0.0000 0.0000 31.1516 0.0000
# 6 0.0000 0.0000 0.0000 0.0000 0.0000 22.3950
#
#
#
# Elastic Compliance Matrix: (Units=1/GPa)
#
#
# Indices 1 2 3 4 5 6 
#
# 1 0.013231 -0.003833 -0.002347 0.000000 0.000000 0.000000
# 2 -0.003833 0.013071 -0.004460 0.000000 0.000000 0.000000
# 3 -0.002347 -0.004460 0.011067 0.000000 0.000000 0.000000
# 4 0.000000 0.000000 0.000000 0.025537 0.000000 0.000000
# 5 0.000000 0.000000 0.000000 0.000000 0.032101 0.000000
# 6 0.000000 0.000000 0.000000 0.000000 0.000000 0.044653
#
#
# Mechanical properties :
#
#
# Convention : Reuss Voigt Hill
#
# Bulk Modulus (GPa) = 62.15828 63.32031 62.73930
# Shear Modulus (GPa) = 30.06588 31.28016 30.67302
#
# Velocity S-wave (km/s) = 3.82725 3.90377 3.86570
# Velocity P-wave (km/s) = 7.05787 7.15321 7.10570
#
# Compressibility (1/GPa) = 0.01608796
#
# Stress axis : x y z
#
# Youngs Moduli (GPa) = 75.58049 76.50716 90.36214
#
# Poissons Ratio (x) = 0.29328 0.21204
# Poissons Ratio (y) = 0.28973 0.40303
# Poissons Ratio (z) = 0.17735 0.34123
#
# Static dielectric constant tensor:
#      x y z
#    x 3.340810 0.000000 0.000000 
#    y 0.000000 3.742860 0.000000 
#    z 0.000000 0.000000 4.317270 
# 
# 
# High freq. dielectric constant tensor:
#      x y z
#    x 1.753810 0.000000 0.000000 
#    y 0.000000 1.809960 0.000000 
#    z 0.000000 0.000000 1.820630 
# 
# From -- ./inp_files/24353.got.cif
#   From: 2010.03.12/outbox.cif.g09.slc.cpg/sg53_13_cif.got.tgz:24353.got - 2010.04.16 14:36:59.
