data_PCOD8221353
_publ_section_title
;
Structure prediction by ZEFSAII (Michael W. Deem and Ramdas Pophale) SiO2 
 PCOD8221353
Probable space group: P M N A
;
_chemical_formula_sum "Si O2"
_cell_formula_units_Z 48
_cell_length_a 17.268479
_cell_length_b 12.234556
_cell_length_c 11.513186
_cell_angle_alpha 90.000000
_cell_angle_beta 90.000000
_cell_angle_gamma 90.000000
_cell_volume 2432.415829
_symmetry_space_group_name_H-M "P M N A"
_symmetry_group_IT_number 53
_symmetry_cell_setting 'orthorhombic'
loop_
_space_group_symop_operation_xyz
x,y,z
1/2-x,-y,1/2+z
x,-y,-z
1/2-x,y,1/2-z
-x,-y,-z
1/2+x,y,1/2-z
-x,y,z
1/2+x,-y,1/2+z
loop_
_atom_site_type_symbol
_atom_site_label
_atom_site_fract_x
_atom_site_fract_y
_atom_site_fract_z
Si Si1 0.410468 0.176305 0.878487
Si Si2 0.338355 0.336665 0.719254
Si Si3 0.797861 0.983800 0.632852
Si Si4 0.682961 0.617058 0.533088
Si Si5 0.831604 0.740196 0.600054
Si Si6 0.089743 0.435885 0.244993
O O1 0.500000 0.163849 0.909355
O O2 0.396754 0.242785 0.760823
O O3 0.375361 0.055644 0.869675
O O4 0.366181 0.250611 0.972141
O O5 0.250000 0.309680 0.750000
O O6 0.348729 0.326100 0.581722
O O7 0.361297 0.454634 0.772732
O O8 0.750000 0.019640 0.750000
O O9 0.824180 0.859913 0.656197
O O10 0.759150 0.000000 0.500000
O O11 0.720979 0.500000 0.500000
O O12 0.746286 0.688857 0.599186
O O13 0.608565 0.602051 0.614668
O O14 0.889065 0.662784 0.670252
O O15 0.000000 0.463987 0.257316
#
# Coordination Sequence:
#
# PCOD8221353 Si02
#       6
#     8   8   8   8   8   8
#     4  11  24  39  62  92 122 157 199 256 316 358
#     4  11  21  39  62  86 121 159 206 249 297 363
#     4  10  23  41  66  91 120 161 212 255 303 367
#     4  10  21  37  62  87 119 163 208 248 299 363
#     4  11  22  40  62  90 119 161 206 248 296 366
#     4  11  23  36  57  90 128 162 197 249 310 364
#
# _framework density 19.733468999999999
#
# number of rings (size 3 to 8) (size 9 to 14) (size 15 to 20)
#    0.000    1.333    1.667    5.000    2.333    7.333 
#    0.000    1.667    0.000    0.500    0.000    0.000 
#    0.000    0.000    0.000    0.000    0.000    0.000 
#
# Total GULP energy -595053.070228 kJ/mol
# GULP energy per Si atom -12396.938963 kJ/mol
# Density = 1.968855 g / cm^3
# Si number density = 19.733469 Si / 1000 Ang^3
#
#
#
# Elastic Constant Matrix: (Units=GPa)
#
#
# Indices 1 2 3 4 5 6 
#
# 1 81.1813 19.1235 12.6871 0.0000 0.0000 0.0000
# 2 19.1235 95.9906 20.5786 0.0000 0.0000 0.0000
# 3 12.6871 20.5786 80.6620 0.0000 0.0000 0.0000
# 4 0.0000 0.0000 0.0000 26.3294 0.0000 0.0000
# 5 0.0000 0.0000 0.0000 0.0000 20.5747 0.0000
# 6 0.0000 0.0000 0.0000 0.0000 0.0000 26.1363
#
#
#
# Elastic Compliance Matrix: (Units=1/GPa)
#
#
# Indices 1 2 3 4 5 6 
#
# 1 0.013088 -0.002291 -0.001474 0.000000 0.000000 0.000000
# 2 -0.002291 0.011422 -0.002553 0.000000 0.000000 0.000000
# 3 -0.001474 -0.002553 0.013281 0.000000 0.000000 0.000000
# 4 0.000000 0.000000 0.000000 0.037980 0.000000 0.000000
# 5 0.000000 0.000000 0.000000 0.000000 0.048603 0.000000
# 6 0.000000 0.000000 0.000000 0.000000 0.000000 0.038261
#
#
# Mechanical properties :
#
#
# Convention : Reuss Voigt Hill
#
# Bulk Modulus (GPa) = 39.75725 40.29025 40.02375
# Shear Modulus (GPa) = 27.22458 28.30438 27.76448
#
# Velocity S-wave (km/s) = 3.71835 3.79137 3.75503
# Velocity P-wave (km/s) = 6.21495 6.29504 6.25512
#
# Compressibility (1/GPa) = 0.02515265
#
# Stress axis : x y z
#
# Youngs Moduli (GPa) = 76.40431 87.55320 75.29719
#
# Poissons Ratio (x) = 0.20063 0.11099
# Poissons Ratio (y) = 0.17508 0.19227
# Poissons Ratio (z) = 0.11262 0.22357
#
# Static dielectric constant tensor:
#      x y z
#    x 3.364190 0.000000 0.000000 
#    y 0.000000 3.655880 0.000000 
#    z 0.000000 0.000000 3.971250 
# 
# 
# High freq. dielectric constant tensor:
#      x y z
#    x 1.747150 0.000000 0.000000 
#    y 0.000000 1.778870 0.000000 
#    z 0.000000 0.000000 1.780590 
# 
# From -- ./inp_files/16917.got.cif
#   From: 2010.03.12/outbox.cif.g09.slc.cpg/sg53_9_cif.got.tgz:16917.got - 2010.04.16 14:36:59.
