data_PCOD8221609
_publ_section_title
;
Structure prediction by ZEFSAII (Michael W. Deem and Ramdas Pophale) SiO2 
 PCOD8221609
Probable space group: P M N A
;
_chemical_formula_sum "Si O2"
_cell_formula_units_Z 48
_cell_length_a 8.040862
_cell_length_b 9.908672
_cell_length_c 28.096216
_cell_angle_alpha 90.000000
_cell_angle_beta 90.000000
_cell_angle_gamma 90.000000
_cell_volume 2238.545335
_symmetry_space_group_name_H-M "P M N A"
_symmetry_group_IT_number 53
_symmetry_cell_setting 'orthorhombic'
loop_
_space_group_symop_operation_xyz
x,y,z
1/2-x,-y,1/2+z
x,-y,-z
1/2-x,y,1/2-z
-x,-y,-z
1/2+x,y,1/2-z
-x,y,z
1/2+x,-y,1/2+z
loop_
_atom_site_type_symbol
_atom_site_label
_atom_site_fract_x
_atom_site_fract_y
_atom_site_fract_z
Si Si1 0.697431 0.279453 0.697174
Si Si2 0.805115 0.467292 0.613661
Si Si3 0.822044 0.007261 0.443568
Si Si4 0.000000 0.406035 0.954760
Si Si5 0.688133 0.019694 0.299714
Si Si6 0.500000 0.106287 0.543021
Si Si7 0.186428 0.228088 0.373470
O O1 0.750000 0.326089 0.750000
O O2 0.500000 0.293994 0.689379
O O3 0.790690 0.377091 0.660454
O O4 0.768689 0.126865 0.688158
O O5 0.672132 0.419911 0.574308
O O6 0.747267 0.620109 0.625564
O O7 0.000000 0.464583 0.595761
O O8 0.665448 0.919052 0.424559
O O9 0.000000 0.949456 0.424358
O O10 0.822341 0.000000 0.500000
O O11 0.802814 0.162384 0.426392
O O12 0.000000 0.256271 0.976641
O O13 0.000000 0.500000 0.000000
O O14 0.750000 0.080981 0.250000
O O15 0.500000 0.982299 0.292329
O O16 0.707266 0.132331 0.339637
O O17 0.500000 0.000000 0.500000
O O18 0.000000 0.226899 0.353462
#
# Coordination Sequence:
#
# PCOD8221609 Si02
#       7
#     8   8   8   4   8   4   8
#     4  10  21  41  66  98 135 177 224 279 340 407
#     4  11  26  46  68  98 136 182 232 277 343 417
#     4   9  20  38  63  93 126 161 210 269 323 383
#     4  12  30  48  68 100 142 180 230 292 345 417
#     4  10  22  38  64  96 133 172 219 275 335 394
#     4  10  24  42  68  98 122 170 224 270 332 405
#     4  10  23  40  63  93 127 169 216 269 325 395
#
# _framework density 21.442495000000001
#
# number of rings (size 3 to 8) (size 9 to 14) (size 15 to 20)
#    0.000    1.833    0.833    1.000    9.333    3.667 
#    0.000    0.000    0.000    0.000    0.000    0.000 
#    0.000    0.000    0.000    0.000    0.000    0.000 
#
# Total GULP energy -594756.622886 kJ/mol
# GULP energy per Si atom -12390.762977 kJ/mol
# Density = 2.139369 g / cm^3
# Si number density = 21.442495 Si / 1000 Ang^3
#
#
#
# Elastic Constant Matrix: (Units=GPa)
#
#
# Indices 1 2 3 4 5 6 
#
# 1 139.1330 45.7625 26.2545 0.0000 0.0000 0.0000
# 2 45.7625 155.0576 58.5448 0.0000 0.0000 0.0000
# 3 26.2545 58.5448 104.0874 0.0000 0.0000 0.0000
# 4 0.0000 0.0000 0.0000 50.1016 0.0000 0.0000
# 5 0.0000 0.0000 0.0000 0.0000 23.4719 0.0000
# 6 0.0000 0.0000 0.0000 0.0000 0.0000 26.5133
#
#
#
# Elastic Compliance Matrix: (Units=1/GPa)
#
#
# Indices 1 2 3 4 5 6 
#
# 1 0.008023 -0.002036 -0.000878 0.000000 0.000000 0.000000
# 2 -0.002036 0.008705 -0.004383 0.000000 0.000000 0.000000
# 3 -0.000878 -0.004383 0.012294 0.000000 0.000000 0.000000
# 4 0.000000 0.000000 0.000000 0.019959 0.000000 0.000000
# 5 0.000000 0.000000 0.000000 0.000000 0.042604 0.000000
# 6 0.000000 0.000000 0.000000 0.000000 0.000000 0.037717
#
#
# Mechanical properties :
#
#
# Convention : Reuss Voigt Hill
#
# Bulk Modulus (GPa) = 69.31250 73.26684 71.28967
# Shear Modulus (GPa) = 33.62356 37.86511 35.74433
#
# Velocity S-wave (km/s) = 3.96420 4.20681 4.08730
# Velocity P-wave (km/s) = 7.30398 7.60523 7.45613
#
# Compressibility (1/GPa) = 0.01442741
#
# Stress axis : x y z
#
# Youngs Moduli (GPa) = 124.64428 114.87853 81.34146
#
# Poissons Ratio (x) = 0.23391 0.07145
# Poissons Ratio (y) = 0.25379 0.35648
# Poissons Ratio (z) = 0.10949 0.50346
#
# Static dielectric constant tensor:
#      x y z
#    x 6.318490 0.000000 0.000000 
#    y 0.000000 3.863120 0.000000 
#    z 0.000000 0.000000 3.640950 
# 
# 
# High freq. dielectric constant tensor:
#      x y z
#    x 1.862460 0.000000 0.000000 
#    y 0.000000 1.837140 0.000000 
#    z 0.000000 0.000000 1.827870 
# 
# From -- ./inp_files/37831.got.cif
#   From: 2010.03.12/outbox.cif.g09.slc.cpg/sg53_19_cif.got.tgz:37831.got - 2010.04.16 14:36:59.
