data_PCOD8221503
_publ_section_title
;
Structure prediction by ZEFSAII (Michael W. Deem and Ramdas Pophale) SiO2 
 PCOD8221503
Probable space group: P M N A
;
_chemical_formula_sum "Si O2"
_cell_formula_units_Z 56
_cell_length_a 13.977835
_cell_length_b 9.556240
_cell_length_c 21.654599
_cell_angle_alpha 90.000000
_cell_angle_beta 90.000000
_cell_angle_gamma 90.000000
_cell_volume 2892.524884
_symmetry_space_group_name_H-M "P M N A"
_symmetry_group_IT_number 53
_symmetry_cell_setting 'orthorhombic'
loop_
_space_group_symop_operation_xyz
x,y,z
1/2-x,-y,1/2+z
x,-y,-z
1/2-x,y,1/2-z
-x,-y,-z
1/2+x,y,1/2-z
-x,y,z
1/2+x,-y,1/2+z
loop_
_atom_site_type_symbol
_atom_site_label
_atom_site_fract_x
_atom_site_fract_y
_atom_site_fract_z
Si Si1 0.751368 0.525337 0.146756
Si Si2 0.613070 0.409500 0.751827
Si Si3 0.744734 0.203853 0.565340
Si Si4 0.612913 0.016724 0.105434
Si Si5 0.113705 0.991314 0.868474
Si Si6 0.759041 0.239863 0.075913
Si Si7 0.612025 0.906641 0.237730
O O1 0.849933 0.537973 0.185383
O O2 0.661899 0.502405 0.193150
O O3 0.732956 0.660983 0.105559
O O4 0.757947 0.394614 0.101953
O O5 0.500000 0.429446 0.754855
O O6 0.651032 0.251323 0.761829
O O7 0.838741 0.104531 0.564187
O O8 0.653552 0.119637 0.591214
O O9 0.719822 0.250157 0.496449
O O10 0.500000 0.016248 0.093787
O O11 0.643088 0.987595 0.176299
O O12 0.656428 0.166761 0.087905
O O13 0.149616 0.010709 0.797712
O O14 0.000000 0.989967 0.874461
O O15 0.155404 0.845325 0.891999
O O16 0.500000 0.894273 0.241717
#
# Coordination Sequence:
#
# PCOD8221503 Si02
#       7
#     8   8   8   8   8   8   8
#     4  11  23  39  62  87 120 156 187 240 296 342
#     4  10  21  39  63  90 113 146 196 242 290 348
#     4  11  22  39  61  83 116 160 204 235 272 347
#     4  10  21  39  63  88 115 150 196 248 293 338
#     4  10  21  39  63  88 115 150 196 248 293 338
#     4  11  26  38  53  88 125 158 192 231 291 351
#     4   9  17  33  62  89 107 139 191 244 291 337
#
# _framework density 19.360247000000001
#
# number of rings (size 3 to 8) (size 9 to 14) (size 15 to 20)
#    0.000    1.714    2.857    2.143    0.000    8.000 
#    0.000    1.429    0.000    5.143    0.000    0.000 
#    0.000    0.000    0.000    0.000    0.000    0.000 
#
# Total GULP energy -694456.819941 kJ/mol
# GULP energy per Si atom -12401.014642 kJ/mol
# Density = 1.931618 g / cm^3
# Si number density = 19.360247 Si / 1000 Ang^3
#
#
#
# Elastic Constant Matrix: (Units=GPa)
#
#
# Indices 1 2 3 4 5 6 
#
# 1 85.2616 10.3771 -1.6319 0.0000 0.0000 0.0000
# 2 10.3771 75.0534 0.2034 0.0000 0.0000 0.0000
# 3 -1.6319 0.2034 74.7842 0.0000 0.0000 0.0000
# 4 0.0000 0.0000 0.0000 28.6793 0.0000 0.0000
# 5 0.0000 0.0000 0.0000 0.0000 22.3980 0.0000
# 6 0.0000 0.0000 0.0000 0.0000 0.0000 14.1426
#
#
#
# Elastic Compliance Matrix: (Units=1/GPa)
#
#
# Indices 1 2 3 4 5 6 
#
# 1 0.011935 -0.001651 0.000265 0.000000 0.000000 0.000000
# 2 -0.001651 0.013552 -0.000073 0.000000 0.000000 0.000000
# 3 0.000265 -0.000073 0.013378 0.000000 0.000000 0.000000
# 4 0.000000 0.000000 0.000000 0.034868 0.000000 0.000000
# 5 0.000000 0.000000 0.000000 0.000000 0.044647 0.000000
# 6 0.000000 0.000000 0.000000 0.000000 0.000000 0.070709
#
#
# Mechanical properties :
#
#
# Convention : Reuss Voigt Hill
#
# Bulk Modulus (GPa) = 27.81866 28.11071 27.96468
# Shear Modulus (GPa) = 24.51121 28.12068 26.31594
#
# Velocity S-wave (km/s) = 3.56203 3.81530 3.69084
# Velocity P-wave (km/s) = 5.59621 5.82752 5.71304
#
# Compressibility (1/GPa) = 0.03594710
#
# Stress axis : x y z
#
# Youngs Moduli (GPa) = 83.78998 73.78824 74.75075
#
# Poissons Ratio (x) = 0.12181 -0.01980
# Poissons Ratio (y) = 0.13832 0.00545
# Poissons Ratio (z) = -0.02220 0.00538
#
# Static dielectric constant tensor:
#      x y z
#    x 3.495440 0.000000 0.000000 
#    y 0.000000 3.425800 0.000000 
#    z 0.000000 0.000000 3.796560 
# 
# 
# High freq. dielectric constant tensor:
#      x y z
#    x 1.757210 0.000000 0.000000 
#    y 0.000000 1.739280 0.000000 
#    z 0.000000 0.000000 1.768240 
# 
# From -- ./inp_files/32445.got.cif
#   From: 2010.03.12/outbox.cif.g09.slc.cpg/sg53_17_cif.got.tgz:32445.got - 2010.04.16 14:36:59.
