data_PCOD8221423
_publ_section_title
;
Structure prediction by ZEFSAII (Michael W. Deem and Ramdas Pophale) SiO2 
 PCOD8221423
Probable space group: P M N A
;
_chemical_formula_sum "Si O2"
_cell_formula_units_Z 56
_cell_length_a 8.843694
_cell_length_b 21.187581
_cell_length_c 15.071499
_cell_angle_alpha 90.000000
_cell_angle_beta 90.000000
_cell_angle_gamma 90.000000
_cell_volume 2824.044476
_symmetry_space_group_name_H-M "P M N A"
_symmetry_group_IT_number 53
_symmetry_cell_setting 'orthorhombic'
loop_
_space_group_symop_operation_xyz
x,y,z
1/2-x,-y,1/2+z
x,-y,-z
1/2-x,y,1/2-z
-x,-y,-z
1/2+x,y,1/2-z
-x,y,z
1/2+x,-y,1/2+z
loop_
_atom_site_type_symbol
_atom_site_label
_atom_site_fract_x
_atom_site_fract_y
_atom_site_fract_z
Si Si1 0.821047 0.355564 0.152641
Si Si2 0.322457 0.085930 0.342700
Si Si3 0.323495 0.520130 0.845180
Si Si4 0.174881 0.288382 0.502939
Si Si5 0.323414 0.940891 0.342176
Si Si6 0.825655 0.143240 0.509348
Si Si7 0.324245 0.619083 0.154305
O O1 0.750000 0.345146 0.250000
O O2 0.761638 0.421401 0.107565
O O3 0.000000 0.356115 0.161771
O O4 0.769189 0.300032 0.086919
O O5 0.250000 0.105558 0.250000
O O6 0.500000 0.098458 0.339360
O O7 0.246791 0.130776 0.414286
O O8 0.285421 0.013246 0.365612
O O9 0.250000 0.514747 0.750000
O O10 0.500000 0.536810 0.838981
O O11 0.297444 0.451082 0.888458
O O12 0.195248 0.216407 0.532635
O O13 0.240189 0.330909 0.583451
O O14 0.000000 0.304808 0.484001
O O15 0.250000 0.920227 0.250000
O O16 0.500000 0.929700 0.333794
O O17 0.260180 0.897473 0.418615
O O18 0.000000 0.123135 0.507916
O O19 0.250000 0.628864 0.250000
O O20 0.500000 0.630735 0.170356
#
# Coordination Sequence:
#
# PCOD8221423 Si02
#       7
#     8   8   8   8   8   8   8
#     4  11  22  37  58  82 109 143 182 230 282 332
#     4  10  21  38  61  88 116 147 185 230 280 332
#     4   9  16  30  54  81 107 138 176 223 279 332
#     4  10  23  41  56  78 112 151 192 227 269 328
#     4  10  21  38  61  88 117 148 185 230 278 330
#     4  11  23  38  58  83 115 153 190 231 277 329
#     4   9  19  36  58  81 109 144 182 227 277 328
#
# _framework density 19.829715
#
# number of rings (size 3 to 8) (size 9 to 14) (size 15 to 20)
#    0.000    2.000    0.000    4.286    0.000    7.429 
#    0.000    4.286    0.000    0.000    0.000    0.000 
#    0.000    0.000    0.000    0.000    0.000    0.000 
#
# Total GULP energy -694367.819686 kJ/mol
# GULP energy per Si atom -12399.425352 kJ/mol
# Density = 1.978458 g / cm^3
# Si number density = 19.829715 Si / 1000 Ang^3
#
#
#
# Elastic Constant Matrix: (Units=GPa)
#
#
# Indices 1 2 3 4 5 6 
#
# 1 88.5958 20.0380 27.4770 0.0000 0.0000 0.0000
# 2 20.0380 51.3714 19.2460 0.0000 0.0000 0.0000
# 3 27.4770 19.2460 75.7106 0.0000 0.0000 0.0000
# 4 0.0000 0.0000 0.0000 -1.7397 0.0000 0.0000
# 5 0.0000 0.0000 0.0000 0.0000 34.8241 0.0000
# 6 0.0000 0.0000 0.0000 0.0000 0.0000 30.6358
#
#
#
# Elastic Compliance Matrix: (Units=1/GPa)
#
#
# Indices 1 2 3 4 5 6 
#
# 1 0.013341 -0.003747 -0.003889 0.000000 0.000000 0.000000
# 2 -0.003747 0.022567 -0.004377 0.000000 0.000000 0.000000
# 3 -0.003889 -0.004377 0.015732 0.000000 0.000000 0.000000
# 4 0.000000 0.000000 0.000000 -0.574796 0.000000 0.000000
# 5 0.000000 0.000000 0.000000 0.000000 0.028716 0.000000
# 6 0.000000 0.000000 0.000000 0.000000 0.000000 0.032642
#
#
# Mechanical properties :
#
#
# Convention : Reuss Voigt Hill
#
# Bulk Modulus (GPa) = 36.21261 38.79999 37.50630
# Shear Modulus (GPa) = -11.66676 22.67182 5.50253
#
# Velocity S-wave (km/s) = -2.42822 3.38498 1.66761
# Velocity P-wave (km/s) = 3.23106 5.90648 4.76058
#
# Compressibility (1/GPa) = 0.02761469
#
# Stress axis : x y z
#
# Youngs Moduli (GPa) = 74.95794 44.31189 63.56334
#
# Poissons Ratio (x) = 0.16602 0.24721
# Poissons Ratio (y) = 0.28084 0.27822
# Poissons Ratio (z) = 0.29153 0.19395
#
# Static dielectric constant tensor:
#      x y z
#    x 3.687250 0.000000 0.000000 
#    y 0.000000 3.877550 0.000000 
#    z 0.000000 0.000000 3.559140 
# 
# 
# High freq. dielectric constant tensor:
#      x y z
#    x 1.780540 0.000000 0.000000 
#    y 0.000000 1.775800 0.000000 
#    z 0.000000 0.000000 1.768210 
# 
# From -- ./inp_files/20442.got.cif
#   From: 2010.03.12/outbox.cif.g09.slc.cpg/sg53_11_cif.got.tgz:20442.got - 2010.04.16 14:36:59.
