data_PCOD8221776
_publ_section_title
;
Structure prediction by ZEFSAII (Michael W. Deem and Ramdas Pophale) SiO2 
 PCOD8221776
Probable space group: P M N A
;
_chemical_formula_sum "Si O2"
_cell_formula_units_Z 32
_cell_length_a 18.108387
_cell_length_b 7.181404
_cell_length_c 12.027816
_cell_angle_alpha 90.000000
_cell_angle_beta 90.000000
_cell_angle_gamma 90.000000
_cell_volume 1564.141008
_symmetry_space_group_name_H-M "P M N A"
_symmetry_group_IT_number 53
_symmetry_cell_setting 'orthorhombic'
loop_
_space_group_symop_operation_xyz
x,y,z
1/2-x,-y,1/2+z
x,-y,-z
1/2-x,y,1/2-z
-x,-y,-z
1/2+x,y,1/2-z
-x,y,z
1/2+x,-y,1/2+z
loop_
_atom_site_type_symbol
_atom_site_label
_atom_site_fract_x
_atom_site_fract_y
_atom_site_fract_z
Si Si1 0.418674 0.215134 0.532266
Si Si2 0.086152 0.252353 0.209161
Si Si3 0.086440 0.572099 0.380371
Si Si4 0.837101 0.134500 0.755993
O O1 0.500000 0.282778 0.572711
O O2 0.395458 0.320344 0.417743
O O3 0.361628 0.245840 0.632424
O O4 0.422272 0.000000 0.500000
O O5 0.107961 0.417478 0.290399
O O6 0.000000 0.197575 0.217976
O O7 0.133408 0.074738 0.244986
O O8 0.112775 0.500000 0.500000
O O9 0.130345 0.760232 0.351508
O O10 0.000000 0.618255 0.380435
O O11 0.750000 0.131842 0.750000
#
# Coordination Sequence:
#
# PCOD8221776 Si02
#       4
#     8   8   8   8
#     4   8  15  33  60  85 108 141 195 246 282 335
#     4   9  19  39  65  87 111 152 201 249 290 335
#     4  10  22  41  61  85 117 158 208 243 276 346
#     4  11  22  37  55  89 122 157 187 241 307 353
#
# _framework density 20.458514999999998
#
# number of rings (size 3 to 8) (size 9 to 14) (size 15 to 20)
#    0.000    2.500    0.000    3.750    0.000    3.000 
#   18.000    7.500    0.000    0.000    0.000    0.000 
#    0.000    0.000    0.000    0.000    0.000    0.000 
#
# Total GULP energy -396784.528702 kJ/mol
# GULP energy per Si atom -12399.516522 kJ/mol
# Density = 2.041195 g / cm^3
# Si number density = 20.458515 Si / 1000 Ang^3
#
#
#
# Elastic Constant Matrix: (Units=GPa)
#
#
# Indices 1 2 3 4 5 6 
#
# 1 110.1941 35.3020 41.1185 0.0000 0.0000 0.0000
# 2 35.3020 29.8627 13.1856 0.0000 0.0000 0.0000
# 3 41.1185 13.1856 98.0177 0.0000 0.0000 0.0000
# 4 0.0000 0.0000 0.0000 33.4059 0.0000 0.0000
# 5 0.0000 0.0000 0.0000 0.0000 7.1231 0.0000
# 6 0.0000 0.0000 0.0000 0.0000 0.0000 7.7487
#
#
#
# Elastic Compliance Matrix: (Units=1/GPa)
#
#
# Indices 1 2 3 4 5 6 
#
# 1 0.016289 -0.017264 -0.004511 0.000000 0.000000 0.000000
# 2 -0.017264 0.053899 -0.000008 0.000000 0.000000 0.000000
# 3 -0.004511 -0.000008 0.012096 0.000000 0.000000 0.000000
# 4 0.000000 0.000000 0.000000 0.029935 0.000000 0.000000
# 5 0.000000 0.000000 0.000000 0.000000 0.140389 0.000000
# 6 0.000000 0.000000 0.000000 0.000000 0.000000 0.129055
#
#
# Mechanical properties :
#
#
# Convention : Reuss Voigt Hill
#
# Bulk Modulus (GPa) = 25.82845 46.36518 36.09681
# Shear Modulus (GPa) = 11.41204 19.55341 15.48273
#
# Velocity S-wave (km/s) = 2.36437 3.09489 2.75396
# Velocity P-wave (km/s) = 4.48396 5.95679 5.27206
#
# Compressibility (1/GPa) = 0.03871700
#
# Stress axis : x y z
#
# Youngs Moduli (GPa) = 61.39186 18.55331 82.67450
#
# Poissons Ratio (x) = 0.32030 0.37293
# Poissons Ratio (y) = 1.05987 0.00069
# Poissons Ratio (z) = 0.27693 0.00015
#
# Static dielectric constant tensor:
#      x y z
#    x 3.403550 0.000000 0.000000 
#    y 0.000000 3.585380 0.000000 
#    z 0.000000 0.000000 4.186530 
# 
# 
# High freq. dielectric constant tensor:
#      x y z
#    x 1.770810 0.000000 0.000000 
#    y 0.000000 1.797560 0.000000 
#    z 0.000000 0.000000 1.810560 
# 
# From -- ./inp_files/15389.got.cif
#   From: 2010.03.12/outbox.cif.g09.slc.cpg/sg53_8_cif.got.tgz:15389.got - 2010.04.16 14:36:59.
