data_PCOD8221058
_publ_section_title
;
Structure prediction by ZEFSAII (Michael W. Deem and Ramdas Pophale) SiO2 
 PCOD8221058
Probable space group: P M N A
;
_chemical_formula_sum "Si O2"
_cell_formula_units_Z 48
_cell_length_a 18.113047
_cell_length_b 12.970948
_cell_length_c 11.433012
_cell_angle_alpha 90.000000
_cell_angle_beta 90.000000
_cell_angle_gamma 90.000000
_cell_volume 2686.110606
_symmetry_space_group_name_H-M "P M N A"
_symmetry_group_IT_number 53
_symmetry_cell_setting 'orthorhombic'
loop_
_space_group_symop_operation_xyz
x,y,z
1/2-x,-y,1/2+z
x,-y,-z
1/2-x,y,1/2-z
-x,-y,-z
1/2+x,y,1/2-z
-x,y,z
1/2+x,-y,1/2+z
loop_
_atom_site_type_symbol
_atom_site_label
_atom_site_fract_x
_atom_site_fract_y
_atom_site_fract_z
Si Si1 0.713869 0.115613 0.971091
Si Si2 0.914891 0.897051 0.856053
Si Si3 0.414245 0.384462 0.021194
Si Si4 0.416731 0.792381 0.154902
Si Si5 0.369091 0.874205 0.385393
Si Si6 0.177361 0.249549 0.310791
O O1 0.638167 0.122799 0.899016
O O2 0.783001 0.156956 0.895759
O O3 0.708686 0.173442 0.092472
O O4 0.733878 0.000000 0.000000
O O5 0.873720 0.813076 0.778101
O O6 0.000000 0.901692 0.817339
O O7 0.878734 0.009335 0.836928
O O8 0.910114 0.862607 0.991101
O O9 0.500000 0.382895 0.055207
O O10 0.369855 0.340606 0.131565
O O11 0.386027 0.500000 0.000000
O O12 0.399104 0.318828 0.902711
O O13 0.500000 0.825592 0.123452
O O14 0.405131 0.792355 0.294793
O O15 0.250000 0.298054 0.250000
#
# Coordination Sequence:
#
# PCOD8221058 Si02
#       6
#     8   8   8   8   8   8
#     4  11  20  33  52  75 111 150 180 212 258 306
#     4  11  21  33  53  78 111 151 182 211 251 307
#     4   9  20  40  62  80  99 132 177 228 280 321
#     4  10  21  34  54  79 104 135 179 226 265 313
#     4  11  19  34  49  79 113 149 180 208 250 311
#     4  11  20  35  54  80 110 138 177 221 265 315
#
# _framework density 17.869702
#
# number of rings (size 3 to 8) (size 9 to 14) (size 15 to 20)
#    0.000    1.500    3.333    4.000    0.000    1.000 
#    0.000    3.333    0.000    0.000    0.000    4.667 
#    0.000    0.000    0.000    0.000    0.000    0.000 
#
# Total GULP energy -595200.798811 kJ/mol
# GULP energy per Si atom -12400.016642 kJ/mol
# Density = 1.782903 g / cm^3
# Si number density = 17.869702 Si / 1000 Ang^3
#
#
#
# Elastic Constant Matrix: (Units=GPa)
#
#
# Indices 1 2 3 4 5 6 
#
# 1 118.3083 35.8567 43.6086 0.0000 0.0000 0.0000
# 2 35.8567 84.1569 51.9183 0.0000 0.0000 0.0000
# 3 43.6086 51.9183 106.4768 0.0000 0.0000 0.0000
# 4 0.0000 0.0000 0.0000 21.7353 0.0000 0.0000
# 5 0.0000 0.0000 0.0000 0.0000 32.4611 0.0000
# 6 0.0000 0.0000 0.0000 0.0000 0.0000 13.3855
#
#
#
# Elastic Compliance Matrix: (Units=1/GPa)
#
#
# Indices 1 2 3 4 5 6 
#
# 1 0.010328 -0.002561 -0.002981 0.000000 0.000000 0.000000
# 2 -0.002561 0.017630 -0.007547 0.000000 0.000000 0.000000
# 3 -0.002981 -0.007547 0.014293 0.000000 0.000000 0.000000
# 4 0.000000 0.000000 0.000000 0.046008 0.000000 0.000000
# 5 0.000000 0.000000 0.000000 0.000000 0.030806 0.000000
# 6 0.000000 0.000000 0.000000 0.000000 0.000000 0.074708
#
#
# Mechanical properties :
#
#
# Convention : Reuss Voigt Hill
#
# Bulk Modulus (GPa) = 62.22350 63.52326 62.87338
# Shear Modulus (GPa) = 22.19184 25.35362 23.77273
#
# Velocity S-wave (km/s) = 3.52784 3.77079 3.65134
# Velocity P-wave (km/s) = 7.17569 7.38808 7.28265
#
# Compressibility (1/GPa) = 0.01607110
#
# Stress axis : x y z
#
# Youngs Moduli (GPa) = 96.82880 56.72137 69.96583
#
# Poissons Ratio (x) = 0.14528 0.20856
# Poissons Ratio (y) = 0.24801 0.52806
# Poissons Ratio (z) = 0.28863 0.42810
#
# Static dielectric constant tensor:
#      x y z
#    x 3.511900 0.000000 0.000000 
#    y 0.000000 3.061990 0.000000 
#    z 0.000000 0.000000 3.486310 
# 
# 
# High freq. dielectric constant tensor:
#      x y z
#    x 1.713150 0.000000 0.000000 
#    y 0.000000 1.648530 0.000000 
#    z 0.000000 0.000000 1.700270 
# 
# From -- ./inp_files/16898.got.cif
#   From: 2010.03.12/outbox.cif.g09.slc.cpg/sg53_9_cif.got.tgz:16898.got - 2010.04.16 14:36:59.
