data_PCOD8221709
_publ_section_title
;
Structure prediction by ZEFSAII (Michael W. Deem and Ramdas Pophale) SiO2 
 PCOD8221709
Probable space group: P M N A
;
_chemical_formula_sum "Si O2"
_cell_formula_units_Z 48
_cell_length_a 8.525736
_cell_length_b 30.296648
_cell_length_c 9.131600
_cell_angle_alpha 90.000000
_cell_angle_beta 90.000000
_cell_angle_gamma 90.000000
_cell_volume 2358.703444
_symmetry_space_group_name_H-M "P M N A"
_symmetry_group_IT_number 53
_symmetry_cell_setting 'orthorhombic'
loop_
_space_group_symop_operation_xyz
x,y,z
1/2-x,-y,1/2+z
x,-y,-z
1/2-x,y,1/2-z
-x,-y,-z
1/2+x,y,1/2-z
-x,y,z
1/2+x,-y,1/2+z
loop_
_atom_site_type_symbol
_atom_site_label
_atom_site_fract_x
_atom_site_fract_y
_atom_site_fract_z
Si Si1 0.814885 0.285074 0.591812
Si Si2 0.684235 0.380537 0.596169
Si Si3 0.185896 0.872640 0.410970
Si Si4 0.814503 0.042079 0.411928
Si Si5 0.315019 0.207801 0.410014
Si Si6 0.682084 0.543560 0.907397
O O1 0.750000 0.270364 0.750000
O O2 0.768792 0.335064 0.554822
O O3 0.743101 0.255377 0.463751
O O4 0.000000 0.279654 0.593011
O O5 0.750000 0.398836 0.750000
O O6 0.500000 0.371944 0.609804
O O7 0.720051 0.415922 0.472018
O O8 0.250000 0.880692 0.250000
O O9 0.243654 0.913542 0.509088
O O10 0.256521 0.828135 0.475234
O O11 0.000000 0.868553 0.407201
O O12 0.750000 0.041151 0.250000
O O13 0.000000 0.040295 0.405792
O O14 0.747669 0.000000 0.500000
O O15 0.250000 0.196962 0.250000
O O16 0.500000 0.207277 0.402513
O O17 0.750000 0.532766 0.750000
O O18 0.500000 0.556570 0.901275
O O19 0.711430 0.500000 0.000000
#
# Coordination Sequence:
#
# PCOD8221709 Si02
#       6
#     8   8   8   8   8   8
#     4  11  22  40  64  91 122 158 200 244 295 353
#     4  11  22  39  63  91 123 159 200 246 298 354
#     4  11  23  40  62  89 120 157 201 247 299 356
#     4  10  22  39  60  88 121 157 199 246 297 354
#     4  12  25  42  62  88 121 157 199 247 300 355
#     4  11  24  41  62  89 121 158 201 248 299 355
#
# _framework density 20.350162999999998
#
# number of rings (size 3 to 8) (size 9 to 14) (size 15 to 20)
#    0.000    1.000    0.000    8.500    0.000    6.333 
#    0.000    3.333    0.000    0.000    0.000    0.000 
#    0.000    0.000    0.000    0.000    0.000    0.000 
#
# Total GULP energy -595554.636120 kJ/mol
# GULP energy per Si atom -12407.388252 kJ/mol
# Density = 2.030385 g / cm^3
# Si number density = 20.350163 Si / 1000 Ang^3
#
#
#
# Elastic Constant Matrix: (Units=GPa)
#
#
# Indices 1 2 3 4 5 6 
#
# 1 106.8294 30.2677 45.8399 0.0000 0.0000 0.0000
# 2 30.2677 97.7585 57.5060 0.0000 0.0000 0.0000
# 3 45.8399 57.5060 146.3635 0.0000 0.0000 0.0000
# 4 0.0000 0.0000 0.0000 51.4648 0.0000 0.0000
# 5 0.0000 0.0000 0.0000 0.0000 39.1102 0.0000
# 6 0.0000 0.0000 0.0000 0.0000 0.0000 15.4926
#
#
#
# Elastic Compliance Matrix: (Units=1/GPa)
#
#
# Indices 1 2 3 4 5 6 
#
# 1 0.011053 -0.001802 -0.002754 0.000000 0.000000 0.000000
# 2 -0.001802 0.013598 -0.004778 0.000000 0.000000 0.000000
# 3 -0.002754 -0.004778 0.009572 0.000000 0.000000 0.000000
# 4 0.000000 0.000000 0.000000 0.019431 0.000000 0.000000
# 5 0.000000 0.000000 0.000000 0.000000 0.025569 0.000000
# 6 0.000000 0.000000 0.000000 0.000000 0.000000 0.064547
#
#
# Mechanical properties :
#
#
# Convention : Reuss Voigt Hill
#
# Bulk Modulus (GPa) = 64.28881 68.68652 66.48767
# Shear Modulus (GPa) = 29.82890 35.70268 32.76579
#
# Velocity S-wave (km/s) = 3.83271 4.19312 4.01696
# Velocity P-wave (km/s) = 7.15864 7.56760 7.36596
#
# Compressibility (1/GPa) = 0.01555481
#
# Stress axis : x y z
#
# Youngs Moduli (GPa) = 90.47381 73.53970 104.47116
#
# Poissons Ratio (x) = 0.13255 0.28766
# Poissons Ratio (y) = 0.16307 0.49918
# Poissons Ratio (z) = 0.24912 0.35139
#
# Static dielectric constant tensor:
#      x y z
#    x 3.812190 0.000000 0.000000 
#    y 0.000000 3.867990 0.000000 
#    z 0.000000 0.000000 3.825220 
# 
# 
# High freq. dielectric constant tensor:
#      x y z
#    x 1.809640 0.000000 0.000000 
#    y 0.000000 1.810110 0.000000 
#    z 0.000000 0.000000 1.804640 
# 
# From -- ./inp_files/6713.got.cif
#   From: 2010.03.12/outbox.cif.g09.slc.cpg/sg53_4_cif.got.tgz:6713.got - 2010.04.16 14:36:59.
