data_PCOD8221388
_publ_section_title
;
Structure prediction by ZEFSAII (Michael W. Deem and Ramdas Pophale) SiO2 
 PCOD8221388
Probable space group: P M N A
;
_chemical_formula_sum "Si O2"
_cell_formula_units_Z 64
_cell_length_a 17.519313
_cell_length_b 20.176581
_cell_length_c 9.293183
_cell_angle_alpha 90.000000
_cell_angle_beta 90.000000
_cell_angle_gamma 90.000000
_cell_volume 3284.952820
_symmetry_space_group_name_H-M "P M N A"
_symmetry_group_IT_number 53
_symmetry_cell_setting 'orthorhombic'
loop_
_space_group_symop_operation_xyz
x,y,z
1/2-x,-y,1/2+z
x,-y,-z
1/2-x,y,1/2-z
-x,-y,-z
1/2+x,y,1/2-z
-x,y,z
1/2+x,-y,1/2+z
loop_
_atom_site_type_symbol
_atom_site_label
_atom_site_fract_x
_atom_site_fract_y
_atom_site_fract_z
Si Si1 0.909668 0.941572 0.695095
Si Si2 0.163532 0.810607 0.206577
Si Si3 0.172441 0.696753 0.828147
Si Si4 0.091481 0.172237 0.093540
Si Si5 0.589301 0.081550 0.880434
Si Si6 0.677175 0.663356 0.342243
Si Si7 0.409676 0.414199 0.143092
Si Si8 0.589444 0.438027 0.822877
O O1 0.879163 0.890574 0.814165
O O2 0.875370 0.921439 0.540019
O O3 0.000000 0.934775 0.697597
O O4 0.883961 0.018678 0.719236
O O5 0.250000 0.827522 0.250000
O O6 0.109410 0.847748 0.316966
O O7 0.146316 0.732819 0.220446
O O8 0.141340 0.836141 0.049431
O O9 0.250000 0.719214 0.750000
O O10 0.114486 0.758817 0.830226
O O11 0.133606 0.638795 0.738795
O O12 0.192626 0.670239 0.988024
O O13 0.000000 0.172220 0.064230
O O14 0.500000 0.075193 0.897348
O O15 0.750000 0.641227 0.250000
O O16 0.615699 0.606208 0.312101
O O17 0.500000 0.405505 0.164936
O O18 0.380213 0.486831 0.192410
O O19 0.386197 0.405278 0.975408
O O20 0.500000 0.442858 0.818731
#
# Coordination Sequence:
#
# PCOD8221388 Si02
#       8
#     8   8   8   8   8   8   8   8
#     4   8  17  33  55  82 108 139 184 230 273 328
#     4  10  22  37  52  78 113 146 184 233 286 340
#     4  11  23  37  56  82 113 149 187 233 286 339
#     4  10  21  38  59  84 113 149 193 239 284 338
#     4   9  17  34  57  79 107 144 185 228 274 333
#     4  10  22  38  54  75 108 145 184 226 274 336
#     4   9  19  37  58  83 112 143 181 227 279 338
#     4   9  19  36  59  83 109 141 182 230 276 328
#
# _framework density 19.482775
#
# number of rings (size 3 to 8) (size 9 to 14) (size 15 to 20)
#    0.000    2.500    0.000    3.000    0.000    8.500 
#    0.000    8.750    0.000    0.000    0.000    0.000 
#    0.000    0.000    0.000    0.000    0.000    0.000 
#
# Total GULP energy -793186.851471 kJ/mol
# GULP energy per Si atom -12393.544554 kJ/mol
# Density = 1.943843 g / cm^3
# Si number density = 19.482775 Si / 1000 Ang^3
#
#
#
# Elastic Constant Matrix: (Units=GPa)
#
#
# Indices 1 2 3 4 5 6 
#
# 1 47.4788 38.1991 40.8486 0.0000 0.0000 0.0000
# 2 38.1991 70.1940 33.0373 0.0000 0.0000 0.0000
# 3 40.8486 33.0373 76.3429 0.0000 0.0000 0.0000
# 4 0.0000 0.0000 0.0000 20.9297 0.0000 0.0000
# 5 0.0000 0.0000 0.0000 0.0000 33.0159 0.0000
# 6 0.0000 0.0000 0.0000 0.0000 0.0000 14.5419
#
#
#
# Elastic Compliance Matrix: (Units=1/GPa)
#
#
# Indices 1 2 3 4 5 6 
#
# 1 0.055286 -0.020298 -0.020798 0.000000 0.000000 0.000000
# 2 -0.020298 0.025342 -0.000106 0.000000 0.000000 0.000000
# 3 -0.020798 -0.000106 0.024273 0.000000 0.000000 0.000000
# 4 0.000000 0.000000 0.000000 0.047779 0.000000 0.000000
# 5 0.000000 0.000000 0.000000 0.000000 0.030288 0.000000
# 6 0.000000 0.000000 0.000000 0.000000 0.000000 0.068767
#
#
# Mechanical properties :
#
#
# Convention : Reuss Voigt Hill
#
# Bulk Modulus (GPa) = 44.44905 46.46508 45.45706
# Shear Modulus (GPa) = 14.63534 19.15955 16.89745
#
# Velocity S-wave (km/s) = 2.74377 3.13934 2.94819
# Velocity P-wave (km/s) = 5.73600 6.08619 5.91369
#
# Compressibility (1/GPa) = 0.02249767
#
# Stress axis : x y z
#
# Youngs Moduli (GPa) = 18.08764 39.46011 41.19791
#
# Poissons Ratio (x) = 0.80095 0.85684
# Poissons Ratio (y) = 0.36714 0.00437
# Poissons Ratio (z) = 0.37619 0.00419
#
# Static dielectric constant tensor:
#      x y z
#    x 3.345190 0.000000 0.000000 
#    y 0.000000 3.719650 0.000000 
#    z 0.000000 0.000000 1.932520 
# 
# 
# High freq. dielectric constant tensor:
#      x y z
#    x 1.737790 0.000000 0.000000 
#    y 0.000000 1.770280 0.000000 
#    z 0.000000 0.000000 1.759180 
# 
# From -- ./inp_files/8948.got.cif
#   From: 2010.03.12/outbox.cif.g09.slc.cpg/sg53_5_cif.got.tgz:8948.got - 2010.04.16 14:36:59.
