data_PCOD8221573
_publ_section_title
;
Structure prediction by ZEFSAII (Michael W. Deem and Ramdas Pophale) SiO2 
 PCOD8221573
Probable space group: P M N A
;
_chemical_formula_sum "Si O2"
_cell_formula_units_Z 40
_cell_length_a 23.573142
_cell_length_b 4.996418
_cell_length_c 15.996853
_cell_angle_alpha 90.000000
_cell_angle_beta 90.000000
_cell_angle_gamma 90.000000
_cell_volume 1884.129678
_symmetry_space_group_name_H-M "P M N A"
_symmetry_group_IT_number 53
_symmetry_cell_setting 'orthorhombic'
loop_
_space_group_symop_operation_xyz
x,y,z
1/2-x,-y,1/2+z
x,-y,-z
1/2-x,y,1/2-z
-x,-y,-z
1/2+x,y,1/2-z
-x,y,z
1/2+x,-y,1/2+z
loop_
_atom_site_type_symbol
_atom_site_label
_atom_site_fract_x
_atom_site_fract_y
_atom_site_fract_z
Si Si1 0.846150 0.245529 0.057580
Si Si2 0.936703 0.185253 0.195679
Si Si3 0.436458 0.304160 0.806074
Si Si4 0.734165 0.100930 0.155372
Si Si5 0.170365 0.589347 0.404798
O O1 0.897057 0.286830 0.121920
O O2 0.788435 0.205354 0.106827
O O3 0.838669 0.500000 0.000000
O O4 0.862768 0.000000 0.000000
O O5 0.937492 0.403412 0.267823
O O6 0.000000 0.143042 0.159175
O O7 0.914606 0.908505 0.236821
O O8 0.500000 0.223925 0.837337
O O9 0.392954 0.308988 0.883371
O O10 0.750000 0.029309 0.250000
O O11 0.687216 0.336927 0.153536
O O12 0.713316 0.833405 0.109637
O O13 0.173140 0.500000 0.500000
#
# Coordination Sequence:
#
# PCOD8221573 Si02
#       5
#     8   8   8   8   8
#     4  12  24  39  61  90 124 156 198 252 305 357
#     4  10  22  41  63  88 121 161 204 246 294 359
#     4  10  21  40  64  89 120 160 205 247 295 361
#     4  12  25  42  63  87 121 164 207 247 301 370
#     4  12  24  40  63  92 125 157 199 256 312 359
#
# _framework density 21.229962
#
# number of rings (size 3 to 8) (size 9 to 14) (size 15 to 20)
#    0.000    0.800    0.000    9.000    0.000    1.200 
#    0.000    0.000    0.000    6.000    0.000    0.000 
#    0.000    0.000    0.000    0.000    0.000    0.000 
#
# Total GULP energy -496237.649193 kJ/mol
# GULP energy per Si atom -12405.941230 kJ/mol
# Density = 2.118164 g / cm^3
# Si number density = 21.229962 Si / 1000 Ang^3
#
#
#
# Elastic Constant Matrix: (Units=GPa)
#
#
# Indices 1 2 3 4 5 6 
#
# 1 124.3068 47.6673 83.7565 0.0000 0.0000 0.0000
# 2 47.6673 126.0001 51.7176 0.0000 0.0000 0.0000
# 3 83.7565 51.7176 128.6546 0.0000 0.0000 0.0000
# 4 0.0000 0.0000 0.0000 53.2456 0.0000 0.0000
# 5 0.0000 0.0000 0.0000 0.0000 17.5362 0.0000
# 6 0.0000 0.0000 0.0000 0.0000 0.0000 41.7498
#
#
#
# Elastic Compliance Matrix: (Units=1/GPa)
#
#
# Indices 1 2 3 4 5 6 
#
# 1 0.014724 -0.001959 -0.008798 0.000000 0.000000 0.000000
# 2 -0.001959 0.009765 -0.002650 0.000000 0.000000 0.000000
# 3 -0.008798 -0.002650 0.014566 0.000000 0.000000 0.000000
# 4 0.000000 0.000000 0.000000 0.018781 0.000000 0.000000
# 5 0.000000 0.000000 0.000000 0.000000 0.057025 0.000000
# 6 0.000000 0.000000 0.000000 0.000000 0.000000 0.023952
#
#
# Mechanical properties :
#
#
# Convention : Reuss Voigt Hill
#
# Bulk Modulus (GPa) = 81.69561 82.80492 82.25027
# Shear Modulus (GPa) = 29.46244 35.56098 32.51171
#
# Velocity S-wave (km/s) = 3.72933 4.09716 3.91756
# Velocity P-wave (km/s) = 7.55703 7.84033 7.69998
#
# Compressibility (1/GPa) = 0.01224056
#
# Stress axis : x y z
#
# Youngs Moduli (GPa) = 67.91727 102.40215 68.65417
#
# Poissons Ratio (x) = 0.20061 0.60402
# Poissons Ratio (y) = 0.13305 0.18195
# Poissons Ratio (z) = 0.59753 0.27139
#
# Static dielectric constant tensor:
#      x y z
#    x 1.581990 0.000000 0.000000 
#    y 0.000000 4.023420 0.000000 
#    z 0.000000 0.000000 3.688530 
# 
# 
# High freq. dielectric constant tensor:
#      x y z
#    x 1.847240 0.000000 0.000000 
#    y 0.000000 1.853510 0.000000 
#    z 0.000000 0.000000 1.820450 
# 
# From -- ./inp_files/24557.got.cif
#   From: 2010.03.12/outbox.cif.g09.slc.cpg/sg53_13_cif.got.tgz:24557.got - 2010.04.16 14:36:59.
