data_PCOD8221112
_publ_section_title
;
Structure prediction by ZEFSAII (Michael W. Deem and Ramdas Pophale) SiO2 
 PCOD8221112
Probable space group: P M N A
;
_chemical_formula_sum "Si O2"
_cell_formula_units_Z 32
_cell_length_a 29.436546
_cell_length_b 10.358664
_cell_length_c 5.221991
_cell_angle_alpha 90.000000
_cell_angle_beta 90.000000
_cell_angle_gamma 90.000000
_cell_volume 1592.306673
_symmetry_space_group_name_H-M "P M N A"
_symmetry_group_IT_number 53
_symmetry_cell_setting 'orthorhombic'
loop_
_space_group_symop_operation_xyz
x,y,z
1/2-x,-y,1/2+z
x,-y,-z
1/2-x,y,1/2-z
-x,-y,-z
1/2+x,y,1/2-z
-x,y,z
1/2+x,-y,1/2+z
loop_
_atom_site_type_symbol
_atom_site_label
_atom_site_fract_x
_atom_site_fract_y
_atom_site_fract_z
Si Si1 0.626361 0.246697 0.949768
Si Si2 0.273652 0.151158 0.999999
Si Si3 0.592762 0.643740 0.537685
Si Si4 0.448869 0.879729 0.328328
O O1 0.630176 0.330381 0.687472
O O2 0.586032 0.139120 0.910165
O O3 0.672872 0.174654 0.005550
O O4 0.615081 0.341344 0.184302
O O5 0.250000 0.213758 0.250000
O O6 0.250000 0.213772 0.750000
O O7 0.264134 0.000000 0.000000
O O8 0.572907 0.500000 0.500000
O O9 0.552617 0.749311 0.502830
O O10 0.500000 0.900862 0.224683
O O11 0.432576 0.000000 0.500000
#
# Coordination Sequence:
#
# PCOD8221112 Si02
#       4
#     8   8   8   8
#     4  10  22  37  64  85 124 160 199 252 313 351
#     4  10  21  35  59  92 122 153 199 251 306 371
#     4  10  22  39  61  87 119 166 209 248 297 365
#     4   9  22  39  61  94 126 159 203 252 309 371
#
# _framework density 20.096630999999999
#
# number of rings (size 3 to 8) (size 9 to 14) (size 15 to 20)
#    1.500    0.750    0.000    2.250    3.500    2.500 
#    0.000    3.750    0.000   15.000    0.000    0.000 
#    0.000    0.000    0.000    0.000    0.000    0.000 
#
# Total GULP energy -396473.585566 kJ/mol
# GULP energy per Si atom -12389.799549 kJ/mol
# Density = 2.005089 g / cm^3
# Si number density = 20.096631 Si / 1000 Ang^3
#
#
#
# Elastic Constant Matrix: (Units=GPa)
#
#
# Indices 1 2 3 4 5 6 
#
# 1 123.7981 23.1003 52.3371 0.0000 0.0000 0.0000
# 2 23.1003 91.8126 42.3580 0.0000 0.0000 0.0000
# 3 52.3371 42.3580 159.0590 0.0000 0.0000 0.0000
# 4 0.0000 0.0000 0.0000 21.0585 0.0000 0.0000
# 5 0.0000 0.0000 0.0000 0.0000 29.4888 0.0000
# 6 0.0000 0.0000 0.0000 0.0000 0.0000 3.9149
#
#
#
# Elastic Compliance Matrix: (Units=1/GPa)
#
#
# Indices 1 2 3 4 5 6 
#
# 1 0.009476 -0.001078 -0.002831 0.000000 0.000000 0.000000
# 2 -0.001078 0.012540 -0.002985 0.000000 0.000000 0.000000
# 3 -0.002831 -0.002985 0.008013 0.000000 0.000000 0.000000
# 4 0.000000 0.000000 0.000000 0.047487 0.000000 0.000000
# 5 0.000000 0.000000 0.000000 0.000000 0.033911 0.000000
# 6 0.000000 0.000000 0.000000 0.000000 0.000000 0.255432
#
#
# Mechanical properties :
#
#
# Convention : Reuss Voigt Hill
#
# Bulk Modulus (GPa) = 61.56990 67.80669 64.68829
# Shear Modulus (GPa) = 12.95137 28.01740 20.48439
#
# Velocity S-wave (km/s) = 2.54137 3.73786 3.19610
# Velocity P-wave (km/s) = 6.27015 7.24171 6.77337
#
# Compressibility (1/GPa) = 0.01624170
#
# Stress axis : x y z
#
# Youngs Moduli (GPa) = 105.53448 79.74474 124.79328
#
# Poissons Ratio (x) = 0.08597 0.35326
# Poissons Ratio (y) = 0.11378 0.37247
# Poissons Ratio (z) = 0.29874 0.23801
#
# Static dielectric constant tensor:
#      x y z
#    x 3.290870 0.000000 0.000000 
#    y 0.000000 3.365410 0.000000 
#    z 0.000000 0.000000 3.849050 
# 
# 
# High freq. dielectric constant tensor:
#      x y z
#    x 1.761050 0.000000 0.000000 
#    y 0.000000 1.762190 0.000000 
#    z 0.000000 0.000000 1.797440 
# 
# From -- ./inp_files/2615.got.cif
#   From: 2010.03.12/outbox.cif.g09.slc.cpg/sg53_2_cif.got.tgz:2615.got - 2010.04.16 14:36:59.
