data_PCOD8221593
_publ_section_title
;
Structure prediction by ZEFSAII (Michael W. Deem and Ramdas Pophale) SiO2 
 PCOD8221593
Probable space group: P M N A
;
_chemical_formula_sum "Si O2"
_cell_formula_units_Z 48
_cell_length_a 27.627287
_cell_length_b 9.156338
_cell_length_c 8.541246
_cell_angle_alpha 90.000000
_cell_angle_beta 90.000000
_cell_angle_gamma 90.000000
_cell_volume 2160.634396
_symmetry_space_group_name_H-M "P M N A"
_symmetry_group_IT_number 53
_symmetry_cell_setting 'orthorhombic'
loop_
_space_group_symop_operation_xyz
x,y,z
1/2-x,-y,1/2+z
x,-y,-z
1/2-x,y,1/2-z
-x,-y,-z
1/2+x,y,1/2-z
-x,y,z
1/2+x,-y,1/2+z
loop_
_atom_site_type_symbol
_atom_site_label
_atom_site_fract_x
_atom_site_fract_y
_atom_site_fract_z
Si Si1 0.204306 0.648221 0.670947
Si Si2 0.374063 0.079577 0.721183
Si Si3 0.877412 0.500000 0.500000
Si Si4 0.718620 0.865297 0.097377
Si Si5 0.054747 0.321453 0.710950
Si Si6 0.085760 0.500000 0.000000
Si Si7 0.642052 0.215282 0.406781
O O1 0.250000 0.562401 0.750000
O O2 0.157276 0.548188 0.643333
O O3 0.219173 0.718487 0.505797
O O4 0.190552 0.769188 0.802210
O O5 0.337464 0.094834 0.865689
O O6 0.424903 0.162221 0.744676
O O7 0.344719 0.156404 0.578158
O O8 0.388768 0.911658 0.682502
O O9 0.911965 0.624964 0.432321
O O10 0.750000 0.834863 0.250000
O O11 0.741162 0.000000 0.000000
O O12 0.054172 0.429444 0.860871
O O13 0.000000 0.304882 0.650559
O O14 0.116501 0.627966 0.918346
#
# Coordination Sequence:
#
# PCOD8221593 Si02
#       7
#     8   8   4   8   8   4   8
#     4  12  25  42  64  94 136 180 228 277 336 409
#     4  10  22  40  66  98 132 176 220 285 336 405
#     4  12  25  45  66  99 135 184 226 286 350 408
#     4  12  24  38  64  96 134 177 228 273 336 413
#     4  11  23  44  70  98 132 179 230 286 349 412
#     4  10  21  41  70  97 129 170 223 280 345 408
#     4  10  21  40  67  94 136 176 220 276 346 398
#
# _framework density 22.215698
#
# number of rings (size 3 to 8) (size 9 to 14) (size 15 to 20)
#    0.000    1.000    5.000    2.000    2.333    1.333 
#    0.000    7.500    0.000    1.500    0.000    0.000 
#    0.000    0.000    0.000    0.000    0.000    0.000 
#
# Total GULP energy -594950.127067 kJ/mol
# GULP energy per Si atom -12394.794314 kJ/mol
# Density = 2.216513 g / cm^3
# Si number density = 22.215698 Si / 1000 Ang^3
#
#
#
# Elastic Constant Matrix: (Units=GPa)
#
#
# Indices 1 2 3 4 5 6 
#
# 1 136.6293 49.4174 58.8515 0.0000 0.0000 0.0000
# 2 49.4174 107.2874 28.5082 0.0000 0.0000 0.0000
# 3 58.8515 28.5082 96.2471 0.0000 0.0000 0.0000
# 4 0.0000 0.0000 0.0000 31.9139 0.0000 0.0000
# 5 0.0000 0.0000 0.0000 0.0000 29.8527 0.0000
# 6 0.0000 0.0000 0.0000 0.0000 0.0000 20.8664
#
#
#
# Elastic Compliance Matrix: (Units=1/GPa)
#
#
# Indices 1 2 3 4 5 6 
#
# 1 0.011075 -0.003584 -0.005710 0.000000 0.000000 0.000000
# 2 -0.003584 0.011277 -0.001149 0.000000 0.000000 0.000000
# 3 -0.005710 -0.001149 0.014222 0.000000 0.000000 0.000000
# 4 0.000000 0.000000 0.000000 0.031334 0.000000 0.000000
# 5 0.000000 0.000000 0.000000 0.000000 0.033498 0.000000
# 6 0.000000 0.000000 0.000000 0.000000 0.000000 0.047924
#
#
# Mechanical properties :
#
#
# Convention : Reuss Voigt Hill
#
# Bulk Modulus (GPa) = 63.74469 68.19087 65.96778
# Shear Modulus (GPa) = 28.49895 30.08570 29.29233
#
# Velocity S-wave (km/s) = 3.58555 3.68401 3.63511
# Velocity P-wave (km/s) = 6.77476 6.98981 6.88312
#
# Compressibility (1/GPa) = 0.01568758
#
# Stress axis : x y z
#
# Youngs Moduli (GPa) = 90.29320 88.67788 70.31414
#
# Poissons Ratio (x) = 0.31781 0.40152
# Poissons Ratio (y) = 0.32360 0.08077
# Poissons Ratio (z) = 0.51561 0.10187
#
# Static dielectric constant tensor:
#      x y z
#    x 3.634240 0.000000 0.000000 
#    y 0.000000 4.014530 0.000000 
#    z 0.000000 0.000000 4.254420 
# 
# 
# High freq. dielectric constant tensor:
#      x y z
#    x 1.845120 0.000000 0.000000 
#    y 0.000000 1.870970 0.000000 
#    z 0.000000 0.000000 1.891810 
# 
# From -- ./inp_files/13088.got.cif
#   From: 2010.03.12/outbox.cif.g09.slc.cpg/sg53_7_cif.got.tgz:13088.got - 2010.04.16 14:36:59.
