data_PCOD8221625
_publ_section_title
;
Structure prediction by ZEFSAII (Michael W. Deem and Ramdas Pophale) SiO2 
 PCOD8221625
Probable space group: P M N A
;
_chemical_formula_sum "Si O2"
_cell_formula_units_Z 20
_cell_length_a 10.242697
_cell_length_b 8.311131
_cell_length_c 9.785828
_cell_angle_alpha 90.000000
_cell_angle_beta 90.000000
_cell_angle_gamma 90.000000
_cell_volume 833.051847
_symmetry_space_group_name_H-M "P M N A"
_symmetry_group_IT_number 53
_symmetry_cell_setting 'orthorhombic'
loop_
_space_group_symop_operation_xyz
x,y,z
1/2-x,-y,1/2+z
x,-y,-z
1/2-x,y,1/2-z
-x,-y,-z
1/2+x,y,1/2-z
-x,y,z
1/2+x,-y,1/2+z
loop_
_atom_site_type_symbol
_atom_site_label
_atom_site_fract_x
_atom_site_fract_y
_atom_site_fract_z
Si Si1 0.000000 0.953300 0.343695
Si Si2 0.000000 0.572841 0.350021
Si Si3 0.750000 0.400198 0.250000
Si Si4 0.354510 0.113139 0.387022
O O1 0.000000 0.762755 0.337691
O O2 0.000000 0.000000 0.500000
O O3 0.128301 0.028122 0.264773
O O4 0.000000 0.500000 0.500000
O O5 0.126575 0.510836 0.272344
O O6 0.775848 0.280703 0.121390
O O7 0.500000 0.152818 0.444093
O O8 0.283790 0.000000 0.500000
#
# Coordination Sequence:
#
# PCOD8221625 Si02
#       4
#     4   4   4   8
#     4  10  21  44  72  99 142 189 240 287 354 438
#     4  12  28  46  67 111 144 191 240 307 365 426
#     4  12  24  46  72 104 152 184 240 312 364 418
#     4   9  21  44  71 100 137 188 243 283 359 435
#
# _framework density 24.008109000000001
#
# number of rings (size 3 to 8) (size 9 to 14) (size 15 to 20)
#    1.200    0.400    2.000    2.400    0.000    9.600 
#    0.000    4.000    0.000    0.000    0.000    0.000 
#    0.000    0.000    0.000    0.000    0.000    0.000 
#
# Total GULP energy -247925.276050 kJ/mol
# GULP energy per Si atom -12396.263802 kJ/mol
# Density = 2.395347 g / cm^3
# Si number density = 24.008109 Si / 1000 Ang^3
#
#
#
# Elastic Constant Matrix: (Units=GPa)
#
#
# Indices 1 2 3 4 5 6 
#
# 1 115.5750 69.9730 33.5347 0.0000 0.0000 0.0000
# 2 69.9730 198.8603 42.2269 0.0000 0.0000 0.0000
# 3 33.5347 42.2269 134.9024 0.0000 0.0000 0.0000
# 4 0.0000 0.0000 0.0000 40.9057 0.0000 0.0000
# 5 0.0000 0.0000 0.0000 0.0000 25.6020 0.0000
# 6 0.0000 0.0000 0.0000 0.0000 0.0000 37.9567
#
#
#
# Elastic Compliance Matrix: (Units=1/GPa)
#
#
# Indices 1 2 3 4 5 6 
#
# 1 0.011340 -0.003633 -0.001682 0.000000 0.000000 0.000000
# 2 -0.003633 0.006551 -0.001147 0.000000 0.000000 0.000000
# 3 -0.001682 -0.001147 0.008190 0.000000 0.000000 0.000000
# 4 0.000000 0.000000 0.000000 0.024446 0.000000 0.000000
# 5 0.000000 0.000000 0.000000 0.000000 0.039059 0.000000
# 6 0.000000 0.000000 0.000000 0.000000 0.000000 0.026346
#
#
# Mechanical properties :
#
#
# Convention : Reuss Voigt Hill
#
# Bulk Modulus (GPa) = 76.00941 82.31187 79.16064
# Shear Modulus (GPa) = 37.52571 41.13309 39.32940
#
# Velocity S-wave (km/s) = 3.95782 4.14369 4.05182
# Velocity P-wave (km/s) = 7.25358 7.56657 7.41173
#
# Compressibility (1/GPa) = 0.01315627
#
# Stress axis : x y z
#
# Youngs Moduli (GPa) = 88.18387 152.65632 122.10073
#
# Poissons Ratio (x) = 0.55461 0.20534
# Poissons Ratio (y) = 0.32038 0.14009
# Poissons Ratio (z) = 0.14830 0.17515
#
# Static dielectric constant tensor:
#      x y z
#    x 4.662630 0.000000 0.000000 
#    y 0.000000 4.276770 0.000000 
#    z 0.000000 0.000000 4.371330 
# 
# 
# High freq. dielectric constant tensor:
#      x y z
#    x 1.979340 0.000000 0.000000 
#    y 0.000000 1.950870 0.000000 
#    z 0.000000 0.000000 1.942380 
# 
# From -- ./inp_files/14396.got.cif
#   From: 2010.03.12/outbox.cif.g09.slc.cpg/sg53_8_cif.got.tgz:14396.got - 2010.04.16 14:36:59.
