data_PCOD8221896
_publ_section_title
;
Structure prediction by ZEFSAII (Michael W. Deem and Ramdas Pophale) SiO2 
 PCOD8221896
Probable space group: P M N A
;
_chemical_formula_sum "Si O2"
_cell_formula_units_Z 32
_cell_length_a 16.973347
_cell_length_b 11.932344
_cell_length_c 7.636635
_cell_angle_alpha 90.000000
_cell_angle_beta 90.000000
_cell_angle_gamma 90.000000
_cell_volume 1546.661549
_symmetry_space_group_name_H-M "P M N A"
_symmetry_group_IT_number 53
_symmetry_cell_setting 'orthorhombic'
loop_
_space_group_symop_operation_xyz
x,y,z
1/2-x,-y,1/2+z
x,-y,-z
1/2-x,y,1/2-z
-x,-y,-z
1/2+x,y,1/2-z
-x,y,z
1/2+x,-y,1/2+z
loop_
_atom_site_type_symbol
_atom_site_label
_atom_site_fract_x
_atom_site_fract_y
_atom_site_fract_z
Si Si1 0.907968 0.266069 0.332172
Si Si2 0.592102 0.124259 0.493401
Si Si3 0.160978 0.510832 0.794468
Si Si4 0.659989 0.737844 0.198937
O O1 0.896319 0.396412 0.285799
O O2 0.858166 0.225896 0.500538
O O3 0.000000 0.245116 0.368126
O O4 0.873528 0.192687 0.171651
O O5 0.500000 0.113358 0.464330
O O6 0.606689 0.189591 0.672729
O O7 0.630432 0.000000 0.500000
O O8 0.250000 0.546213 0.750000
O O9 0.137982 0.392905 0.708836
O O10 0.148609 0.500000 0.000000
O O11 0.750000 0.759210 0.250000
#
# Coordination Sequence:
#
# PCOD8221896 Si02
#       4
#     8   8   8   8
#     4  11  24  40  65  95 126 167 211 258 312 375
#     4  10  23  44  65  90 126 167 212 262 311 363
#     4  11  21  38  62  92 130 167 204 256 322 379
#     4  11  23  41  63  93 127 167 207 259 316 376
#
# _framework density 20.689722
#
# number of rings (size 3 to 8) (size 9 to 14) (size 15 to 20)
#    0.000    1.250    2.500    4.500    0.000    4.500 
#    4.500    3.750    0.000    0.000    0.000    0.000 
#    0.000    0.000    0.000    0.000    0.000    0.000 
#
# Total GULP energy -396934.040338 kJ/mol
# GULP energy per Si atom -12404.188761 kJ/mol
# Density = 2.064263 g / cm^3
# Si number density = 20.689722 Si / 1000 Ang^3
#
#
#
# Elastic Constant Matrix: (Units=GPa)
#
#
# Indices 1 2 3 4 5 6 
#
# 1 41.7954 27.1361 27.0927 0.0000 0.0000 0.0000
# 2 27.1361 117.1771 47.2362 0.0000 0.0000 0.0000
# 3 27.0927 47.2362 178.0658 0.0000 0.0000 0.0000
# 4 0.0000 0.0000 0.0000 11.1197 0.0000 0.0000
# 5 0.0000 0.0000 0.0000 0.0000 33.2805 0.0000
# 6 0.0000 0.0000 0.0000 0.0000 0.0000 6.8323
#
#
#
# Elastic Compliance Matrix: (Units=1/GPa)
#
#
# Indices 1 2 3 4 5 6 
#
# 1 0.029524 -0.005628 -0.002999 0.000000 0.000000 0.000000
# 2 -0.005628 0.010629 -0.001963 0.000000 0.000000 0.000000
# 3 -0.002999 -0.001963 0.006593 0.000000 0.000000 0.000000
# 4 0.000000 0.000000 0.000000 0.089930 0.000000 0.000000
# 5 0.000000 0.000000 0.000000 0.000000 0.030048 0.000000
# 6 0.000000 0.000000 0.000000 0.000000 0.000000 0.146364
#
#
# Mechanical properties :
#
#
# Convention : Reuss Voigt Hill
#
# Bulk Modulus (GPa) = 39.11589 59.99647 49.55618
# Shear Modulus (GPa) = 14.58612 25.95138 20.26875
#
# Velocity S-wave (km/s) = 2.65805 3.54547 3.13334
# Velocity P-wave (km/s) = 5.32610 6.76917 6.09052
#
# Compressibility (1/GPa) = 0.02556506
#
# Stress axis : x y z
#
# Youngs Moduli (GPa) = 33.87025 94.08288 151.67594
#
# Poissons Ratio (x) = 0.52953 0.45489
# Poissons Ratio (y) = 0.19063 0.29777
# Poissons Ratio (z) = 0.10158 0.18471
#
# Static dielectric constant tensor:
#      x y z
#    x 3.496700 0.000000 0.000000 
#    y 0.000000 3.986410 0.000000 
#    z 0.000000 0.000000 3.968290 
# 
# 
# High freq. dielectric constant tensor:
#      x y z
#    x 1.793050 0.000000 0.000000 
#    y 0.000000 1.807500 0.000000 
#    z 0.000000 0.000000 1.829700 
# 
# From -- ./inp_files/7971.got.cif
#   From: 2010.03.12/outbox.cif.g09.slc.cpg/sg53_4_cif.got.tgz:7971.got - 2010.04.16 14:36:59.
