data_PCOD8221608
_publ_section_title
;
Structure prediction by ZEFSAII (Michael W. Deem and Ramdas Pophale) SiO2 
 PCOD8221608
Probable space group: P M N A
;
_chemical_formula_sum "Si O2"
_cell_formula_units_Z 32
_cell_length_a 16.936232
_cell_length_b 16.642854
_cell_length_c 5.104936
_cell_angle_alpha 90.000000
_cell_angle_beta 90.000000
_cell_angle_gamma 90.000000
_cell_volume 1438.914203
_symmetry_space_group_name_H-M "P M N A"
_symmetry_group_IT_number 53
_symmetry_cell_setting 'orthorhombic'
loop_
_space_group_symop_operation_xyz
x,y,z
1/2-x,-y,1/2+z
x,-y,-z
1/2-x,y,1/2-z
-x,-y,-z
1/2+x,y,1/2-z
-x,y,z
1/2+x,-y,1/2+z
loop_
_atom_site_type_symbol
_atom_site_label
_atom_site_fract_x
_atom_site_fract_y
_atom_site_fract_z
Si Si1 0.906899 0.246052 0.582734
Si Si2 0.301423 0.000000 0.500000
Si Si3 0.406067 0.342655 0.421506
Si Si4 0.195684 0.500000 0.000000
Si Si5 0.589249 0.083331 0.154174
O O1 0.875942 0.279167 0.859416
O O2 0.876249 0.155737 0.522557
O O3 0.000000 0.242242 0.590616
O O4 0.879511 0.306868 0.356047
O O5 0.356837 0.925029 0.586481
O O6 0.250000 0.027893 0.750000
O O7 0.500000 0.357586 0.440694
O O8 0.361700 0.425519 0.457216
O O9 0.250000 0.515542 0.250000
O O10 0.500000 0.101930 0.248261
O O11 0.594005 0.000000 0.000000
#
# Coordination Sequence:
#
# PCOD8221608 Si02
#       5
#     8   4   8   4   8
#     4   9  20  37  64  97 126 157 210 267 312 367
#     4  12  25  42  59  86 132 174 220 268 323 384
#     4  10  21  41  66  94 126 164 206 257 316 380
#     4  12  25  42  67  94 130 162 206 256 313 390
#     4  10  22  41  69  97 125 170 224 277 323 370
#
# _framework density 22.238989
#
# number of rings (size 3 to 8) (size 9 to 14) (size 15 to 20)
#    0.000    1.750    1.250    2.250    3.500    0.000 
#    0.000   10.000    5.500    0.000    0.000    0.000 
#    0.000    0.000    0.000    0.000    0.000    0.000 
#
# Total GULP energy -396713.686928 kJ/mol
# GULP energy per Si atom -12397.302716 kJ/mol
# Density = 2.218837 g / cm^3
# Si number density = 22.238989 Si / 1000 Ang^3
#
#
#
# Elastic Constant Matrix: (Units=GPa)
#
#
# Indices 1 2 3 4 5 6 
#
# 1 67.7562 12.4776 14.5024 0.0000 0.0000 0.0000
# 2 12.4776 94.7572 -18.8328 0.0000 0.0000 0.0000
# 3 14.5024 -18.8328 81.1454 0.0000 0.0000 0.0000
# 4 0.0000 0.0000 0.0000 30.5863 0.0000 0.0000
# 5 0.0000 0.0000 0.0000 0.0000 -44.1065 0.0000
# 6 0.0000 0.0000 0.0000 0.0000 0.0000 -4.7582
#
#
#
# Elastic Compliance Matrix: (Units=1/GPa)
#
#
# Indices 1 2 3 4 5 6 
#
# 1 0.016029 -0.002810 -0.003517 0.000000 0.000000 0.000000
# 2 -0.002810 0.011556 0.003184 0.000000 0.000000 0.000000
# 3 -0.003517 0.003184 0.013691 0.000000 0.000000 0.000000
# 4 0.000000 0.000000 0.000000 0.032694 0.000000 0.000000
# 5 0.000000 0.000000 0.000000 0.000000 -0.022672 0.000000
# 6 0.000000 0.000000 0.000000 0.000000 0.000000 -0.210163
#
#
# Mechanical properties :
#
#
# Convention : Reuss Voigt Hill
#
# Bulk Modulus (GPa) = 28.57830 28.88369 28.73100
# Shear Modulus (GPa) = -35.48211 12.04508 -11.71851
#
# Velocity S-wave (km/s) = -3.99869 2.32980 -2.29800
# Velocity P-wave (km/s) = 2.90533 4.50037 2.43027
#
# Compressibility (1/GPa) = 0.03499159
#
# Stress axis : x y z
#
# Youngs Moduli (GPa) = 62.38715 86.53434 73.04025
#
# Poissons Ratio (x) = 0.24313 0.25687
# Poissons Ratio (y) = 0.17529 -0.23257
# Poissons Ratio (z) = 0.21940 -0.27554
#
# Static dielectric constant tensor:
#      x y z
#    x 4.158950 0.000000 0.000000 
#    y 0.000000 4.143920 0.000000 
#    z 0.000000 0.000000 4.453180 
# 
# 
# High freq. dielectric constant tensor:
#      x y z
#    x 1.861130 0.000000 0.000000 
#    y 0.000000 1.875910 0.000000 
#    z 0.000000 0.000000 1.888710 
# 
# From -- ./inp_files/2003.got.cif
#   From: 2010.03.12/outbox.cif.g09.slc.cpg/sg53_2_cif.got.tgz:2003.got - 2010.04.16 14:36:59.
