data_PCOD8221201
_publ_section_title
;
Structure prediction by ZEFSAII (Michael W. Deem and Ramdas Pophale) SiO2 
 PCOD8221201
Probable space group: P M N A
;
_chemical_formula_sum "Si O2"
_cell_formula_units_Z 64
_cell_length_a 18.297280
_cell_length_b 19.839308
_cell_length_c 8.746952
_cell_angle_alpha 90.000000
_cell_angle_beta 90.000000
_cell_angle_gamma 90.000000
_cell_volume 3175.190578
_symmetry_space_group_name_H-M "P M N A"
_symmetry_group_IT_number 53
_symmetry_cell_setting 'orthorhombic'
loop_
_space_group_symop_operation_xyz
x,y,z
1/2-x,-y,1/2+z
x,-y,-z
1/2-x,y,1/2-z
-x,-y,-z
1/2+x,y,1/2-z
-x,y,z
1/2+x,-y,1/2+z
loop_
_atom_site_type_symbol
_atom_site_label
_atom_site_fract_x
_atom_site_fract_y
_atom_site_fract_z
Si Si1 0.659749 0.825679 0.393530
Si Si2 0.579551 0.956545 0.355039
Si Si3 0.087230 0.566172 0.085300
Si Si4 0.086709 0.568522 0.429377
Si Si5 0.177212 0.174219 0.534945
Si Si6 0.085945 0.703280 0.946051
Si Si7 0.086385 0.294940 0.404555
Si Si8 0.316669 0.042960 0.140661
O O1 0.620513 0.894521 0.438031
O O2 0.735735 0.818184 0.484438
O O3 0.663969 0.836310 0.212683
O O4 0.613606 0.760952 0.441097
O O5 0.500000 0.935212 0.284580
O O6 0.562995 0.000000 0.500000
O O7 0.623189 0.997273 0.224660
O O8 0.117452 0.572463 0.257505
O O9 0.000000 0.563507 0.084523
O O10 0.118462 0.500000 0.000000
O O11 0.117862 0.631300 0.997352
O O12 0.119340 0.500000 0.500000
O O13 0.111064 0.632280 0.531303
O O14 0.000000 0.564943 0.426763
O O15 0.133003 0.240398 0.493447
O O16 0.149225 0.112058 0.429389
O O17 0.109037 0.713508 0.771346
O O18 0.000000 0.702069 0.963169
O O19 0.000000 0.283139 0.430428
O O20 0.250000 0.061683 0.250000
O O21 0.283798 0.000000 0.000000
#
# Coordination Sequence:
#
# PCOD8221201 Si02
#       8
#     8   8   8   8   8   8   8   8
#     4  11  23  44  60  86 116 158 205 244 299 368
#     4  11  25  43  65  92 123 156 197 252 309 362
#     4   9  16  28  50  81 115 156 201 242 295 359
#     4   9  16  29  52  81 118 158 198 248 299 351
#     4  11  25  40  63  86 117 158 201 248 300 361
#     4  10  21  36  58  85 121 160 197 249 303 358
#     4  10  22  37  55  88 123 155 200 252 305 357
#     4  12  24  43  67  91 120 159 205 253 306 375
#
# _framework density 20.156271
#
# number of rings (size 3 to 8) (size 9 to 14) (size 15 to 20)
#    0.000    1.625    1.250    3.750    3.500    5.750 
#    0.000    0.000    0.000    0.750    0.000    0.000 
#    0.000    0.000    0.000    0.000    0.000    0.000 
#
# Total GULP energy -793347.834542 kJ/mol
# GULP energy per Si atom -12396.059915 kJ/mol
# Density = 2.011039 g / cm^3
# Si number density = 20.156271 Si / 1000 Ang^3
#
#
#
# Elastic Constant Matrix: (Units=GPa)
#
#
# Indices 1 2 3 4 5 6 
#
# 1 51.3343 37.6532 33.3163 0.0000 0.0000 0.0000
# 2 37.6532 152.9119 35.5326 0.0000 0.0000 0.0000
# 3 33.3163 35.5326 77.1056 0.0000 0.0000 0.0000
# 4 0.0000 0.0000 0.0000 48.0803 0.0000 0.0000
# 5 0.0000 0.0000 0.0000 0.0000 12.3802 0.0000
# 6 0.0000 0.0000 0.0000 0.0000 0.0000 3.7073
#
#
#
# Elastic Compliance Matrix: (Units=1/GPa)
#
#
# Indices 1 2 3 4 5 6 
#
# 1 0.030033 -0.004905 -0.010716 0.000000 0.000000 0.000000
# 2 -0.004905 0.008125 -0.001625 0.000000 0.000000 0.000000
# 3 -0.010716 -0.001625 0.018348 0.000000 0.000000 0.000000
# 4 0.000000 0.000000 0.000000 0.020799 0.000000 0.000000
# 5 0.000000 0.000000 0.000000 0.000000 0.080774 0.000000
# 6 0.000000 0.000000 0.000000 0.000000 0.000000 0.269735
#
#
# Mechanical properties :
#
#
# Convention : Reuss Voigt Hill
#
# Bulk Modulus (GPa) = 45.42619 54.92845 50.17732
# Shear Modulus (GPa) = 10.64633 24.49021 17.56827
#
# Velocity S-wave (km/s) = 2.30073 3.48949 2.95550
# Velocity P-wave (km/s) = 5.44461 6.59893 6.04936
#
# Compressibility (1/GPa) = 0.02201373
#
# Stress axis : x y z
#
# Youngs Moduli (GPa) = 33.29657 123.07477 54.50052
#
# Poissons Ratio (x) = 0.60370 0.58405
# Poissons Ratio (y) = 0.16333 0.08856
# Poissons Ratio (z) = 0.35682 0.19998
#
# Static dielectric constant tensor:
#      x y z
#    x 3.433180 0.000000 0.000000 
#    y 0.000000 3.906960 0.000000 
#    z 0.000000 0.000000 3.957840 
# 
# 
# High freq. dielectric constant tensor:
#      x y z
#    x 1.749520 0.000000 0.000000 
#    y 0.000000 1.802610 0.000000 
#    z 0.000000 0.000000 1.802750 
# 
# From -- ./inp_files/11206.got.cif
#   From: 2010.03.12/outbox.cif.g09.slc.cpg/sg53_6_cif.got.tgz:11206.got - 2010.04.16 14:36:59.
