data_PCOD8221173
_publ_section_title
;
Structure prediction by ZEFSAII (Michael W. Deem and Ramdas Pophale) SiO2 
 PCOD8221173
Probable space group: P M N A
;
_chemical_formula_sum "Si O2"
_cell_formula_units_Z 48
_cell_length_a 13.652140
_cell_length_b 5.123571
_cell_length_c 31.911490
_cell_angle_alpha 90.000000
_cell_angle_beta 90.000000
_cell_angle_gamma 90.000000
_cell_volume 2232.135603
_symmetry_space_group_name_H-M "P M N A"
_symmetry_group_IT_number 53
_symmetry_cell_setting 'orthorhombic'
loop_
_space_group_symop_operation_xyz
x,y,z
1/2-x,-y,1/2+z
x,-y,-z
1/2-x,y,1/2-z
-x,-y,-z
1/2+x,y,1/2-z
-x,y,z
1/2+x,-y,1/2+z
loop_
_atom_site_type_symbol
_atom_site_label
_atom_site_fract_x
_atom_site_fract_y
_atom_site_fract_z
Si Si1 0.727900 0.984334 0.451509
Si Si2 0.886330 0.040172 0.180863
Si Si3 0.384750 0.534286 0.825540
Si Si4 0.613198 0.470257 0.732887
Si Si5 0.697988 0.035521 0.867332
Si Si6 0.605674 0.484690 0.451459
O O1 0.815983 0.012655 0.417665
O O2 0.648816 0.203754 0.441080
O O3 0.765267 0.000000 0.500000
O O4 0.680912 0.708467 0.438937
O O5 0.848202 0.312948 0.200355
O O6 0.814738 0.985948 0.141950
O O7 0.000000 0.047524 0.165832
O O8 0.870073 0.819237 0.215903
O O9 0.500000 0.485831 0.824429
O O10 0.337234 0.495081 0.778965
O O11 0.364448 0.825776 0.841589
O O12 0.337613 0.324515 0.856503
O O13 0.500000 0.537219 0.739324
O O14 0.585024 0.500000 0.500000
O O15 0.500000 0.514966 0.428201
#
# Coordination Sequence:
#
# PCOD8221173 Si02
#       6
#     8   8   8   8   8   8
#     4  10  21  37  55  80 116 153 193 241 291 344
#     4  10  21  36  55  87 127 157 187 224 271 346
#     4  11  24  42  63  86 113 146 196 253 293 341
#     4   9  19  37  58  82 118 159 189 228 286 338
#     4  12  24  38  61  89 114 154 197 237 298 341
#     4   9  17  31  53  79 108 148 194 232 270 329
#
# _framework density 21.504071
#
# number of rings (size 3 to 8) (size 9 to 14) (size 15 to 20)
#    0.000    1.833    0.000    4.000    0.000   10.000 
#    0.000    1.667    0.000    3.000    0.000    0.000 
#    0.000    0.000    0.000    0.000    0.000    0.000 
#
# Total GULP energy -595095.413182 kJ/mol
# GULP energy per Si atom -12397.821108 kJ/mol
# Density = 2.145513 g / cm^3
# Si number density = 21.504071 Si / 1000 Ang^3
#
#
#
# Elastic Constant Matrix: (Units=GPa)
#
#
# Indices 1 2 3 4 5 6 
#
# 1 45.7797 3.9186 17.6214 0.0000 0.0000 0.0000
# 2 3.9186 91.1221 12.3568 0.0000 0.0000 0.0000
# 3 17.6214 12.3568 100.1397 0.0000 0.0000 0.0000
# 4 0.0000 0.0000 0.0000 22.8122 0.0000 0.0000
# 5 0.0000 0.0000 0.0000 0.0000 23.2756 0.0000
# 6 0.0000 0.0000 0.0000 0.0000 0.0000 36.3570
#
#
#
# Elastic Compliance Matrix: (Units=1/GPa)
#
#
# Indices 1 2 3 4 5 6 
#
# 1 0.023449 -0.000456 -0.004070 0.000000 0.000000 0.000000
# 2 -0.000456 0.011170 -0.001298 0.000000 0.000000 0.000000
# 3 -0.004070 -0.001298 0.010862 0.000000 0.000000 0.000000
# 4 0.000000 0.000000 0.000000 0.043836 0.000000 0.000000
# 5 0.000000 0.000000 0.000000 0.000000 0.042964 0.000000
# 6 0.000000 0.000000 0.000000 0.000000 0.000000 0.027505
#
#
# Mechanical properties :
#
#
# Convention : Reuss Voigt Hill
#
# Bulk Modulus (GPa) = 29.55715 33.87056 31.71385
# Shear Modulus (GPa) = 27.36533 30.03196 28.69864
#
# Velocity S-wave (km/s) = 3.57117 3.74113 3.65714
# Velocity P-wave (km/s) = 5.54789 5.86910 5.71075
#
# Compressibility (1/GPa) = 0.03383276
#
# Stress axis : x y z
#
# Youngs Moduli (GPa) = 42.64499 89.52610 92.06064
#
# Poissons Ratio (x) = 0.04087 0.37469
# Poissons Ratio (y) = 0.01947 0.11949
# Poissons Ratio (z) = 0.17357 0.11620
#
# Static dielectric constant tensor:
#      x y z
#    x 3.730390 0.000000 0.000000 
#    y 0.000000 3.784230 0.000000 
#    z 0.000000 0.000000 3.803160 
# 
# 
# High freq. dielectric constant tensor:
#      x y z
#    x 1.822290 0.000000 0.000000 
#    y 0.000000 1.861240 0.000000 
#    z 0.000000 0.000000 1.837340 
# 
# From -- ./inp_files/38811.got.cif
#   From: 2010.03.12/outbox.cif.g09.slc.cpg/sg53_20_cif.got.tgz:38811.got - 2010.04.16 14:36:59.
