data_PCOD8221199
_publ_section_title
;
Structure prediction by ZEFSAII (Michael W. Deem and Ramdas Pophale) SiO2 
 PCOD8221199
Probable space group: P M N A
;
_chemical_formula_sum "Si O2"
_cell_formula_units_Z 28
_cell_length_a 9.547089
_cell_length_b 7.631365
_cell_length_c 20.229358
_cell_angle_alpha 90.000000
_cell_angle_beta 90.000000
_cell_angle_gamma 90.000000
_cell_volume 1473.856826
_symmetry_space_group_name_H-M "P M N A"
_symmetry_group_IT_number 53
_symmetry_cell_setting 'orthorhombic'
loop_
_space_group_symop_operation_xyz
x,y,z
1/2-x,-y,1/2+z
x,-y,-z
1/2-x,y,1/2-z
-x,-y,-z
1/2+x,y,1/2-z
-x,y,z
1/2+x,-y,1/2+z
loop_
_atom_site_type_symbol
_atom_site_label
_atom_site_fract_x
_atom_site_fract_y
_atom_site_fract_z
Si Si1 0.750000 0.953427 0.750000
Si Si2 0.837773 0.528312 0.423170
Si Si3 0.657263 0.780808 0.626916
Si Si4 0.657417 0.911669 0.119664
O O1 0.839710 0.076466 0.700153
O O2 0.650977 0.828064 0.705146
O O3 0.810503 0.500000 0.500000
O O4 0.740563 0.399067 0.381663
O O5 0.789253 0.723246 0.404052
O O6 0.000000 0.495783 0.404330
O O7 0.500000 0.763914 0.598730
O O8 0.741290 0.937732 0.588917
O O9 0.500000 0.945544 0.093966
#
# Coordination Sequence:
#
# PCOD8221199 Si02
#       4
#     4   8   8   8
#     4   8  20  36  58  84 110 146 184 226 284 336
#     4  10  22  39  59  83 111 150 195 232 275 333
#     4  10  21  36  58  85 114 147 181 233 286 332
#     4   9  19  37  59  81 110 147 184 229 275 332
#
# _framework density 18.997772999999999
#
# number of rings (size 3 to 8) (size 9 to 14) (size 15 to 20)
#    1.714    0.857    0.000    1.714    0.000    4.000 
#    0.000    8.571    0.000    0.000    0.000    0.000 
#    0.000    0.000    0.000    0.000    0.000    0.000 
#
# Total GULP energy -346918.890365 kJ/mol
# GULP energy per Si atom -12389.960370 kJ/mol
# Density = 1.895453 g / cm^3
# Si number density = 18.997773 Si / 1000 Ang^3
#
#
#
# Elastic Constant Matrix: (Units=GPa)
#
#
# Indices 1 2 3 4 5 6 
#
# 1 109.3368 58.6573 3.7388 0.0000 0.0000 0.0000
# 2 58.6573 112.2142 7.5483 0.0000 0.0000 0.0000
# 3 3.7388 7.5483 39.1908 0.0000 0.0000 0.0000
# 4 0.0000 0.0000 0.0000 28.3624 0.0000 0.0000
# 5 0.0000 0.0000 0.0000 0.0000 12.6462 0.0000
# 6 0.0000 0.0000 0.0000 0.0000 0.0000 16.8808
#
#
#
# Elastic Compliance Matrix: (Units=1/GPa)
#
#
# Indices 1 2 3 4 5 6 
#
# 1 0.012711 -0.006649 0.000068 0.000000 0.000000 0.000000
# 2 -0.006649 0.012506 -0.001774 0.000000 0.000000 0.000000
# 3 0.000068 -0.001774 0.025851 0.000000 0.000000 0.000000
# 4 0.000000 0.000000 0.000000 0.035258 0.000000 0.000000
# 5 0.000000 0.000000 0.000000 0.000000 0.079075 0.000000
# 6 0.000000 0.000000 0.000000 0.000000 0.000000 0.059239
#
#
# Mechanical properties :
#
#
# Convention : Reuss Voigt Hill
#
# Bulk Modulus (GPa) = 29.10530 44.51449 36.80990
# Shear Modulus (GPa) = 19.77818 24.29771 22.03795
#
# Velocity S-wave (km/s) = 3.23008 3.58016 3.40961
# Velocity P-wave (km/s) = 5.40970 6.36964 5.90919
#
# Compressibility (1/GPa) = 0.03435800
#
# Stress axis : x y z
#
# Youngs Moduli (GPa) = 78.67403 79.95918 38.68251
#
# Poissons Ratio (x) = 0.53163 -0.00263
# Poissons Ratio (y) = 0.52309 0.06864
# Poissons Ratio (z) = -0.00535 0.14189
#
# Static dielectric constant tensor:
#      x y z
#    x 3.285010 0.000000 0.000000 
#    y 0.000000 3.386990 0.000000 
#    z 0.000000 0.000000 3.184400 
# 
# 
# High freq. dielectric constant tensor:
#      x y z
#    x 1.731070 0.000000 0.000000 
#    y 0.000000 1.738420 0.000000 
#    z 0.000000 0.000000 1.716470 
# 
# From -- ./inp_files/29946.got.cif
#   From: 2010.03.12/outbox.cif.g09.slc.cpg/sg53_15_cif.got.tgz:29946.got - 2010.04.16 14:36:59.
