data_PCOD8221378
_publ_section_title
;
Structure prediction by ZEFSAII (Michael W. Deem and Ramdas Pophale) SiO2 
 PCOD8221378
Probable space group: P M N A
;
_chemical_formula_sum "Si O2"
_cell_formula_units_Z 64
_cell_length_a 9.360845
_cell_length_b 15.113595
_cell_length_c 23.131736
_cell_angle_alpha 90.000000
_cell_angle_beta 90.000000
_cell_angle_gamma 90.000000
_cell_volume 3272.585949
_symmetry_space_group_name_H-M "P M N A"
_symmetry_group_IT_number 53
_symmetry_cell_setting 'orthorhombic'
loop_
_space_group_symop_operation_xyz
x,y,z
1/2-x,-y,1/2+z
x,-y,-z
1/2-x,y,1/2-z
-x,-y,-z
1/2+x,y,1/2-z
-x,y,z
1/2+x,-y,1/2+z
loop_
_atom_site_type_symbol
_atom_site_label
_atom_site_fract_x
_atom_site_fract_y
_atom_site_fract_z
Si Si1 0.836849 0.165373 0.504975
Si Si2 0.831430 0.809745 0.624850
Si Si3 0.332945 0.443863 0.623589
Si Si4 0.667844 0.951454 0.692818
Si Si5 0.835115 0.112811 0.891142
Si Si6 0.339682 0.370091 0.978968
Si Si7 0.162349 0.608210 0.612097
Si Si8 0.167236 0.269487 0.808450
O O1 0.790595 0.152531 0.438426
O O2 0.745139 0.104087 0.547624
O O3 0.811623 0.266190 0.522625
O O4 0.000000 0.137215 0.512838
O O5 0.736707 0.859449 0.672141
O O6 0.789235 0.706657 0.629539
O O7 0.000000 0.822731 0.636516
O O8 0.500000 0.459384 0.618132
O O9 0.275255 0.417213 0.560920
O O10 0.260262 0.535584 0.644328
O O11 0.295709 0.367712 0.669610
O O12 0.750000 0.983129 0.750000
O O13 0.500000 0.938783 0.705588
O O14 0.696085 0.024765 0.644569
O O15 0.780065 0.198005 0.855477
O O16 0.000000 0.124320 0.905872
O O17 0.500000 0.391149 0.956566
O O18 0.321769 0.406424 0.043554
O O19 0.000000 0.592835 0.631644
O O20 0.250000 0.250169 0.750000
O O21 0.000000 0.257227 0.796312
#
# Coordination Sequence:
#
# PCOD8221378 Si02
#       8
#     8   8   8   8   8   8   8   8
#     4   9  18  33  57  87 116 152 191 226 277 342
#     4   9  20  40  61  84 117 151 189 238 285 336
#     4  11  21  32  50  79 112 145 185 232 279 327
#     4  11  24  41  63  87 111 146 191 238 288 340
#     4  10  21  38  58  84 118 148 181 230 287 343
#     4   9  17  31  51  78 111 148 187 223 266 328
#     4   9  19  35  55  79 110 147 186 227 273 328
#     4  10  22  38  54  76 109 148 188 232 280 334
#
# _framework density 19.5564
#
# number of rings (size 3 to 8) (size 9 to 14) (size 15 to 20)
#    0.000    2.250    1.250    3.000    0.000    6.000 
#    0.000    5.625    0.000    1.500    0.000    0.000 
#    0.000    0.000    0.000    0.000    0.000    0.000 
#
# Total GULP energy -793689.065049 kJ/mol
# GULP energy per Si atom -12401.391641 kJ/mol
# Density = 1.951189 g / cm^3
# Si number density = 19.556400 Si / 1000 Ang^3
#
#
#
# Elastic Constant Matrix: (Units=GPa)
#
#
# Indices 1 2 3 4 5 6 
#
# 1 68.1144 35.5521 21.5343 0.0000 0.0000 0.0000
# 2 35.5521 61.2491 14.9076 0.0000 0.0000 0.0000
# 3 21.5343 14.9076 34.8013 0.0000 0.0000 0.0000
# 4 0.0000 0.0000 0.0000 16.3266 0.0000 0.0000
# 5 0.0000 0.0000 0.0000 0.0000 34.8593 0.0000
# 6 0.0000 0.0000 0.0000 0.0000 0.0000 24.2458
#
#
#
# Elastic Compliance Matrix: (Units=1/GPa)
#
#
# Indices 1 2 3 4 5 6 
#
# 1 0.023722 -0.011383 -0.009802 0.000000 0.000000 0.000000
# 2 -0.011383 0.023690 -0.003104 0.000000 0.000000 0.000000
# 3 -0.009802 -0.003104 0.036130 0.000000 0.000000 0.000000
# 4 0.000000 0.000000 0.000000 0.061250 0.000000 0.000000
# 5 0.000000 0.000000 0.000000 0.000000 0.028687 0.000000
# 6 0.000000 0.000000 0.000000 0.000000 0.000000 0.041244
#
#
# Mechanical properties :
#
#
# Convention : Reuss Voigt Hill
#
# Bulk Modulus (GPa) = 28.60269 34.23919 31.42094
# Shear Modulus (GPa) = 18.18480 21.23108 19.70794
#
# Velocity S-wave (km/s) = 3.05268 3.29847 3.17795
# Velocity P-wave (km/s) = 5.20409 5.66149 5.43760
#
# Compressibility (1/GPa) = 0.03496175
#
# Stress axis : x y z
#
# Youngs Moduli (GPa) = 42.15546 42.21225 27.67815
#
# Poissons Ratio (x) = 0.48052 0.27131
# Poissons Ratio (y) = 0.47988 0.08591
# Poissons Ratio (z) = 0.41322 0.13103
#
# Static dielectric constant tensor:
#      x y z
#    x 3.470990 0.000000 0.000000 
#    y 0.000000 3.632640 0.000000 
#    z 0.000000 0.000000 3.354420 
# 
# 
# High freq. dielectric constant tensor:
#      x y z
#    x 1.755710 0.000000 0.000000 
#    y 0.000000 1.770850 0.000000 
#    z 0.000000 0.000000 1.744330 
# 
# From -- ./inp_files/34159.got.cif
#   From: 2010.03.12/outbox.cif.g09.slc.cpg/sg53_18_cif.got.tgz:34159.got - 2010.04.16 14:36:59.
