data_PCOD8221431
_publ_section_title
;
Structure prediction by ZEFSAII (Michael W. Deem and Ramdas Pophale) SiO2 
 PCOD8221431
Probable space group: P M N A
;
_chemical_formula_sum "Si O2"
_cell_formula_units_Z 48
_cell_length_a 17.444667
_cell_length_b 9.571930
_cell_length_c 14.324175
_cell_angle_alpha 90.000000
_cell_angle_beta 90.000000
_cell_angle_gamma 90.000000
_cell_volume 2391.838299
_symmetry_space_group_name_H-M "P M N A"
_symmetry_group_IT_number 53
_symmetry_cell_setting 'orthorhombic'
loop_
_space_group_symop_operation_xyz
x,y,z
1/2-x,-y,1/2+z
x,-y,-z
1/2-x,y,1/2-z
-x,-y,-z
1/2+x,y,1/2-z
-x,y,z
1/2+x,-y,1/2+z
loop_
_atom_site_type_symbol
_atom_site_label
_atom_site_fract_x
_atom_site_fract_y
_atom_site_fract_z
Si Si1 0.590676 0.960202 0.276331
Si Si2 0.187312 0.242497 0.671551
Si Si3 0.411380 0.277370 0.241553
Si Si4 0.150331 0.612400 0.926899
Si Si5 0.174819 0.465140 0.396569
Si Si6 0.187058 0.860943 0.049280
O O1 0.500000 0.951112 0.287025
O O2 0.617834 0.866175 0.188184
O O3 0.628344 0.893878 0.367925
O O4 0.618016 0.119806 0.261291
O O5 0.250000 0.218429 0.750000
O O6 0.156726 0.400573 0.668559
O O7 0.232787 0.213074 0.575837
O O8 0.500000 0.277073 0.215778
O O9 0.397965 0.376101 0.331675
O O10 0.367367 0.333976 0.150352
O O11 0.235141 0.565325 0.898114
O O12 0.114995 0.500000 0.000000
O O13 0.144502 0.762123 0.975991
O O14 0.142919 0.500000 0.500000
O O15 0.213613 0.000000 0.000000
#
# Coordination Sequence:
#
# PCOD8221431 Si02
#       6
#     8   8   8   8   8   8
#     4  10  24  41  59  89 128 168 204 251 309 373
#     4  10  21  38  61  90 120 155 204 251 304 362
#     4  11  25  42  60  89 129 167 206 251 309 373
#     4  11  22  40  65  95 125 158 201 260 312 367
#     4  11  23  41  65  90 120 160 207 263 303 358
#     4  11  21  37  65  95 120 158 206 254 312 372
#
# _framework density 20.068245000000001
#
# number of rings (size 3 to 8) (size 9 to 14) (size 15 to 20)
#    0.000    1.333    5.000    1.500    4.667    3.667 
#    0.000    0.000    0.000    2.500    0.000    0.000 
#    0.000    0.000    0.000    0.000    0.000    0.000 
#
# Total GULP energy -595215.081235 kJ/mol
# GULP energy per Si atom -12400.314192 kJ/mol
# Density = 2.002257 g / cm^3
# Si number density = 20.068245 Si / 1000 Ang^3
#
#
#
# Elastic Constant Matrix: (Units=GPa)
#
#
# Indices 1 2 3 4 5 6 
#
# 1 54.3395 26.5181 21.8600 0.0000 0.0000 0.0000
# 2 26.5181 121.0107 23.9864 0.0000 0.0000 0.0000
# 3 21.8600 23.9864 62.2294 0.0000 0.0000 0.0000
# 4 0.0000 0.0000 0.0000 48.9110 0.0000 0.0000
# 5 0.0000 0.0000 0.0000 0.0000 30.3054 0.0000
# 6 0.0000 0.0000 0.0000 0.0000 0.0000 27.8187
#
#
#
# Elastic Compliance Matrix: (Units=1/GPa)
#
#
# Indices 1 2 3 4 5 6 
#
# 1 0.022867 -0.003702 -0.006606 0.000000 0.000000 0.000000
# 2 -0.003702 0.009547 -0.002379 0.000000 0.000000 0.000000
# 3 -0.006606 -0.002379 0.019307 0.000000 0.000000 0.000000
# 4 0.000000 0.000000 0.000000 0.020445 0.000000 0.000000
# 5 0.000000 0.000000 0.000000 0.000000 0.032997 0.000000
# 6 0.000000 0.000000 0.000000 0.000000 0.000000 0.035947
#
#
# Mechanical properties :
#
#
# Convention : Reuss Voigt Hill
#
# Bulk Modulus (GPa) = 37.95538 42.47874 40.21706
# Shear Modulus (GPa) = 28.52804 32.42137 30.47471
#
# Velocity S-wave (km/s) = 3.77444 4.02376 3.90109
# Velocity P-wave (km/s) = 6.16031 6.54222 6.35413
#
# Compressibility (1/GPa) = 0.02634673
#
# Stress axis : x y z
#
# Youngs Moduli (GPa) = 43.73176 104.75009 51.79401
#
# Poissons Ratio (x) = 0.38774 0.34214
# Poissons Ratio (y) = 0.16188 0.12324
# Poissons Ratio (z) = 0.28889 0.24925
#
# Static dielectric constant tensor:
#      x y z
#    x 3.382500 0.000000 0.000000 
#    y 0.000000 3.895420 0.000000 
#    z 0.000000 0.000000 3.443350 
# 
# 
# High freq. dielectric constant tensor:
#      x y z
#    x 1.755290 0.000000 0.000000 
#    y 0.000000 1.802540 0.000000 
#    z 0.000000 0.000000 1.787200 
# 
# From -- ./inp_files/23608.got.cif
#   From: 2010.03.12/outbox.cif.g09.slc.cpg/sg53_12_cif.got.tgz:23608.got - 2010.04.16 14:36:59.
