data_PCOD8221908
_publ_section_title
;
Structure prediction by ZEFSAII (Michael W. Deem and Ramdas Pophale) SiO2 
 PCOD8221908
Probable space group: P M N A
;
_chemical_formula_sum "Si O2"
_cell_formula_units_Z 20
_cell_length_a 29.877822
_cell_length_b 5.421806
_cell_length_c 4.906551
_cell_angle_alpha 90.000000
_cell_angle_beta 90.000000
_cell_angle_gamma 90.000000
_cell_volume 794.820805
_symmetry_space_group_name_H-M "P M N A"
_symmetry_group_IT_number 53
_symmetry_cell_setting 'orthorhombic'
loop_
_space_group_symop_operation_xyz
x,y,z
1/2-x,-y,1/2+z
x,-y,-z
1/2-x,y,1/2-z
-x,-y,-z
1/2+x,y,1/2-z
-x,y,z
1/2+x,-y,1/2+z
loop_
_atom_site_type_symbol
_atom_site_label
_atom_site_fract_x
_atom_site_fract_y
_atom_site_fract_z
Si Si1 0.117230 0.000000 0.500000
Si Si2 0.550402 0.254901 0.666144
Si Si3 0.750000 0.649099 0.250000
Si Si4 0.177443 0.000000 0.000000
O O1 0.085543 0.768950 0.414354
O O2 0.146980 0.901164 0.752725
O O3 0.563040 0.500000 0.500000
O O4 0.500000 0.279765 0.783041
O O5 0.555214 0.000000 0.500000
O O6 0.771732 0.500000 0.500000
O O7 0.708892 0.791780 0.379392
#
# Coordination Sequence:
#
# PCOD8221908 Si02
#       4
#     4   8   4   4
#     4  12  24  48  72 117 154 201 258 338 384 456
#     4  10  23  47  76 109 158 216 263 315 389 464
#     4  12  26  52  80 108 148 206 250 312 398 484
#     4  12  27  50  79 111 156 193 259 322 393 474
#
# _framework density 25.162906
#
# number of rings (size 3 to 8) (size 9 to 14) (size 15 to 20)
#    0.000    0.800    2.000    5.400    0.000    3.200 
#   14.400    6.000    0.000    0.000    0.000    0.000 
#    0.000    0.000    0.000    0.000    0.000    0.000 
#
# Total GULP energy -247921.766486 kJ/mol
# GULP energy per Si atom -12396.088324 kJ/mol
# Density = 2.510563 g / cm^3
# Si number density = 25.162906 Si / 1000 Ang^3
#
#
#
# Elastic Constant Matrix: (Units=GPa)
#
#
# Indices 1 2 3 4 5 6 
#
# 1 207.6016 75.5535 119.9456 0.0000 0.0000 0.0000
# 2 75.5535 167.1459 89.5470 0.0000 0.0000 0.0000
# 3 119.9456 89.5470 217.2336 0.0000 0.0000 0.0000
# 4 0.0000 0.0000 0.0000 47.5402 0.0000 0.0000
# 5 0.0000 0.0000 0.0000 0.0000 -22.8080 0.0000
# 6 0.0000 0.0000 0.0000 0.0000 0.0000 -4.8177
#
#
#
# Elastic Compliance Matrix: (Units=1/GPa)
#
#
# Indices 1 2 3 4 5 6 
#
# 1 0.007345 -0.001473 -0.003449 0.000000 0.000000 0.000000
# 2 -0.001473 0.007974 -0.002474 0.000000 0.000000 0.000000
# 3 -0.003449 -0.002474 0.007527 0.000000 0.000000 0.000000
# 4 0.000000 0.000000 0.000000 0.021035 0.000000 0.000000
# 5 0.000000 0.000000 0.000000 0.000000 -0.043844 0.000000
# 6 0.000000 0.000000 0.000000 0.000000 0.000000 -0.207567
#
#
# Mechanical properties :
#
#
# Convention : Reuss Voigt Hill
#
# Bulk Modulus (GPa) = 124.12875 129.11926 126.62400
# Shear Modulus (GPa) = -26.30830 24.44522 -0.93154
#
# Velocity S-wave (km/s) = -3.23696 3.12024 -0.60910
# Velocity P-wave (km/s) = 5.95539 8.02533 7.06656
#
# Compressibility (1/GPa) = 0.00805615
#
# Stress axis : x y z
#
# Youngs Moduli (GPa) = 136.13886 125.41105 132.85004
#
# Poissons Ratio (x) = 0.18469 0.45816
# Poissons Ratio (y) = 0.20049 0.32864
# Poissons Ratio (z) = 0.46951 0.31024
#
# Static dielectric constant tensor:
#      x y z
#    x 4.989790 0.000000 0.000000 
#    y 0.000000 4.506670 0.000000 
#    z 0.000000 0.000000 4.726550 
# 
# 
# High freq. dielectric constant tensor:
#      x y z
#    x 2.024640 0.000000 0.000000 
#    y 0.000000 1.989390 0.000000 
#    z 0.000000 0.000000 2.019120 
# 
# From -- ./inp_files/4794.got.cif
#   From: 2010.03.12/outbox.cif.g09.slc.cpg/sg53_3_cif.got.tgz:4794.got - 2010.04.16 14:36:59.
