data_PCOD8221976
_publ_section_title
;
Structure prediction by ZEFSAII (Michael W. Deem and Ramdas Pophale) SiO2 
 PCOD8221976
Probable space group: P M N A
;
_chemical_formula_sum "Si O2"
_cell_formula_units_Z 64
_cell_length_a 9.146231
_cell_length_b 20.389895
_cell_length_c 22.454133
_cell_angle_alpha 90.000000
_cell_angle_beta 90.000000
_cell_angle_gamma 90.000000
_cell_volume 4187.486751
_symmetry_space_group_name_H-M "P M N A"
_symmetry_group_IT_number 53
_symmetry_cell_setting 'orthorhombic'
loop_
_space_group_symop_operation_xyz
x,y,z
1/2-x,-y,1/2+z
x,-y,-z
1/2-x,y,1/2-z
-x,-y,-z
1/2+x,y,1/2-z
-x,y,z
1/2+x,-y,1/2+z
loop_
_atom_site_type_symbol
_atom_site_label
_atom_site_fract_x
_atom_site_fract_y
_atom_site_fract_z
Si Si1 0.670781 0.351506 0.979138
Si Si2 0.831167 0.793593 0.472876
Si Si3 0.161451 0.516449 0.430663
Si Si4 0.834447 0.086250 0.944878
Si Si5 0.666067 0.946900 0.583179
Si Si6 0.825923 0.393689 0.098100
Si Si7 0.325377 0.702676 0.813351
Si Si8 0.170191 0.175775 0.394094
O O1 0.500000 0.355144 0.999700
O O2 0.705123 0.280214 0.951068
O O3 0.704049 0.406052 0.928062
O O4 0.771899 0.362434 0.036463
O O5 0.752804 0.846984 0.430469
O O6 0.778377 0.798397 0.541369
O O7 0.000000 0.810057 0.467878
O O8 0.156662 0.500000 0.500000
O O9 0.279808 0.470663 0.397916
O O10 0.000000 0.504677 0.402671
O O11 0.000000 0.098612 0.925594
O O12 0.774124 0.021914 0.909386
O O13 0.821717 0.071996 0.014459
O O14 0.500000 0.943816 0.605210
O O15 0.755986 0.894193 0.621846
O O16 0.746005 0.357960 0.152200
O O17 0.000000 0.387517 0.103560
O O18 0.250000 0.706110 0.750000
O O19 0.500000 0.692986 0.808840
O O20 0.283481 0.770183 0.846181
O O21 0.000000 0.162797 0.392990
#
# Coordination Sequence:
#
# PCOD8221976 Si02
#       8
#     8   8   8   8   8   8   8   8
#     4   9  16  28  42  58  82 111 140 169 206 246
#     4   9  15  24  38  56  78 106 136 167 199 236
#     4   8  15  27  43  58  77 107 136 166 205 246
#     4   8  14  23  33  51  76 103 130 162 195 228
#     4   8  14  24  37  51  73 100 131 163 195 235
#     4  11  20  29  43  61  80 104 135 172 211 249
#     4  11  22  36  48  61  81 104 137 177 216 255
#     4   9  17  28  42  56  74  99 131 171 207 239
#
# _framework density 15.28363
#
# number of rings (size 3 to 8) (size 9 to 14) (size 15 to 20)
#    0.000    2.875    1.250    3.000    0.000    4.250 
#    0.000    2.500    0.000    0.000    0.000    0.000 
#    0.000    0.000    0.000    1.125    0.000   19.250 
#
# Total GULP energy -793004.945696 kJ/mol
# GULP energy per Si atom -12390.702277 kJ/mol
# Density = 1.524884 g / cm^3
# Si number density = 15.283630 Si / 1000 Ang^3
#
#
#
# Elastic Constant Matrix: (Units=GPa)
#
#
# Indices 1 2 3 4 5 6 
#
# 1 71.5872 60.1758 25.4698 0.0000 0.0000 0.0000
# 2 60.1758 164.4357 34.7343 0.0000 0.0000 0.0000
# 3 25.4698 34.7343 31.8258 0.0000 0.0000 0.0000
# 4 0.0000 0.0000 0.0000 12.3016 0.0000 0.0000
# 5 0.0000 0.0000 0.0000 0.0000 15.2377 0.0000
# 6 0.0000 0.0000 0.0000 0.0000 0.0000 25.9170
#
#
#
# Elastic Compliance Matrix: (Units=1/GPa)
#
#
# Indices 1 2 3 4 5 6 
#
# 1 0.023300 -0.005963 -0.012139 0.000000 0.000000 0.000000
# 2 -0.005963 0.009429 -0.005519 0.000000 0.000000 0.000000
# 3 -0.012139 -0.005519 0.047160 0.000000 0.000000 0.000000
# 4 0.000000 0.000000 0.000000 0.081291 0.000000 0.000000
# 5 0.000000 0.000000 0.000000 0.000000 0.065627 0.000000
# 6 0.000000 0.000000 0.000000 0.000000 0.000000 0.038585
#
#
# Mechanical properties :
#
#
# Convention : Reuss Voigt Hill
#
# Bulk Modulus (GPa) = 30.63093 56.51206 43.57149
# Shear Modulus (GPa) = 15.45521 20.52249 17.98885
#
# Velocity S-wave (km/s) = 3.18343 3.66837 3.43447
# Velocity P-wave (km/s) = 5.79633 7.41609 6.65567
#
# Compressibility (1/GPa) = 0.03264674
#
# Stress axis : x y z
#
# Youngs Moduli (GPa) = 42.91831 106.05297 21.20457
#
# Poissons Ratio (x) = 0.63234 0.25741
# Poissons Ratio (y) = 0.25590 0.11703
# Poissons Ratio (z) = 0.52100 0.58533
#
# Static dielectric constant tensor:
#      x y z
#    x 2.950000 0.000000 0.000000 
#    y 0.000000 3.607300 0.000000 
#    z 0.000000 0.000000 2.390160 
# 
# 
# High freq. dielectric constant tensor:
#      x y z
#    x 1.585850 0.000000 0.000000 
#    y 0.000000 1.607680 0.000000 
#    z 0.000000 0.000000 1.502550 
# 
# From -- ./inp_files/31415.got.cif
#   From: 2010.03.12/outbox.cif.g09.slc.cpg/sg53_16_cif.got.tgz:31415.got - 2010.04.16 14:36:59.
