data_PCOD8221531
_publ_section_title
;
Structure prediction by ZEFSAII (Michael W. Deem and Ramdas Pophale) SiO2 
 PCOD8221531
Probable space group: P M N A
;
_chemical_formula_sum "Si O2"
_cell_formula_units_Z 32
_cell_length_a 14.757548
_cell_length_b 19.831974
_cell_length_c 4.927769
_cell_angle_alpha 90.000000
_cell_angle_beta 90.000000
_cell_angle_gamma 90.000000
_cell_volume 1442.216600
_symmetry_space_group_name_H-M "P M N A"
_symmetry_group_IT_number 53
_symmetry_cell_setting 'orthorhombic'
loop_
_space_group_symop_operation_xyz
x,y,z
1/2-x,-y,1/2+z
x,-y,-z
1/2-x,y,1/2-z
-x,-y,-z
1/2+x,y,1/2-z
-x,y,z
1/2+x,-y,1/2+z
loop_
_atom_site_type_symbol
_atom_site_label
_atom_site_fract_x
_atom_site_fract_y
_atom_site_fract_z
Si Si1 0.351520 0.354188 0.321990
Si Si2 0.854936 0.046118 0.746522
Si Si3 0.500000 0.245699 0.400890
Si Si4 0.500000 0.845008 0.118474
Si Si5 0.898137 0.437337 0.664922
O O1 0.250000 0.332557 0.250000
O O2 0.408039 0.288696 0.398697
O O3 0.348345 0.412234 0.559184
O O4 0.401154 0.377702 0.050308
O O5 0.750000 0.067254 0.750000
O O6 0.910952 0.113988 0.706674
O O7 0.881330 0.000000 0.500000
O O8 0.882948 0.000000 0.000000
O O9 0.500000 0.221590 0.707153
O O10 0.500000 0.181989 0.192465
O O11 0.850857 0.500000 0.500000
O O12 0.000000 0.457608 0.752162
#
# Coordination Sequence:
#
# PCOD8221531 Si02
#       5
#     8   8   4   4   8
#     4  12  25  44  67  94 133 176 217 273 332 395
#     4  10  21  39  64  95 129 162 207 269 331 383
#     4  12  26  43  61  92 132 176 227 266 311 386
#     4  12  24  39  66  90 127 174 219 266 313 390
#     4  11  22  42  71  98 128 164 213 278 342 398
#
# _framework density 22.188065999999999
#
# number of rings (size 3 to 8) (size 9 to 14) (size 15 to 20)
#    0.000    0.750    2.500    5.250    0.000    6.000 
#    0.000    0.000    0.000    0.000    0.000    0.000 
#    0.000    0.000    0.000    0.000    0.000    0.000 
#
# Total GULP energy -396628.195932 kJ/mol
# GULP energy per Si atom -12394.631123 kJ/mol
# Density = 2.213757 g / cm^3
# Si number density = 22.188066 Si / 1000 Ang^3
#
#
#
# Elastic Constant Matrix: (Units=GPa)
#
#
# Indices 1 2 3 4 5 6 
#
# 1 124.0992 57.3995 28.0677 0.0000 0.0000 0.0000
# 2 57.3995 88.5236 21.8793 0.0000 0.0000 0.0000
# 3 28.0677 21.8793 127.5300 0.0000 0.0000 0.0000
# 4 0.0000 0.0000 0.0000 75.5739 0.0000 0.0000
# 5 0.0000 0.0000 0.0000 0.0000 35.7956 0.0000
# 6 0.0000 0.0000 0.0000 0.0000 0.0000 15.7110
#
#
#
# Elastic Compliance Matrix: (Units=1/GPa)
#
#
# Indices 1 2 3 4 5 6 
#
# 1 0.011723 -0.007272 -0.001332 0.000000 0.000000 0.000000
# 2 -0.007272 0.016308 -0.001197 0.000000 0.000000 0.000000
# 3 -0.001332 -0.001197 0.008340 0.000000 0.000000 0.000000
# 4 0.000000 0.000000 0.000000 0.013232 0.000000 0.000000
# 5 0.000000 0.000000 0.000000 0.000000 0.027936 0.000000
# 6 0.000000 0.000000 0.000000 0.000000 0.000000 0.063650
#
#
# Mechanical properties :
#
#
# Convention : Reuss Voigt Hill
#
# Bulk Modulus (GPa) = 59.64088 61.64953 60.64520
# Shear Modulus (GPa) = 30.05151 40.93653 35.49402
#
# Velocity S-wave (km/s) = 3.68421 4.29998 4.00395
# Velocity P-wave (km/s) = 6.71088 7.24558 6.98335
#
# Compressibility (1/GPa) = 0.01676702
#
# Stress axis : x y z
#
# Youngs Moduli (GPa) = 85.30311 61.32145 119.90461
#
# Poissons Ratio (x) = 0.44592 0.15977
# Poissons Ratio (y) = 0.62032 0.14356
# Poissons Ratio (z) = 0.11366 0.07342
#
# Static dielectric constant tensor:
#      x y z
#    x 3.765650 0.000000 0.000000 
#    y 0.000000 3.810930 0.000000 
#    z 0.000000 0.000000 4.289790 
# 
# 
# High freq. dielectric constant tensor:
#      x y z
#    x 1.873380 0.000000 0.000000 
#    y 0.000000 1.865200 0.000000 
#    z 0.000000 0.000000 1.898120 
# 
# From -- ./inp_files/1284.got.cif
#   From: 2010.03.12/outbox.cif.g09.slc.cpg/sg53_1_cif.got.tgz:1284.got - 2010.04.16 14:36:59.
