data_PCOD8221789
_publ_section_title
;
Structure prediction by ZEFSAII (Michael W. Deem and Ramdas Pophale) SiO2 
 PCOD8221789
Probable space group: P M N A
;
_chemical_formula_sum "Si O2"
_cell_formula_units_Z 32
_cell_length_a 21.633725
_cell_length_b 9.075196
_cell_length_c 7.747380
_cell_angle_alpha 90.000000
_cell_angle_beta 90.000000
_cell_angle_gamma 90.000000
_cell_volume 1521.045398
_symmetry_space_group_name_H-M "P M N A"
_symmetry_group_IT_number 53
_symmetry_cell_setting 'orthorhombic'
loop_
_space_group_symop_operation_xyz
x,y,z
1/2-x,-y,1/2+z
x,-y,-z
1/2-x,y,1/2-z
-x,-y,-z
1/2+x,y,1/2-z
-x,y,z
1/2+x,-y,1/2+z
loop_
_atom_site_type_symbol
_atom_site_label
_atom_site_fract_x
_atom_site_fract_y
_atom_site_fract_z
Si Si1 0.767674 0.154110 0.560063
Si Si2 0.869048 0.170617 0.004466
Si Si3 0.381006 0.671549 0.149987
Si Si4 0.570045 0.642051 0.799623
O O1 0.750000 0.110232 0.750000
O O2 0.704273 0.197301 0.460140
O O3 0.814592 0.291484 0.561398
O O4 0.798845 0.000000 0.500000
O O5 0.892458 0.233763 0.821229
O O6 0.905838 0.241681 0.161619
O O7 0.885488 0.000000 0.000000
O O8 0.385531 0.500938 0.205462
O O9 0.429488 0.707015 0.995631
O O10 0.500000 0.597876 0.752258
#
# Coordination Sequence:
#
# PCOD8221789 Si02
#       4
#     8   8   8   8
#     4   9  20  37  63  96 128 161 204 265 333 390
#     4  10  23  42  66  98 130 167 212 266 329 384
#     4  10  22  41  64  94 127 168 215 262 326 380
#     4  11  25  44  65  91 130 178 219 263 312 377
#
# _framework density 21.038163000000001
#
# number of rings (size 3 to 8) (size 9 to 14) (size 15 to 20)
#    0.000    2.000    0.000    2.250   10.500    3.500 
#   27.000    1.250    0.000    0.000    0.000    0.000 
#    0.000    0.000    0.000    0.000    0.000    0.000 
#
# Total GULP energy -396534.789543 kJ/mol
# GULP energy per Si atom -12391.712173 kJ/mol
# Density = 2.099028 g / cm^3
# Si number density = 21.038163 Si / 1000 Ang^3
#
#
#
# Elastic Constant Matrix: (Units=GPa)
#
#
# Indices 1 2 3 4 5 6 
#
# 1 106.2407 80.3584 32.1952 0.0000 0.0000 0.0000
# 2 80.3584 154.4152 68.5350 0.0000 0.0000 0.0000
# 3 32.1952 68.5350 108.7083 0.0000 0.0000 0.0000
# 4 0.0000 0.0000 0.0000 36.7051 0.0000 0.0000
# 5 0.0000 0.0000 0.0000 0.0000 26.5910 0.0000
# 6 0.0000 0.0000 0.0000 0.0000 0.0000 19.7443
#
#
#
# Elastic Compliance Matrix: (Units=1/GPa)
#
#
# Indices 1 2 3 4 5 6 
#
# 1 0.015560 -0.008404 0.000690 0.000000 0.000000 0.000000
# 2 -0.008404 0.013531 -0.006042 0.000000 0.000000 0.000000
# 3 0.000690 -0.006042 0.012804 0.000000 0.000000 0.000000
# 4 0.000000 0.000000 0.000000 0.027244 0.000000 0.000000
# 5 0.000000 0.000000 0.000000 0.000000 0.037607 0.000000
# 6 0.000000 0.000000 0.000000 0.000000 0.000000 0.050647
#
#
# Mechanical properties :
#
#
# Convention : Reuss Voigt Hill
#
# Bulk Modulus (GPa) = 69.52475 81.28238 75.40357
# Shear Modulus (GPa) = 26.35768 29.15978 27.75873
#
# Velocity S-wave (km/s) = 3.54340 3.72700 3.63636
# Velocity P-wave (km/s) = 7.06114 7.56573 7.31778
#
# Compressibility (1/GPa) = 0.01438337
#
# Stress axis : x y z
#
# Youngs Moduli (GPa) = 64.26795 73.90542 78.10312
#
# Poissons Ratio (x) = 0.62107 -0.05387
# Poissons Ratio (y) = 0.54008 0.47187
# Poissons Ratio (z) = -0.04433 0.44651
#
# Static dielectric constant tensor:
#      x y z
#    x 4.548630 0.000000 0.000000 
#    y 0.000000 3.702230 0.000000 
#    z 0.000000 0.000000 4.066770 
# 
# 
# High freq. dielectric constant tensor:
#      x y z
#    x 1.808360 0.000000 0.000000 
#    y 0.000000 1.817110 0.000000 
#    z 0.000000 0.000000 1.843820 
# 
# From -- ./inp_files/10432.got.cif
#   From: 2010.03.12/outbox.cif.g09.slc.cpg/sg53_6_cif.got.tgz:10432.got - 2010.04.16 14:36:59.
