data_PCOD8221026
_publ_section_title
;
Structure prediction by ZEFSAII (Michael W. Deem and Ramdas Pophale) SiO2 
 PCOD8221026
Probable space group: P M N A
;
_chemical_formula_sum "Si O2"
_cell_formula_units_Z 40
_cell_length_a 8.891949
_cell_length_b 12.294444
_cell_length_c 18.359206
_cell_angle_alpha 90.000000
_cell_angle_beta 90.000000
_cell_angle_gamma 90.000000
_cell_volume 2007.057206
_symmetry_space_group_name_H-M "P M N A"
_symmetry_group_IT_number 53
_symmetry_cell_setting 'orthorhombic'
loop_
_space_group_symop_operation_xyz
x,y,z
1/2-x,-y,1/2+z
x,-y,-z
1/2-x,y,1/2-z
-x,-y,-z
1/2+x,y,1/2-z
-x,y,z
1/2+x,-y,1/2+z
loop_
_atom_site_type_symbol
_atom_site_label
_atom_site_fract_x
_atom_site_fract_y
_atom_site_fract_z
Si Si1 0.675698 0.334345 0.072707
Si Si2 0.177326 0.710832 0.077022
Si Si3 0.325632 0.139502 0.172842
Si Si4 0.175992 0.538203 0.326001
Si Si5 0.173907 0.060152 0.574130
O O1 0.500000 0.321591 0.054148
O O2 0.736668 0.230172 0.117217
O O3 0.709845 0.442529 0.117356
O O4 0.764756 0.342091 0.997570
O O5 0.250901 0.648925 0.144991
O O6 0.221100 0.836515 0.083939
O O7 0.000000 0.698598 0.081502
O O8 0.250000 0.153104 0.250000
O O9 0.500000 0.161673 0.184357
O O10 0.294011 0.019989 0.141383
O O11 0.250000 0.504606 0.250000
O O12 0.000000 0.556442 0.314516
O O13 0.000000 0.096998 0.571187
O O14 0.218301 0.000000 0.500000
#
# Coordination Sequence:
#
# PCOD8221026 Si02
#       5
#     8   8   8   8   8
#     4  10  21  41  65  90 121 162 206 249 307 371
#     4  12  25  39  62  93 126 161 207 259 305 364
#     4  10  21  37  61  91 122 157 197 249 308 368
#     4  11  24  42  65  90 124 164 206 255 309 370
#     4  10  20  40  65  85 118 163 206 250 302 366
#
# _framework density 19.929677000000002
#
# number of rings (size 3 to 8) (size 9 to 14) (size 15 to 20)
#    0.000    1.400    2.000    3.600    0.000    6.800 
#    0.000    2.000    0.000    0.000    0.000    0.000 
#    0.000    0.000    0.000    0.000    0.000    0.000 
#
# Total GULP energy -496254.578679 kJ/mol
# GULP energy per Si atom -12406.364467 kJ/mol
# Density = 1.988432 g / cm^3
# Si number density = 19.929677 Si / 1000 Ang^3
#
#
#
# Elastic Constant Matrix: (Units=GPa)
#
#
# Indices 1 2 3 4 5 6 
#
# 1 96.7800 44.3399 35.1015 0.0000 0.0000 0.0000
# 2 44.3399 95.4332 18.0090 0.0000 0.0000 0.0000
# 3 35.1015 18.0090 67.8171 0.0000 0.0000 0.0000
# 4 0.0000 0.0000 0.0000 21.1242 0.0000 0.0000
# 5 0.0000 0.0000 0.0000 0.0000 37.6708 0.0000
# 6 0.0000 0.0000 0.0000 0.0000 0.0000 22.7504
#
#
#
# Elastic Compliance Matrix: (Units=1/GPa)
#
#
# Indices 1 2 3 4 5 6 
#
# 1 0.015365 -0.005935 -0.006376 0.000000 0.000000 0.000000
# 2 -0.005935 0.013324 -0.000466 0.000000 0.000000 0.000000
# 3 -0.006376 -0.000466 0.018170 0.000000 0.000000 0.000000
# 4 0.000000 0.000000 0.000000 0.047339 0.000000 0.000000
# 5 0.000000 0.000000 0.000000 0.000000 0.026546 0.000000
# 6 0.000000 0.000000 0.000000 0.000000 0.000000 0.043955
#
#
# Mechanical properties :
#
#
# Convention : Reuss Voigt Hill
#
# Bulk Modulus (GPa) = 46.94272 50.54790 48.74531
# Shear Modulus (GPa) = 25.33499 27.14777 26.24138
#
# Velocity S-wave (km/s) = 3.56928 3.69477 3.63257
# Velocity P-wave (km/s) = 6.37116 6.60454 6.48890
#
# Compressibility (1/GPa) = 0.02130256
#
# Stress axis : x y z
#
# Youngs Moduli (GPa) = 65.08413 75.05146 55.03660
#
# Poissons Ratio (x) = 0.44546 0.35094
# Poissons Ratio (y) = 0.38630 0.02566
# Poissons Ratio (z) = 0.41501 0.03499
#
# Static dielectric constant tensor:
#      x y z
#    x 3.508430 0.000000 0.000000 
#    y 0.000000 3.741560 0.000000 
#    z 0.000000 0.000000 3.652990 
# 
# 
# High freq. dielectric constant tensor:
#      x y z
#    x 1.768590 0.000000 0.000000 
#    y 0.000000 1.791440 0.000000 
#    z 0.000000 0.000000 1.785370 
# 
# From -- ./inp_files/25822.got.cif
#   From: 2010.03.12/outbox.cif.g09.slc.cpg/sg53_13_cif.got.tgz:25822.got - 2010.04.16 14:36:59.
