data_PCOD8221514
_publ_section_title
;
Structure prediction by ZEFSAII (Michael W. Deem and Ramdas Pophale) SiO2 
 PCOD8221514
Probable space group: P M N A
;
_chemical_formula_sum "Si O2"
_cell_formula_units_Z 48
_cell_length_a 7.940422
_cell_length_b 9.284311
_cell_length_c 30.164035
_cell_angle_alpha 90.000000
_cell_angle_beta 90.000000
_cell_angle_gamma 90.000000
_cell_volume 2223.733301
_symmetry_space_group_name_H-M "P M N A"
_symmetry_group_IT_number 53
_symmetry_cell_setting 'orthorhombic'
loop_
_space_group_symop_operation_xyz
x,y,z
1/2-x,-y,1/2+z
x,-y,-z
1/2-x,y,1/2-z
-x,-y,-z
1/2+x,y,1/2-z
-x,y,z
1/2+x,-y,1/2+z
loop_
_atom_site_type_symbol
_atom_site_label
_atom_site_fract_x
_atom_site_fract_y
_atom_site_fract_z
Si Si1 0.500000 0.676817 0.502770
Si Si2 0.179411 0.625405 0.464582
Si Si3 0.698087 0.467994 0.202339
Si Si4 0.000000 0.942520 0.948774
Si Si5 0.692980 0.657797 0.376018
Si Si6 0.697545 0.856440 0.797816
Si Si7 0.196820 0.025866 0.615742
O O1 0.500000 0.500000 0.500000
O O2 0.331371 0.733094 0.477640
O O3 0.500000 0.764450 0.549087
O O4 0.167884 0.500000 0.500000
O O5 0.225014 0.562748 0.415971
O O6 0.000000 0.708473 0.463718
O O7 0.750000 0.529273 0.250000
O O8 0.500000 0.477646 0.194077
O O9 0.794803 0.568730 0.168445
O O10 0.769145 0.305700 0.197487
O O11 0.172575 0.986870 0.923584
O O12 0.000000 0.000000 0.000000
O O13 0.500000 0.692945 0.386684
O O14 0.797922 0.804943 0.374158
O O15 0.750000 0.923133 0.750000
O O16 0.500000 0.851215 0.799322
O O17 0.763467 0.949039 0.839262
O O18 0.000000 0.984217 0.604468
#
# Coordination Sequence:
#
# PCOD8221514 Si02
#       7
#     4   8   8   4   8   8   8
#     4  10  22  40  62  94 126 160 214 266 318 389
#     4  10  21  39  63  92 128 167 210 266 331 388
#     4  10  21  40  63  97 134 171 219 271 334 399
#     4  12  26  44  66  94 134 176 228 280 335 409
#     4  12  23  40  65  94 129 171 217 273 327 390
#     4   9  21  40  66  95 130 172 218 272 336 404
#     4  11  25  46  67  97 135 178 229 279 340 404
#
# _framework density 21.585321
#
# number of rings (size 3 to 8) (size 9 to 14) (size 15 to 20)
#    0.000    1.500    1.667    3.000    1.167    5.000 
#    0.000    6.667    0.000    0.000    0.000    0.000 
#    0.000    0.000    0.000    0.000    0.000    0.000 
#
# Total GULP energy -594636.432213 kJ/mol
# GULP energy per Si atom -12388.259004 kJ/mol
# Density = 2.153619 g / cm^3
# Si number density = 21.585321 Si / 1000 Ang^3
#
#
#
# Elastic Constant Matrix: (Units=GPa)
#
#
# Indices 1 2 3 4 5 6 
#
# 1 152.8142 16.8496 51.7189 0.0000 0.0000 0.0000
# 2 16.8496 88.1039 68.6941 0.0000 0.0000 0.0000
# 3 51.7189 68.6941 179.6548 0.0000 0.0000 0.0000
# 4 0.0000 0.0000 0.0000 38.7387 0.0000 0.0000
# 5 0.0000 0.0000 0.0000 0.0000 36.6485 0.0000
# 6 0.0000 0.0000 0.0000 0.0000 0.0000 2.7878
#
#
#
# Elastic Compliance Matrix: (Units=1/GPa)
#
#
# Indices 1 2 3 4 5 6 
#
# 1 0.007258 0.000343 -0.002221 0.000000 0.000000 0.000000
# 2 0.000343 0.016188 -0.006288 0.000000 0.000000 0.000000
# 3 -0.002221 -0.006288 0.008610 0.000000 0.000000 0.000000
# 4 0.000000 0.000000 0.000000 0.025814 0.000000 0.000000
# 5 0.000000 0.000000 0.000000 0.000000 0.027286 0.000000
# 6 0.000000 0.000000 0.000000 0.000000 0.000000 0.358707
#
#
# Mechanical properties :
#
#
# Convention : Reuss Voigt Hill
#
# Bulk Modulus (GPa) = 63.59763 77.23315 70.41539
# Shear Modulus (GPa) = 10.74264 34.52234 22.63249
#
# Velocity S-wave (km/s) = 2.23330 4.00352 3.24159
# Velocity P-wave (km/s) = 6.01477 7.56498 6.83398
#
# Compressibility (1/GPa) = 0.01572386
#
# Stress axis : x y z
#
# Youngs Moduli (GPa) = 137.78697 61.77546 116.14386
#
# Poissons Ratio (x) = -0.02121 0.25791
# Poissons Ratio (y) = -0.04732 0.73037
# Poissons Ratio (z) = 0.30597 0.38847
#
# Static dielectric constant tensor:
#      x y z
#    x 5.268350 0.000000 0.000000 
#    y 0.000000 4.017490 0.000000 
#    z 0.000000 0.000000 4.383120 
# 
# 
# High freq. dielectric constant tensor:
#      x y z
#    x 1.870990 0.000000 0.000000 
#    y 0.000000 1.821280 0.000000 
#    z 0.000000 0.000000 1.857630 
# 
# From -- ./inp_files/37857.got.cif
#   From: 2010.03.12/outbox.cif.g09.slc.cpg/sg53_19_cif.got.tgz:37857.got - 2010.04.16 14:36:59.
