data_PCOD8221122
_publ_section_title
;
Structure prediction by ZEFSAII (Michael W. Deem and Ramdas Pophale) SiO2 
 PCOD8221122
Probable space group: P M N A
;
_chemical_formula_sum "Si O2"
_cell_formula_units_Z 32
_cell_length_a 26.411050
_cell_length_b 12.600397
_cell_length_c 5.008750
_cell_angle_alpha 90.000000
_cell_angle_beta 90.000000
_cell_angle_gamma 90.000000
_cell_volume 1666.860486
_symmetry_space_group_name_H-M "P M N A"
_symmetry_group_IT_number 53
_symmetry_cell_setting 'orthorhombic'
loop_
_space_group_symop_operation_xyz
x,y,z
1/2-x,-y,1/2+z
x,-y,-z
1/2-x,y,1/2-z
-x,-y,-z
1/2+x,y,1/2-z
-x,y,z
1/2+x,-y,1/2+z
loop_
_atom_site_type_symbol
_atom_site_label
_atom_site_fract_x
_atom_site_fract_y
_atom_site_fract_z
Si Si1 0.899817 0.211956 0.331956
Si Si2 0.442572 0.894395 0.360078
Si Si3 0.692499 0.073173 0.249673
Si Si4 0.943629 0.429479 0.245136
O O1 0.913423 0.146626 0.599160
O O2 0.843320 0.176872 0.247237
O O3 0.904307 0.338783 0.347177
O O4 0.939557 0.191587 0.092970
O O5 0.500000 0.916753 0.271914
O O6 0.418237 0.000000 0.500000
O O7 0.750000 0.115983 0.250000
O O8 0.681140 0.000000 0.500000
O O9 0.680534 0.000000 0.000000
O O10 0.950423 0.500000 0.500000
O O11 0.000000 0.385676 0.166378
O O12 0.921385 0.500000 0.000000
#
# Coordination Sequence:
#
# PCOD8221122 Si02
#       4
#     8   8   8   8
#     4  12  21  35  57  77 106 146 184 221 271 323
#     4  11  22  33  49  79 114 143 173 212 266 335
#     4  10  21  37  57  82 110 140 178 222 268 324
#     4  10  21  36  53  75 104 140 184 228 268 316
#
# _framework density 19.197766999999999
#
# number of rings (size 3 to 8) (size 9 to 14) (size 15 to 20)
#    0.000    1.250    0.000    8.250    0.000    4.000 
#    0.000    0.000    0.000    1.500    0.000    0.000 
#    0.000    0.000    0.000    0.000    0.000    0.000 
#
# Total GULP energy -396566.462578 kJ/mol
# GULP energy per Si atom -12392.701956 kJ/mol
# Density = 1.915407 g / cm^3
# Si number density = 19.197767 Si / 1000 Ang^3
#
#
#
# Elastic Constant Matrix: (Units=GPa)
#
#
# Indices 1 2 3 4 5 6 
#
# 1 88.5287 82.8401 42.0424 0.0000 0.0000 0.0000
# 2 82.8401 102.8721 33.1494 0.0000 0.0000 0.0000
# 3 42.0424 33.1494 140.2454 0.0000 0.0000 0.0000
# 4 0.0000 0.0000 0.0000 58.1683 0.0000 0.0000
# 5 0.0000 0.0000 0.0000 0.0000 36.7244 0.0000
# 6 0.0000 0.0000 0.0000 0.0000 0.0000 41.6958
#
#
#
# Elastic Compliance Matrix: (Units=1/GPa)
#
#
# Indices 1 2 3 4 5 6 
#
# 1 0.049996 -0.038352 -0.005923 0.000000 0.000000 0.000000
# 2 -0.038352 0.039942 0.002056 0.000000 0.000000 0.000000
# 3 -0.005923 0.002056 0.008420 0.000000 0.000000 0.000000
# 4 0.000000 0.000000 0.000000 0.017191 0.000000 0.000000
# 5 0.000000 0.000000 0.000000 0.000000 0.027230 0.000000
# 6 0.000000 0.000000 0.000000 0.000000 0.000000 0.023983
#
#
# Mechanical properties :
#
#
# Convention : Reuss Voigt Hill
#
# Bulk Modulus (GPa) = 71.83384 71.96780 71.90082
# Shear Modulus (GPa) = 19.54351 38.89198 29.21775
#
# Velocity S-wave (km/s) = 3.19409 4.50584 3.90543
# Velocity P-wave (km/s) = 7.14856 8.03984 7.60727
#
# Compressibility (1/GPa) = 0.01392102
#
# Stress axis : x y z
#
# Youngs Moduli (GPa) = 20.00163 25.03630 118.76747
#
# Poissons Ratio (x) = 0.96019 0.70340
# Poissons Ratio (y) = 0.76710 -0.24419
# Poissons Ratio (z) = 0.11846 -0.05148
#
# Static dielectric constant tensor:
#      x y z
#    x 3.380910 0.000000 0.000000 
#    y 0.000000 3.104500 0.000000 
#    z 0.000000 0.000000 3.575130 
# 
# 
# High freq. dielectric constant tensor:
#      x y z
#    x 1.725050 0.000000 0.000000 
#    y 0.000000 1.727920 0.000000 
#    z 0.000000 0.000000 1.772760 
# 
# From -- ./inp_files/4235.got.cif
#   From: 2010.03.12/outbox.cif.g09.slc.cpg/sg53_3_cif.got.tgz:4235.got - 2010.04.16 14:36:59.
