data_PCOD8221437
_publ_section_title
;
Structure prediction by ZEFSAII (Michael W. Deem and Ramdas Pophale) SiO2 
 PCOD8221437
Probable space group: P M N A
;
_chemical_formula_sum "Si O2"
_cell_formula_units_Z 48
_cell_length_a 8.723691
_cell_length_b 30.027769
_cell_length_c 9.156067
_cell_angle_alpha 90.000000
_cell_angle_beta 90.000000
_cell_angle_gamma 90.000000
_cell_volume 2398.459019
_symmetry_space_group_name_H-M "P M N A"
_symmetry_group_IT_number 53
_symmetry_cell_setting 'orthorhombic'
loop_
_space_group_symop_operation_xyz
x,y,z
1/2-x,-y,1/2+z
x,-y,-z
1/2-x,y,1/2-z
-x,-y,-z
1/2+x,y,1/2-z
-x,y,z
1/2+x,-y,1/2+z
loop_
_atom_site_type_symbol
_atom_site_label
_atom_site_fract_x
_atom_site_fract_y
_atom_site_fract_z
Si Si1 0.681634 0.128415 0.908547
Si Si2 0.820155 0.718703 0.404164
Si Si3 0.819705 0.958123 0.590695
Si Si4 0.818000 0.207546 0.091569
Si Si5 0.179922 0.542327 0.905326
Si Si6 0.821476 0.615497 0.402039
O O1 0.750000 0.119557 0.750000
O O2 0.500000 0.135216 0.898714
O O3 0.727815 0.086706 0.008102
O O4 0.758348 0.171853 0.976019
O O5 0.750000 0.734467 0.250000
O O6 0.738639 0.744363 0.536544
O O7 0.784857 0.667029 0.431651
O O8 0.000000 0.729222 0.403087
O O9 0.750000 0.957585 0.750000
O O10 0.000000 0.962387 0.607453
O O11 0.753877 0.000000 0.500000
O O12 0.750000 0.196954 0.250000
O O13 0.000000 0.206316 0.101132
O O14 0.250000 0.532801 0.750000
O O15 0.000000 0.548280 0.893891
O O16 0.228289 0.500000 0.000000
O O17 0.248398 0.587828 0.967657
O O18 0.750000 0.599399 0.250000
O O19 0.000000 0.605840 0.394375
#
# Coordination Sequence:
#
# PCOD8221437 Si02
#       6
#     8   8   8   8   8   8
#     4  11  23  40  62  88 119 155 197 243 293 349
#     4  10  21  39  62  89 119 154 195 238 289 346
#     4  10  22  39  60  88 120 155 196 241 291 347
#     4  12  25  41  61  86 118 155 196 243 294 348
#     4  11  24  40  60  86 117 154 195 240 290 345
#     4  10  21  38  62  89 119 154 193 239 289 345
#
# _framework density 20.01285
#
# number of rings (size 3 to 8) (size 9 to 14) (size 15 to 20)
#    0.000    1.333    0.000    5.500    0.000    8.333 
#    0.000    0.000    0.000    0.000    0.000    0.000 
#    0.000    0.000    0.000    0.000    0.000    0.000 
#
# Total GULP energy -595536.799573 kJ/mol
# GULP energy per Si atom -12407.016658 kJ/mol
# Density = 1.996730 g / cm^3
# Si number density = 20.012850 Si / 1000 Ang^3
#
#
#
# Elastic Constant Matrix: (Units=GPa)
#
#
# Indices 1 2 3 4 5 6 
#
# 1 105.8337 57.9517 65.0813 0.0000 0.0000 0.0000
# 2 57.9517 104.8728 65.1292 0.0000 0.0000 0.0000
# 3 65.0813 65.1292 161.2180 0.0000 0.0000 0.0000
# 4 0.0000 0.0000 0.0000 63.4727 0.0000 0.0000
# 5 0.0000 0.0000 0.0000 0.0000 42.6826 0.0000
# 6 0.0000 0.0000 0.0000 0.0000 0.0000 23.3924
#
#
#
# Elastic Compliance Matrix: (Units=1/GPa)
#
#
# Indices 1 2 3 4 5 6 
#
# 1 0.014969 -0.006033 -0.003606 0.000000 0.000000 0.000000
# 2 -0.006033 0.015160 -0.003689 0.000000 0.000000 0.000000
# 3 -0.003606 -0.003689 0.009149 0.000000 0.000000 0.000000
# 4 0.000000 0.000000 0.000000 0.015755 0.000000 0.000000
# 5 0.000000 0.000000 0.000000 0.000000 0.023429 0.000000
# 6 0.000000 0.000000 0.000000 0.000000 0.000000 0.042749
#
#
# Mechanical properties :
#
#
# Convention : Reuss Voigt Hill
#
# Bulk Modulus (GPa) = 79.22036 83.13878 81.17957
# Shear Modulus (GPa) = 32.87882 38.16035 35.51958
#
# Velocity S-wave (km/s) = 4.05765 4.37142 4.21745
# Velocity P-wave (km/s) = 7.85006 8.19219 8.02295
#
# Compressibility (1/GPa) = 0.01262302
#
# Stress axis : x y z
#
# Youngs Moduli (GPa) = 66.80250 65.96316 109.30464
#
# Poissons Ratio (x) = 0.39793 0.39414
# Poissons Ratio (y) = 0.40300 0.40323
# Poissons Ratio (z) = 0.24088 0.24334
#
# Static dielectric constant tensor:
#      x y z
#    x 3.736590 0.000000 0.000000 
#    y 0.000000 3.792650 0.000000 
#    z 0.000000 0.000000 3.708530 
# 
# 
# High freq. dielectric constant tensor:
#      x y z
#    x 1.793200 0.000000 0.000000 
#    y 0.000000 1.795520 0.000000 
#    z 0.000000 0.000000 1.790710 
# 
# From -- ./inp_files/6642.got.cif
#   From: 2010.03.12/outbox.cif.g09.slc.cpg/sg53_4_cif.got.tgz:6642.got - 2010.04.16 14:36:59.
