data_PCOD8221220
_publ_section_title
;
Structure prediction by ZEFSAII (Michael W. Deem and Ramdas Pophale) SiO2 
 PCOD8221220
Probable space group: P M N A
;
_chemical_formula_sum "Si O2"
_cell_formula_units_Z 40
_cell_length_a 13.342402
_cell_length_b 5.075581
_cell_length_c 30.086789
_cell_angle_alpha 90.000000
_cell_angle_beta 90.000000
_cell_angle_gamma 90.000000
_cell_volume 2037.490652
_symmetry_space_group_name_H-M "P M N A"
_symmetry_group_IT_number 53
_symmetry_cell_setting 'orthorhombic'
loop_
_space_group_symop_operation_xyz
x,y,z
1/2-x,-y,1/2+z
x,-y,-z
1/2-x,y,1/2-z
-x,-y,-z
1/2+x,y,1/2-z
-x,y,z
1/2+x,-y,1/2+z
loop_
_atom_site_type_symbol
_atom_site_label
_atom_site_fract_x
_atom_site_fract_y
_atom_site_fract_z
Si Si1 0.116016 0.204851 0.768511
Si Si2 0.384571 0.244020 0.029145
Si Si3 0.199111 0.788084 0.624384
Si Si4 0.617865 0.713298 0.170486
Si Si5 0.884717 0.306895 0.176259
O O1 0.166566 0.234548 0.719657
O O2 0.156664 0.417676 0.804025
O O3 0.000000 0.277186 0.762454
O O4 0.132194 0.910491 0.785627
O O5 0.500000 0.207470 0.043739
O O6 0.317566 0.268763 0.072806
O O7 0.368662 0.500000 0.000000
O O8 0.347129 0.000000 0.000000
O O9 0.137570 0.584363 0.654992
O O10 0.317905 0.758942 0.633292
O O11 0.165546 0.083841 0.635654
O O12 0.500000 0.764969 0.171687
O O13 0.000000 0.317526 0.160523
#
# Coordination Sequence:
#
# PCOD8221220 Si02
#       5
#     8   8   8   8   8
#     4   9  19  35  52  74 111 153 184 220 265 305
#     4  10  21  38  58  79 106 135 165 211 274 339
#     4  12  23  35  58  83 106 143 183 222 269 320
#     4  11  22  35  53  82 116 143 179 226 267 317
#     4  10  21  37  54  76 109 148 190 225 256 303
#
# _framework density 19.631992
#
# number of rings (size 3 to 8) (size 9 to 14) (size 15 to 20)
#    0.000    1.600    0.000    5.400    0.000    9.600 
#    0.000    0.000    0.000    1.200    0.000    0.000 
#    0.000    0.000    0.000    0.000    0.000    0.000 
#
# Total GULP energy -496234.688878 kJ/mol
# GULP energy per Si atom -12405.867222 kJ/mol
# Density = 1.958731 g / cm^3
# Si number density = 19.631992 Si / 1000 Ang^3
#
#
#
# Elastic Constant Matrix: (Units=GPa)
#
#
# Indices 1 2 3 4 5 6 
#
# 1 76.4034 11.2665 40.7373 0.0000 0.0000 0.0000
# 2 11.2665 88.4311 10.5434 0.0000 0.0000 0.0000
# 3 40.7373 10.5434 116.0524 0.0000 0.0000 0.0000
# 4 0.0000 0.0000 0.0000 23.0262 0.0000 0.0000
# 5 0.0000 0.0000 0.0000 0.0000 31.3914 0.0000
# 6 0.0000 0.0000 0.0000 0.0000 0.0000 25.0186
#
#
#
# Elastic Compliance Matrix: (Units=1/GPa)
#
#
# Indices 1 2 3 4 5 6 
#
# 1 0.016274 -0.001407 -0.005585 0.000000 0.000000 0.000000
# 2 -0.001407 0.011554 -0.000556 0.000000 0.000000 0.000000
# 3 -0.005585 -0.000556 0.010628 0.000000 0.000000 0.000000
# 4 0.000000 0.000000 0.000000 0.043429 0.000000 0.000000
# 5 0.000000 0.000000 0.000000 0.000000 0.031856 0.000000
# 6 0.000000 0.000000 0.000000 0.000000 0.000000 0.039970
#
#
# Mechanical properties :
#
#
# Convention : Reuss Voigt Hill
#
# Bulk Modulus (GPa) = 42.80883 45.10905 43.95894
# Shear Modulus (GPa) = 28.31387 30.44320 29.37854
#
# Velocity S-wave (km/s) = 3.80179 3.94216 3.87261
# Velocity P-wave (km/s) = 6.41284 6.61423 6.51431
#
# Compressibility (1/GPa) = 0.02335967
#
# Stress axis : x y z
#
# Youngs Moduli (GPa) = 61.44926 86.55156 94.09466
#
# Poissons Ratio (x) = 0.12182 0.52548
# Poissons Ratio (y) = 0.08649 0.05228
# Poissons Ratio (z) = 0.34317 0.04809
#
# Static dielectric constant tensor:
#      x y z
#    x 3.613470 0.000000 0.000000 
#    y 0.000000 3.656910 0.000000 
#    z 0.000000 0.000000 3.358470 
# 
# 
# High freq. dielectric constant tensor:
#      x y z
#    x 1.762810 0.000000 0.000000 
#    y 0.000000 1.785130 0.000000 
#    z 0.000000 0.000000 1.740210 
# 
# From -- ./inp_files/35154.got.cif
#   From: 2010.03.12/outbox.cif.g09.slc.cpg/sg53_18_cif.got.tgz:35154.got - 2010.04.16 14:36:59.
