data_PCOD8221446
_publ_section_title
;
Structure prediction by ZEFSAII (Michael W. Deem and Ramdas Pophale) SiO2 
 PCOD8221446
Probable space group: P M N A
;
_chemical_formula_sum "Si O2"
_cell_formula_units_Z 64
_cell_length_a 15.082697
_cell_length_b 23.968468
_cell_length_c 9.046770
_cell_angle_alpha 90.000000
_cell_angle_beta 90.000000
_cell_angle_gamma 90.000000
_cell_volume 3270.490046
_symmetry_space_group_name_H-M "P M N A"
_symmetry_group_IT_number 53
_symmetry_cell_setting 'orthorhombic'
loop_
_space_group_symop_operation_xyz
x,y,z
1/2-x,-y,1/2+z
x,-y,-z
1/2-x,y,1/2-z
-x,-y,-z
1/2+x,y,1/2-z
-x,y,z
1/2+x,-y,1/2+z
loop_
_atom_site_type_symbol
_atom_site_label
_atom_site_fract_x
_atom_site_fract_y
_atom_site_fract_z
Si Si1 0.397525 0.441805 0.923103
Si Si2 0.144901 0.053565 0.583754
Si Si3 0.602475 0.441805 0.576897
Si Si4 0.750000 0.627807 0.922375
Si Si5 0.750000 0.241031 0.079686
Si Si6 0.100258 0.825661 0.079066
Si Si7 0.100258 0.174339 0.579066
Si Si8 0.855099 0.053565 0.916246
O O1 0.500000 0.425771 0.948862
O O2 0.374962 0.446365 0.750000
O O3 0.373912 0.500000 0.000000
O O4 0.338195 0.394795 0.999025
O O5 0.109276 0.111469 0.514665
O O6 0.250000 0.054265 0.573365
O O7 0.110296 0.048408 0.750000
O O8 0.105235 0.000000 0.500000
O O9 0.626088 0.500000 0.500000
O O10 0.500000 0.425771 0.551138
O O11 0.661805 0.394795 0.500975
O O12 0.750000 0.611116 0.750000
O O13 0.750000 0.693437 0.945482
O O14 0.750000 0.224514 0.250000
O O15 0.838369 0.216629 0.008275
O O16 0.661631 0.216629 0.008275
O O17 0.130187 0.825909 0.250000
O O18 0.109276 0.888531 0.014665
O O19 0.000000 0.804533 0.059919
O O20 0.000000 0.195467 0.559919
O O21 0.894765 0.000000 0.000000
#
# Coordination Sequence:
#
# PCOD8221446 Si02
#       8
#     8   8   8   8   8   8   8   8
#     4  10  21  38  62  92 124 157 193 235 283 336
#     4   9  17  31  52  80 112 144 179 225 282 343
#     4  10  21  38  62  92 124 157 193 235 283 336
#     4  11  24  40  59  84 117 158 197 239 288 339
#     4  11  25  42  59  82 115 152 194 243 292 339
#     4  10  21  39  62  84 110 148 192 237 288 346
#     4  10  21  39  62  84 110 148 192 237 288 346
#     4   9  17  31  52  80 112 144 179 225 282 343
#
# _framework density 19.568933000000001
#
# number of rings (size 3 to 8) (size 9 to 14) (size 15 to 20)
#    0.000    2.000    1.250    1.875    0.000    6.500 
#    0.000    5.000    0.000    0.000    0.000    0.000 
#    0.000    0.000    0.000    0.000    0.000    0.000 
#
# Total GULP energy -793727.972429 kJ/mol
# GULP energy per Si atom -12401.999569 kJ/mol
# Density = 1.952439 g / cm^3
# Si number density = 19.568933 Si / 1000 Ang^3
#
#
#
# Elastic Constant Matrix: (Units=GPa)
#
#
# Indices 1 2 3 4 5 6 
#
# 1 99.4175 62.5545 57.9535 0.0000 0.0000 0.0000
# 2 62.5545 116.9520 76.5606 0.0000 0.0000 0.0000
# 3 57.9535 76.5606 121.6872 0.0000 0.0000 0.0000
# 4 0.0000 0.0000 0.0000 37.3298 0.0000 0.0000
# 5 0.0000 0.0000 0.0000 0.0000 23.2996 0.0000
# 6 0.0000 0.0000 0.0000 0.0000 0.0000 -14.2092
#
#
#
# Elastic Compliance Matrix: (Units=1/GPa)
#
#
# Indices 1 2 3 4 5 6 
#
# 1 0.016150 -0.006126 -0.003837 0.000000 0.000000 0.000000
# 2 -0.006126 0.016862 -0.007691 0.000000 0.000000 0.000000
# 3 -0.003837 -0.007691 0.014884 0.000000 0.000000 0.000000
# 4 0.000000 0.000000 0.000000 0.026788 0.000000 0.000000
# 5 0.000000 0.000000 0.000000 0.000000 0.042919 0.000000
# 6 0.000000 0.000000 0.000000 0.000000 0.000000 -0.070377
#
#
# Mechanical properties :
#
#
# Convention : Reuss Voigt Hill
#
# Bulk Modulus (GPa) = 79.44633 81.35489 80.40061
# Shear Modulus (GPa) = 57.64838 18.68325 38.16582
#
# Velocity S-wave (km/s) = 5.43352 3.09324 4.42104
# Velocity P-wave (km/s) = 8.94709 7.37708 8.19975
#
# Compressibility (1/GPa) = 0.01258711
#
# Stress axis : x y z
#
# Youngs Moduli (GPa) = 61.91910 59.30332 67.18487
#
# Poissons Ratio (x) = 0.36332 0.25779
# Poissons Ratio (y) = 0.37934 0.51675
# Poissons Ratio (z) = 0.23758 0.45613
#
# Static dielectric constant tensor:
#      x y z
#    x 3.555680 0.000000 0.000000 
#    y 0.000000 3.543720 0.000000 
#    z 0.000000 0.000000 4.162700 
# 
# 
# High freq. dielectric constant tensor:
#      x y z
#    x 1.770870 0.000000 0.000000 
#    y 0.000000 1.761970 0.000000 
#    z 0.000000 0.000000 1.759970 
# 
# From -- ./inp_files/8960.got.cif
#   From: 2010.03.12/outbox.cif.g09.slc.cpg/sg53_5_cif.got.tgz:8960.got - 2010.04.16 14:36:59.
