data_PCOD8221686
_publ_section_title
;
Structure prediction by ZEFSAII (Michael W. Deem and Ramdas Pophale) SiO2 
 PCOD8221686
Probable space group: P M N A
;
_chemical_formula_sum "Si O2"
_cell_formula_units_Z 64
_cell_length_a 8.727785
_cell_length_b 23.926232
_cell_length_c 15.231052
_cell_angle_alpha 90.000000
_cell_angle_beta 90.000000
_cell_angle_gamma 90.000000
_cell_volume 3180.594105
_symmetry_space_group_name_H-M "P M N A"
_symmetry_group_IT_number 53
_symmetry_cell_setting 'orthorhombic'
loop_
_space_group_symop_operation_xyz
x,y,z
1/2-x,-y,1/2+z
x,-y,-z
1/2-x,y,1/2-z
-x,-y,-z
1/2+x,y,1/2-z
-x,y,z
1/2+x,-y,1/2+z
loop_
_atom_site_type_symbol
_atom_site_label
_atom_site_fract_x
_atom_site_fract_y
_atom_site_fract_z
Si Si1 0.681248 0.134217 0.154876
Si Si2 0.182191 0.801126 0.485058
Si Si3 0.819509 0.107712 0.653806
Si Si4 0.320642 0.610497 0.159716
Si Si5 0.680990 0.316976 0.507566
Si Si6 0.318028 0.372174 0.158553
Si Si7 0.320864 0.987445 0.843292
Si Si8 0.321204 0.509484 0.904175
O O1 0.750000 0.149213 0.250000
O O2 0.500000 0.135877 0.164855
O O3 0.737251 0.072442 0.119524
O O4 0.734620 0.178596 0.081960
O O5 0.240742 0.845592 0.413155
O O6 0.267550 0.744116 0.461718
O O7 0.000000 0.792845 0.480555
O O8 0.750000 0.117359 0.750000
O O9 0.000000 0.112776 0.665165
O O10 0.779258 0.046418 0.608873
O O11 0.250000 0.633753 0.250000
O O12 0.500000 0.624611 0.154868
O O13 0.289374 0.544075 0.156319
O O14 0.235934 0.638511 0.078784
O O15 0.500000 0.320444 0.497642
O O16 0.760737 0.329901 0.415370
O O17 0.250000 0.350848 0.250000
O O18 0.500000 0.370351 0.162464
O O19 0.252211 0.434716 0.139858
O O20 0.250000 0.996750 0.750000
O O21 0.500000 0.982134 0.833269
O O22 0.500000 0.520330 0.917800
O O23 0.245469 0.500000 0.000000
#
# Coordination Sequence:
#
# PCOD8221686 Si02
#       8
#     8   8   8   8   8   8   8   8
#     4   9  18  33  55  81 111 144 181 225 280 340
#     4  10  22  39  57  79 108 148 192 238 289 340
#     4   9  18  33  55  81 111 144 181 225 280 340
#     4  11  22  40  65  92 123 156 193 237 288 347
#     4  12  26  43  60  83 114 154 203 250 295 342
#     4  11  22  40  65  92 123 156 193 237 288 347
#     4   8  14  27  49  79 110 140 174 219 273 337
#     4   9  17  34  62  93 124 158 188 227 286 343
#
# _framework density 20.122026000000002
#
# number of rings (size 3 to 8) (size 9 to 14) (size 15 to 20)
#    0.000    2.125    1.250    2.250    0.000    2.500 
#    0.000    7.500    0.000    0.000    0.000    9.625 
#    0.000    0.000    0.000    0.000    0.000    0.000 
#
# Total GULP energy -793157.246251 kJ/mol
# GULP energy per Si atom -12393.081973 kJ/mol
# Density = 2.007623 g / cm^3
# Si number density = 20.122026 Si / 1000 Ang^3
#
#
#
# Elastic Constant Matrix: (Units=GPa)
#
#
# Indices 1 2 3 4 5 6 
#
# 1 55.9732 21.3116 22.6359 0.0000 0.0000 0.0000
# 2 21.3116 68.5037 0.8696 0.0000 0.0000 0.0000
# 3 22.6359 0.8696 86.8712 0.0000 0.0000 0.0000
# 4 0.0000 0.0000 0.0000 27.5336 0.0000 0.0000
# 5 0.0000 0.0000 0.0000 0.0000 28.7897 0.0000
# 6 0.0000 0.0000 0.0000 0.0000 0.0000 23.7012
#
#
#
# Elastic Compliance Matrix: (Units=1/GPa)
#
#
# Indices 1 2 3 4 5 6 
#
# 1 0.022944 -0.007063 -0.005908 0.000000 0.000000 0.000000
# 2 -0.007063 0.016774 0.001672 0.000000 0.000000 0.000000
# 3 -0.005908 0.001672 0.013034 0.000000 0.000000 0.000000
# 4 0.000000 0.000000 0.000000 0.036319 0.000000 0.000000
# 5 0.000000 0.000000 0.000000 0.000000 0.034735 0.000000
# 6 0.000000 0.000000 0.000000 0.000000 0.000000 0.042192
#
#
# Mechanical properties :
#
#
# Convention : Reuss Voigt Hill
#
# Bulk Modulus (GPa) = 33.16169 33.44247 33.30208
# Shear Modulus (GPa) = 25.17042 27.10697 26.13870
#
# Velocity S-wave (km/s) = 3.54063 3.67431 3.60809
# Velocity P-wave (km/s) = 5.76462 5.88699 5.82612
#
# Compressibility (1/GPa) = 0.03015528
#
# Stress axis : x y z
#
# Youngs Moduli (GPa) = 43.58431 59.61680 76.72279
#
# Poissons Ratio (x) = 0.42107 0.45326
# Poissons Ratio (y) = 0.30783 -0.12832
# Poissons Ratio (z) = 0.25749 -0.09971
#
# Static dielectric constant tensor:
#      x y z
#    x 3.441570 0.000000 0.000000 
#    y 0.000000 3.966630 0.000000 
#    z 0.000000 0.000000 3.613720 
# 
# 
# High freq. dielectric constant tensor:
#      x y z
#    x 1.765270 0.000000 0.000000 
#    y 0.000000 1.796310 0.000000 
#    z 0.000000 0.000000 1.781310 
# 
# From -- ./inp_files/20834.got.cif
#   From: 2010.03.12/outbox.cif.g09.slc.cpg/sg53_11_cif.got.tgz:20834.got - 2010.04.16 14:36:59.
