data_PCOD8221313
_publ_section_title
;
Structure prediction by ZEFSAII (Michael W. Deem and Ramdas Pophale) SiO2 
 PCOD8221313
Probable space group: P M N A
;
_chemical_formula_sum "Si O2"
_cell_formula_units_Z 64
_cell_length_a 27.172748
_cell_length_b 13.825515
_cell_length_c 9.492255
_cell_angle_alpha 90.000000
_cell_angle_beta 90.000000
_cell_angle_gamma 90.000000
_cell_volume 3566.024113
_symmetry_space_group_name_H-M "P M N A"
_symmetry_group_IT_number 53
_symmetry_cell_setting 'orthorhombic'
loop_
_space_group_symop_operation_xyz
x,y,z
1/2-x,-y,1/2+z
x,-y,-z
1/2-x,y,1/2-z
-x,-y,-z
1/2+x,y,1/2-z
-x,y,z
1/2+x,-y,1/2+z
loop_
_atom_site_type_symbol
_atom_site_label
_atom_site_fract_x
_atom_site_fract_y
_atom_site_fract_z
Si Si1 0.108994 0.715472 0.961009
Si Si2 0.612541 0.711444 0.957932
Si Si3 0.944093 0.913095 0.905559
Si Si4 0.558296 0.424854 0.248131
Si Si5 0.694557 0.694340 0.736911
Si Si6 0.056189 0.091304 0.418043
Si Si7 0.887875 0.377441 0.759228
Si Si8 0.792123 0.518517 0.159883
O O1 0.086137 0.816270 0.920099
O O2 0.083160 0.625196 0.882865
O O3 0.166443 0.721734 0.909684
O O4 0.096884 0.702923 0.126201
O O5 0.577307 0.630416 0.890139
O O6 0.662967 0.727121 0.871976
O O7 0.585868 0.813827 0.960364
O O8 0.624771 0.675942 0.114617
O O9 0.940402 0.940914 0.743263
O O10 0.000000 0.893281 0.953333
O O11 0.921678 0.000000 0.000000
O O12 0.500000 0.414827 0.258744
O O13 0.571971 0.538176 0.239017
O O14 0.750000 0.739248 0.750000
O O15 0.697477 0.579138 0.745707
O O16 0.000000 0.111400 0.462829
O O17 0.078653 0.000000 0.500000
O O18 0.840314 0.418186 0.837781
O O19 0.750000 0.573439 0.250000
O O20 0.774934 0.500000 0.000000
#
# Coordination Sequence:
#
# PCOD8221313 Si02
#       8
#     8   8   8   8   8   8   8   8
#     4  11  21  39  58  82 115 151 191 238 286 339
#     4  11  23  37  58  83 115 153 190 236 289 343
#     4  10  21  38  62  88 112 145 191 239 287 340
#     4  11  22  38  55  74 114 163 196 225 276 344
#     4  10  21  37  59  80 108 151 194 229 284 342
#     4  10  21  39  61  86 115 146 187 239 291 340
#     4  12  24  35  52  86 120 148 195 236 278 340
#     4  11  22  36  56  81 114 152 196 242 285 329
#
# _framework density 17.947158999999999
#
# number of rings (size 3 to 8) (size 9 to 14) (size 15 to 20)
#    0.000    1.250    6.250    1.500    5.250    3.000 
#    0.000    0.000    0.000    0.750    0.000    0.000 
#    0.000    0.000    0.000    0.000    0.000    0.000 
#
# Total GULP energy -793423.668824 kJ/mol
# GULP energy per Si atom -12397.244825 kJ/mol
# Density = 1.790631 g / cm^3
# Si number density = 17.947159 Si / 1000 Ang^3
#
#
#
# Elastic Constant Matrix: (Units=GPa)
#
#
# Indices 1 2 3 4 5 6 
#
# 1 102.4427 28.2130 33.0067 0.0000 0.0000 0.0000
# 2 28.2130 76.4323 32.9249 0.0000 0.0000 0.0000
# 3 33.0067 32.9249 117.8227 0.0000 0.0000 0.0000
# 4 0.0000 0.0000 0.0000 29.0050 0.0000 0.0000
# 5 0.0000 0.0000 0.0000 0.0000 20.3218 0.0000
# 6 0.0000 0.0000 0.0000 0.0000 0.0000 12.7585
#
#
#
# Elastic Compliance Matrix: (Units=1/GPa)
#
#
# Indices 1 2 3 4 5 6 
#
# 1 0.011385 -0.003216 -0.002291 0.000000 0.000000 0.000000
# 2 -0.003216 0.015782 -0.003509 0.000000 0.000000 0.000000
# 3 -0.002291 -0.003509 0.010110 0.000000 0.000000 0.000000
# 4 0.000000 0.000000 0.000000 0.034477 0.000000 0.000000
# 5 0.000000 0.000000 0.000000 0.000000 0.049208 0.000000
# 6 0.000000 0.000000 0.000000 0.000000 0.000000 0.078379
#
#
# Mechanical properties :
#
#
# Convention : Reuss Voigt Hill
#
# Bulk Modulus (GPa) = 51.96072 53.88743 52.92407
# Shear Modulus (GPa) = 22.34255 25.92061 24.13158
#
# Velocity S-wave (km/s) = 3.53215 3.80448 3.67084
# Velocity P-wave (km/s) = 6.75646 7.02777 6.89345
#
# Compressibility (1/GPa) = 0.01924531
#
# Stress axis : x y z
#
# Youngs Moduli (GPa) = 87.83264 63.36235 98.91431
#
# Poissons Ratio (x) = 0.20376 0.22660
# Poissons Ratio (y) = 0.28245 0.34713
# Poissons Ratio (z) = 0.20121 0.22236
#
# Static dielectric constant tensor:
#      x y z
#    x 3.580630 0.000000 0.000000 
#    y 0.000000 3.197600 0.000000 
#    z 0.000000 0.000000 3.594560 
# 
# 
# High freq. dielectric constant tensor:
#      x y z
#    x 1.689470 0.000000 0.000000 
#    y 0.000000 1.674750 0.000000 
#    z 0.000000 0.000000 1.704960 
# 
# From -- ./inp_files/13257.got.cif
#   From: 2010.03.12/outbox.cif.g09.slc.cpg/sg53_7_cif.got.tgz:13257.got - 2010.04.16 14:36:59.
