data_PCOD8221870
_publ_section_title
;
Structure prediction by ZEFSAII (Michael W. Deem and Ramdas Pophale) SiO2 
 PCOD8221870
Probable space group: P M N A
;
_chemical_formula_sum "Si O2"
_cell_formula_units_Z 40
_cell_length_a 18.658330
_cell_length_b 17.165579
_cell_length_c 5.811638
_cell_angle_alpha 90.000000
_cell_angle_beta 90.000000
_cell_angle_gamma 90.000000
_cell_volume 1861.357449
_symmetry_space_group_name_H-M "P M N A"
_symmetry_group_IT_number 53
_symmetry_cell_setting 'orthorhombic'
loop_
_space_group_symop_operation_xyz
x,y,z
1/2-x,-y,1/2+z
x,-y,-z
1/2-x,y,1/2-z
-x,-y,-z
1/2+x,y,1/2-z
-x,y,z
1/2+x,-y,1/2+z
loop_
_atom_site_type_symbol
_atom_site_label
_atom_site_fract_x
_atom_site_fract_y
_atom_site_fract_z
Si Si1 0.822287 0.786971 0.362530
Si Si2 0.176167 0.067264 0.343178
Si Si3 0.919132 0.843039 0.975533
Si Si4 0.081712 0.308636 0.335609
Si Si5 0.667594 0.541992 0.748403
O O1 0.750000 0.752635 0.250000
O O2 0.799222 0.849796 0.551532
O O3 0.867401 0.713102 0.450197
O O4 0.873156 0.837521 0.202817
O O5 0.250000 0.030113 0.250000
O O6 0.113468 0.084561 0.162889
O O7 0.141967 0.000000 0.500000
O O8 0.915226 0.761071 0.844887
O O9 0.000000 0.864148 0.041024
O O10 0.113632 0.386012 0.224313
O O11 0.000000 0.322666 0.419307
O O12 0.653573 0.500000 0.500000
O O13 0.750000 0.569762 0.750000
O O14 0.651629 0.500000 0.000000
#
# Coordination Sequence:
#
# PCOD8221870 Si02
#       5
#     8   8   8   8   8
#     4  11  22  38  66  94 123 169 218 269 326 389
#     4  11  23  39  62  92 125 167 218 267 321 392
#     4  10  23  42  62  94 130 162 209 269 329 390
#     4  10  24  41  64  94 129 169 213 270 328 393
#     4  10  24  43  66  99 136 176 225 278 334 402
#
# _framework density 21.489694
#
# number of rings (size 3 to 8) (size 9 to 14) (size 15 to 20)
#    0.000    1.600    2.000    1.200    5.600    2.800 
#    0.000    1.000    0.000    0.000    0.000    0.000 
#    0.000    0.000    0.000    0.000    0.000    0.000 
#
# Total GULP energy -495712.210914 kJ/mol
# GULP energy per Si atom -12392.805273 kJ/mol
# Density = 2.144078 g / cm^3
# Si number density = 21.489694 Si / 1000 Ang^3
#
#
#
# Elastic Constant Matrix: (Units=GPa)
#
#
# Indices 1 2 3 4 5 6 
#
# 1 147.6832 40.8874 37.6995 0.0000 0.0000 0.0000
# 2 40.8874 80.6727 22.7312 0.0000 0.0000 0.0000
# 3 37.6995 22.7312 102.6090 0.0000 0.0000 0.0000
# 4 0.0000 0.0000 0.0000 46.8085 0.0000 0.0000
# 5 0.0000 0.0000 0.0000 0.0000 26.1191 0.0000
# 6 0.0000 0.0000 0.0000 0.0000 0.0000 30.9217
#
#
#
# Elastic Compliance Matrix: (Units=1/GPa)
#
#
# Indices 1 2 3 4 5 6 
#
# 1 0.008345 -0.003590 -0.002271 0.000000 0.000000 0.000000
# 2 -0.003590 0.014765 -0.001952 0.000000 0.000000 0.000000
# 3 -0.002271 -0.001952 0.011012 0.000000 0.000000 0.000000
# 4 0.000000 0.000000 0.000000 0.021364 0.000000 0.000000
# 5 0.000000 0.000000 0.000000 0.000000 0.038286 0.000000
# 6 0.000000 0.000000 0.000000 0.000000 0.000000 0.032340
#
#
# Mechanical properties :
#
#
# Convention : Reuss Voigt Hill
#
# Bulk Modulus (GPa) = 54.06127 59.28901 56.67514
# Shear Modulus (GPa) = 33.80608 36.07964 34.94286
#
# Velocity S-wave (km/s) = 3.97057 4.10192 4.03678
# Velocity P-wave (km/s) = 6.79942 7.07698 6.93959
#
# Compressibility (1/GPa) = 0.01849753
#
# Stress axis : x y z
#
# Youngs Moduli (GPa) = 119.83661 67.72733 90.80604
#
# Poissons Ratio (x) = 0.24311 0.20620
# Poissons Ratio (y) = 0.43016 0.17726
# Poissons Ratio (z) = 0.27212 0.13221
#
# Static dielectric constant tensor:
#      x y z
#    x 3.974870 0.000000 0.000000 
#    y 0.000000 3.613810 0.000000 
#    z 0.000000 0.000000 4.086230 
# 
# 
# High freq. dielectric constant tensor:
#      x y z
#    x 1.852800 0.000000 0.000000 
#    y 0.000000 1.832720 0.000000 
#    z 0.000000 0.000000 1.848200 
# 
# From -- ./inp_files/2083.got.cif
#   From: 2010.03.12/outbox.cif.g09.slc.cpg/sg53_2_cif.got.tgz:2083.got - 2010.04.16 14:36:59.
