data_PCOD8221293
_publ_section_title
;
Structure prediction by ZEFSAII (Michael W. Deem and Ramdas Pophale) SiO2 
 PCOD8221293
Probable space group: P M N A
;
_chemical_formula_sum "Si O2"
_cell_formula_units_Z 64
_cell_length_a 8.992248
_cell_length_b 14.027854
_cell_length_c 25.529094
_cell_angle_alpha 90.000000
_cell_angle_beta 90.000000
_cell_angle_gamma 90.000000
_cell_volume 3220.289497
_symmetry_space_group_name_H-M "P M N A"
_symmetry_group_IT_number 53
_symmetry_cell_setting 'orthorhombic'
loop_
_space_group_symop_operation_xyz
x,y,z
1/2-x,-y,1/2+z
x,-y,-z
1/2-x,y,1/2-z
-x,-y,-z
1/2+x,y,1/2-z
-x,y,z
1/2+x,-y,1/2+z
loop_
_atom_site_type_symbol
_atom_site_label
_atom_site_fract_x
_atom_site_fract_y
_atom_site_fract_z
Si Si1 0.326199 0.801912 0.196224
Si Si2 0.325688 0.422338 0.363158
Si Si3 0.326178 0.582983 0.196273
Si Si4 0.326666 0.766515 0.695785
Si Si5 0.669790 0.406796 0.030759
Si Si6 0.170108 0.798446 0.495120
Si Si7 0.828976 0.103726 0.899712
Si Si8 0.671321 0.119972 0.405599
O O1 0.250000 0.833832 0.250000
O O2 0.500000 0.818769 0.202505
O O3 0.289023 0.692251 0.182886
O O4 0.266135 0.867265 0.150246
O O5 0.500000 0.442570 0.362728
O O6 0.239101 0.519280 0.350133
O O7 0.281673 0.339899 0.322105
O O8 0.277059 0.388342 0.420384
O O9 0.250000 0.550895 0.250000
O O10 0.500000 0.564825 0.201950
O O11 0.250000 0.794071 0.750000
O O12 0.500000 0.773577 0.705945
O O13 0.278014 0.842014 0.651285
O O14 0.500000 0.420054 0.050318
O O15 0.724851 0.500000 0.000000
O O16 0.682497 0.316100 0.992371
O O17 0.273844 0.841655 0.450786
O O18 0.222478 0.833566 0.551656
O O19 0.000000 0.831021 0.486003
O O20 0.000000 0.130628 0.889855
O O21 0.807829 0.992426 0.908761
O O22 0.500000 0.149550 0.416445
#
# Coordination Sequence:
#
# PCOD8221293 Si02
#       8
#     8   8   8   8   8   8   8   8
#     4  10  22  41  63  88 123 161 200 250 303 358
#     4  11  22  37  60  88 119 157 200 247 295 357
#     4  10  21  37  58  84 117 155 195 240 290 348
#     4  10  22  39  60  87 121 158 201 248 300 362
#     4  10  23  41  60  86 122 161 197 242 302 361
#     4  11  23  40  64  92 122 158 202 251 303 361
#     4  11  24  40  64  91 120 160 203 251 306 365
#     4  10  22  43  63  86 121 160 201 252 310 361
#
# _framework density 19.873989999999999
#
# number of rings (size 3 to 8) (size 9 to 14) (size 15 to 20)
#    0.000    1.625    1.250    2.625    1.750    7.750 
#    0.000    1.250    0.000    0.000    0.000    0.000 
#    0.000    0.000    0.000    0.000    0.000    0.000 
#
# Total GULP energy -793973.825577 kJ/mol
# GULP energy per Si atom -12405.841025 kJ/mol
# Density = 1.982876 g / cm^3
# Si number density = 19.873990 Si / 1000 Ang^3
#
#
#
# Elastic Constant Matrix: (Units=GPa)
#
#
# Indices 1 2 3 4 5 6 
#
# 1 67.8547 38.3201 32.6615 0.0000 0.0000 0.0000
# 2 38.3201 81.9516 36.3585 0.0000 0.0000 0.0000
# 3 32.6615 36.3585 105.8970 0.0000 0.0000 0.0000
# 4 0.0000 0.0000 0.0000 23.0335 0.0000 0.0000
# 5 0.0000 0.0000 0.0000 0.0000 40.2572 0.0000
# 6 0.0000 0.0000 0.0000 0.0000 0.0000 28.6241
#
#
#
# Elastic Compliance Matrix: (Units=1/GPa)
#
#
# Indices 1 2 3 4 5 6 
#
# 1 0.021184 -0.008266 -0.003696 0.000000 0.000000 0.000000
# 2 -0.008266 0.017620 -0.003500 0.000000 0.000000 0.000000
# 3 -0.003696 -0.003500 0.011785 0.000000 0.000000 0.000000
# 4 0.000000 0.000000 0.000000 0.043415 0.000000 0.000000
# 5 0.000000 0.000000 0.000000 0.000000 0.024840 0.000000
# 6 0.000000 0.000000 0.000000 0.000000 0.000000 0.034936
#
#
# Mechanical properties :
#
#
# Convention : Reuss Voigt Hill
#
# Bulk Modulus (GPa) = 50.85076 52.26482 51.55779
# Shear Modulus (GPa) = 26.14242 28.27385 27.20814
#
# Velocity S-wave (km/s) = 3.63079 3.77590 3.70406
# Velocity P-wave (km/s) = 6.57412 6.73536 6.65523
#
# Compressibility (1/GPa) = 0.01966539
#
# Stress axis : x y z
#
# Youngs Moduli (GPa) = 47.20439 56.75240 84.85503
#
# Poissons Ratio (x) = 0.46912 0.31361
# Poissons Ratio (y) = 0.39019 0.29702
# Poissons Ratio (z) = 0.17446 0.19865
#
# Static dielectric constant tensor:
#      x y z
#    x 3.657100 0.000000 0.000000 
#    y 0.000000 3.715420 0.000000 
#    z 0.000000 0.000000 3.699740 
# 
# 
# High freq. dielectric constant tensor:
#      x y z
#    x 1.781330 0.000000 0.000000 
#    y 0.000000 1.782300 0.000000 
#    z 0.000000 0.000000 1.777460 
# 
# From -- ./inp_files/34178.got.cif
#   From: 2010.03.12/outbox.cif.g09.slc.cpg/sg53_18_cif.got.tgz:34178.got - 2010.04.16 14:36:59.
