data_PCOD8221279
_publ_section_title
;
Structure prediction by ZEFSAII (Michael W. Deem and Ramdas Pophale) SiO2 
 PCOD8221279
Probable space group: P M N A
;
_chemical_formula_sum "Si O2"
_cell_formula_units_Z 56
_cell_length_a 8.655681
_cell_length_b 16.074324
_cell_length_c 19.565779
_cell_angle_alpha 90.000000
_cell_angle_beta 90.000000
_cell_angle_gamma 90.000000
_cell_volume 2722.269416
_symmetry_space_group_name_H-M "P M N A"
_symmetry_group_IT_number 53
_symmetry_cell_setting 'orthorhombic'
loop_
_space_group_symop_operation_xyz
x,y,z
1/2-x,-y,1/2+z
x,-y,-z
1/2-x,y,1/2-z
-x,-y,-z
1/2+x,y,1/2-z
-x,y,z
1/2+x,-y,1/2+z
loop_
_atom_site_type_symbol
_atom_site_label
_atom_site_fract_x
_atom_site_fract_y
_atom_site_fract_z
Si Si1 0.677648 0.185512 0.932350
Si Si2 0.177842 0.505360 0.178644
Si Si3 0.176765 0.700354 0.178514
Si Si4 0.683233 0.142472 0.173934
Si Si5 0.821407 0.998045 0.423895
Si Si6 0.318906 0.748609 0.562566
Si Si7 0.680827 0.572047 0.949770
O O1 0.500000 0.200759 0.951410
O O2 0.731568 0.256737 0.881816
O O3 0.701306 0.095918 0.896049
O O4 0.772529 0.186805 0.003114
O O5 0.250000 0.479394 0.250000
O O6 0.193999 0.602954 0.165806
O O7 0.283019 0.455923 0.126358
O O8 0.000000 0.476765 0.173853
O O9 0.250000 0.727629 0.250000
O O10 0.000000 0.729355 0.177672
O O11 0.750000 0.141010 0.250000
O O12 0.500000 0.141113 0.179866
O O13 0.750185 0.062964 0.130851
O O14 0.736810 0.225556 0.133700
O O15 0.000000 0.023023 0.431560
O O16 0.745805 0.000000 0.500000
O O17 0.500000 0.749691 0.575000
O O18 0.267349 0.658144 0.535832
O O19 0.500000 0.586302 0.960661
O O20 0.744298 0.500000 0.000000
#
# Coordination Sequence:
#
# PCOD8221279 Si02
#       7
#     8   8   8   8   8   8   8
#     4  11  21  37  63  91 122 161 203 249 305 365
#     4  10  21  38  60  84 116 157 199 247 302 361
#     4  10  21  37  57  86 123 161 202 250 304 362
#     4  11  23  43  67  93 127 164 209 259 313 371
#     4   9  18  37  64  90 119 160 203 248 304 365
#     4  12  25  41  62  91 124 162 206 253 307 365
#     4  11  24  41  63  91 122 158 204 254 307 367
#
# _framework density 20.571072999999998
#
# number of rings (size 3 to 8) (size 9 to 14) (size 15 to 20)
#    0.000    1.429    1.429    4.286    0.000    6.286 
#    0.000    7.857    0.000    0.000    0.000    0.000 
#    0.000    0.000    0.000    0.000    0.000    0.000 
#
# Total GULP energy -694519.454101 kJ/mol
# GULP energy per Si atom -12402.133109 kJ/mol
# Density = 2.052425 g / cm^3
# Si number density = 20.571073 Si / 1000 Ang^3
#
#
#
# Elastic Constant Matrix: (Units=GPa)
#
#
# Indices 1 2 3 4 5 6 
#
# 1 83.0319 36.1049 30.8084 0.0000 0.0000 0.0000
# 2 36.1049 82.7894 48.4201 0.0000 0.0000 0.0000
# 3 30.8084 48.4201 107.4908 0.0000 0.0000 0.0000
# 4 0.0000 0.0000 0.0000 32.4734 0.0000 0.0000
# 5 0.0000 0.0000 0.0000 0.0000 36.6639 0.0000
# 6 0.0000 0.0000 0.0000 0.0000 0.0000 -74.2169
#
#
#
# Elastic Compliance Matrix: (Units=1/GPa)
#
#
# Indices 1 2 3 4 5 6 
#
# 1 0.015129 -0.005515 -0.001852 0.000000 0.000000 0.000000
# 2 -0.005515 0.018409 -0.006712 0.000000 0.000000 0.000000
# 3 -0.001852 -0.006712 0.012857 0.000000 0.000000 0.000000
# 4 0.000000 0.000000 0.000000 0.030794 0.000000 0.000000
# 5 0.000000 0.000000 0.000000 0.000000 0.027275 0.000000
# 6 0.000000 0.000000 0.000000 0.000000 0.000000 -0.013474
#
#
# Mechanical properties :
#
#
# Convention : Reuss Voigt Hill
#
# Bulk Modulus (GPa) = 54.83005 55.99766 55.41386
# Shear Modulus (GPa) = 39.92736 9.51600 24.72168
#
# Velocity S-wave (km/s) = 4.41040 2.15313 3.47042
# Velocity P-wave (km/s) = 7.25585 5.78463 6.56160
#
# Compressibility (1/GPa) = 0.01823818
#
# Stress axis : x y z
#
# Youngs Moduli (GPa) = 66.09987 54.32006 77.77584
#
# Poissons Ratio (x) = 0.29955 0.14404
# Poissons Ratio (y) = 0.36451 0.52204
# Poissons Ratio (z) = 0.12242 0.36460
#
# Static dielectric constant tensor:
#      x y z
#    x 3.644880 0.000000 0.000000 
#    y 0.000000 3.829230 0.000000 
#    z 0.000000 0.000000 3.315470 
# 
# 
# High freq. dielectric constant tensor:
#      x y z
#    x 1.798160 0.000000 0.000000 
#    y 0.000000 1.810000 0.000000 
#    z 0.000000 0.000000 1.808650 
# 
# From -- ./inp_files/30774.got.cif
#   From: 2010.03.12/outbox.cif.g09.slc.cpg/sg53_16_cif.got.tgz:30774.got - 2010.04.16 14:36:59.
