data_PCOD8221094
_publ_section_title
;
Structure prediction by ZEFSAII (Michael W. Deem and Ramdas Pophale) SiO2 
 PCOD8221094
Probable space group: P M N A
;
_chemical_formula_sum "Si O2"
_cell_formula_units_Z 48
_cell_length_a 8.827475
_cell_length_b 15.198503
_cell_length_c 18.195117
_cell_angle_alpha 90.000000
_cell_angle_beta 90.000000
_cell_angle_gamma 90.000000
_cell_volume 2441.137051
_symmetry_space_group_name_H-M "P M N A"
_symmetry_group_IT_number 53
_symmetry_cell_setting 'orthorhombic'
loop_
_space_group_symop_operation_xyz
x,y,z
1/2-x,-y,1/2+z
x,-y,-z
1/2-x,y,1/2-z
-x,-y,-z
1/2+x,y,1/2-z
-x,y,z
1/2+x,-y,1/2+z
loop_
_atom_site_type_symbol
_atom_site_label
_atom_site_fract_x
_atom_site_fract_y
_atom_site_fract_z
Si Si1 0.324480 0.665390 0.101393
Si Si2 0.323557 0.153782 0.605514
Si Si3 0.823547 0.851692 0.934623
Si Si4 0.320786 0.485615 0.172418
Si Si5 0.675148 0.329139 0.068545
Si Si6 0.678695 0.011748 0.173403
O O1 0.500000 0.685037 0.117755
O O2 0.226402 0.748215 0.127909
O O3 0.263692 0.580804 0.145349
O O4 0.298670 0.645613 0.015823
O O5 0.500000 0.141766 0.622029
O O6 0.285644 0.135757 0.520372
O O7 0.230906 0.086964 0.655802
O O8 0.773163 0.755279 0.908203
O O9 0.000000 0.864655 0.918356
O O10 0.730796 0.924744 0.891572
O O11 0.250000 0.462007 0.250000
O O12 0.500000 0.485735 0.178135
O O13 0.266103 0.411421 0.115557
O O14 0.500000 0.307339 0.084364
O O15 0.750000 0.043857 0.250000
O O16 0.500000 0.014819 0.180546
#
# Coordination Sequence:
#
# PCOD8221094 Si02
#       6
#     8   8   8   8   8   8
#     4   9  18  35  58  81 106 142 189 233 272 320
#     4  10  21  38  60  86 115 146 183 229 278 329
#     4  10  21  38  60  86 115 146 183 229 278 329
#     4  10  21  35  53  79 111 146 182 226 278 330
#     4   9  18  35  58  81 106 142 189 233 272 320
#     4  12  25  40  59  83 113 149 187 228 277 332
#
# _framework density 19.662966999999998
#
# number of rings (size 3 to 8) (size 9 to 14) (size 15 to 20)
#    0.000    2.000    0.000    3.500    0.000    8.667 
#    0.000    3.333    0.000    5.000    0.000    0.000 
#    0.000    0.000    0.000    0.000    0.000    0.000 
#
# Total GULP energy -595456.313239 kJ/mol
# GULP energy per Si atom -12405.339859 kJ/mol
# Density = 1.961821 g / cm^3
# Si number density = 19.662967 Si / 1000 Ang^3
#
#
#
# Elastic Constant Matrix: (Units=GPa)
#
#
# Indices 1 2 3 4 5 6 
#
# 1 83.1125 29.7839 21.0931 0.0000 0.0000 0.0000
# 2 29.7839 83.0995 16.1942 0.0000 0.0000 0.0000
# 3 21.0931 16.1942 41.1652 0.0000 0.0000 0.0000
# 4 0.0000 0.0000 0.0000 -33.2372 0.0000 0.0000
# 5 0.0000 0.0000 0.0000 0.0000 32.1263 0.0000
# 6 0.0000 0.0000 0.0000 0.0000 0.0000 30.9684
#
#
#
# Elastic Compliance Matrix: (Units=1/GPa)
#
#
# Indices 1 2 3 4 5 6 
#
# 1 0.015086 -0.004224 -0.006068 0.000000 0.000000 0.000000
# 2 -0.004224 0.014216 -0.003428 0.000000 0.000000 0.000000
# 3 -0.006068 -0.003428 0.028750 0.000000 0.000000 0.000000
# 4 0.000000 0.000000 0.000000 -0.030087 0.000000 0.000000
# 5 0.000000 0.000000 0.000000 0.000000 0.031127 0.000000
# 6 0.000000 0.000000 0.000000 0.000000 0.000000 0.032291
#
#
# Mechanical properties :
#
#
# Convention : Reuss Voigt Hill
#
# Bulk Modulus (GPa) = 32.66794 37.94662 35.30728
# Shear Modulus (GPa) = 38.75143 15.32523 27.03833
#
# Velocity S-wave (km/s) = 4.44417 2.79479 3.71224
# Velocity P-wave (km/s) = 6.55623 5.45481 6.03072
#
# Compressibility (1/GPa) = 0.03061106
#
# Stress axis : x y z
#
# Youngs Moduli (GPa) = 66.28777 70.34405 34.78242
#
# Poissons Ratio (x) = 0.29716 0.21106
# Poissons Ratio (y) = 0.28002 0.11923
# Poissons Ratio (z) = 0.40224 0.24113
#
# Static dielectric constant tensor:
#      x y z
#    x 3.536510 0.000000 0.000000 
#    y 0.000000 3.734260 0.000000 
#    z 0.000000 0.000000 3.779160 
# 
# 
# High freq. dielectric constant tensor:
#      x y z
#    x 1.763750 0.000000 0.000000 
#    y 0.000000 1.777950 0.000000 
#    z 0.000000 0.000000 1.762340 
# 
# From -- ./inp_files/9933.got.cif
#   From: 2010.03.12/outbox.cif.g09.slc.cpg/sg53_5_cif.got.tgz:9933.got - 2010.04.16 14:36:59.
