data_PCOD8221589
_publ_section_title
;
Structure prediction by ZEFSAII (Michael W. Deem and Ramdas Pophale) SiO2 
 PCOD8221589
Probable space group: P M N A
;
_chemical_formula_sum "Si O2"
_cell_formula_units_Z 56
_cell_length_a 14.368464
_cell_length_b 11.229798
_cell_length_c 15.145208
_cell_angle_alpha 90.000000
_cell_angle_beta 90.000000
_cell_angle_gamma 90.000000
_cell_volume 2443.754254
_symmetry_space_group_name_H-M "P M N A"
_symmetry_group_IT_number 53
_symmetry_cell_setting 'orthorhombic'
loop_
_space_group_symop_operation_xyz
x,y,z
1/2-x,-y,1/2+z
x,-y,-z
1/2-x,y,1/2-z
-x,-y,-z
1/2+x,y,1/2-z
-x,y,z
1/2+x,-y,1/2+z
loop_
_atom_site_type_symbol
_atom_site_label
_atom_site_fract_x
_atom_site_fract_y
_atom_site_fract_z
Si Si1 0.600560 0.611027 0.938922
Si Si2 0.750619 0.753050 0.043480
Si Si3 0.891049 0.557201 0.095948
Si Si4 0.352338 0.897240 0.750346
Si Si5 0.106611 0.624585 0.754650
Si Si6 0.902084 0.113165 0.059185
Si Si7 0.103800 0.937530 0.407753
O O1 0.500000 0.679015 0.934663
O O2 0.624686 0.563758 0.840392
O O3 0.589306 0.500000 0.000000
O O4 0.678890 0.692079 0.978537
O O5 0.818573 0.668682 0.102295
O O6 0.688388 0.841271 0.105766
O O7 0.814235 0.811410 0.968545
O O8 0.854057 0.461609 0.168371
O O9 0.000000 0.594541 0.113479
O O10 0.880115 0.500000 0.000000
O O11 0.250000 0.949986 0.750000
O O12 0.347487 0.753943 0.752988
O O13 0.399259 0.935005 0.658970
O O14 0.401710 0.960445 0.832865
O O15 0.000000 0.645800 0.778101
O O16 0.000000 0.186036 0.047359
O O17 0.906066 0.000000 0.000000
O O18 0.000000 0.877474 0.409107
O O19 0.125998 0.000000 0.500000
#
# Coordination Sequence:
#
# PCOD8221589 Si02
#       7
#     8   8   8   8   8   8   8
#     4  10  22  41  63  89 124 166 213 264 320 386
#     4  12  22  40  66  95 132 174 217 272 338 396
#     4  10  22  40  64  98 136 173 219 276 336 399
#     4  12  23  39  67  98 127 166 219 273 326 392
#     4  10  21  40  66  93 123 164 215 269 325 386
#     4  11  24  42  63  90 128 170 212 262 323 391
#     4  11  24  42  65  97 136 175 222 281 340 397
#
# _framework density 22.915562999999999
#
# number of rings (size 3 to 8) (size 9 to 14) (size 15 to 20)
#    0.000    1.143    0.000    7.286    0.000    4.571 
#    0.000    4.286    0.000    6.857    0.000    2.000 
#    0.000    0.000    0.000    0.000    0.000    0.000 
#
# Total GULP energy -693779.929367 kJ/mol
# GULP energy per Si atom -12388.927310 kJ/mol
# Density = 2.286341 g / cm^3
# Si number density = 22.915563 Si / 1000 Ang^3
#
#
#
# Elastic Constant Matrix: (Units=GPa)
#
#
# Indices 1 2 3 4 5 6 
#
# 1 166.1335 63.4945 37.1815 0.0000 0.0000 0.0000
# 2 63.4945 102.9877 69.9623 0.0000 0.0000 0.0000
# 3 37.1815 69.9623 172.8481 0.0000 0.0000 0.0000
# 4 0.0000 0.0000 0.0000 41.0142 0.0000 0.0000
# 5 0.0000 0.0000 0.0000 0.0000 18.4416 0.0000
# 6 0.0000 0.0000 0.0000 0.0000 0.0000 -24.1011
#
#
#
# Elastic Compliance Matrix: (Units=1/GPa)
#
#
# Indices 1 2 3 4 5 6 
#
# 1 0.007892 -0.005120 0.000375 0.000000 0.000000 0.000000
# 2 -0.005120 0.016714 -0.005664 0.000000 0.000000 0.000000
# 3 0.000375 -0.005664 0.007997 0.000000 0.000000 0.000000
# 4 0.000000 0.000000 0.000000 0.024382 0.000000 0.000000
# 5 0.000000 0.000000 0.000000 0.000000 0.054225 0.000000
# 6 0.000000 0.000000 0.000000 0.000000 0.000000 -0.041492
#
#
# Mechanical properties :
#
#
# Convention : Reuss Voigt Hill
#
# Bulk Modulus (GPa) = 84.85321 87.02732 85.94026
# Shear Modulus (GPa) = 52.92864 25.15966 39.04415
#
# Velocity S-wave (km/s) = 4.81117 3.31710 4.13222
# Velocity P-wave (km/s) = 8.24453 7.26159 7.76862
#
# Compressibility (1/GPa) = 0.01178506
#
# Stress axis : x y z
#
# Youngs Moduli (GPa) = 126.70490 59.82853 125.04189
#
# Poissons Ratio (x) = 0.30635 -0.04687
# Poissons Ratio (y) = 0.64879 0.70822
# Poissons Ratio (z) = -0.04749 0.33886
#
# Static dielectric constant tensor:
#      x y z
#    x 4.213530 0.000000 0.000000 
#    y 0.000000 3.968190 0.000000 
#    z 0.000000 0.000000 4.086000 
# 
# 
# High freq. dielectric constant tensor:
#      x y z
#    x 1.936650 0.000000 0.000000 
#    y 0.000000 1.879060 0.000000 
#    z 0.000000 0.000000 1.906770 
# 
# From -- ./inp_files/22843.got.cif
#   From: 2010.03.12/outbox.cif.g09.slc.cpg/sg53_12_cif.got.tgz:22843.got - 2010.04.16 14:36:59.
