data_PCOD8221872
_publ_section_title
;
Structure prediction by ZEFSAII (Michael W. Deem and Ramdas Pophale) SiO2 
 PCOD8221872
Probable space group: P M N A
;
_chemical_formula_sum "Si O2"
_cell_formula_units_Z 56
_cell_length_a 14.843128
_cell_length_b 8.809599
_cell_length_c 21.136549
_cell_angle_alpha 90.000000
_cell_angle_beta 90.000000
_cell_angle_gamma 90.000000
_cell_volume 2763.857538
_symmetry_space_group_name_H-M "P M N A"
_symmetry_group_IT_number 53
_symmetry_cell_setting 'orthorhombic'
loop_
_space_group_symop_operation_xyz
x,y,z
1/2-x,-y,1/2+z
x,-y,-z
1/2-x,y,1/2-z
-x,-y,-z
1/2+x,y,1/2-z
-x,y,z
1/2+x,-y,1/2+z
loop_
_atom_site_type_symbol
_atom_site_label
_atom_site_fract_x
_atom_site_fract_y
_atom_site_fract_z
Si Si1 0.255565 0.430039 0.819928
Si Si2 0.395912 0.236966 0.621489
Si Si3 0.240034 0.255867 0.123794
Si Si4 0.097631 0.166359 0.680104
Si Si5 0.397275 0.945056 0.930857
Si Si6 0.103687 0.330699 0.016573
Si Si7 0.167898 0.994165 0.789015
O O1 0.250000 0.495544 0.750000
O O2 0.159173 0.369592 0.844214
O O3 0.277326 0.576375 0.862182
O O4 0.330492 0.300312 0.818239
O O5 0.500000 0.263201 0.639433
O O6 0.382695 0.230527 0.546256
O O7 0.358249 0.077134 0.646191
O O8 0.327805 0.177506 0.095327
O O9 0.161023 0.258137 0.072344
O O10 0.198035 0.174099 0.187462
O O11 0.094337 0.030942 0.734633
O O12 0.000000 0.245091 0.684260
O O13 0.111566 0.091756 0.612481
O O14 0.500000 0.880154 0.930456
O O15 0.368317 0.000000 0.000000
O O16 0.000000 0.332214 0.039068
O O17 0.136255 0.500000 0.000000
O O18 0.250000 0.072297 0.750000
#
# Coordination Sequence:
#
# PCOD8221872 Si02
#       7
#     8   8   8   8   8   8   8
#     4  12  24  40  63  96 130 166 216 261 317 386
#     4  11  22  41  67  93 127 171 217 265 319 391
#     4  12  26  39  69  95 136 171 210 272 331 380
#     4  11  23  44  69  89 126 175 218 267 320 383
#     4  10  24  44  66  94 128 168 218 272 324 379
#     4  10  23  42  63  95 133 170 217 266 328 394
#     4  12  22  41  63  97 128 164 216 264 317 393
#
# _framework density 20.261537000000001
#
# number of rings (size 3 to 8) (size 9 to 14) (size 15 to 20)
#    0.000    0.857    5.714    0.857    4.000    1.714 
#    0.000    1.429    0.000    3.000    0.000    0.000 
#    0.000    0.000    0.000    0.000    0.000    0.000 
#
# Total GULP energy -693744.679850 kJ/mol
# GULP energy per Si atom -12388.297854 kJ/mol
# Density = 2.021542 g / cm^3
# Si number density = 20.261537 Si / 1000 Ang^3
#
#
#
# Elastic Constant Matrix: (Units=GPa)
#
#
# Indices 1 2 3 4 5 6 
#
# 1 124.6564 56.2589 48.4151 0.0000 0.0000 0.0000
# 2 56.2589 91.5884 45.8631 0.0000 0.0000 0.0000
# 3 48.4151 45.8631 127.0122 0.0000 0.0000 0.0000
# 4 0.0000 0.0000 0.0000 32.1749 0.0000 0.0000
# 5 0.0000 0.0000 0.0000 0.0000 31.1861 0.0000
# 6 0.0000 0.0000 0.0000 0.0000 0.0000 18.4069
#
#
#
# Elastic Compliance Matrix: (Units=1/GPa)
#
#
# Indices 1 2 3 4 5 6 
#
# 1 0.011606 -0.005998 -0.002258 0.000000 0.000000 0.000000
# 2 -0.005998 0.016429 -0.003646 0.000000 0.000000 0.000000
# 3 -0.002258 -0.003646 0.010050 0.000000 0.000000 0.000000
# 4 0.000000 0.000000 0.000000 0.031080 0.000000 0.000000
# 5 0.000000 0.000000 0.000000 0.000000 0.032066 0.000000
# 6 0.000000 0.000000 0.000000 0.000000 0.000000 0.054327
#
#
# Mechanical properties :
#
#
# Convention : Reuss Voigt Hill
#
# Bulk Modulus (GPa) = 70.02454 71.59236 70.80845
# Shear Modulus (GPa) = 27.15571 29.20157 28.17864
#
# Velocity S-wave (km/s) = 3.66493 3.80047 3.73332
# Velocity P-wave (km/s) = 7.24874 7.39385 7.32165
#
# Compressibility (1/GPa) = 0.01428071
#
# Stress axis : x y z
#
# Youngs Moduli (GPa) = 86.16042 60.86938 99.49788
#
# Poissons Ratio (x) = 0.36512 0.22468
# Poissons Ratio (y) = 0.51683 0.36274
# Poissons Ratio (z) = 0.19456 0.22191
#
# Static dielectric constant tensor:
#      x y z
#    x 3.962230 0.000000 0.000000 
#    y 0.000000 3.487180 0.000000 
#    z 0.000000 0.000000 4.035800 
# 
# 
# High freq. dielectric constant tensor:
#      x y z
#    x 1.800320 0.000000 0.000000 
#    y 0.000000 1.772670 0.000000 
#    z 0.000000 0.000000 1.810270 
# 
# From -- ./inp_files/32495.got.cif
#   From: 2010.03.12/outbox.cif.g09.slc.cpg/sg53_17_cif.got.tgz:32495.got - 2010.04.16 14:36:59.
