data_PCOD8221747
_publ_section_title
;
Structure prediction by ZEFSAII (Michael W. Deem and Ramdas Pophale) SiO2 
 PCOD8221747
Probable space group: P M N A
;
_chemical_formula_sum "Si O2"
_cell_formula_units_Z 28
_cell_length_a 23.592189
_cell_length_b 11.918541
_cell_length_c 4.993406
_cell_angle_alpha 90.000000
_cell_angle_beta 90.000000
_cell_angle_gamma 90.000000
_cell_volume 1404.068229
_symmetry_space_group_name_H-M "P M N A"
_symmetry_group_IT_number 53
_symmetry_cell_setting 'orthorhombic'
loop_
_space_group_symop_operation_xyz
x,y,z
1/2-x,-y,1/2+z
x,-y,-z
1/2-x,y,1/2-z
-x,-y,-z
1/2+x,y,1/2-z
-x,y,z
1/2+x,-y,1/2+z
loop_
_atom_site_type_symbol
_atom_site_label
_atom_site_fract_x
_atom_site_fract_y
_atom_site_fract_z
Si Si1 0.816197 0.925926 0.244255
Si Si2 0.626842 0.302189 0.567589
Si Si3 0.435131 0.372658 0.048160
Si Si4 0.212099 0.500000 0.000000
O O1 0.750000 0.897856 0.250000
O O2 0.848143 0.811307 0.187267
O O3 0.835258 0.000000 0.500000
O O4 0.834356 0.000000 0.000000
O O5 0.604458 0.306577 0.261897
O O6 0.674457 0.396728 0.602759
O O7 0.572358 0.319814 0.755972
O O8 0.500000 0.365461 0.143139
O O9 0.415078 0.500000 0.000000
O O10 0.250000 0.459256 0.250000
#
# Coordination Sequence:
#
# PCOD8221747 Si02
#       4
#     8   8   8   4
#     4  10  22  40  62  88 118 164 213 247 293 367
#     4  12  22  40  62  89 125 160 199 255 311 364
#     4  11  22  39  62  90 122 159 207 251 304 376
#     4  12  24  36  55  92 131 158 190 244 322 382
#
# _framework density 19.942052
#
# number of rings (size 3 to 8) (size 9 to 14) (size 15 to 20)
#    0.000    0.857    2.857    5.143    0.000    5.714 
#    0.000    0.000    0.000   17.143    0.000    0.000 
#    0.000    0.000    0.000    0.000    0.000    0.000 
#
# Total GULP energy -346962.988105 kJ/mol
# GULP energy per Si atom -12391.535289 kJ/mol
# Density = 1.989666 g / cm^3
# Si number density = 19.942052 Si / 1000 Ang^3
#
#
#
# Elastic Constant Matrix: (Units=GPa)
#
#
# Indices 1 2 3 4 5 6 
#
# 1 71.3155 50.2505 40.6630 0.0000 0.0000 0.0000
# 2 50.2505 139.5159 48.2350 0.0000 0.0000 0.0000
# 3 40.6630 48.2350 144.5654 0.0000 0.0000 0.0000
# 4 0.0000 0.0000 0.0000 54.3464 0.0000 0.0000
# 5 0.0000 0.0000 0.0000 0.0000 41.1454 0.0000
# 6 0.0000 0.0000 0.0000 0.0000 0.0000 10.0766
#
#
#
# Elastic Compliance Matrix: (Units=1/GPa)
#
#
# Indices 1 2 3 4 5 6 
#
# 1 0.020419 -0.006069 -0.003718 0.000000 0.000000 0.000000
# 2 -0.006069 0.009906 -0.001598 0.000000 0.000000 0.000000
# 3 -0.003718 -0.001598 0.008496 0.000000 0.000000 0.000000
# 4 0.000000 0.000000 0.000000 0.018400 0.000000 0.000000
# 5 0.000000 0.000000 0.000000 0.000000 0.024304 0.000000
# 6 0.000000 0.000000 0.000000 0.000000 0.000000 0.099240
#
#
# Mechanical properties :
#
#
# Convention : Reuss Voigt Hill
#
# Bulk Modulus (GPa) = 62.30409 70.41042 66.35725
# Shear Modulus (GPa) = 23.93648 35.53023 29.73336
#
# Velocity S-wave (km/s) = 3.46830 4.22557 3.86552
# Velocity P-wave (km/s) = 6.88107 7.69359 7.29865
#
# Compressibility (1/GPa) = 0.01605031
#
# Stress axis : x y z
#
# Youngs Moduli (GPa) = 48.97508 100.94878 117.69647
#
# Poissons Ratio (x) = 0.61263 0.43764
# Poissons Ratio (y) = 0.29722 0.18810
# Poissons Ratio (z) = 0.18211 0.16134
#
# Static dielectric constant tensor:
#      x y z
#    x 3.417840 0.000000 0.000000 
#    y 0.000000 3.501290 0.000000 
#    z 0.000000 0.000000 3.615660 
# 
# 
# High freq. dielectric constant tensor:
#      x y z
#    x 1.770100 0.000000 0.000000 
#    y 0.000000 1.769200 0.000000 
#    z 0.000000 0.000000 1.801640 
# 
# From -- ./inp_files/2552.got.cif
#   From: 2010.03.12/outbox.cif.g09.slc.cpg/sg53_2_cif.got.tgz:2552.got - 2010.04.16 14:36:59.
