data_PCOD8221962
_publ_section_title
;
Structure prediction by ZEFSAII (Michael W. Deem and Ramdas Pophale) SiO2 
 PCOD8221962
Probable space group: P M N A
;
_chemical_formula_sum "Si O2"
_cell_formula_units_Z 64
_cell_length_a 20.644540
_cell_length_b 9.101015
_cell_length_c 17.830948
_cell_angle_alpha 90.000000
_cell_angle_beta 90.000000
_cell_angle_gamma 90.000000
_cell_volume 3350.190278
_symmetry_space_group_name_H-M "P M N A"
_symmetry_group_IT_number 53
_symmetry_cell_setting 'orthorhombic'
loop_
_space_group_symop_operation_xyz
x,y,z
1/2-x,-y,1/2+z
x,-y,-z
1/2-x,y,1/2-z
-x,-y,-z
1/2+x,y,1/2-z
-x,y,z
1/2+x,-y,1/2+z
loop_
_atom_site_type_symbol
_atom_site_label
_atom_site_fract_x
_atom_site_fract_y
_atom_site_fract_z
Si Si1 0.755078 0.437866 0.078075
Si Si2 0.072725 0.845447 0.795240
Si Si3 0.229000 0.886698 0.564728
Si Si4 0.626835 0.538134 0.686605
Si Si5 0.122652 0.130099 0.046523
Si Si6 0.069831 0.634343 0.053015
Si Si7 0.318817 0.973339 0.208951
Si Si8 0.690977 0.643452 0.193688
O O1 0.716491 0.288737 0.055039
O O2 0.812158 0.399816 0.137713
O O3 0.709496 0.562973 0.115572
O O4 0.784042 0.500000 0.000000
O O5 0.087355 0.674752 0.780082
O O6 0.074464 0.851110 0.884952
O O7 0.000000 0.883612 0.767346
O O8 0.123310 0.960049 0.759048
O O9 0.305713 0.908924 0.575960
O O10 0.205440 0.000000 0.500000
O O11 0.187123 0.925409 0.636782
O O12 0.590567 0.419643 0.635161
O O13 0.639691 0.456185 0.763996
O O14 0.123995 0.266639 0.988282
O O15 0.091837 0.000000 0.000000
O O16 0.000000 0.716381 0.061808
O O17 0.057647 0.500000 0.000000
O O18 0.250000 0.977115 0.250000
O O19 0.336140 0.808114 0.181078
O O20 0.750000 0.658158 0.250000
#
# Coordination Sequence:
#
# PCOD8221962 Si02
#       8
#     8   8   8   8   8   8   8   8
#     4  11  19  34  56  84 115 149 193 247 303 354
#     4  12  24  39  58  84 121 165 205 243 294 354
#     4  11  21  35  61  88 115 152 193 245 303 353
#     4  11  20  36  53  78 112 160 203 243 291 347
#     4  11  23  36  53  82 118 158 201 241 288 345
#     4  11  21  34  51  74 111 157 203 241 276 334
#     4  11  21  40  59  85 118 155 200 252 302 354
#     4   9  22  35  57  83 111 150 201 254 301 350
#
# _framework density 19.103393000000001
#
# number of rings (size 3 to 8) (size 9 to 14) (size 15 to 20)
#    0.000    1.125    3.750    3.375    1.750    4.000 
#    0.000    0.625    0.000    0.375    0.000    0.000 
#    0.000    6.000    0.000    0.000    0.000    0.000 
#
# Total GULP energy -792983.965914 kJ/mol
# GULP energy per Si atom -12390.374467 kJ/mol
# Density = 1.905991 g / cm^3
# Si number density = 19.103393 Si / 1000 Ang^3
#
#
#
# Elastic Constant Matrix: (Units=GPa)
#
#
# Indices 1 2 3 4 5 6 
#
# 1 76.3723 36.8133 24.1054 0.0000 0.0000 0.0000
# 2 36.8133 132.4210 37.3236 0.0000 0.0000 0.0000
# 3 24.1054 37.3236 59.3995 0.0000 0.0000 0.0000
# 4 0.0000 0.0000 0.0000 37.0386 0.0000 0.0000
# 5 0.0000 0.0000 0.0000 0.0000 0.9504 0.0000
# 6 0.0000 0.0000 0.0000 0.0000 0.0000 22.2446
#
#
#
# Elastic Compliance Matrix: (Units=1/GPa)
#
#
# Indices 1 2 3 4 5 6 
#
# 1 0.016056 -0.003192 -0.004510 0.000000 0.000000 0.000000
# 2 -0.003192 0.009812 -0.004870 0.000000 0.000000 0.000000
# 3 -0.004510 -0.004870 0.021725 0.000000 0.000000 0.000000
# 4 0.000000 0.000000 0.000000 0.026999 0.000000 0.000000
# 5 0.000000 0.000000 0.000000 0.000000 1.052165 0.000000
# 6 0.000000 0.000000 0.000000 0.000000 0.000000 0.044955
#
#
# Mechanical properties :
#
#
# Convention : Reuss Voigt Hill
#
# Bulk Modulus (GPa) = 44.54536 51.63084 48.08810
# Shear Modulus (GPa) = 4.15166 23.37676 13.76421
#
# Velocity S-wave (km/s) = 1.47580 3.50193 2.68715
# Velocity P-wave (km/s) = 5.12568 6.59068 5.90380
#
# Compressibility (1/GPa) = 0.02244903
#
# Stress axis : x y z
#
# Youngs Moduli (GPa) = 62.28177 101.91898 46.02958
#
# Poissons Ratio (x) = 0.32538 0.20759
# Poissons Ratio (y) = 0.19883 0.22415
# Poissons Ratio (z) = 0.28088 0.49631
#
# Static dielectric constant tensor:
#      x y z
#    x 3.241690 0.000000 0.000000 
#    y 0.000000 4.296410 0.000000 
#    z 0.000000 0.000000 3.652550 
# 
# 
# High freq. dielectric constant tensor:
#      x y z
#    x 1.697730 0.000000 0.000000 
#    y 0.000000 1.764580 0.000000 
#    z 0.000000 0.000000 1.730580 
# 
# From -- ./inp_files/29403.got.cif
#   From: 2010.03.12/outbox.cif.g09.slc.cpg/sg53_15_cif.got.tgz:29403.got - 2010.04.16 14:36:59.
