data_PCOD8221311
_publ_section_title
;
Structure prediction by ZEFSAII (Michael W. Deem and Ramdas Pophale) SiO2 
 PCOD8221311
Probable space group: P M N A
;
_chemical_formula_sum "Si O2"
_cell_formula_units_Z 64
_cell_length_a 24.978349
_cell_length_b 14.578081
_cell_length_c 8.835777
_cell_angle_alpha 90.000000
_cell_angle_beta 90.000000
_cell_angle_gamma 90.000000
_cell_volume 3217.427984
_symmetry_space_group_name_H-M "P M N A"
_symmetry_group_IT_number 53
_symmetry_cell_setting 'orthorhombic'
loop_
_space_group_symop_operation_xyz
x,y,z
1/2-x,-y,1/2+z
x,-y,-z
1/2-x,y,1/2-z
-x,-y,-z
1/2+x,y,1/2-z
-x,y,z
1/2+x,-y,1/2+z
loop_
_atom_site_type_symbol
_atom_site_label
_atom_site_fract_x
_atom_site_fract_y
_atom_site_fract_z
Si Si1 0.251561 0.289565 0.569997
Si Si2 0.437459 0.726513 0.927098
Si Si3 0.937576 0.088962 0.908039
Si Si4 0.605990 0.092494 0.922465
Si Si5 0.437649 0.274127 0.422065
Si Si6 0.231979 0.091142 0.579783
Si Si7 0.647784 0.599711 0.069462
Si Si8 0.854028 0.599078 0.070864
O O1 0.250000 0.285737 0.750000
O O2 0.255802 0.185033 0.507738
O O3 0.197856 0.339539 0.512226
O O4 0.303227 0.343473 0.510932
O O5 0.500000 0.706363 0.946718
O O6 0.420178 0.726840 0.752287
O O7 0.424330 0.824108 0.999356
O O8 0.406766 0.645440 0.012391
O O9 0.904519 0.092949 0.755093
O O10 0.000000 0.085033 0.867869
O O11 0.922402 0.176237 0.008436
O O12 0.919187 0.000000 0.000000
O O13 0.668921 0.101263 0.943059
O O14 0.583890 0.000000 0.000000
O O15 0.500000 0.295174 0.440387
O O16 0.407888 0.353691 0.512973
O O17 0.250000 0.080809 0.750000
O O18 0.254597 0.000000 0.500000
O O19 0.645356 0.592015 0.249315
O O20 0.654345 0.500000 0.000000
O O21 0.849289 0.500000 0.000000
#
# Coordination Sequence:
#
# PCOD8221311 Si02
#       8
#     8   8   8   8   8   8   8   8
#     4   9  20  40  64  89 123 160 199 250 305 362
#     4  11  23  41  62  89 124 161 208 256 306 364
#     4  10  21  37  58  89 124 161 204 250 301 357
#     4  11  22  38  62  90 122 162 206 250 303 363
#     4  10  23  41  61  89 126 163 204 254 305 364
#     4  10  22  41  60  89 127 161 200 246 300 361
#     4  11  22  40  66  90 123 158 202 256 308 368
#     4  11  23  41  64  93 121 159 204 252 311 366
#
# _framework density 19.891666000000001
#
# number of rings (size 3 to 8) (size 9 to 14) (size 15 to 20)
#    0.000    1.625    1.250    3.000    3.500    4.500 
#    4.500    1.875    0.000    0.000    0.000    0.000 
#    0.000    0.000    0.000    0.000    0.000    0.000 
#
# Total GULP energy -793829.223844 kJ/mol
# GULP energy per Si atom -12403.581623 kJ/mol
# Density = 1.984639 g / cm^3
# Si number density = 19.891666 Si / 1000 Ang^3
#
#
#
# Elastic Constant Matrix: (Units=GPa)
#
#
# Indices 1 2 3 4 5 6 
#
# 1 75.1352 60.3229 39.3539 0.0000 0.0000 0.0000
# 2 60.3229 198.3151 63.7663 0.0000 0.0000 0.0000
# 3 39.3539 63.7663 105.7029 0.0000 0.0000 0.0000
# 4 0.0000 0.0000 0.0000 44.7714 0.0000 0.0000
# 5 0.0000 0.0000 0.0000 0.0000 26.8169 0.0000
# 6 0.0000 0.0000 0.0000 0.0000 0.0000 41.6756
#
#
#
# Elastic Compliance Matrix: (Units=1/GPa)
#
#
# Indices 1 2 3 4 5 6 
#
# 1 0.019190 -0.004392 -0.004495 0.000000 0.000000 0.000000
# 2 -0.004392 0.007261 -0.002745 0.000000 0.000000 0.000000
# 3 -0.004495 -0.002745 0.012790 0.000000 0.000000 0.000000
# 4 0.000000 0.000000 0.000000 0.022336 0.000000 0.000000
# 5 0.000000 0.000000 0.000000 0.000000 0.037290 0.000000
# 6 0.000000 0.000000 0.000000 0.000000 0.000000 0.023995
#
#
# Mechanical properties :
#
#
# Convention : Reuss Voigt Hill
#
# Bulk Modulus (GPa) = 62.59092 78.44883 70.51988
# Shear Modulus (GPa) = 33.01397 37.03345 35.02371
#
# Velocity S-wave (km/s) = 4.07835 4.31949 4.20065
# Velocity P-wave (km/s) = 7.32881 8.02502 7.68480
#
# Compressibility (1/GPa) = 0.01597676
#
# Stress axis : x y z
#
# Youngs Moduli (GPa) = 52.11135 137.72138 78.18526
#
# Poissons Ratio (x) = 0.60483 0.35145
# Poissons Ratio (y) = 0.22886 0.21464
# Poissons Ratio (z) = 0.23425 0.37808
#
# Static dielectric constant tensor:
#      x y z
#    x 3.828280 0.000000 0.000000 
#    y 0.000000 3.899140 0.000000 
#    z 0.000000 0.000000 3.594350 
# 
# 
# High freq. dielectric constant tensor:
#      x y z
#    x 1.780730 0.000000 0.000000 
#    y 0.000000 1.793560 0.000000 
#    z 0.000000 0.000000 1.772940 
# 
# From -- ./inp_files/11961.got.cif
#   From: 2010.03.12/outbox.cif.g09.slc.cpg/sg53_6_cif.got.tgz:11961.got - 2010.04.16 14:36:59.
