data_PCOD8221261
_publ_section_title
;
Structure prediction by ZEFSAII (Michael W. Deem and Ramdas Pophale) SiO2 
 PCOD8221261
Probable space group: P M N A
;
_chemical_formula_sum "Si O2"
_cell_formula_units_Z 48
_cell_length_a 8.932359
_cell_length_b 29.894745
_cell_length_c 9.144266
_cell_angle_alpha 90.000000
_cell_angle_beta 90.000000
_cell_angle_gamma 90.000000
_cell_volume 2441.798787
_symmetry_space_group_name_H-M "P M N A"
_symmetry_group_IT_number 53
_symmetry_cell_setting 'orthorhombic'
loop_
_space_group_symop_operation_xyz
x,y,z
1/2-x,-y,1/2+z
x,-y,-z
1/2-x,y,1/2-z
-x,-y,-z
1/2+x,y,1/2-z
-x,y,z
1/2+x,-y,1/2+z
loop_
_atom_site_type_symbol
_atom_site_label
_atom_site_fract_x
_atom_site_fract_y
_atom_site_fract_z
Si Si1 0.173206 0.887726 0.099787
Si Si2 0.826157 0.216720 0.901225
Si Si3 0.176729 0.542894 0.592454
Si Si4 0.175385 0.627090 0.406741
Si Si5 0.327220 0.042912 0.099392
Si Si6 0.823315 0.712713 0.595827
O O1 0.250000 0.902798 0.250000
O O2 0.197354 0.835532 0.069796
O O3 0.000000 0.900617 0.110802
O O4 0.248673 0.913599 0.967043
O O5 0.750000 0.231693 0.750000
O O6 0.000000 0.229817 0.893336
O O7 0.746772 0.241568 0.035061
O O8 0.228005 0.500000 0.500000
O O9 0.250000 0.540854 0.750000
O O10 0.234939 0.586688 0.507286
O O11 0.000000 0.544181 0.614447
O O12 0.250000 0.624920 0.250000
O O13 0.218268 0.673343 0.484243
O O14 0.000000 0.622435 0.382667
O O15 0.250000 0.030589 0.250000
O O16 0.500000 0.054486 0.124034
O O17 0.303717 0.000000 0.000000
O O18 0.750000 0.700823 0.750000
O O19 0.000000 0.718541 0.615864
#
# Coordination Sequence:
#
# PCOD8221261 Si02
#       6
#     8   8   8   8   8   8
#     4  10  21  38  61  87 116 150 188 232 281 334
#     4  10  21  38  60  86 115 149 189 232 280 335
#     4  10  21  37  57  83 114 147 186 230 277 331
#     4  10  22  38  57  83 112 145 187 232 280 336
#     4  11  24  40  60  86 116 151 190 233 281 334
#     4  11  23  38  57  82 113 149 189 234 284 337
#
# _framework density 19.657639
#
# number of rings (size 3 to 8) (size 9 to 14) (size 15 to 20)
#    0.000    1.667    0.000    4.000    0.000    9.000 
#    0.000    0.000    0.000    0.000    0.000    0.000 
#    0.000    0.000    0.000    0.000    0.000    0.000 
#
# Total GULP energy -595522.748894 kJ/mol
# GULP energy per Si atom -12406.723935 kJ/mol
# Density = 1.961290 g / cm^3
# Si number density = 19.657639 Si / 1000 Ang^3
#
#
#
# Elastic Constant Matrix: (Units=GPa)
#
#
# Indices 1 2 3 4 5 6 
#
# 1 116.0823 60.4549 77.2258 0.0000 0.0000 0.0000
# 2 60.4549 87.5166 57.4829 0.0000 0.0000 0.0000
# 3 77.2258 57.4829 160.1759 0.0000 0.0000 0.0000
# 4 0.0000 0.0000 0.0000 34.5589 0.0000 0.0000
# 5 0.0000 0.0000 0.0000 0.0000 44.1263 0.0000
# 6 0.0000 0.0000 0.0000 0.0000 0.0000 13.7595
#
#
#
# Elastic Compliance Matrix: (Units=1/GPa)
#
#
# Indices 1 2 3 4 5 6 
#
# 1 0.015918 -0.007792 -0.004878 0.000000 0.000000 0.000000
# 2 -0.007792 0.018764 -0.002977 0.000000 0.000000 0.000000
# 3 -0.004878 -0.002977 0.009664 0.000000 0.000000 0.000000
# 4 0.000000 0.000000 0.000000 0.028936 0.000000 0.000000
# 5 0.000000 0.000000 0.000000 0.000000 0.022662 0.000000
# 6 0.000000 0.000000 0.000000 0.000000 0.000000 0.072677
#
#
# Mechanical properties :
#
#
# Convention : Reuss Voigt Hill
#
# Bulk Modulus (GPa) = 76.62160 83.78911 80.20535
# Shear Modulus (GPa) = 24.47790 29.72968 27.10379
#
# Velocity S-wave (km/s) = 3.53258 3.89314 3.71724
# Velocity P-wave (km/s) = 7.46334 7.93256 7.70153
#
# Compressibility (1/GPa) = 0.01305115
#
# Stress axis : x y z
#
# Youngs Moduli (GPa) = 62.82320 53.29265 103.48071
#
# Poissons Ratio (x) = 0.41523 0.50480
# Poissons Ratio (y) = 0.48949 0.30811
# Poissons Ratio (z) = 0.30647 0.15868
#
# Static dielectric constant tensor:
#      x y z
#    x 3.655460 0.000000 0.000000 
#    y 0.000000 3.699370 0.000000 
#    z 0.000000 0.000000 3.569290 
# 
# 
# High freq. dielectric constant tensor:
#      x y z
#    x 1.773710 0.000000 0.000000 
#    y 0.000000 1.778310 0.000000 
#    z 0.000000 0.000000 1.774580 
# 
# From -- ./inp_files/6628.got.cif
#   From: 2010.03.12/outbox.cif.g09.slc.cpg/sg53_4_cif.got.tgz:6628.got - 2010.04.16 14:36:59.
