data_PCOD8221163
_publ_section_title
;
Structure prediction by ZEFSAII (Michael W. Deem and Ramdas Pophale) SiO2 
 PCOD8221163
Probable space group: P M N A
;
_chemical_formula_sum "Si O2"
_cell_formula_units_Z 48
_cell_length_a 9.934370
_cell_length_b 29.151416
_cell_length_c 8.711884
_cell_angle_alpha 90.000000
_cell_angle_beta 90.000000
_cell_angle_gamma 90.000000
_cell_volume 2522.969905
_symmetry_space_group_name_H-M "P M N A"
_symmetry_group_IT_number 53
_symmetry_cell_setting 'orthorhombic'
loop_
_space_group_symop_operation_xyz
x,y,z
1/2-x,-y,1/2+z
x,-y,-z
1/2-x,y,1/2-z
-x,-y,-z
1/2+x,y,1/2-z
-x,y,z
1/2+x,-y,1/2+z
loop_
_atom_site_type_symbol
_atom_site_label
_atom_site_fract_x
_atom_site_fract_y
_atom_site_fract_z
Si Si1 0.500000 0.950715 0.071853
Si Si2 0.841966 0.814791 0.396006
Si Si3 0.500000 0.051536 0.564178
Si Si4 0.346656 0.709744 0.110781
Si Si5 0.845655 0.542905 0.394292
Si Si6 0.245621 0.101655 0.430669
Si Si7 0.653968 0.371531 0.107796
O O1 0.500000 0.952721 0.254157
O O2 0.371085 0.925376 0.012022
O O3 0.500000 0.000000 0.000000
O O4 0.750000 0.826866 0.250000
O O5 0.823584 0.761896 0.443029
O O6 0.781111 0.844567 0.535572
O O7 0.000000 0.826177 0.363171
O O8 0.377476 0.081681 0.506528
O O9 0.500000 0.000000 0.500000
O O10 0.250000 0.696218 0.250000
O O11 0.500000 0.702038 0.166894
O O12 0.313392 0.677785 0.966229
O O13 0.809556 0.500000 0.500000
O O14 0.750000 0.541047 0.250000
O O15 0.816480 0.589710 0.483191
O O16 0.000000 0.540487 0.338530
O O17 0.250000 0.093432 0.250000
O O18 0.750000 0.379948 0.250000
O O19 0.500000 0.374076 0.165164
#
# Coordination Sequence:
#
# PCOD8221163 Si02
#       7
#     4   8   4   8   8   8   8
#     4  12  24  44  66  88 120 156 194 238 287 342
#     4  10  21  39  62  88 118 155 195 240 291 349
#     4  12  26  44  66  92 120 156 196 238 287 348
#     4   9  19  36  58  84 114 149 193 239 287 345
#     4  10  21  36  55  82 114 150 195 245 297 355
#     4  12  25  41  62  91 122 155 193 239 290 345
#     4  10  21  36  55  81 115 154 195 244 294 349
#
# _framework density 19.025198
#
# number of rings (size 3 to 8) (size 9 to 14) (size 15 to 20)
#    0.000    1.500    0.833    4.500    1.167    2.333 
#    0.000    0.000    0.000    0.000    0.000    0.000 
#    0.000    0.000    0.000    0.000    0.000    0.000 
#
# Total GULP energy -595266.147792 kJ/mol
# GULP energy per Si atom -12401.378079 kJ/mol
# Density = 1.898190 g / cm^3
# Si number density = 19.025198 Si / 1000 Ang^3
#
#
#
# Elastic Constant Matrix: (Units=GPa)
#
#
# Indices 1 2 3 4 5 6 
#
# 1 142.7456 59.4997 84.0490 0.0000 0.0000 0.0000
# 2 59.4997 117.2519 61.1278 0.0000 0.0000 0.0000
# 3 84.0490 61.1278 158.8228 0.0000 0.0000 0.0000
# 4 0.0000 0.0000 0.0000 22.2089 0.0000 0.0000
# 5 0.0000 0.0000 0.0000 0.0000 38.8877 0.0000
# 6 0.0000 0.0000 0.0000 0.0000 0.0000 29.5289
#
#
#
# Elastic Compliance Matrix: (Units=1/GPa)
#
#
# Indices 1 2 3 4 5 6 
#
# 1 0.011062 -0.003204 -0.004621 0.000000 0.000000 0.000000
# 2 -0.003204 0.011598 -0.002768 0.000000 0.000000 0.000000
# 3 -0.004621 -0.002768 0.009807 0.000000 0.000000 0.000000
# 4 0.000000 0.000000 0.000000 0.045027 0.000000 0.000000
# 5 0.000000 0.000000 0.000000 0.000000 0.025715 0.000000
# 6 0.000000 0.000000 0.000000 0.000000 0.000000 0.033865
#
#
# Mechanical properties :
#
#
# Convention : Reuss Voigt Hill
#
# Bulk Modulus (GPa) = 88.64878 92.01926 90.33402
# Shear Modulus (GPa) = 30.86046 32.40136 31.63091
#
# Velocity S-wave (km/s) = 4.03188 4.13131 4.08190
# Velocity P-wave (km/s) = 8.26870 8.43973 8.35465
#
# Compressibility (1/GPa) = 0.01128047
#
# Stress axis : x y z
#
# Youngs Moduli (GPa) = 90.40168 86.22330 101.96951
#
# Poissons Ratio (x) = 0.27630 0.47115
# Poissons Ratio (y) = 0.28969 0.28225
# Poissons Ratio (z) = 0.41770 0.23866
#
# Static dielectric constant tensor:
#      x y z
#    x 3.671480 0.000000 0.000000 
#    y 0.000000 3.675850 0.000000 
#    z 0.000000 0.000000 3.454560 
# 
# 
# High freq. dielectric constant tensor:
#      x y z
#    x 1.754620 0.000000 0.000000 
#    y 0.000000 1.762270 0.000000 
#    z 0.000000 0.000000 1.731030 
# 
# From -- ./inp_files/6852.got.cif
#   From: 2010.03.12/outbox.cif.g09.slc.cpg/sg53_4_cif.got.tgz:6852.got - 2010.04.16 14:36:59.
