data_PCOD8221190
_publ_section_title
;
Structure prediction by ZEFSAII (Michael W. Deem and Ramdas Pophale) SiO2 
 PCOD8221190
Probable space group: P M N A
;
_chemical_formula_sum "Si O2"
_cell_formula_units_Z 56
_cell_length_a 15.889374
_cell_length_b 13.521411
_cell_length_c 12.275391
_cell_angle_alpha 90.000000
_cell_angle_beta 90.000000
_cell_angle_gamma 90.000000
_cell_volume 2637.327940
_symmetry_space_group_name_H-M "P M N A"
_symmetry_group_IT_number 53
_symmetry_cell_setting 'orthorhombic'
loop_
_space_group_symop_operation_xyz
x,y,z
1/2-x,-y,1/2+z
x,-y,-z
1/2-x,y,1/2-z
-x,-y,-z
1/2+x,y,1/2-z
-x,y,z
1/2+x,-y,1/2+z
loop_
_atom_site_type_symbol
_atom_site_label
_atom_site_fract_x
_atom_site_fract_y
_atom_site_fract_z
Si Si1 0.092645 0.336152 0.799293
Si Si2 0.907144 0.394559 0.557772
Si Si3 0.777911 0.384050 0.985362
Si Si4 0.905382 0.073687 0.262378
Si Si5 0.822383 0.109926 0.481888
Si Si6 0.194077 0.770665 0.855440
Si Si7 0.156163 0.138904 0.722124
O O1 0.102058 0.400526 0.688729
O O2 0.169318 0.364707 0.876899
O O3 0.094795 0.217944 0.777679
O O4 0.000000 0.358092 0.850629
O O5 0.908760 0.500000 0.500000
O O6 0.819768 0.341103 0.518008
O O7 0.000000 0.344069 0.530592
O O8 0.773555 0.500000 0.000000
O O9 0.827210 0.334721 0.088620
O O10 0.890493 0.112466 0.384894
O O11 0.885121 0.162534 0.178588
O O12 0.000000 0.042304 0.247136
O O13 0.853700 0.973933 0.235496
O O14 0.740971 0.172495 0.452034
O O15 0.864359 0.148090 0.593319
O O16 0.787895 0.000000 0.500000
O O17 0.250000 0.752634 0.750000
O O18 0.250000 0.172527 0.750000
#
# Coordination Sequence:
#
# PCOD8221190 Si02
#       7
#     8   8   8   8   8   8   8
#     4  11  23  38  59  90 125 160 203 250 300 365
#     4   9  19  37  62  92 122 152 195 254 313 368
#     4  11  24  41  63  85 115 160 205 254 313 366
#     4  10  21  36  56  85 120 156 195 242 296 359
#     4   9  18  33  57  84 113 151 189 231 291 358
#     4  10  21  39  58  82 115 153 200 247 297 362
#     4  11  20  35  61  88 117 154 196 245 303 362
#
# _framework density 21.233613999999999
#
# number of rings (size 3 to 8) (size 9 to 14) (size 15 to 20)
#    0.000    1.857    0.000    5.571    0.000    6.286 
#    0.000    4.286    0.000    6.429    0.000    0.000 
#    0.000    0.000    0.000    0.000    0.000    0.000 
#
# Total GULP energy -693804.699486 kJ/mol
# GULP energy per Si atom -12389.369634 kJ/mol
# Density = 2.118529 g / cm^3
# Si number density = 21.233614 Si / 1000 Ang^3
#
#
#
# Elastic Constant Matrix: (Units=GPa)
#
#
# Indices 1 2 3 4 5 6 
#
# 1 119.3116 34.0127 37.0087 0.0000 0.0000 0.0000
# 2 34.0127 78.2467 39.9198 0.0000 0.0000 0.0000
# 3 37.0087 39.9198 80.6189 0.0000 0.0000 0.0000
# 4 0.0000 0.0000 0.0000 42.9907 0.0000 0.0000
# 5 0.0000 0.0000 0.0000 0.0000 17.5648 0.0000
# 6 0.0000 0.0000 0.0000 0.0000 0.0000 21.7544
#
#
#
# Elastic Compliance Matrix: (Units=1/GPa)
#
#
# Indices 1 2 3 4 5 6 
#
# 1 0.010192 -0.002734 -0.003325 0.000000 0.000000 0.000000
# 2 -0.002734 0.017833 -0.007575 0.000000 0.000000 0.000000
# 3 -0.003325 -0.007575 0.017681 0.000000 0.000000 0.000000
# 4 0.000000 0.000000 0.000000 0.023261 0.000000 0.000000
# 5 0.000000 0.000000 0.000000 0.000000 0.056932 0.000000
# 6 0.000000 0.000000 0.000000 0.000000 0.000000 0.045968
#
#
# Mechanical properties :
#
#
# Convention : Reuss Voigt Hill
#
# Bulk Modulus (GPa) = 54.23537 55.56216 54.89876
# Shear Modulus (GPa) = 24.35668 27.61105 25.98386
#
# Velocity S-wave (km/s) = 3.39053 3.60994 3.50196
# Velocity P-wave (km/s) = 6.39729 6.60299 6.50095
#
# Compressibility (1/GPa) = 0.01843815
#
# Stress axis : x y z
#
# Youngs Moduli (GPa) = 98.11441 56.07475 56.55634
#
# Poissons Ratio (x) = 0.15331 0.18805
# Poissons Ratio (y) = 0.26825 0.42844
# Poissons Ratio (z) = 0.32623 0.42479
#
# Static dielectric constant tensor:
#      x y z
#    x 3.976010 0.000000 0.000000 
#    y 0.000000 3.893710 0.000000 
#    z 0.000000 0.000000 4.157870 
# 
# 
# High freq. dielectric constant tensor:
#      x y z
#    x 1.823090 0.000000 0.000000 
#    y 0.000000 1.833250 0.000000 
#    z 0.000000 0.000000 1.825760 
# 
# From -- ./inp_files/16050.got.cif
#   From: 2010.03.12/outbox.cif.g09.slc.cpg/sg53_9_cif.got.tgz:16050.got - 2010.04.16 14:36:59.
