data_PCOD8221567
_publ_section_title
;
Structure prediction by ZEFSAII (Michael W. Deem and Ramdas Pophale) SiO2 
 PCOD8221567
Probable space group: P M N A
;
_chemical_formula_sum "Si O2"
_cell_formula_units_Z 48
_cell_length_a 8.931275
_cell_length_b 16.398154
_cell_length_c 15.674078
_cell_angle_alpha 90.000000
_cell_angle_beta 90.000000
_cell_angle_gamma 90.000000
_cell_volume 2295.569396
_symmetry_space_group_name_H-M "P M N A"
_symmetry_group_IT_number 53
_symmetry_cell_setting 'orthorhombic'
loop_
_space_group_symop_operation_xyz
x,y,z
1/2-x,-y,1/2+z
x,-y,-z
1/2-x,y,1/2-z
-x,-y,-z
1/2+x,y,1/2-z
-x,y,z
1/2+x,-y,1/2+z
loop_
_atom_site_type_symbol
_atom_site_label
_atom_site_fract_x
_atom_site_fract_y
_atom_site_fract_z
Si Si1 0.829786 0.852123 0.919691
Si Si2 0.822362 0.316156 0.160219
Si Si3 0.171641 0.403611 0.496950
Si Si4 0.325294 0.994286 0.836517
Si Si5 0.826261 0.334115 0.835678
Si Si6 0.167487 0.155088 0.886143
O O1 0.780390 0.778026 0.858765
O O2 0.000000 0.878197 0.901147
O O3 0.727221 0.931897 0.909406
O O4 0.808984 0.820749 0.015630
O O5 0.750000 0.341723 0.250000
O O6 0.757728 0.373598 0.086782
O O7 0.000000 0.328499 0.163706
O O8 0.182546 0.500000 0.500000
O O9 0.246155 0.369500 0.581981
O O10 0.000000 0.373656 0.492815
O O11 0.250000 0.963571 0.750000
O O12 0.500000 0.988510 0.825988
O O13 0.283965 0.087091 0.856997
O O14 0.750000 0.369812 0.750000
O O15 0.806674 0.236551 0.832549
O O16 0.000000 0.359491 0.837819
O O17 0.000000 0.120338 0.871153
#
# Coordination Sequence:
#
# PCOD8221567 Si02
#       6
#     8   8   8   8   8   8
#     4  10  21  40  63  89 123 164 209 260 317 374
#     4  11  23  42  68  99 131 171 216 263 321 383
#     4  11  25  45  69  98 131 168 211 263 322 385
#     4  12  25  38  55  85 121 165 215 263 314 369
#     4  11  23  42  68  99 131 171 216 263 321 383
#     4  10  21  40  63  89 123 164 209 260 317 374
#
# _framework density 20.909844
#
# number of rings (size 3 to 8) (size 9 to 14) (size 15 to 20)
#    0.000    1.167    1.667    4.500    0.000   10.000 
#    0.000    0.000    0.000    0.000    0.000    0.000 
#    0.000    0.000    0.000    0.000    0.000    0.000 
#
# Total GULP energy -595449.648000 kJ/mol
# GULP energy per Si atom -12405.201000 kJ/mol
# Density = 2.086225 g / cm^3
# Si number density = 20.909844 Si / 1000 Ang^3
#
#
#
# Elastic Constant Matrix: (Units=GPa)
#
#
# Indices 1 2 3 4 5 6 
#
# 1 149.8273 45.9956 57.3266 0.0000 0.0000 0.0000
# 2 45.9956 64.0688 25.7647 0.0000 0.0000 0.0000
# 3 57.3266 25.7647 131.6754 0.0000 0.0000 0.0000
# 4 0.0000 0.0000 0.0000 11.1075 0.0000 0.0000
# 5 0.0000 0.0000 0.0000 0.0000 38.0948 0.0000
# 6 0.0000 0.0000 0.0000 0.0000 0.0000 32.3744
#
#
#
# Elastic Compliance Matrix: (Units=1/GPa)
#
#
# Indices 1 2 3 4 5 6 
#
# 1 0.009581 -0.005645 -0.003067 0.000000 0.000000 0.000000
# 2 -0.005645 0.020267 -0.001508 0.000000 0.000000 0.000000
# 3 -0.003067 -0.001508 0.009225 0.000000 0.000000 0.000000
# 4 0.000000 0.000000 0.000000 0.090029 0.000000 0.000000
# 5 0.000000 0.000000 0.000000 0.000000 0.026250 0.000000
# 6 0.000000 0.000000 0.000000 0.000000 0.000000 0.030889
#
#
# Mechanical properties :
#
#
# Convention : Reuss Voigt Hill
#
# Bulk Modulus (GPa) = 53.66693 67.08282 60.37488
# Shear Modulus (GPa) = 23.48627 30.74763 27.11695
#
# Velocity S-wave (km/s) = 3.35508 3.83885 3.60509
# Velocity P-wave (km/s) = 6.38203 7.19726 6.80187
#
# Compressibility (1/GPa) = 0.01863345
#
# Stress axis : x y z
#
# Youngs Moduli (GPa) = 104.37798 49.34087 108.40619
#
# Poissons Ratio (x) = 0.27852 0.33243
# Poissons Ratio (y) = 0.58919 0.16349
# Poissons Ratio (z) = 0.32008 0.07441
#
# Static dielectric constant tensor:
#      x y z
#    x 3.891030 0.000000 0.000000 
#    y 0.000000 3.690970 0.000000 
#    z 0.000000 0.000000 3.901340 
# 
# 
# High freq. dielectric constant tensor:
#      x y z
#    x 1.824800 0.000000 0.000000 
#    y 0.000000 1.813890 0.000000 
#    z 0.000000 0.000000 1.833870 
# 
# From -- ./inp_files/20129.got.cif
#   From: 2010.03.12/outbox.cif.g09.slc.cpg/sg53_11_cif.got.tgz:20129.got - 2010.04.16 14:36:59.
