data_PCOD8221702
_publ_section_title
;
Structure prediction by ZEFSAII (Michael W. Deem and Ramdas Pophale) SiO2 
 PCOD8221702
Probable space group: P M N A
;
_chemical_formula_sum "Si O2"
_cell_formula_units_Z 48
_cell_length_a 8.930982
_cell_length_b 9.649011
_cell_length_c 28.989270
_cell_angle_alpha 90.000000
_cell_angle_beta 90.000000
_cell_angle_gamma 90.000000
_cell_volume 2498.154504
_symmetry_space_group_name_H-M "P M N A"
_symmetry_group_IT_number 53
_symmetry_cell_setting 'orthorhombic'
loop_
_space_group_symop_operation_xyz
x,y,z
1/2-x,-y,1/2+z
x,-y,-z
1/2-x,y,1/2-z
-x,-y,-z
1/2+x,y,1/2-z
-x,y,z
1/2+x,-y,1/2+z
loop_
_atom_site_type_symbol
_atom_site_label
_atom_site_fract_x
_atom_site_fract_y
_atom_site_fract_z
Si Si1 0.169023 0.877569 0.464037
Si Si2 0.825862 0.707833 0.876218
Si Si3 0.168521 0.652270 0.979998
Si Si4 0.824324 0.787196 0.297264
Si Si5 0.676069 0.529234 0.797808
Si Si6 0.825813 0.030630 0.873921
O O1 0.217166 0.738021 0.489260
O O2 0.283460 0.908661 0.423350
O O3 0.000000 0.859618 0.444988
O O4 0.178485 0.000000 0.500000
O O5 0.778855 0.654207 0.926837
O O6 0.730343 0.624479 0.839282
O O7 0.000000 0.680070 0.866671
O O8 0.785384 0.869107 0.871633
O O9 0.000000 0.714886 0.982850
O O10 0.171737 0.500000 0.000000
O O11 0.750000 0.836437 0.250000
O O12 0.777904 0.629217 0.309048
O O13 0.769787 0.889412 0.336462
O O14 0.000000 0.801672 0.291619
O O15 0.750000 0.578719 0.750000
O O16 0.500000 0.545822 0.792177
O O17 0.000000 0.057583 0.865138
#
# Coordination Sequence:
#
# PCOD8221702 Si02
#       6
#     8   8   8   8   8   8
#     4  11  23  39  60  87 121 159 197 243 296 349
#     4  10  22  39  59  87 121 155 199 244 291 350
#     4  10  22  40  61  88 119 158 202 245 292 349
#     4  10  22  41  63  91 121 153 196 243 295 355
#     4  10  22  40  63  88 118 154 193 240 295 351
#     4  11  23  39  62  88 118 159 200 244 294 350
#
# _framework density 19.214183999999999
#
# number of rings (size 3 to 8) (size 9 to 14) (size 15 to 20)
#    0.000    1.667    1.667    2.000    2.333    5.667 
#    0.000    0.000    0.000    0.000    0.000    0.000 
#    0.000    0.000    0.000    0.000    0.000    0.000 
#
# Total GULP energy -595433.668781 kJ/mol
# GULP energy per Si atom -12404.868100 kJ/mol
# Density = 1.917045 g / cm^3
# Si number density = 19.214184 Si / 1000 Ang^3
#
#
#
# Elastic Constant Matrix: (Units=GPa)
#
#
# Indices 1 2 3 4 5 6 
#
# 1 68.1573 39.1908 44.7513 0.0000 0.0000 0.0000
# 2 39.1908 87.7773 59.5501 0.0000 0.0000 0.0000
# 3 44.7513 59.5501 121.2570 0.0000 0.0000 0.0000
# 4 0.0000 0.0000 0.0000 20.2144 0.0000 0.0000
# 5 0.0000 0.0000 0.0000 0.0000 41.4365 0.0000
# 6 0.0000 0.0000 0.0000 0.0000 0.0000 37.5610
#
#
#
# Elastic Compliance Matrix: (Units=1/GPa)
#
#
# Indices 1 2 3 4 5 6 
#
# 1 0.021469 -0.006314 -0.004823 0.000000 0.000000 0.000000
# 2 -0.006314 0.018941 -0.006972 0.000000 0.000000 0.000000
# 3 -0.004823 -0.006972 0.013451 0.000000 0.000000 0.000000
# 4 0.000000 0.000000 0.000000 0.049470 0.000000 0.000000
# 5 0.000000 0.000000 0.000000 0.000000 0.024133 0.000000
# 6 0.000000 0.000000 0.000000 0.000000 0.000000 0.026623
#
#
# Mechanical properties :
#
#
# Convention : Reuss Voigt Hill
#
# Bulk Modulus (GPa) = 56.67556 62.68624 59.68090
# Shear Modulus (GPa) = 25.48603 28.75566 27.12084
#
# Velocity S-wave (km/s) = 3.64595 3.87277 3.76107
# Velocity P-wave (km/s) = 6.87639 7.25903 7.07030
#
# Compressibility (1/GPa) = 0.01764429
#
# Stress axis : x y z
#
# Youngs Moduli (GPa) = 46.57916 52.79431 74.34461
#
# Poissons Ratio (x) = 0.33332 0.35854
# Poissons Ratio (y) = 0.29408 0.51834
# Poissons Ratio (z) = 0.22464 0.36809
#
# Static dielectric constant tensor:
#      x y z
#    x 3.662970 0.000000 0.000000 
#    y 0.000000 3.528510 0.000000 
#    z 0.000000 0.000000 3.411070 
# 
# 
# High freq. dielectric constant tensor:
#      x y z
#    x 1.755550 0.000000 0.000000 
#    y 0.000000 1.750700 0.000000 
#    z 0.000000 0.000000 1.757890 
# 
# From -- ./inp_files/37721.got.cif
#   From: 2010.03.12/outbox.cif.g09.slc.cpg/sg53_19_cif.got.tgz:37721.got - 2010.04.16 14:36:59.
