data_PCOD8221351
_publ_section_title
;
Structure prediction by ZEFSAII (Michael W. Deem and Ramdas Pophale) SiO2 
 PCOD8221351
Probable space group: P M N A
;
_chemical_formula_sum "Si O2"
_cell_formula_units_Z 56
_cell_length_a 13.897798
_cell_length_b 12.622611
_cell_length_c 15.228984
_cell_angle_alpha 90.000000
_cell_angle_beta 90.000000
_cell_angle_gamma 90.000000
_cell_volume 2671.567330
_symmetry_space_group_name_H-M "P M N A"
_symmetry_group_IT_number 53
_symmetry_cell_setting 'orthorhombic'
loop_
_space_group_symop_operation_xyz
x,y,z
1/2-x,-y,1/2+z
x,-y,-z
1/2-x,y,1/2-z
-x,-y,-z
1/2+x,y,1/2-z
-x,y,z
1/2+x,-y,1/2+z
loop_
_atom_site_type_symbol
_atom_site_label
_atom_site_fract_x
_atom_site_fract_y
_atom_site_fract_z
Si Si1 0.396446 0.402646 0.064019
Si Si2 0.395259 0.285157 0.381802
Si Si3 0.742746 0.099322 0.353039
Si Si4 0.237672 0.859521 0.147254
Si Si5 0.214553 0.522185 0.838349
Si Si6 0.392378 0.327530 0.580860
Si Si7 0.111957 0.828802 0.502200
O O1 0.500000 0.393023 0.114126
O O2 0.308206 0.418856 0.126768
O O3 0.402356 0.500000 0.000000
O O4 0.377715 0.296853 0.009052
O O5 0.500000 0.252502 0.346570
O O6 0.334489 0.179283 0.391465
O O7 0.356908 0.379398 0.319412
O O8 0.399927 0.336432 0.477347
O O9 0.750000 0.127982 0.250000
O O10 0.839817 0.114421 0.411925
O O11 0.701948 0.980559 0.362444
O O12 0.250000 0.831380 0.250000
O O13 0.156801 0.781585 0.110129
O O14 0.336132 0.854512 0.090478
O O15 0.250000 0.465403 0.750000
O O16 0.170126 0.430028 0.896124
O O17 0.500000 0.332836 0.622626
O O18 0.000000 0.865162 0.497770
#
# Coordination Sequence:
#
# PCOD8221351 Si02
#       7
#     8   8   8   8   8   8   8
#     4  10  21  37  61  90 123 165 211 258 320 390
#     4  11  23  40  65  93 126 171 218 267 327 394
#     4  11  24  43  65  98 132 171 222 279 334 398
#     4  11  24  43  67  94 133 174 221 279 335 397
#     4  12  23  39  62  91 131 166 210 269 325 390
#     4  11  24  42  65  93 125 172 222 268 325 396
#     4  11  23  42  69  99 134 177 225 279 338 400
#
# _framework density 20.961478
#
# number of rings (size 3 to 8) (size 9 to 14) (size 15 to 20)
#    0.000    1.000    2.857    3.857    0.000    5.143 
#    0.000    5.714    0.000    0.000    0.000    0.000 
#    0.000    0.000    0.000    0.000    0.000    0.000 
#
# Total GULP energy -694052.624968 kJ/mol
# GULP energy per Si atom -12393.796874 kJ/mol
# Density = 2.091377 g / cm^3
# Si number density = 20.961478 Si / 1000 Ang^3
#
#
#
# Elastic Constant Matrix: (Units=GPa)
#
#
# Indices 1 2 3 4 5 6 
#
# 1 143.5661 39.6773 46.2964 0.0000 0.0000 0.0000
# 2 39.6773 121.0705 12.7709 0.0000 0.0000 0.0000
# 3 46.2964 12.7709 102.3742 0.0000 0.0000 0.0000
# 4 0.0000 0.0000 0.0000 28.7333 0.0000 0.0000
# 5 0.0000 0.0000 0.0000 0.0000 1.7347 0.0000
# 6 0.0000 0.0000 0.0000 0.0000 0.0000-1608.6379
#
#
#
# Elastic Compliance Matrix: (Units=1/GPa)
#
#
# Indices 1 2 3 4 5 6 
#
# 1 0.008849 -0.002511 -0.003688 0.000000 0.000000 0.000000
# 2 -0.002511 0.009082 0.000003 0.000000 0.000000 0.000000
# 3 -0.003688 0.000003 0.011436 0.000000 0.000000 0.000000
# 4 0.000000 0.000000 0.000000 0.034803 0.000000 0.000000
# 5 0.000000 0.000000 0.000000 0.000000 0.576471 0.000000
# 6 0.000000 0.000000 0.000000 0.000000 0.000000 -0.000622
#
#
# Mechanical properties :
#
#
# Convention : Reuss Voigt Hill
#
# Bulk Modulus (GPa) = 58.91636 62.72221 60.81929
# Shear Modulus (GPa) = 7.59797 -297.74957 -145.07580
#
# Velocity S-wave (km/s) = 1.90594 -11.93124 -8.32832
# Velocity P-wave (km/s) = 5.74556 12.64193 7.96263
#
# Compressibility (1/GPa) = 0.01697321
#
# Stress axis : x y z
#
# Youngs Moduli (GPa) = 113.00979 110.10491 87.44474
#
# Poissons Ratio (x) = 0.27646 0.32253
# Poissons Ratio (y) = 0.28375 -0.00022
# Poissons Ratio (z) = 0.41683 -0.00028
#
# Static dielectric constant tensor:
#      x y z
#    x 4.299460 0.000000 0.000000 
#    y 0.000000 3.827750 0.000000 
#    z 0.000000 0.000000 3.858070 
# 
# 
# High freq. dielectric constant tensor:
#      x y z
#    x 1.827970 0.000000 0.000000 
#    y 0.000000 1.839150 0.000000 
#    z 0.000000 0.000000 1.813040 
# 
# From -- ./inp_files/22789.got.cif
#   From: 2010.03.12/outbox.cif.g09.slc.cpg/sg53_12_cif.got.tgz:22789.got - 2010.04.16 14:36:59.
