data_PCOD8221948
_publ_section_title
;
Structure prediction by ZEFSAII (Michael W. Deem and Ramdas Pophale) SiO2 
 PCOD8221948
Probable space group: P M N A
;
_chemical_formula_sum "Si O2"
_cell_formula_units_Z 48
_cell_length_a 12.503402
_cell_length_b 11.303833
_cell_length_c 19.158861
_cell_angle_alpha 90.000000
_cell_angle_beta 90.000000
_cell_angle_gamma 90.000000
_cell_volume 2707.843831
_symmetry_space_group_name_H-M "P M N A"
_symmetry_group_IT_number 53
_symmetry_cell_setting 'orthorhombic'
loop_
_space_group_symop_operation_xyz
x,y,z
1/2-x,-y,1/2+z
x,-y,-z
1/2-x,y,1/2-z
-x,-y,-z
1/2+x,y,1/2-z
-x,y,z
1/2+x,-y,1/2+z
loop_
_atom_site_type_symbol
_atom_site_label
_atom_site_fract_x
_atom_site_fract_y
_atom_site_fract_z
Si Si1 0.690839 0.668146 0.057118
Si Si2 0.000000 0.167443 0.545827
Si Si3 0.700272 0.208632 0.173922
Si Si4 0.873186 0.580463 0.591543
Si Si5 0.000000 0.909059 0.609907
Si Si6 0.618690 0.164624 0.566723
Si Si7 0.881405 0.907655 0.907403
O O1 0.603922 0.767298 0.074147
O O2 0.669290 0.552462 0.104410
O O3 0.804058 0.724177 0.079232
O O4 0.686039 0.634067 0.975814
O O5 0.000000 0.170160 0.460721
O O6 0.000000 0.041199 0.582080
O O7 0.750000 0.195966 0.250000
O O8 0.656770 0.341121 0.159032
O O9 0.603918 0.117181 0.157467
O O10 0.798846 0.183146 0.124305
O O11 0.000000 0.577991 0.577965
O O12 0.500000 0.206295 0.589343
O O13 0.618545 0.121811 0.488047
O O14 0.652016 0.044710 0.608405
O O15 0.000000 0.885601 0.876219
#
# Coordination Sequence:
#
# PCOD8221948 Si02
#       7
#     8   4   8   8   4   8   8
#     4  11  17  31  56  84 110 138 176 234 301 331
#     4  11  18  32  65  90 117 134 172 266 303 327
#     4  12  23  36  55  77 113 152 184 229 264 346
#     4  11  20  35  52  80 112 142 184 232 286 329
#     4  11  22  35  54  95 118 138 191 231 302 346
#     4   9  17  31  53  79 114 139 171 228 275 339
#     4   9  18  33  52  79 108 145 179 214 282 332
#
# _framework density 17.726281
#
# number of rings (size 3 to 8) (size 9 to 14) (size 15 to 20)
#    0.000    1.500    5.833    2.500    1.167    2.667 
#    0.000    2.500    0.000    4.000    0.000    0.000 
#    0.000    0.000    0.000    0.000    0.000    0.000 
#
# Total GULP energy -594917.137932 kJ/mol
# GULP energy per Si atom -12394.107040 kJ/mol
# Density = 1.768594 g / cm^3
# Si number density = 17.726281 Si / 1000 Ang^3
#
#
#
# Elastic Constant Matrix: (Units=GPa)
#
#
# Indices 1 2 3 4 5 6 
#
# 1 112.5466 53.9912 19.9576 0.0000 0.0000 0.0000
# 2 53.9912 105.2082 16.8131 0.0000 0.0000 0.0000
# 3 19.9576 16.8131 43.2158 0.0000 0.0000 0.0000
# 4 0.0000 0.0000 0.0000 14.8155 0.0000 0.0000
# 5 0.0000 0.0000 0.0000 0.0000 18.6521 0.0000
# 6 0.0000 0.0000 0.0000 0.0000 0.0000 48.4060
#
#
#
# Elastic Compliance Matrix: (Units=1/GPa)
#
#
# Indices 1 2 3 4 5 6 
#
# 1 0.012244 -0.005736 -0.003423 0.000000 0.000000 0.000000
# 2 -0.005736 0.012823 -0.002339 0.000000 0.000000 0.000000
# 3 -0.003423 -0.002339 0.025630 0.000000 0.000000 0.000000
# 4 0.000000 0.000000 0.000000 0.067497 0.000000 0.000000
# 5 0.000000 0.000000 0.000000 0.000000 0.053613 0.000000
# 6 0.000000 0.000000 0.000000 0.000000 0.000000 0.020659
#
#
# Mechanical properties :
#
#
# Convention : Reuss Voigt Hill
#
# Bulk Modulus (GPa) = 36.10114 49.16603 42.63359
# Shear Modulus (GPa) = 22.25222 27.72198 24.98710
#
# Velocity S-wave (km/s) = 3.54690 3.95890 3.75855
# Velocity P-wave (km/s) = 6.09788 6.97808 6.55277
#
# Compressibility (1/GPa) = 0.02769996
#
# Stress axis : x y z
#
# Youngs Moduli (GPa) = 81.67223 77.98666 39.01604
#
# Poissons Ratio (x) = 0.44737 0.13354
# Poissons Ratio (y) = 0.46851 0.09128
# Poissons Ratio (z) = 0.27954 0.18245
#
# Static dielectric constant tensor:
#      x y z
#    x -2.366230 0.000000 0.000000 
#    y 0.000000 3.581240 0.000000 
#    z 0.000000 0.000000 2.592680 
# 
# 
# High freq. dielectric constant tensor:
#      x y z
#    x 1.699240 0.000000 0.000000 
#    y 0.000000 1.693880 0.000000 
#    z 0.000000 0.000000 1.627190 
# 
# From -- ./inp_files/31929.got.cif
#   From: 2010.03.12/outbox.cif.g09.slc.cpg/sg53_16_cif.got.tgz:31929.got - 2010.04.16 14:36:59.
