data_PCOD8221833
_publ_section_title
;
Structure prediction by ZEFSAII (Michael W. Deem and Ramdas Pophale) SiO2 
 PCOD8221833
Probable space group: P M N A
;
_chemical_formula_sum "Si O2"
_cell_formula_units_Z 28
_cell_length_a 16.533703
_cell_length_b 4.970111
_cell_length_c 15.072158
_cell_angle_alpha 90.000000
_cell_angle_beta 90.000000
_cell_angle_gamma 90.000000
_cell_volume 1238.544623
_symmetry_space_group_name_H-M "P M N A"
_symmetry_group_IT_number 53
_symmetry_cell_setting 'orthorhombic'
loop_
_space_group_symop_operation_xyz
x,y,z
1/2-x,-y,1/2+z
x,-y,-z
1/2-x,y,1/2-z
-x,-y,-z
1/2+x,y,1/2-z
-x,y,z
1/2+x,-y,1/2+z
loop_
_atom_site_type_symbol
_atom_site_label
_atom_site_fract_x
_atom_site_fract_y
_atom_site_fract_z
Si Si1 0.593289 0.687906 0.745204
Si Si2 0.817931 0.500000 0.500000
Si Si3 0.699231 0.115757 0.407238
Si Si4 0.343013 0.187097 0.841275
O O1 0.500000 0.608108 0.738506
O O2 0.623491 0.781253 0.648688
O O3 0.643865 0.423613 0.770540
O O4 0.604086 0.926300 0.816719
O O5 0.762963 0.350100 0.427387
O O6 0.870559 0.292247 0.559745
O O7 0.665258 0.000000 0.500000
O O8 0.747567 0.893427 0.348248
#
# Coordination Sequence:
#
# PCOD8221833 Si02
#       4
#     8   4   8   8
#     4  12  27  44  67 106 145 178 217 281 355 406
#     4  10  22  44  70 104 124 176 246 280 320 388
#     4  10  24  42  75 100 134 179 239 282 329 400
#     4  11  24  44  70 100 132 183 233 280 326 401
#
# _framework density 22.607175999999999
#
# number of rings (size 3 to 8) (size 9 to 14) (size 15 to 20)
#    0.000    1.143    2.857    1.714   12.000    0.571 
#    0.000    5.000    0.000    0.000    0.000    0.000 
#    0.000    0.000    0.000    0.000    0.000    0.000 
#
# Total GULP energy -347124.079251 kJ/mol
# GULP energy per Si atom -12397.288545 kJ/mol
# Density = 2.255572 g / cm^3
# Si number density = 22.607176 Si / 1000 Ang^3
#
#
#
# Elastic Constant Matrix: (Units=GPa)
#
#
# Indices 1 2 3 4 5 6 
#
# 1 81.7348 36.7476 62.2325 0.0000 0.0000 0.0000
# 2 36.7476 132.9080 41.6094 0.0000 0.0000 0.0000
# 3 62.2325 41.6094 108.2354 0.0000 0.0000 0.0000
# 4 0.0000 0.0000 0.0000 47.5558 0.0000 0.0000
# 5 0.0000 0.0000 0.0000 0.0000 15.5507 0.0000
# 6 0.0000 0.0000 0.0000 0.0000 0.0000 21.0263
#
#
#
# Elastic Compliance Matrix: (Units=1/GPa)
#
#
# Indices 1 2 3 4 5 6 
#
# 1 0.022449 -0.002462 -0.011961 0.000000 0.000000 0.000000
# 2 -0.002462 0.008824 -0.001976 0.000000 0.000000 0.000000
# 3 -0.011961 -0.001976 0.016876 0.000000 0.000000 0.000000
# 4 0.000000 0.000000 0.000000 0.021028 0.000000 0.000000
# 5 0.000000 0.000000 0.000000 0.000000 0.064306 0.000000
# 6 0.000000 0.000000 0.000000 0.000000 0.000000 0.047559
#
#
# Mechanical properties :
#
#
# Convention : Reuss Voigt Hill
#
# Bulk Modulus (GPa) = 65.14906 67.11748 66.13327
# Shear Modulus (GPa) = 22.83556 28.97913 25.90735
#
# Velocity S-wave (km/s) = 3.18166 3.58419 3.38890
# Velocity P-wave (km/s) = 6.50982 6.84701 6.68054
#
# Compressibility (1/GPa) = 0.01534942
#
# Stress axis : x y z
#
# Youngs Moduli (GPa) = 44.54620 113.33355 59.25564
#
# Poissons Ratio (x) = 0.27905 0.70874
# Poissons Ratio (y) = 0.10968 0.11711
# Poissons Ratio (z) = 0.53281 0.22399
#
# Static dielectric constant tensor:
#      x y z
#    x 3.404090 0.000000 0.000000 
#    y 0.000000 4.477190 0.000000 
#    z 0.000000 0.000000 4.170160 
# 
# 
# High freq. dielectric constant tensor:
#      x y z
#    x 1.829900 0.000000 0.000000 
#    y 0.000000 1.918910 0.000000 
#    z 0.000000 0.000000 1.906560 
# 
# From -- ./inp_files/23107.got.cif
#   From: 2010.03.12/outbox.cif.g09.slc.cpg/sg53_12_cif.got.tgz:23107.got - 2010.04.16 14:36:59.
