data_PCOD8221384
_publ_section_title
;
Structure prediction by ZEFSAII (Michael W. Deem and Ramdas Pophale) SiO2 
 PCOD8221384
Probable space group: P M N A
;
_chemical_formula_sum "Si O2"
_cell_formula_units_Z 64
_cell_length_a 8.900798
_cell_length_b 12.686961
_cell_length_c 29.151960
_cell_angle_alpha 90.000000
_cell_angle_beta 90.000000
_cell_angle_gamma 90.000000
_cell_volume 3291.958179
_symmetry_space_group_name_H-M "P M N A"
_symmetry_group_IT_number 53
_symmetry_cell_setting 'orthorhombic'
loop_
_space_group_symop_operation_xyz
x,y,z
1/2-x,-y,1/2+z
x,-y,-z
1/2-x,y,1/2-z
-x,-y,-z
1/2+x,y,1/2-z
-x,y,z
1/2+x,-y,1/2+z
loop_
_atom_site_type_symbol
_atom_site_label
_atom_site_fract_x
_atom_site_fract_y
_atom_site_fract_z
Si Si1 0.321579 0.030715 0.449277
Si Si2 0.821611 0.474615 0.049365
Si Si3 0.824522 0.044311 0.643695
Si Si4 0.325855 0.254409 0.421850
Si Si5 0.667314 0.187481 0.163434
Si Si6 0.179223 0.765891 0.199317
Si Si7 0.330681 0.601875 0.794625
Si Si8 0.823704 0.559090 0.143642
O O1 0.500000 0.015567 0.442050
O O2 0.239324 0.966723 0.408289
O O3 0.269123 0.152067 0.448990
O O4 0.268729 0.000000 0.500000
O O5 0.747536 0.361492 0.061460
O O6 0.782552 0.561014 0.089040
O O7 0.000000 0.466775 0.045163
O O8 0.749780 0.500000 0.000000
O O9 0.799297 0.935834 0.673131
O O10 0.000000 0.073832 0.640865
O O11 0.736218 0.132724 0.671666
O O12 0.500000 0.268976 0.429192
O O13 0.293466 0.234394 0.369046
O O14 0.500000 0.194463 0.141214
O O15 0.675971 0.269260 0.205845
O O16 0.250000 0.760806 0.250000
O O17 0.231829 0.664064 0.169776
O O18 0.000000 0.771908 0.203885
O O19 0.250000 0.557396 0.750000
O O20 0.500000 0.561332 0.793188
O O21 0.252854 0.547113 0.837898
O O22 0.000000 0.545332 0.150597
#
# Coordination Sequence:
#
# PCOD8221384 Si02
#       8
#     8   8   8   8   8   8   8   8
#     4   9  18  32  53  84 118 154 199 247 295 346
#     4   9  17  30  52  83 113 145 188 233 281 335
#     4  10  21  38  59  83 115 152 196 242 293 352
#     4   9  16  29  52  76 105 146 185 228 280 335
#     4   9  19  35  54  78 108 143 178 224 281 333
#     4  11  24  41  61  84 114 154 198 246 301 354
#     4  11  22  35  55  82 111 142 179 225 277 333
#     4  10  21  38  59  83 113 149 190 237 285 341
#
# _framework density 19.441316
#
# number of rings (size 3 to 8) (size 9 to 14) (size 15 to 20)
#    0.000    2.250    1.250    1.500    0.000    4.750 
#    0.000    5.000    0.000    1.500    0.000    0.000 
#    0.000    0.000    0.000    0.000    0.000    0.000 
#
# Total GULP energy -792855.803103 kJ/mol
# GULP energy per Si atom -12388.371923 kJ/mol
# Density = 1.939707 g / cm^3
# Si number density = 19.441316 Si / 1000 Ang^3
#
#
#
# Elastic Constant Matrix: (Units=GPa)
#
#
# Indices 1 2 3 4 5 6 
#
# 1 38.7482 37.6618 40.2111 0.0000 0.0000 0.0000
# 2 37.6618 132.0709 67.1283 0.0000 0.0000 0.0000
# 3 40.2111 67.1283 136.7416 0.0000 0.0000 0.0000
# 4 0.0000 0.0000 0.0000 22.7539 0.0000 0.0000
# 5 0.0000 0.0000 0.0000 0.0000 20.9321 0.0000
# 6 0.0000 0.0000 0.0000 0.0000 0.0000 23.4121
#
#
#
# Elastic Compliance Matrix: (Units=1/GPa)
#
#
# Indices 1 2 3 4 5 6 
#
# 1 0.042224 -0.007635 -0.008669 0.000000 0.000000 0.000000
# 2 -0.007635 0.011470 -0.003385 0.000000 0.000000 0.000000
# 3 -0.008669 -0.003385 0.011524 0.000000 0.000000 0.000000
# 4 0.000000 0.000000 0.000000 0.043948 0.000000 0.000000
# 5 0.000000 0.000000 0.000000 0.000000 0.047773 0.000000
# 6 0.000000 0.000000 0.000000 0.000000 0.000000 0.042713
#
#
# Mechanical properties :
#
#
# Convention : Reuss Voigt Hill
#
# Bulk Modulus (GPa) = 38.69933 66.39589 52.54761
# Shear Modulus (GPa) = 20.19026 24.25694 22.22360
#
# Velocity S-wave (km/s) = 3.22611 3.53611 3.38466
# Velocity P-wave (km/s) = 5.81601 7.13430 6.50862
#
# Compressibility (1/GPa) = 0.02584024
#
# Stress axis : x y z
#
# Youngs Moduli (GPa) = 23.68304 87.18714 86.77381
#
# Poissons Ratio (x) = 0.66565 0.75222
# Poissons Ratio (y) = 0.18081 0.29377
# Poissons Ratio (z) = 0.20530 0.29517
#
# Static dielectric constant tensor:
#      x y z
#    x 3.416920 0.000000 0.000000 
#    y 0.000000 3.897970 0.000000 
#    z 0.000000 0.000000 3.771770 
# 
# 
# High freq. dielectric constant tensor:
#      x y z
#    x 1.741100 0.000000 0.000000 
#    y 0.000000 1.765260 0.000000 
#    z 0.000000 0.000000 1.750100 
# 
# From -- ./inp_files/38301.got.cif
#   From: 2010.03.12/outbox.cif.g09.slc.cpg/sg53_20_cif.got.tgz:38301.got - 2010.04.16 14:36:59.
