data_PCOD8221579
_publ_section_title
;
Structure prediction by ZEFSAII (Michael W. Deem and Ramdas Pophale) SiO2 
 PCOD8221579
Probable space group: P M N A
;
_chemical_formula_sum "Si O2"
_cell_formula_units_Z 48
_cell_length_a 10.101597
_cell_length_b 30.898244
_cell_length_c 7.730179
_cell_angle_alpha 90.000000
_cell_angle_beta 90.000000
_cell_angle_gamma 90.000000
_cell_volume 2412.755907
_symmetry_space_group_name_H-M "P M N A"
_symmetry_group_IT_number 53
_symmetry_cell_setting 'orthorhombic'
loop_
_space_group_symop_operation_xyz
x,y,z
1/2-x,-y,1/2+z
x,-y,-z
1/2-x,y,1/2-z
-x,-y,-z
1/2+x,y,1/2-z
-x,y,z
1/2+x,-y,1/2+z
loop_
_atom_site_type_symbol
_atom_site_label
_atom_site_fract_x
_atom_site_fract_y
_atom_site_fract_z
Si Si1 0.260588 0.625577 0.053192
Si Si2 0.154994 0.137377 0.920619
Si Si3 0.142611 0.460648 0.376255
Si Si4 0.000000 0.749451 0.705153
Si Si5 0.647237 0.041567 0.603520
Si Si6 0.000000 0.323593 0.998397
Si Si7 0.500000 0.687253 0.097508
Si Si8 0.750000 0.809101 0.750000
O O1 0.250000 0.610791 0.250000
O O2 0.126801 0.645782 0.976016
O O3 0.372004 0.661549 0.035827
O O4 0.295886 0.582702 0.952348
O O5 0.250000 0.143359 0.750000
O O6 0.150551 0.087860 0.992907
O O7 0.000000 0.151431 0.881255
O O8 0.219834 0.163267 0.078528
O O9 0.114997 0.500000 0.500000
O O10 0.250000 0.480472 0.250000
O O11 0.000000 0.448929 0.290749
O O12 0.000000 0.731097 0.510475
O O13 0.126917 0.778845 0.716813
O O14 0.000000 0.713668 0.857744
O O15 0.750000 0.048403 0.750000
O O16 0.500000 0.031952 0.675410
O O17 0.697354 0.000000 0.500000
O O18 0.000000 0.303113 0.803946
#
# Coordination Sequence:
#
# PCOD8221579 Si02
#       8
#     8   8   8   4   8   4   4   4
#     4  10  21  40  64  93 126 168 203 257 322 376
#     4  10  23  43  67  94 131 178 226 270 335 404
#     4  11  25  42  62  92 128 167 209 253 302 370
#     4  12  26  42  66  96 128 168 224 276 330 398
#     4   9  19  36  58  91 127 165 213 269 323 387
#     4  10  24  40  65  97 127 165 215 266 327 392
#     4  10  22  42  65  91 129 165 213 272 325 382
#     4  12  26  44  64  98 132 176 218 280 338 402
#
# _framework density 19.894264
#
# number of rings (size 3 to 8) (size 9 to 14) (size 15 to 20)
#    0.000    1.667    1.667    1.500    5.833    2.000 
#    0.000    0.000    0.000    0.000    0.000    0.000 
#    0.000    0.000    0.000    0.000    0.000    0.000 
#
# Total GULP energy -594703.110263 kJ/mol
# GULP energy per Si atom -12389.648130 kJ/mol
# Density = 1.984898 g / cm^3
# Si number density = 19.894264 Si / 1000 Ang^3
#
#
#
# Elastic Constant Matrix: (Units=GPa)
#
#
# Indices 1 2 3 4 5 6 
#
# 1 167.9918 61.2446 49.4520 0.0000 0.0000 0.0000
# 2 61.2446 104.1295 50.0209 0.0000 0.0000 0.0000
# 3 49.4520 50.0209 86.1943 0.0000 0.0000 0.0000
# 4 0.0000 0.0000 0.0000 29.3305 0.0000 0.0000
# 5 0.0000 0.0000 0.0000 0.0000 24.2125 0.0000
# 6 0.0000 0.0000 0.0000 0.0000 0.0000 -40.1391
#
#
#
# Elastic Compliance Matrix: (Units=1/GPa)
#
#
# Indices 1 2 3 4 5 6 
#
# 1 0.007967 -0.003453 -0.002567 0.000000 0.000000 0.000000
# 2 -0.003453 0.014812 -0.006615 0.000000 0.000000 0.000000
# 3 -0.002567 -0.006615 0.016913 0.000000 0.000000 0.000000
# 4 0.000000 0.000000 0.000000 0.034094 0.000000 0.000000
# 5 0.000000 0.000000 0.000000 0.000000 0.041301 0.000000
# 6 0.000000 0.000000 0.000000 0.000000 0.000000 -0.024913
#
#
# Mechanical properties :
#
#
# Convention : Reuss Voigt Hill
#
# Bulk Modulus (GPa) = 69.33483 75.52785 72.43134
# Shear Modulus (GPa) = 41.57969 15.85397 28.71683
#
# Velocity S-wave (km/s) = 4.57665 2.82603 3.80343
# Velocity P-wave (km/s) = 7.92811 6.97822 7.46828
#
# Compressibility (1/GPa) = 0.01442277
#
# Stress axis : x y z
#
# Youngs Moduli (GPa) = 125.51548 67.51433 59.12500
#
# Poissons Ratio (x) = 0.23311 0.15179
# Poissons Ratio (y) = 0.43337 0.39110
# Poissons Ratio (z) = 0.32223 0.44659
#
# Static dielectric constant tensor:
#      x y z
#    x 4.036050 0.000000 0.000000 
#    y 0.000000 4.094050 0.000000 
#    z 0.000000 0.000000 1.801560 
# 
# 
# High freq. dielectric constant tensor:
#      x y z
#    x 1.806450 0.000000 0.000000 
#    y 0.000000 1.787090 0.000000 
#    z 0.000000 0.000000 1.761230 
# 
# From -- ./inp_files/6879.got.cif
#   From: 2010.03.12/outbox.cif.g09.slc.cpg/sg53_4_cif.got.tgz:6879.got - 2010.04.16 14:36:59.
