data_PCOD8221622
_publ_section_title
;
Structure prediction by ZEFSAII (Michael W. Deem and Ramdas Pophale) SiO2 
 PCOD8221622
Probable space group: P M N A
;
_chemical_formula_sum "Si O2"
_cell_formula_units_Z 64
_cell_length_a 17.663723
_cell_length_b 14.617373
_cell_length_c 12.155697
_cell_angle_alpha 90.000000
_cell_angle_beta 90.000000
_cell_angle_gamma 90.000000
_cell_volume 3138.567266
_symmetry_space_group_name_H-M "P M N A"
_symmetry_group_IT_number 53
_symmetry_cell_setting 'orthorhombic'
loop_
_space_group_symop_operation_xyz
x,y,z
1/2-x,-y,1/2+z
x,-y,-z
1/2-x,y,1/2-z
-x,-y,-z
1/2+x,y,1/2-z
-x,y,z
1/2+x,-y,1/2+z
loop_
_atom_site_type_symbol
_atom_site_label
_atom_site_fract_x
_atom_site_fract_y
_atom_site_fract_z
Si Si1 0.833163 0.501684 0.295370
Si Si2 0.163540 0.151775 0.780899
Si Si3 0.914233 0.331100 0.379594
Si Si4 0.684453 0.725548 0.475869
Si Si5 0.834961 0.202643 0.208903
Si Si6 0.849181 0.300329 0.598932
Si Si7 0.581788 0.565957 0.400584
Si Si8 0.089249 0.981409 0.873417
O O1 0.750000 0.479185 0.250000
O O2 0.859076 0.419541 0.374859
O O3 0.836261 0.599867 0.351705
O O4 0.894283 0.500926 0.198804
O O5 0.250000 0.128047 0.750000
O O6 0.154831 0.189767 0.904416
O O7 0.131563 0.226553 0.693998
O O8 0.113201 0.060829 0.787007
O O9 0.885084 0.249293 0.302760
O O10 0.914807 0.298930 0.507291
O O11 0.000000 0.355818 0.346440
O O12 0.661936 0.731405 0.602924
O O13 0.774147 0.725603 0.466774
O O14 0.648983 0.635746 0.422564
O O15 0.750000 0.186569 0.250000
O O16 0.869706 0.107062 0.173285
O O17 0.569516 0.500000 0.500000
O O18 0.500000 0.614106 0.375614
O O19 0.000000 0.967042 0.867040
O O20 0.114482 0.000000 0.000000
#
# Coordination Sequence:
#
# PCOD8221622 Si02
#       8
#     8   8   8   8   8   8   8   8
#     4  12  23  41  67  94 132 179 227 274 319 395
#     4  10  21  43  68  98 129 164 221 274 323 393
#     4  12  28  44  62  97 139 179 222 270 331 398
#     4  11  21  41  67  96 128 166 224 275 323 386
#     4  12  24  45  72  96 131 176 220 273 330 397
#     4  11  23  43  68  97 129 180 224 270 322 392
#     4  11  24  38  58  93 132 169 215 276 337 383
#     4  11  24  42  68 102 134 168 213 275 343 397
#
# _framework density 20.391469000000001
#
# number of rings (size 3 to 8) (size 9 to 14) (size 15 to 20)
#    0.000    0.750    5.000    3.000    1.750    4.500 
#    0.000    0.625    0.000    1.500    0.000    0.000 
#    0.000    0.000    0.000    0.000    0.000    0.000 
#
# Total GULP energy -793552.175997 kJ/mol
# GULP energy per Si atom -12399.252750 kJ/mol
# Density = 2.034506 g / cm^3
# Si number density = 20.391469 Si / 1000 Ang^3
#
#
#
# Elastic Constant Matrix: (Units=GPa)
#
#
# Indices 1 2 3 4 5 6 
#
# 1 88.7368 34.8401 39.4219 0.0000 0.0000 0.0000
# 2 34.8401 106.9840 37.0606 0.0000 0.0000 0.0000
# 3 39.4219 37.0606 115.2996 0.0000 0.0000 0.0000
# 4 0.0000 0.0000 0.0000 40.0362 0.0000 0.0000
# 5 0.0000 0.0000 0.0000 0.0000 22.2360 0.0000
# 6 0.0000 0.0000 0.0000 0.0000 0.0000 23.0286
#
#
#
# Elastic Compliance Matrix: (Units=1/GPa)
#
#
# Indices 1 2 3 4 5 6 
#
# 1 0.014268 -0.003327 -0.003809 0.000000 0.000000 0.000000
# 2 -0.003327 0.011294 -0.002493 0.000000 0.000000 0.000000
# 3 -0.003809 -0.002493 0.010777 0.000000 0.000000 0.000000
# 4 0.000000 0.000000 0.000000 0.024977 0.000000 0.000000
# 5 0.000000 0.000000 0.000000 0.000000 0.044972 0.000000
# 6 0.000000 0.000000 0.000000 0.000000 0.000000 0.043424
#
#
# Mechanical properties :
#
#
# Convention : Reuss Voigt Hill
#
# Bulk Modulus (GPa) = 58.54361 59.29618 58.91989
# Shear Modulus (GPa) = 28.62654 30.37333 29.49994
#
# Velocity S-wave (km/s) = 3.75086 3.86361 3.80765
# Velocity P-wave (km/s) = 6.89426 7.00324 6.94896
#
# Compressibility (1/GPa) = 0.01708128
#
# Stress axis : x y z
#
# Youngs Moduli (GPa) = 70.08878 88.54138 92.79388
#
# Poissons Ratio (x) = 0.29457 0.35344
# Poissons Ratio (y) = 0.23318 0.23131
# Poissons Ratio (z) = 0.26696 0.22071
#
# Static dielectric constant tensor:
#      x y z
#    x 2.596360 0.000000 0.000000 
#    y 0.000000 3.523650 0.000000 
#    z 0.000000 0.000000 3.889200 
# 
# 
# High freq. dielectric constant tensor:
#      x y z
#    x 1.798580 0.000000 0.000000 
#    y 0.000000 1.793300 0.000000 
#    z 0.000000 0.000000 1.809580 
# 
# From -- ./inp_files/17071.got.cif
#   From: 2010.03.12/outbox.cif.g09.slc.cpg/sg53_9_cif.got.tgz:17071.got - 2010.04.16 14:36:59.
