data_PCOD8221497
_publ_section_title
;
Structure prediction by ZEFSAII (Michael W. Deem and Ramdas Pophale) SiO2 
 PCOD8221497
Probable space group: P M N A
;
_chemical_formula_sum "Si O2"
_cell_formula_units_Z 48
_cell_length_a 8.560599
_cell_length_b 14.357922
_cell_length_c 20.295148
_cell_angle_alpha 90.000000
_cell_angle_beta 90.000000
_cell_angle_gamma 90.000000
_cell_volume 2494.525607
_symmetry_space_group_name_H-M "P M N A"
_symmetry_group_IT_number 53
_symmetry_cell_setting 'orthorhombic'
loop_
_space_group_symop_operation_xyz
x,y,z
1/2-x,-y,1/2+z
x,-y,-z
1/2-x,y,1/2-z
-x,-y,-z
1/2+x,y,1/2-z
-x,y,z
1/2+x,-y,1/2+z
loop_
_atom_site_type_symbol
_atom_site_label
_atom_site_fract_x
_atom_site_fract_y
_atom_site_fract_z
Si Si1 0.183732 0.940594 0.179779
Si Si2 0.683102 0.556838 0.179058
Si Si3 0.817252 0.060113 0.436916
Si Si4 0.681575 0.444195 0.436639
Si Si5 0.816928 0.755563 0.372471
Si Si6 0.180347 0.241694 0.014330
O O1 0.250000 0.971062 0.250000
O O2 0.220396 0.832517 0.167063
O O3 0.000000 0.958048 0.175912
O O4 0.271954 0.004080 0.127554
O O5 0.750000 0.531618 0.250000
O O6 0.500000 0.561062 0.184810
O O7 0.729806 0.476160 0.128574
O O8 0.746135 0.656346 0.153333
O O9 0.722627 0.156676 0.437734
O O10 0.000000 0.081952 0.437006
O O11 0.767190 0.000000 0.500000
O O12 0.746689 0.500000 0.500000
O O13 0.500000 0.466613 0.427212
O O14 0.715794 0.335422 0.445646
O O15 0.787856 0.763888 0.450086
O O16 0.000000 0.770433 0.358908
O O17 0.000000 0.237326 0.992410
#
# Coordination Sequence:
#
# PCOD8221497 Si02
#       6
#     8   8   8   8   8   8
#     4  12  25  41  63  90 124 162 203 248 304 364
#     4  11  24  39  60  88 123 163 203 249 302 361
#     4  11  23  40  63  90 124 160 201 250 300 356
#     4  10  21  39  62  89 122 159 200 248 299 356
#     4  11  22  37  59  91 126 160 199 248 303 359
#     4  11  22  37  62  93 122 158 203 250 300 355
#
# _framework density 19.242135000000001
#
# number of rings (size 3 to 8) (size 9 to 14) (size 15 to 20)
#    0.000    1.000    3.333    4.000    0.000    5.667 
#    0.000    0.833    0.000    4.000    0.000    0.000 
#    0.000    0.000    0.000    0.000    0.000    0.000 
#
# Total GULP energy -595572.558602 kJ/mol
# GULP energy per Si atom -12407.761638 kJ/mol
# Density = 1.919834 g / cm^3
# Si number density = 19.242135 Si / 1000 Ang^3
#
#
#
# Elastic Constant Matrix: (Units=GPa)
#
#
# Indices 1 2 3 4 5 6 
#
# 1 48.0895 31.5129 19.7771 0.0000 0.0000 0.0000
# 2 31.5129 122.8390 51.8703 0.0000 0.0000 0.0000
# 3 19.7771 51.8703 135.0329 0.0000 0.0000 0.0000
# 4 0.0000 0.0000 0.0000 22.1810 0.0000 0.0000
# 5 0.0000 0.0000 0.0000 0.0000 29.6822 0.0000
# 6 0.0000 0.0000 0.0000 0.0000 0.0000 31.3418
#
#
#
# Elastic Compliance Matrix: (Units=1/GPa)
#
#
# Indices 1 2 3 4 5 6 
#
# 1 0.025230 -0.005863 -0.001443 0.000000 0.000000 0.000000
# 2 -0.005863 0.011079 -0.003397 0.000000 0.000000 0.000000
# 3 -0.001443 -0.003397 0.008922 0.000000 0.000000 0.000000
# 4 0.000000 0.000000 0.000000 0.045084 0.000000 0.000000
# 5 0.000000 0.000000 0.000000 0.000000 0.033690 0.000000
# 6 0.000000 0.000000 0.000000 0.000000 0.000000 0.031906
#
#
# Mechanical properties :
#
#
# Convention : Reuss Voigt Hill
#
# Bulk Modulus (GPa) = 41.97333 56.92023 49.44678
# Shear Modulus (GPa) = 26.98914 30.16109 28.57512
#
# Velocity S-wave (km/s) = 3.74920 3.96340 3.85779
# Velocity P-wave (km/s) = 6.37202 7.11266 6.75250
#
# Compressibility (1/GPa) = 0.02382465
#
# Stress axis : x y z
#
# Youngs Moduli (GPa) = 39.63520 90.25787 112.08349
#
# Poissons Ratio (x) = 0.52919 0.16174
# Poissons Ratio (y) = 0.23239 0.38077
# Poissons Ratio (z) = 0.05719 0.30662
#
# Static dielectric constant tensor:
#      x y z
#    x 3.526270 0.000000 0.000000 
#    y 0.000000 3.627050 0.000000 
#    z 0.000000 0.000000 3.531690 
# 
# 
# High freq. dielectric constant tensor:
#      x y z
#    x 1.757470 0.000000 0.000000 
#    y 0.000000 1.751840 0.000000 
#    z 0.000000 0.000000 1.746880 
# 
# From -- ./inp_files/26201.got.cif
#   From: 2010.03.12/outbox.cif.g09.slc.cpg/sg53_14_cif.got.tgz:26201.got - 2010.04.16 14:36:59.
