data_PCOD8221866
_publ_section_title
;
Structure prediction by ZEFSAII (Michael W. Deem and Ramdas Pophale) SiO2 
 PCOD8221866
Probable space group: P M N A
;
_chemical_formula_sum "Si O2"
_cell_formula_units_Z 48
_cell_length_a 8.567518
_cell_length_b 18.769944
_cell_length_c 14.901569
_cell_angle_alpha 90.000000
_cell_angle_beta 90.000000
_cell_angle_gamma 90.000000
_cell_volume 2396.348627
_symmetry_space_group_name_H-M "P M N A"
_symmetry_group_IT_number 53
_symmetry_cell_setting 'orthorhombic'
loop_
_space_group_symop_operation_xyz
x,y,z
1/2-x,-y,1/2+z
x,-y,-z
1/2-x,y,1/2-z
-x,-y,-z
1/2+x,y,1/2-z
-x,y,z
1/2+x,-y,1/2+z
loop_
_atom_site_type_symbol
_atom_site_label
_atom_site_fract_x
_atom_site_fract_y
_atom_site_fract_z
Si Si1 0.183195 0.641697 0.340346
Si Si2 0.314092 0.994507 0.852275
Si Si3 0.317098 0.497227 0.399278
Si Si4 0.680126 0.649642 0.839805
Si Si5 0.680835 0.746587 0.006892
Si Si6 0.316809 0.899333 0.494854
O O1 0.250000 0.676562 0.250000
O O2 0.237151 0.560277 0.344828
O O3 0.245696 0.689466 0.421837
O O4 0.000000 0.643297 0.339164
O O5 0.250000 0.991725 0.750000
O O6 0.500000 0.995087 0.847177
O O7 0.255157 0.064156 0.905873
O O8 0.258681 0.926974 0.911793
O O9 0.251519 0.500000 0.500000
O O10 0.500000 0.510198 0.395768
O O11 0.276512 0.421611 0.357840
O O12 0.750000 0.683820 0.750000
O O13 0.500000 0.628332 0.831708
O O14 0.706845 0.711025 0.911329
O O15 0.500000 0.766443 0.023621
O O16 0.786506 0.815939 0.013564
O O17 0.500000 0.915512 0.497403
#
# Coordination Sequence:
#
# PCOD8221866 Si02
#       6
#     8   8   8   8   8   8
#     4  11  23  40  61  85 116 155 201 250 303 360
#     4  11  22  41  68  96 128 163 204 249 294 352
#     4  11  22  37  60  86 114 150 198 253 305 361
#     4  11  23  40  61  85 116 155 201 250 303 360
#     4  10  23  42  61  84 121 164 201 246 301 358
#     4  11  23  40  64  95 129 164 202 247 299 358
#
# _framework density 20.030476
#
# number of rings (size 3 to 8) (size 9 to 14) (size 15 to 20)
#    0.000    1.167    1.667    6.000    0.000    4.667 
#    0.000    3.333    0.000    0.000    0.000    0.000 
#    0.000    0.000    0.000    0.000    0.000    0.000 
#
# Total GULP energy -595314.699872 kJ/mol
# GULP energy per Si atom -12402.389581 kJ/mol
# Density = 1.998489 g / cm^3
# Si number density = 20.030476 Si / 1000 Ang^3
#
#
#
# Elastic Constant Matrix: (Units=GPa)
#
#
# Indices 1 2 3 4 5 6 
#
# 1 108.8002 34.1729 49.0241 0.0000 0.0000 0.0000
# 2 34.1729 90.6282 15.4649 0.0000 0.0000 0.0000
# 3 49.0241 15.4649 133.7191 0.0000 0.0000 0.0000
# 4 0.0000 0.0000 0.0000 -3.7128 0.0000 0.0000
# 5 0.0000 0.0000 0.0000 0.0000 35.9636 0.0000
# 6 0.0000 0.0000 0.0000 0.0000 0.0000 24.0618
#
#
#
# Elastic Compliance Matrix: (Units=1/GPa)
#
#
# Indices 1 2 3 4 5 6 
#
# 1 0.012243 -0.003928 -0.004034 0.000000 0.000000 0.000000
# 2 -0.003928 0.012516 -0.000008 0.000000 0.000000 0.000000
# 3 -0.004034 -0.000008 0.008958 0.000000 0.000000 0.000000
# 4 0.000000 0.000000 0.000000 -0.269342 0.000000 0.000000
# 5 0.000000 0.000000 0.000000 0.000000 0.027806 0.000000
# 6 0.000000 0.000000 0.000000 0.000000 0.000000 0.041560
#
#
# Mechanical properties :
#
#
# Convention : Reuss Voigt Hill
#
# Bulk Modulus (GPa) = 56.24855 58.94127 57.59491
# Shear Modulus (GPa) = -34.62750 26.89490 -3.86630
#
# Velocity S-wave (km/s) = -4.16232 3.66826 -1.39083
# Velocity P-wave (km/s) = 2.24556 6.88703 5.12219
#
# Compressibility (1/GPa) = 0.01777823
#
# Stress axis : x y z
#
# Youngs Moduli (GPa) = 81.68207 79.89480 111.62934
#
# Poissons Ratio (x) = 0.31382 0.45033
# Poissons Ratio (y) = 0.32084 0.00084
# Poissons Ratio (z) = 0.32951 0.00060
#
# Static dielectric constant tensor:
#      x y z
#    x 3.741430 0.000000 0.000000 
#    y 0.000000 3.524650 0.000000 
#    z 0.000000 0.000000 4.020680 
# 
# 
# High freq. dielectric constant tensor:
#      x y z
#    x 1.792390 0.000000 0.000000 
#    y 0.000000 1.775980 0.000000 
#    z 0.000000 0.000000 1.798710 
# 
# From -- ./inp_files/20231.got.cif
#   From: 2010.03.12/outbox.cif.g09.slc.cpg/sg53_11_cif.got.tgz:20231.got - 2010.04.16 14:36:59.
