data_PCOD8221604
_publ_section_title
;
Structure prediction by ZEFSAII (Michael W. Deem and Ramdas Pophale) SiO2 
 PCOD8221604
Probable space group: P M N A
;
_chemical_formula_sum "Si O2"
_cell_formula_units_Z 48
_cell_length_a 8.623200
_cell_length_b 9.696226
_cell_length_c 29.069372
_cell_angle_alpha 90.000000
_cell_angle_beta 90.000000
_cell_angle_gamma 90.000000
_cell_volume 2430.562751
_symmetry_space_group_name_H-M "P M N A"
_symmetry_group_IT_number 53
_symmetry_cell_setting 'orthorhombic'
loop_
_space_group_symop_operation_xyz
x,y,z
1/2-x,-y,1/2+z
x,-y,-z
1/2-x,y,1/2-z
-x,-y,-z
1/2+x,y,1/2-z
-x,y,z
1/2+x,-y,1/2+z
loop_
_atom_site_type_symbol
_atom_site_label
_atom_site_fract_x
_atom_site_fract_y
_atom_site_fract_z
Si Si1 0.820112 0.007453 0.125202
Si Si2 0.817969 0.520385 0.298645
Si Si3 0.825208 0.650670 0.020551
Si Si4 0.816499 0.205099 0.298999
Si Si5 0.182982 0.708840 0.382189
Si Si6 0.674550 0.118962 0.036907
O O1 0.722164 0.867628 0.126776
O O2 0.000000 0.971232 0.130299
O O3 0.766854 0.107060 0.165326
O O4 0.792534 0.087465 0.077716
O O5 0.750000 0.570237 0.250000
O O6 0.769734 0.363160 0.309903
O O7 0.755141 0.618272 0.339295
O O8 0.000000 0.534298 0.294299
O O9 0.763979 0.650934 0.072416
O O10 0.000000 0.709945 0.020693
O O11 0.820184 0.500000 0.000000
O O12 0.717345 0.739528 0.987518
O O13 0.750000 0.161067 0.250000
O O14 0.000000 0.183201 0.300644
O O15 0.000000 0.693184 0.388584
O O16 0.500000 0.130590 0.056689
O O17 0.687263 0.000000 0.000000
#
# Coordination Sequence:
#
# PCOD8221604 Si02
#       6
#     8   8   8   8   8   8
#     4  12  25  40  62  92 124 163 204 254 309 363
#     4   9  21  40  64  91 120 156 199 247 302 359
#     4  11  25  42  61  92 126 160 203 252 304 364
#     4  10  21  41  65  93 124 159 202 252 304 367
#     4  11  23  41  62  90 123 162 207 252 302 365
#     4  11  23  41  65  90 120 163 206 250 303 362
#
# _framework density 19.748511000000001
#
# number of rings (size 3 to 8) (size 9 to 14) (size 15 to 20)
#    0.000    1.333    1.667    3.500    2.333    4.667 
#    0.000    1.667    0.000    0.000    0.000    0.000 
#    0.000    0.000    0.000    0.000    0.000    0.000 
#
# Total GULP energy -595437.734177 kJ/mol
# GULP energy per Si atom -12404.952795 kJ/mol
# Density = 1.970356 g / cm^3
# Si number density = 19.748511 Si / 1000 Ang^3
#
#
#
# Elastic Constant Matrix: (Units=GPa)
#
#
# Indices 1 2 3 4 5 6 
#
# 1 65.1220 24.3019 34.2264 0.0000 0.0000 0.0000
# 2 24.3019 89.7665 67.3220 0.0000 0.0000 0.0000
# 3 34.2264 67.3220 135.9168 0.0000 0.0000 0.0000
# 4 0.0000 0.0000 0.0000 35.7417 0.0000 0.0000
# 5 0.0000 0.0000 0.0000 0.0000 38.7773 0.0000
# 6 0.0000 0.0000 0.0000 0.0000 0.0000 104.0529
#
#
#
# Elastic Compliance Matrix: (Units=1/GPa)
#
#
# Indices 1 2 3 4 5 6 
#
# 1 0.018003 -0.002345 -0.003372 0.000000 0.000000 0.000000
# 2 -0.002345 0.018029 -0.008340 0.000000 0.000000 0.000000
# 3 -0.003372 -0.008340 0.012337 0.000000 0.000000 0.000000
# 4 0.000000 0.000000 0.000000 0.027979 0.000000 0.000000
# 5 0.000000 0.000000 0.000000 0.000000 0.025788 0.000000
# 6 0.000000 0.000000 0.000000 0.000000 0.000000 0.009610
#
#
# Mechanical properties :
#
#
# Convention : Reuss Voigt Hill
#
# Bulk Modulus (GPa) = 49.36705 60.27844 54.82274
# Shear Modulus (GPa) = 34.10341 46.71139 40.40740
#
# Velocity S-wave (km/s) = 4.16009 4.86872 4.52829
# Velocity P-wave (km/s) = 6.93738 7.88640 7.42706
#
# Compressibility (1/GPa) = 0.02025643
#
# Stress axis : x y z
#
# Youngs Moduli (GPa) = 55.54597 55.46489 81.05419
#
# Poissons Ratio (x) = 0.13006 0.27332
# Poissons Ratio (y) = 0.13025 0.67597
# Poissons Ratio (z) = 0.18730 0.46257
#
# Static dielectric constant tensor:
#      x y z
#    x 3.776720 0.000000 0.000000 
#    y 0.000000 3.669250 0.000000 
#    z 0.000000 0.000000 3.440180 
# 
# 
# High freq. dielectric constant tensor:
#      x y z
#    x 1.780450 0.000000 0.000000 
#    y 0.000000 1.775420 0.000000 
#    z 0.000000 0.000000 1.781710 
# 
# From -- ./inp_files/37708.got.cif
#   From: 2010.03.12/outbox.cif.g09.slc.cpg/sg53_19_cif.got.tgz:37708.got - 2010.04.16 14:36:59.
