data_PCOD8221136
_publ_section_title
;
Structure prediction by ZEFSAII (Michael W. Deem and Ramdas Pophale) SiO2 
 PCOD8221136
Probable space group: P M N A
;
_chemical_formula_sum "Si O2"
_cell_formula_units_Z 48
_cell_length_a 8.677713
_cell_length_b 18.548980
_cell_length_c 15.289680
_cell_angle_alpha 90.000000
_cell_angle_beta 90.000000
_cell_angle_gamma 90.000000
_cell_volume 2461.068555
_symmetry_space_group_name_H-M "P M N A"
_symmetry_group_IT_number 53
_symmetry_cell_setting 'orthorhombic'
loop_
_space_group_symop_operation_xyz
x,y,z
1/2-x,-y,1/2+z
x,-y,-z
1/2-x,y,1/2-z
-x,-y,-z
1/2+x,y,1/2-z
-x,y,z
1/2+x,-y,1/2+z
loop_
_atom_site_type_symbol
_atom_site_label
_atom_site_fract_x
_atom_site_fract_y
_atom_site_fract_z
Si Si1 0.319329 0.169843 0.496694
Si Si2 0.317927 0.937173 0.657685
Si Si3 0.681948 0.431853 0.159749
Si Si4 0.182632 0.322874 0.489254
Si Si5 0.181846 0.405736 0.659904
Si Si6 0.682120 0.091710 0.842577
O O1 0.500000 0.163607 0.515343
O O2 0.269178 0.118788 0.416839
O O3 0.273296 0.250021 0.469433
O O4 0.227294 0.149100 0.583886
O O5 0.250000 0.910193 0.750000
O O6 0.500000 0.944631 0.666786
O O7 0.249685 0.014271 0.630761
O O8 0.750000 0.401441 0.250000
O O9 0.500000 0.431479 0.166152
O O10 0.742974 0.513052 0.141930
O O11 0.738158 0.380688 0.082078
O O12 0.236103 0.353240 0.582903
O O13 0.000000 0.309442 0.485287
O O14 0.250000 0.374905 0.750000
O O15 0.000000 0.406648 0.666659
O O16 0.750000 0.117918 0.750000
O O17 0.500000 0.086201 0.834281
#
# Coordination Sequence:
#
# PCOD8221136 Si02
#       6
#     8   8   8   8   8   8
#     4  11  24  39  55  80 115 150 184 225 273 325
#     4  10  21  38  60  84 111 144 183 228 274 322
#     4   9  18  34  56  80 106 138 179 225 272 324
#     4  10  21  36  54  77 108 146 183 220 269 328
#     4   9  18  34  56  80 105 137 178 224 272 322
#     4  11  22  38  62  87 111 142 182 227 273 324
#
# _framework density 19.503723999999998
#
# number of rings (size 3 to 8) (size 9 to 14) (size 15 to 20)
#    0.000    2.000    0.000    4.500    0.000    9.333 
#    0.000    5.000    0.000    5.000    0.000    0.000 
#    0.000    0.000    0.000    0.000    0.000    0.000 
#
# Total GULP energy -595383.272899 kJ/mol
# GULP energy per Si atom -12403.818185 kJ/mol
# Density = 1.945933 g / cm^3
# Si number density = 19.503724 Si / 1000 Ang^3
#
#
#
# Elastic Constant Matrix: (Units=GPa)
#
#
# Indices 1 2 3 4 5 6 
#
# 1 59.6780 16.2413 25.4288 0.0000 0.0000 0.0000
# 2 16.2413 59.3772 26.1211 0.0000 0.0000 0.0000
# 3 25.4288 26.1211 95.1238 0.0000 0.0000 0.0000
# 4 0.0000 0.0000 0.0000 9.6985 0.0000 0.0000
# 5 0.0000 0.0000 0.0000 0.0000 30.6869 0.0000
# 6 0.0000 0.0000 0.0000 0.0000 0.0000 29.0980
#
#
#
# Elastic Compliance Matrix: (Units=1/GPa)
#
#
# Indices 1 2 3 4 5 6 
#
# 1 0.019517 -0.003461 -0.004267 0.000000 0.000000 0.000000
# 2 -0.003461 0.019769 -0.004503 0.000000 0.000000 0.000000
# 3 -0.004267 -0.004503 0.012890 0.000000 0.000000 0.000000
# 4 0.000000 0.000000 0.000000 0.103109 0.000000 0.000000
# 5 0.000000 0.000000 0.000000 0.000000 0.032587 0.000000
# 6 0.000000 0.000000 0.000000 0.000000 0.000000 0.034367
#
#
# Mechanical properties :
#
#
# Convention : Reuss Voigt Hill
#
# Bulk Modulus (GPa) = 36.08425 38.86236 37.47331
# Shear Modulus (GPa) = 19.53590 23.65587 21.59589
#
# Velocity S-wave (km/s) = 3.16832 3.48644 3.33118
# Velocity P-wave (km/s) = 5.65028 6.01464 5.83530
#
# Compressibility (1/GPa) = 0.02771292
#
# Stress axis : x y z
#
# Youngs Moduli (GPa) = 51.23834 50.58330 77.58035
#
# Poissons Ratio (x) = 0.17508 0.33102
# Poissons Ratio (y) = 0.17735 0.34938
# Poissons Ratio (z) = 0.21862 0.22780
#
# Static dielectric constant tensor:
#      x y z
#    x 3.489950 0.000000 0.000000 
#    y 0.000000 3.557180 0.000000 
#    z 0.000000 0.000000 3.713270 
# 
# 
# High freq. dielectric constant tensor:
#      x y z
#    x 1.757270 0.000000 0.000000 
#    y 0.000000 1.754910 0.000000 
#    z 0.000000 0.000000 1.772280 
# 
# From -- ./inp_files/20188.got.cif
#   From: 2010.03.12/outbox.cif.g09.slc.cpg/sg53_11_cif.got.tgz:20188.got - 2010.04.16 14:36:59.
