data_PCOD8221077
_publ_section_title
;
Structure prediction by ZEFSAII (Michael W. Deem and Ramdas Pophale) SiO2 
 PCOD8221077
Probable space group: P M N A
;
_chemical_formula_sum "Si O2"
_cell_formula_units_Z 48
_cell_length_a 8.947357
_cell_length_b 11.677469
_cell_length_c 23.753931
_cell_angle_alpha 90.000000
_cell_angle_beta 90.000000
_cell_angle_gamma 90.000000
_cell_volume 2481.869716
_symmetry_space_group_name_H-M "P M N A"
_symmetry_group_IT_number 53
_symmetry_cell_setting 'orthorhombic'
loop_
_space_group_symop_operation_xyz
x,y,z
1/2-x,-y,1/2+z
x,-y,-z
1/2-x,y,1/2-z
-x,-y,-z
1/2+x,y,1/2-z
-x,y,z
1/2+x,-y,1/2+z
loop_
_atom_site_type_symbol
_atom_site_label
_atom_site_fract_x
_atom_site_fract_y
_atom_site_fract_z
Si Si1 0.823930 0.871310 0.311052
Si Si2 0.171255 0.453432 0.400357
Si Si3 0.677400 0.713141 0.089865
Si Si4 0.823015 0.884902 0.639114
Si Si5 0.170844 0.764734 0.529152
Si Si6 0.824768 0.678358 0.805497
O O1 0.750000 0.861324 0.250000
O O2 0.763560 0.770546 0.352280
O O3 0.000000 0.863878 0.301393
O O4 0.779699 0.987060 0.343855
O O5 0.224340 0.581006 0.414726
O O6 0.185542 0.369089 0.453656
O O7 0.285955 0.410447 0.353921
O O8 0.000000 0.451905 0.377951
O O9 0.500000 0.725597 0.088600
O O10 0.743466 0.776099 0.033458
O O11 0.759993 0.850445 0.576513
O O12 0.744573 0.803386 0.684041
O O13 0.000000 0.862449 0.641689
O O14 0.000000 0.801051 0.523901
O O15 0.750000 0.626721 0.750000
O O16 0.000000 0.690430 0.798064
#
# Coordination Sequence:
#
# PCOD8221077 Si02
#       6
#     8   8   8   8   8   8
#     4  10  21  35  51  73 102 137 174 209 247 295
#     4   9  17  31  51  76 105 135 167 204 251 305
#     4   9  17  30  51  78 105 134 168 206 248 298
#     4   9  18  33  53  77 102 129 165 209 257 305
#     4   8  14  27  51  80 104 127 161 208 257 300
#     4  11  21  33  51  74 100 131 170 216 261 302
#
# _framework density 19.340257000000001
#
# number of rings (size 3 to 8) (size 9 to 14) (size 15 to 20)
#    0.000    2.667    0.000    3.500    0.000    5.333 
#    0.000    5.833    0.000   12.000    0.000    5.833 
#    0.000    0.000    0.000    0.000    0.000    0.000 
#
# Total GULP energy -594802.333345 kJ/mol
# GULP energy per Si atom -12391.715278 kJ/mol
# Density = 1.929624 g / cm^3
# Si number density = 19.340257 Si / 1000 Ang^3
#
#
#
# Elastic Constant Matrix: (Units=GPa)
#
#
# Indices 1 2 3 4 5 6 
#
# 1 42.3788 11.5032 27.9555 0.0000 0.0000 0.0000
# 2 11.5032 78.3880 56.8743 0.0000 0.0000 0.0000
# 3 27.9555 56.8743 141.2218 0.0000 0.0000 0.0000
# 4 0.0000 0.0000 0.0000 11.3034 0.0000 0.0000
# 5 0.0000 0.0000 0.0000 0.0000 22.1120 0.0000
# 6 0.0000 0.0000 0.0000 0.0000 0.0000 -7.2887
#
#
#
# Elastic Compliance Matrix: (Units=1/GPa)
#
#
# Indices 1 2 3 4 5 6 
#
# 1 0.027142 -0.000120 -0.005325 0.000000 0.000000 0.000000
# 2 -0.000120 0.018024 -0.007235 0.000000 0.000000 0.000000
# 3 -0.005325 -0.007235 0.011049 0.000000 0.000000 0.000000
# 4 0.000000 0.000000 0.000000 0.088469 0.000000 0.000000
# 5 0.000000 0.000000 0.000000 0.000000 0.045224 0.000000
# 6 0.000000 0.000000 0.000000 0.000000 0.000000 -0.137199
#
#
# Mechanical properties :
#
#
# Convention : Reuss Voigt Hill
#
# Bulk Modulus (GPa) = 32.40892 50.51718 41.46305
# Shear Modulus (GPa) = 56.59125 16.26905 36.43015
#
# Velocity S-wave (km/s) = 5.41520 2.90349 4.34480
# Velocity P-wave (km/s) = 7.47615 6.11697 6.83045
#
# Compressibility (1/GPa) = 0.03085570
#
# Stress axis : x y z
#
# Youngs Moduli (GPa) = 36.84379 55.48140 90.50679
#
# Poissons Ratio (x) = 0.00664 0.48191
# Poissons Ratio (y) = 0.00441 0.65483
# Poissons Ratio (z) = 0.19618 0.40142
#
# Static dielectric constant tensor:
#      x y z
#    x 3.066520 0.000000 0.000000 
#    y 0.000000 3.576910 0.000000 
#    z 0.000000 0.000000 3.950150 
# 
# 
# High freq. dielectric constant tensor:
#      x y z
#    x 1.699830 0.000000 0.000000 
#    y 0.000000 1.747220 0.000000 
#    z 0.000000 0.000000 1.768370 
# 
# From -- ./inp_files/33925.got.cif
#   From: 2010.03.12/outbox.cif.g09.slc.cpg/sg53_17_cif.got.tgz:33925.got - 2010.04.16 14:36:59.
