data_PCOD8221615
_publ_section_title
;
Structure prediction by ZEFSAII (Michael W. Deem and Ramdas Pophale) SiO2 
 PCOD8221615
Probable space group: P M N A
;
_chemical_formula_sum "Si O2"
_cell_formula_units_Z 48
_cell_length_a 29.689093
_cell_length_b 9.702273
_cell_length_c 8.253200
_cell_angle_alpha 90.000000
_cell_angle_beta 90.000000
_cell_angle_gamma 90.000000
_cell_volume 2377.348170
_symmetry_space_group_name_H-M "P M N A"
_symmetry_group_IT_number 53
_symmetry_cell_setting 'orthorhombic'
loop_
_space_group_symop_operation_xyz
x,y,z
1/2-x,-y,1/2+z
x,-y,-z
1/2-x,y,1/2-z
-x,-y,-z
1/2+x,y,1/2-z
-x,y,z
1/2+x,-y,1/2+z
loop_
_atom_site_type_symbol
_atom_site_label
_atom_site_fract_x
_atom_site_fract_y
_atom_site_fract_z
Si Si1 0.567058 0.500000 0.000000
Si Si2 0.800259 0.032532 0.684097
Si Si3 0.577941 0.000000 0.500000
Si Si4 0.199872 0.309774 0.807200
Si Si5 0.500000 0.249072 0.009317
Si Si6 0.152871 0.809330 0.899006
Si Si7 0.500000 0.006492 0.754320
Si Si8 0.875406 0.525936 0.814968
O O1 0.541522 0.645143 0.983745
O O2 0.592919 0.521715 0.169483
O O3 0.750000 0.027519 0.750000
O O4 0.831177 0.932222 0.786413
O O5 0.802192 0.000000 0.500000
O O6 0.819180 0.187895 0.694114
O O7 0.609901 0.864597 0.499692
O O8 0.546209 0.990563 0.344399
O O9 0.250000 0.348905 0.750000
O O10 0.171380 0.446777 0.792310
O O11 0.194196 0.246362 0.989370
O O12 0.500000 0.148680 0.854577
O O13 0.500000 0.141259 0.156831
O O14 0.135185 0.685868 0.787528
O O15 0.894562 0.500000 0.000000
#
# Coordination Sequence:
#
# PCOD8221615 Si02
#       8
#     4   8   4   8   4   8   4   8
#     4  11  24  46  68  98 140 174 216 276 332 405
#     4  11  22  37  61  91 127 177 223 273 330 380
#     4  11  22  42  72  98 130 166 216 276 336 405
#     4  10  21  42  62  89 133 174 221 279 322 382
#     4  10  24  46  68 100 136 164 212 274 328 419
#     4  11  22  42  64  96 131 170 226 276 320 402
#     4  10  24  44  72  98 130 166 210 270 345 400
#     4  10  25  42  65  96 132 178 228 268 328 396
#
# _framework density 20.190563000000001
#
# number of rings (size 3 to 8) (size 9 to 14) (size 15 to 20)
#    0.000    1.500    1.667    3.000    7.000    0.667 
#    7.500    0.833    0.000    0.000    0.000    0.000 
#    0.000    0.000    0.000    0.000    0.000    0.000 
#
# Total GULP energy -594672.069754 kJ/mol
# GULP energy per Si atom -12389.001453 kJ/mol
# Density = 2.014461 g / cm^3
# Si number density = 20.190563 Si / 1000 Ang^3
#
#
#
# Elastic Constant Matrix: (Units=GPa)
#
#
# Indices 1 2 3 4 5 6 
#
# 1 110.4106 55.0297 70.2714 0.0000 0.0000 0.0000
# 2 55.0297 158.2048 42.6527 0.0000 0.0000 0.0000
# 3 70.2714 42.6527 131.2504 0.0000 0.0000 0.0000
# 4 0.0000 0.0000 0.0000 28.3800 0.0000 0.0000
# 5 0.0000 0.0000 0.0000 0.0000 26.9673 0.0000
# 6 0.0000 0.0000 0.0000 0.0000 0.0000 34.4152
#
#
#
# Elastic Compliance Matrix: (Units=1/GPa)
#
#
# Indices 1 2 3 4 5 6 
#
# 1 0.015242 -0.003400 -0.007056 0.000000 0.000000 0.000000
# 2 -0.003400 0.007686 -0.000678 0.000000 0.000000 0.000000
# 3 -0.007056 -0.000678 0.011617 0.000000 0.000000 0.000000
# 4 0.000000 0.000000 0.000000 0.035236 0.000000 0.000000
# 5 0.000000 0.000000 0.000000 0.000000 0.037082 0.000000
# 6 0.000000 0.000000 0.000000 0.000000 0.000000 0.029057
#
#
# Mechanical properties :
#
#
# Convention : Reuss Voigt Hill
#
# Bulk Modulus (GPa) = 81.43930 81.75260 81.59595
# Shear Modulus (GPa) = 30.81102 33.41330 32.11216
#
# Velocity S-wave (km/s) = 3.91066 4.07246 3.99238
# Velocity P-wave (km/s) = 7.79833 7.91780 7.85829
#
# Compressibility (1/GPa) = 0.01227908
#
# Stress axis : x y z
#
# Youngs Moduli (GPa) = 65.60711 130.10486 86.08081
#
# Poissons Ratio (x) = 0.44230 0.60738
# Poissons Ratio (y) = 0.22303 0.05833
# Poissons Ratio (z) = 0.46292 0.08817
#
# Static dielectric constant tensor:
#      x y z
#    x 3.621720 0.000000 0.000000 
#    y 0.000000 4.100320 0.000000 
#    z 0.000000 0.000000 3.390430 
# 
# 
# High freq. dielectric constant tensor:
#      x y z
#    x 1.779200 0.000000 0.000000 
#    y 0.000000 1.813970 0.000000 
#    z 0.000000 0.000000 1.790280 
# 
# From -- ./inp_files/13124.got.cif
#   From: 2010.03.12/outbox.cif.g09.slc.cpg/sg53_7_cif.got.tgz:13124.got - 2010.04.16 14:36:59.
