data_PCOD8221693
_publ_section_title
;
Structure prediction by ZEFSAII (Michael W. Deem and Ramdas Pophale) SiO2 
 PCOD8221693
Probable space group: P M N A
;
_chemical_formula_sum "Si O2"
_cell_formula_units_Z 64
_cell_length_a 22.727062
_cell_length_b 16.571382
_cell_length_c 9.456702
_cell_angle_alpha 90.000000
_cell_angle_beta 90.000000
_cell_angle_gamma 90.000000
_cell_volume 3561.572006
_symmetry_space_group_name_H-M "P M N A"
_symmetry_group_IT_number 53
_symmetry_cell_setting 'orthorhombic'
loop_
_space_group_symop_operation_xyz
x,y,z
1/2-x,-y,1/2+z
x,-y,-z
1/2-x,y,1/2-z
-x,-y,-z
1/2+x,y,1/2-z
-x,y,z
1/2+x,-y,1/2+z
loop_
_atom_site_type_symbol
_atom_site_label
_atom_site_fract_x
_atom_site_fract_y
_atom_site_fract_z
Si Si1 0.628032 0.904848 0.028230
Si Si2 0.933429 0.174480 0.774008
Si Si3 0.121604 0.905228 0.982306
Si Si4 0.070218 0.499586 0.339390
Si Si5 0.069456 0.651075 0.838352
Si Si6 0.756056 0.917630 0.081923
Si Si7 0.570011 0.649791 0.342812
Si Si8 0.569347 0.826082 0.772750
O O1 0.588093 0.847399 0.931558
O O2 0.606931 0.886371 0.186035
O O3 0.696531 0.877932 0.019768
O O4 0.619760 0.000000 0.000000
O O5 0.929696 0.142370 0.934536
O O6 0.910375 0.266690 0.768921
O O7 0.000000 0.169749 0.719520
O O8 0.184558 0.869427 0.039350
O O9 0.109939 0.885708 0.819140
O O10 0.115196 0.000000 0.000000
O O11 0.094580 0.500000 0.500000
O O12 0.094847 0.420779 0.258841
O O13 0.094307 0.577332 0.254116
O O14 0.000000 0.500344 0.341574
O O15 0.086814 0.734613 0.763529
O O16 0.000000 0.642394 0.847547
O O17 0.095852 0.644512 0.997270
O O18 0.750000 0.931210 0.250000
O O19 0.765522 0.000000 0.000000
O O20 0.500000 0.647095 0.352976
O O21 0.500000 0.841980 0.752579
#
# Coordination Sequence:
#
# PCOD8221693 Si02
#       8
#     8   8   8   8   8   8   8   8
#     4  11  24  38  54  75 107 143 185 231 276 315
#     4  11  21  34  52  77 110 147 178 216 270 328
#     4  11  22  36  57  76 104 141 186 230 264 314
#     4   9  17  27  45  70  97 135 177 211 253 312
#     4   9  17  31  47  68 102 139 174 213 256 313
#     4  10  22  39  59  78  98 131 185 241 282 311
#     4   9  17  30  47  69 100 139 177 212 258 315
#     4  11  23  36  52  80 114 147 179 217 269 329
#
# _framework density 17.969593
#
# number of rings (size 3 to 8) (size 9 to 14) (size 15 to 20)
#    0.000    1.875    2.500    1.875    7.000    4.500 
#    0.000    0.000    0.000    0.000    0.000    0.000 
#    0.000    6.000    0.000    0.000    0.000    0.000 
#
# Total GULP energy -793329.105052 kJ/mol
# GULP energy per Si atom -12395.767266 kJ/mol
# Density = 1.792869 g / cm^3
# Si number density = 17.969593 Si / 1000 Ang^3
#
#
#
# Elastic Constant Matrix: (Units=GPa)
#
#
# Indices 1 2 3 4 5 6 
#
# 1 58.3142 31.6632 24.7886 0.0000 0.0000 0.0000
# 2 31.6632 116.3339 38.8577 0.0000 0.0000 0.0000
# 3 24.7886 38.8577 91.1076 0.0000 0.0000 0.0000
# 4 0.0000 0.0000 0.0000 35.0593 0.0000 0.0000
# 5 0.0000 0.0000 0.0000 0.0000 20.7085 0.0000
# 6 0.0000 0.0000 0.0000 0.0000 0.0000 1.9480
#
#
#
# Elastic Compliance Matrix: (Units=1/GPa)
#
#
# Indices 1 2 3 4 5 6 
#
# 1 0.021227 -0.004488 -0.003861 0.000000 0.000000 0.000000
# 2 -0.004488 0.010973 -0.003459 0.000000 0.000000 0.000000
# 3 -0.003861 -0.003459 0.013502 0.000000 0.000000 0.000000
# 4 0.000000 0.000000 0.000000 0.028523 0.000000 0.000000
# 5 0.000000 0.000000 0.000000 0.000000 0.048289 0.000000
# 6 0.000000 0.000000 0.000000 0.000000 0.000000 0.513356
#
#
# Mechanical properties :
#
#
# Convention : Reuss Voigt Hill
#
# Bulk Modulus (GPa) = 45.27873 50.70829 47.99351
# Shear Modulus (GPa) = 7.49797 22.90625 15.20211
#
# Velocity S-wave (km/s) = 2.04491 3.57420 2.91175
# Velocity P-wave (km/s) = 5.55226 6.73152 6.17013
#
# Compressibility (1/GPa) = 0.02208543
#
# Stress axis : x y z
#
# Youngs Moduli (GPa) = 47.11079 91.13533 74.06388
#
# Poissons Ratio (x) = 0.40898 0.28599
# Poissons Ratio (y) = 0.21141 0.25618
# Poissons Ratio (z) = 0.18191 0.31523
#
# Static dielectric constant tensor:
#      x y z
#    x 3.173690 0.000000 0.000000 
#    y 0.000000 3.328800 0.000000 
#    z 0.000000 0.000000 3.465420 
# 
# 
# High freq. dielectric constant tensor:
#      x y z
#    x 1.647500 0.000000 0.000000 
#    y 0.000000 1.688420 0.000000 
#    z 0.000000 0.000000 1.714270 
# 
# From -- ./inp_files/11992.got.cif
#   From: 2010.03.12/outbox.cif.g09.slc.cpg/sg53_6_cif.got.tgz:11992.got - 2010.04.16 14:36:59.
