data_PCOD8221160
_publ_section_title
;
Structure prediction by ZEFSAII (Michael W. Deem and Ramdas Pophale) SiO2 
 PCOD8221160
Probable space group: P M N A
;
_chemical_formula_sum "Si O2"
_cell_formula_units_Z 48
_cell_length_a 8.675507
_cell_length_b 30.926382
_cell_length_c 9.109512
_cell_angle_alpha 90.000000
_cell_angle_beta 90.000000
_cell_angle_gamma 90.000000
_cell_volume 2444.100685
_symmetry_space_group_name_H-M "P M N A"
_symmetry_group_IT_number 53
_symmetry_cell_setting 'orthorhombic'
loop_
_space_group_symop_operation_xyz
x,y,z
1/2-x,-y,1/2+z
x,-y,-z
1/2-x,y,1/2-z
-x,-y,-z
1/2+x,y,1/2-z
-x,y,z
1/2+x,-y,1/2+z
loop_
_atom_site_type_symbol
_atom_site_label
_atom_site_fract_x
_atom_site_fract_y
_atom_site_fract_z
Si Si1 0.317237 0.291412 0.909410
Si Si2 0.819249 0.458331 0.405865
Si Si3 0.817298 0.368966 0.088718
Si Si4 0.317549 0.958369 0.911352
Si Si5 0.182615 0.874945 0.411233
Si Si6 0.681735 0.207716 0.089296
O O1 0.250000 0.282081 0.750000
O O2 0.500000 0.296138 0.900457
O O3 0.244743 0.334815 0.972842
O O4 0.265639 0.252064 0.013260
O O5 0.779951 0.500000 0.500000
O O6 0.750000 0.469460 0.250000
O O7 0.736222 0.415822 0.470636
O O8 0.000000 0.448714 0.394927
O O9 0.750000 0.359660 0.250000
O O10 0.000000 0.366569 0.097405
O O11 0.250000 0.958877 0.750000
O O12 0.500000 0.958684 0.898772
O O13 0.258228 0.916013 0.996524
O O14 0.256997 0.000000 0.000000
O O15 0.250000 0.877207 0.250000
O O16 0.244609 0.832057 0.492345
O O17 0.000000 0.874606 0.398862
O O18 0.750000 0.205067 0.250000
O O19 0.500000 0.205079 0.103087
#
# Coordination Sequence:
#
# PCOD8221160 Si02
#       6
#     8   8   8   8   8   8
#     4  11  23  39  58  83 113 145 185 230 280 334
#     4  10  21  37  58  84 114 148 188 232 278 331
#     4  11  22  38  60  84 113 149 188 231 279 332
#     4  10  21  36  55  81 112 146 187 232 278 333
#     4  10  21  37  56  82 113 145 185 230 278 332
#     4  10  22  38  58  83 111 145 185 229 276 332
#
# _framework density 19.639123999999999
#
# number of rings (size 3 to 8) (size 9 to 14) (size 15 to 20)
#    0.000    1.667    0.000    5.500    0.000    6.333 
#    0.000    1.667    0.000    0.000    0.000    0.000 
#    0.000    0.000    0.000    0.000    0.000    0.000 
#
# Total GULP energy -595377.042475 kJ/mol
# GULP energy per Si atom -12403.688385 kJ/mol
# Density = 1.959442 g / cm^3
# Si number density = 19.639124 Si / 1000 Ang^3
#
#
#
# Elastic Constant Matrix: (Units=GPa)
#
#
# Indices 1 2 3 4 5 6 
#
# 1 73.2167 53.9374 45.8298 0.0000 0.0000 0.0000
# 2 53.9374 160.3540 94.1126 0.0000 0.0000 0.0000
# 3 45.8298 94.1126 165.0185 0.0000 0.0000 0.0000
# 4 0.0000 0.0000 0.0000 44.9462 0.0000 0.0000
# 5 0.0000 0.0000 0.0000 0.0000 40.1464 0.0000
# 6 0.0000 0.0000 0.0000 0.0000 0.0000 5.1790
#
#
#
# Elastic Compliance Matrix: (Units=1/GPa)
#
#
# Indices 1 2 3 4 5 6 
#
# 1 0.018781 -0.004894 -0.002425 0.000000 0.000000 0.000000
# 2 -0.004894 0.010649 -0.004714 0.000000 0.000000 0.000000
# 3 -0.002425 -0.004714 0.009422 0.000000 0.000000 0.000000
# 4 0.000000 0.000000 0.000000 0.022249 0.000000 0.000000
# 5 0.000000 0.000000 0.000000 0.000000 0.024909 0.000000
# 6 0.000000 0.000000 0.000000 0.000000 0.000000 0.193089
#
#
# Mechanical properties :
#
#
# Convention : Reuss Voigt Hill
#
# Bulk Modulus (GPa) = 67.63112 87.37208 77.50160
# Shear Modulus (GPa) = 16.22881 31.70160 23.96520
#
# Velocity S-wave (km/s) = 2.87775 4.02208 3.49704
# Velocity P-wave (km/s) = 6.74934 8.13356 7.47357
#
# Compressibility (1/GPa) = 0.01478609
#
# Stress axis : x y z
#
# Youngs Moduli (GPa) = 53.24421 93.90359 106.13567
#
# Poissons Ratio (x) = 0.45959 0.25736
# Poissons Ratio (y) = 0.26059 0.50034
# Poissons Ratio (z) = 0.12911 0.44268
#
# Static dielectric constant tensor:
#      x y z
#    x 3.566230 0.000000 0.000000 
#    y 0.000000 4.044960 0.000000 
#    z 0.000000 0.000000 3.527220 
# 
# 
# High freq. dielectric constant tensor:
#      x y z
#    x 1.765580 0.000000 0.000000 
#    y 0.000000 1.787010 0.000000 
#    z 0.000000 0.000000 1.772680 
# 
# From -- ./inp_files/6644.got.cif
#   From: 2010.03.12/outbox.cif.g09.slc.cpg/sg53_4_cif.got.tgz:6644.got - 2010.04.16 14:36:59.
