data_PCOD8221382
_publ_section_title
;
Structure prediction by ZEFSAII (Michael W. Deem and Ramdas Pophale) SiO2 
 PCOD8221382
Probable space group: P M N A
;
_chemical_formula_sum "Si O2"
_cell_formula_units_Z 64
_cell_length_a 9.140160
_cell_length_b 16.572453
_cell_length_c 21.020770
_cell_angle_alpha 90.000000
_cell_angle_beta 90.000000
_cell_angle_gamma 90.000000
_cell_volume 3184.118445
_symmetry_space_group_name_H-M "P M N A"
_symmetry_group_IT_number 53
_symmetry_cell_setting 'orthorhombic'
loop_
_space_group_symop_operation_xyz
x,y,z
1/2-x,-y,1/2+z
x,-y,-z
1/2-x,y,1/2-z
-x,-y,-z
1/2+x,y,1/2-z
-x,y,z
1/2+x,-y,1/2+z
loop_
_atom_site_type_symbol
_atom_site_label
_atom_site_fract_x
_atom_site_fract_y
_atom_site_fract_z
Si Si1 0.660484 0.708572 0.689830
Si Si2 0.341132 0.170073 0.418175
Si Si3 0.827252 0.436679 0.810992
Si Si4 0.172330 0.013467 0.428873
Si Si5 0.172210 0.713432 0.358977
Si Si6 0.327949 0.575887 0.599157
Si Si7 0.173075 0.106164 0.682906
Si Si8 0.170277 0.316650 0.988247
O O1 0.750000 0.733667 0.750000
O O2 0.500000 0.679010 0.711214
O O3 0.649426 0.789543 0.649936
O O4 0.741131 0.637082 0.650716
O O5 0.500000 0.130888 0.434337
O O6 0.215633 0.103998 0.411879
O O7 0.303347 0.237481 0.470028
O O8 0.750000 0.479612 0.750000
O O9 0.759470 0.347669 0.813878
O O10 0.791365 0.485073 0.877190
O O11 0.000000 0.432336 0.799672
O O12 0.000000 0.004322 0.430869
O O13 0.237678 0.000000 0.500000
O O14 0.231375 0.951604 0.374553
O O15 0.215217 0.803330 0.337865
O O16 0.222207 0.694123 0.429964
O O17 0.000000 0.698221 0.352988
O O18 0.500000 0.592997 0.599638
O O19 0.278914 0.602258 0.527789
O O20 0.250000 0.084175 0.750000
O O21 0.000000 0.096264 0.692587
O O22 0.000000 0.324716 0.966373
#
# Coordination Sequence:
#
# PCOD8221382 Si02
#       8
#     8   8   8   8   8   8   8   8
#     4   9  17  31  50  74 105 140 176 212 254 310
#     4   9  19  34  53  79 109 139 174 216 263 321
#     4  11  22  37  57  81 109 143 184 228 275 328
#     4  10  21  38  59  82 109 142 181 226 278 334
#     4  11  23  39  58  81 109 143 186 234 284 335
#     4   8  17  34  55  78 108 145 181 219 267 326
#     4  10  23  41  60  82 111 149 190 234 285 340
#     4   9  18  36  59  82 110 146 185 223 270 328
#
# _framework density 20.099754000000001
#
# number of rings (size 3 to 8) (size 9 to 14) (size 15 to 20)
#    0.000    2.375    0.000    3.750    0.000    5.750 
#    0.000    8.750    0.000    0.000    0.000    0.000 
#    0.000    0.000    0.000    0.000    0.000    0.000 
#
# Total GULP energy -793105.570999 kJ/mol
# GULP energy per Si atom -12392.274547 kJ/mol
# Density = 2.005401 g / cm^3
# Si number density = 20.099754 Si / 1000 Ang^3
#
#
#
# Elastic Constant Matrix: (Units=GPa)
#
#
# Indices 1 2 3 4 5 6 
#
# 1 48.6564 19.8019 33.7110 0.0000 0.0000 0.0000
# 2 19.8019 77.8562 23.5465 0.0000 0.0000 0.0000
# 3 33.7110 23.5465 120.3049 0.0000 0.0000 0.0000
# 4 0.0000 0.0000 0.0000 21.1491 0.0000 0.0000
# 5 0.0000 0.0000 0.0000 0.0000 32.6027 0.0000
# 6 0.0000 0.0000 0.0000 0.0000 0.0000 29.0155
#
#
#
# Elastic Compliance Matrix: (Units=1/GPa)
#
#
# Indices 1 2 3 4 5 6 
#
# 1 0.027152 -0.004894 -0.006650 0.000000 0.000000 0.000000
# 2 -0.004894 0.014535 -0.001473 0.000000 0.000000 0.000000
# 3 -0.006650 -0.001473 0.010464 0.000000 0.000000 0.000000
# 4 0.000000 0.000000 0.000000 0.047283 0.000000 0.000000
# 5 0.000000 0.000000 0.000000 0.000000 0.030672 0.000000
# 6 0.000000 0.000000 0.000000 0.000000 0.000000 0.034464
#
#
# Mechanical properties :
#
#
# Convention : Reuss Voigt Hill
#
# Bulk Modulus (GPa) = 38.29310 44.54847 41.42078
# Shear Modulus (GPa) = 25.08638 27.87067 26.47853
#
# Velocity S-wave (km/s) = 3.53667 3.72777 3.63348
# Velocity P-wave (km/s) = 5.98082 6.38280 6.18508
#
# Compressibility (1/GPa) = 0.02611437
#
# Stress axis : x y z
#
# Youngs Moduli (GPa) = 36.82995 68.80123 95.56514
#
# Poissons Ratio (x) = 0.33675 0.63554
# Poissons Ratio (y) = 0.18026 0.14079
# Poissons Ratio (z) = 0.24493 0.10136
#
# Static dielectric constant tensor:
#      x y z
#    x 3.417800 0.000000 0.000000 
#    y 0.000000 3.643400 0.000000 
#    z 0.000000 0.000000 3.901040 
# 
# 
# High freq. dielectric constant tensor:
#      x y z
#    x 1.759490 0.000000 0.000000 
#    y 0.000000 1.783700 0.000000 
#    z 0.000000 0.000000 1.797320 
# 
# From -- ./inp_files/31269.got.cif
#   From: 2010.03.12/outbox.cif.g09.slc.cpg/sg53_16_cif.got.tgz:31269.got - 2010.04.16 14:36:59.
