data_PCOD8221765
_publ_section_title
;
Structure prediction by ZEFSAII (Michael W. Deem and Ramdas Pophale) SiO2 
 PCOD8221765
Probable space group: P M N A
;
_chemical_formula_sum "Si O2"
_cell_formula_units_Z 48
_cell_length_a 9.529454
_cell_length_b 27.541750
_cell_length_c 8.647024
_cell_angle_alpha 90.000000
_cell_angle_beta 90.000000
_cell_angle_gamma 90.000000
_cell_volume 2269.479239
_symmetry_space_group_name_H-M "P M N A"
_symmetry_group_IT_number 53
_symmetry_cell_setting 'orthorhombic'
loop_
_space_group_symop_operation_xyz
x,y,z
1/2-x,-y,1/2+z
x,-y,-z
1/2-x,y,1/2-z
-x,-y,-z
1/2+x,y,1/2-z
-x,y,z
1/2+x,-y,1/2+z
loop_
_atom_site_type_symbol
_atom_site_label
_atom_site_fract_x
_atom_site_fract_y
_atom_site_fract_z
Si Si1 0.500000 0.410338 0.593579
Si Si2 0.000000 0.702401 0.051621
Si Si3 0.500000 0.273615 0.907274
Si Si4 0.732189 0.549448 0.931406
Si Si5 0.163537 0.862385 0.093711
Si Si6 0.732377 0.233979 0.431201
Si Si7 0.500000 0.386590 0.949769
Si Si8 0.666425 0.049159 0.908943
O O1 0.500000 0.355110 0.539278
O O2 0.628478 0.440347 0.527292
O O3 0.500000 0.409326 0.778726
O O4 0.000000 0.725914 0.222194
O O5 0.136262 0.719679 0.961914
O O6 0.628271 0.243098 0.972249
O O7 0.500000 0.328916 0.962238
O O8 0.750000 0.542801 0.750000
O O9 0.634630 0.595561 0.958236
O O10 0.665455 0.500000 0.000000
O O11 0.250000 0.850892 0.250000
O O12 0.251087 0.905952 0.007952
O O13 0.000000 0.876768 0.127009
O O14 0.160852 0.815574 0.985680
O O15 0.750000 0.229590 0.250000
O O16 0.750000 0.042939 0.750000
O O17 0.500000 0.060277 0.887718
O O18 0.689150 0.000000 0.000000
#
# Coordination Sequence:
#
# PCOD8221765 Si02
#       8
#     4   4   4   8   8   8   4   8
#     4  11  24  42  69  91 128 161 213 264 313 382
#     4  11  23  46  64  93 124 169 216 254 319 394
#     4  11  25  42  70  89 126 171 212 258 319 392
#     4  12  25  42  65  94 129 167 209 259 319 380
#     4  11  23  41  66  93 126 172 223 267 326 397
#     4  12  26  41  62  96 130 164 211 273 324 376
#     4  11  24  44  65  97 122 167 211 262 317 380
#     4  10  22  40  64  97 131 173 223 273 329 390
#
# _framework density 21.150227000000001
#
# number of rings (size 3 to 8) (size 9 to 14) (size 15 to 20)
#    0.000    0.833    0.833    7.500    2.333    8.667 
#    0.000    1.667    0.000    0.000    0.000    0.000 
#    0.000    0.000    0.000    0.000    0.000    0.000 
#
# Total GULP energy -595069.597917 kJ/mol
# GULP energy per Si atom -12397.283290 kJ/mol
# Density = 2.110209 g / cm^3
# Si number density = 21.150227 Si / 1000 Ang^3
#
#
#
# Elastic Constant Matrix: (Units=GPa)
#
#
# Indices 1 2 3 4 5 6 
#
# 1 139.2227 29.1552 14.7868 0.0000 0.0000 0.0000
# 2 29.1552 110.2026 40.3543 0.0000 0.0000 0.0000
# 3 14.7868 40.3543 89.2273 0.0000 0.0000 0.0000
# 4 0.0000 0.0000 0.0000 40.8935 0.0000 0.0000
# 5 0.0000 0.0000 0.0000 0.0000 56.1701 0.0000
# 6 0.0000 0.0000 0.0000 0.0000 0.0000 36.0165
#
#
#
# Elastic Compliance Matrix: (Units=1/GPa)
#
#
# Indices 1 2 3 4 5 6 
#
# 1 0.007617 -0.001861 -0.000421 0.000000 0.000000 0.000000
# 2 -0.001861 0.011330 -0.004816 0.000000 0.000000 0.000000
# 3 -0.000421 -0.004816 0.013455 0.000000 0.000000 0.000000
# 4 0.000000 0.000000 0.000000 0.024454 0.000000 0.000000
# 5 0.000000 0.000000 0.000000 0.000000 0.017803 0.000000
# 6 0.000000 0.000000 0.000000 0.000000 0.000000 0.027765
#
#
# Mechanical properties :
#
#
# Convention : Reuss Voigt Hill
#
# Bulk Modulus (GPa) = 54.92324 56.36056 55.64190
# Shear Modulus (GPa) = 40.75373 43.57310 42.16342
#
# Velocity S-wave (km/s) = 4.39437 4.54384 4.46973
# Velocity P-wave (km/s) = 7.19527 7.36439 7.28032
#
# Compressibility (1/GPa) = 0.01820723
#
# Stress axis : x y z
#
# Youngs Moduli (GPa) = 131.28245 88.26102 74.32173
#
# Poissons Ratio (x) = 0.16427 0.03126
# Poissons Ratio (y) = 0.24434 0.35791
# Poissons Ratio (z) = 0.05521 0.42504
#
# Static dielectric constant tensor:
#      x y z
#    x 4.040250 0.000000 0.000000 
#    y 0.000000 4.209720 0.000000 
#    z 0.000000 0.000000 3.743230 
# 
# 
# High freq. dielectric constant tensor:
#      x y z
#    x 1.847230 0.000000 0.000000 
#    y 0.000000 1.849530 0.000000 
#    z 0.000000 0.000000 1.822410 
# 
# From -- ./inp_files/6875.got.cif
#   From: 2010.03.12/outbox.cif.g09.slc.cpg/sg53_4_cif.got.tgz:6875.got - 2010.04.16 14:36:59.
