data_PCOD8221095
_publ_section_title
;
Structure prediction by ZEFSAII (Michael W. Deem and Ramdas Pophale) SiO2 
 PCOD8221095
Probable space group: P M N A
;
_chemical_formula_sum "Si O2"
_cell_formula_units_Z 40
_cell_length_a 8.420513
_cell_length_b 7.677447
_cell_length_c 29.878045
_cell_angle_alpha 90.000000
_cell_angle_beta 90.000000
_cell_angle_gamma 90.000000
_cell_volume 1931.557116
_symmetry_space_group_name_H-M "P M N A"
_symmetry_group_IT_number 53
_symmetry_cell_setting 'orthorhombic'
loop_
_space_group_symop_operation_xyz
x,y,z
1/2-x,-y,1/2+z
x,-y,-z
1/2-x,y,1/2-z
-x,-y,-z
1/2+x,y,1/2-z
-x,y,z
1/2+x,-y,1/2+z
loop_
_atom_site_type_symbol
_atom_site_label
_atom_site_fract_x
_atom_site_fract_y
_atom_site_fract_z
Si Si1 0.186016 0.747549 0.200282
Si Si2 0.311315 0.440854 0.143170
Si Si3 0.319866 0.553572 0.953815
Si Si4 0.185885 0.960943 0.636157
Si Si5 0.318782 0.911036 0.546908
O O1 0.250000 0.746404 0.250000
O O2 0.224268 0.558673 0.179481
O O3 0.000000 0.780004 0.199767
O O4 0.269815 0.906973 0.175248
O O5 0.500000 0.462517 0.147799
O O6 0.253082 0.513847 0.094009
O O7 0.263548 0.237376 0.149639
O O8 0.500000 0.489313 0.957948
O O9 0.310639 0.760037 0.950297
O O10 0.227106 0.500000 0.000000
O O11 0.278809 0.025610 0.591001
O O12 0.000000 0.971801 0.626911
O O13 0.500000 0.843689 0.549073
O O14 0.285844 0.000000 0.500000
#
# Coordination Sequence:
#
# PCOD8221095 Si02
#       5
#     8   8   8   8   8
#     4  12  26  43  66  94 124 160 205 255 312 370
#     4   9  20  40  63  90 124 161 204 253 305 363
#     4   9  19  35  56  85 117 159 206 245 296 361
#     4  10  22  42  66  90 122 163 207 256 308 367
#     4  10  21  35  53  85 123 159 201 247 301 361
#
# _framework density 20.708680999999999
#
# number of rings (size 3 to 8) (size 9 to 14) (size 15 to 20)
#    0.000    2.000    0.000    4.200    2.800    6.800 
#    0.000    0.000    0.000    0.000    0.000    0.000 
#    0.000    0.000    0.000    0.000    0.000    0.000 
#
# Total GULP energy -495604.345700 kJ/mol
# GULP energy per Si atom -12390.108643 kJ/mol
# Density = 2.066155 g / cm^3
# Si number density = 20.708681 Si / 1000 Ang^3
#
#
#
# Elastic Constant Matrix: (Units=GPa)
#
#
# Indices 1 2 3 4 5 6 
#
# 1 48.5333 21.0830 29.0221 0.0000 0.0000 0.0000
# 2 21.0830 86.8735 64.6136 0.0000 0.0000 0.0000
# 3 29.0221 64.6136 184.7777 0.0000 0.0000 0.0000
# 4 0.0000 0.0000 0.0000 42.5704 0.0000 0.0000
# 5 0.0000 0.0000 0.0000 0.0000 29.2945 0.0000
# 6 0.0000 0.0000 0.0000 0.0000 0.0000 29.2602
#
#
#
# Elastic Compliance Matrix: (Units=1/GPa)
#
#
# Indices 1 2 3 4 5 6 
#
# 1 0.023745 -0.004039 -0.002317 0.000000 0.000000 0.000000
# 2 -0.004039 0.016244 -0.005046 0.000000 0.000000 0.000000
# 3 -0.002317 -0.005046 0.007540 0.000000 0.000000 0.000000
# 4 0.000000 0.000000 0.000000 0.023490 0.000000 0.000000
# 5 0.000000 0.000000 0.000000 0.000000 0.034136 0.000000
# 6 0.000000 0.000000 0.000000 0.000000 0.000000 0.034176
#
#
# Mechanical properties :
#
#
# Convention : Reuss Voigt Hill
#
# Bulk Modulus (GPa) = 40.44507 61.06910 50.75708
# Shear Modulus (GPa) = 29.34659 33.92275 31.63467
#
# Velocity S-wave (km/s) = 3.76854 4.05173 3.91270
# Velocity P-wave (km/s) = 6.20554 7.17233 6.70638
#
# Compressibility (1/GPa) = 0.02472489
#
# Stress axis : x y z
#
# Youngs Moduli (GPa) = 42.11495 61.56039 132.62082
#
# Poissons Ratio (x) = 0.24865 0.30728
# Poissons Ratio (y) = 0.17011 0.66919
# Poissons Ratio (z) = 0.09758 0.31063
#
# Static dielectric constant tensor:
#      x y z
#    x 3.620310 0.000000 0.000000 
#    y 0.000000 3.552170 0.000000 
#    z 0.000000 0.000000 4.201550 
# 
# 
# High freq. dielectric constant tensor:
#      x y z
#    x 1.800430 0.000000 0.000000 
#    y 0.000000 1.796690 0.000000 
#    z 0.000000 0.000000 1.829300 
# 
# From -- ./inp_files/36030.got.cif
#   From: 2010.03.12/outbox.cif.g09.slc.cpg/sg53_19_cif.got.tgz:36030.got - 2010.04.16 14:36:59.
