data_PCOD8221555
_publ_section_title
;
Structure prediction by ZEFSAII (Michael W. Deem and Ramdas Pophale) SiO2 
 PCOD8221555
Probable space group: P M N A
;
_chemical_formula_sum "Si O2"
_cell_formula_units_Z 48
_cell_length_a 8.650800
_cell_length_b 14.955239
_cell_length_c 19.290899
_cell_angle_alpha 90.000000
_cell_angle_beta 90.000000
_cell_angle_gamma 90.000000
_cell_volume 2495.755844
_symmetry_space_group_name_H-M "P M N A"
_symmetry_group_IT_number 53
_symmetry_cell_setting 'orthorhombic'
loop_
_space_group_symop_operation_xyz
x,y,z
1/2-x,-y,1/2+z
x,-y,-z
1/2-x,y,1/2-z
-x,-y,-z
1/2+x,y,1/2-z
-x,y,z
1/2+x,-y,1/2+z
loop_
_atom_site_type_symbol
_atom_site_label
_atom_site_fract_x
_atom_site_fract_y
_atom_site_fract_z
Si Si1 0.681899 0.230031 0.417638
Si Si2 0.181056 0.070539 0.178667
Si Si3 0.318311 0.459692 0.929496
Si Si4 0.681620 0.260369 0.934150
Si Si5 0.817024 0.614212 0.673940
Si Si6 0.182018 0.869503 0.177871
O O1 0.500000 0.236672 0.433794
O O2 0.727292 0.134500 0.384685
O O3 0.780667 0.238250 0.486758
O O4 0.729637 0.306274 0.364127
O O5 0.250000 0.109021 0.250000
O O6 0.000000 0.069651 0.189056
O O7 0.243340 0.970379 0.163704
O O8 0.500000 0.452585 0.941140
O O9 0.255028 0.359748 0.916399
O O10 0.276301 0.521721 0.864666
O O11 0.243695 0.500000 0.000000
O O12 0.500000 0.251991 0.921744
O O13 0.767387 0.191354 0.885283
O O14 0.750000 0.604790 0.750000
O O15 0.000000 0.632747 0.674675
O O16 0.250000 0.832411 0.250000
O O17 0.000000 0.867526 0.183715
#
# Coordination Sequence:
#
# PCOD8221555 Si02
#       6
#     8   8   8   8   8   8
#     4  11  22  37  57  86 118 152 192 236 286 342
#     4   9  20  37  58  81 113 153 191 234 287 340
#     4   9  18  37  60  80 109 151 191 231 283 338
#     4  11  22  38  61  87 115 152 192 236 289 343
#     4  11  22  38  59  85 116 150 190 237 288 344
#     4  10  21  40  61  84 114 150 192 239 287 340
#
# _framework density 19.232651000000001
#
# number of rings (size 3 to 8) (size 9 to 14) (size 15 to 20)
#    0.000    1.833    1.667    2.500    0.000    4.667 
#    0.000    9.167    0.000    0.000    0.000    0.000 
#    0.000    0.000    0.000    0.000    0.000    0.000 
#
# Total GULP energy -595288.087624 kJ/mol
# GULP energy per Si atom -12401.835159 kJ/mol
# Density = 1.918888 g / cm^3
# Si number density = 19.232651 Si / 1000 Ang^3
#
#
#
# Elastic Constant Matrix: (Units=GPa)
#
#
# Indices 1 2 3 4 5 6 
#
# 1 32.8791 19.4155 7.2703 0.0000 0.0000 0.0000
# 2 19.4155 114.7411 50.3948 0.0000 0.0000 0.0000
# 3 7.2703 50.3948 107.9358 0.0000 0.0000 0.0000
# 4 0.0000 0.0000 0.0000 -26.6414 0.0000 0.0000
# 5 0.0000 0.0000 0.0000 0.0000 37.8226 0.0000
# 6 0.0000 0.0000 0.0000 0.0000 0.0000 46.5530
#
#
#
# Elastic Compliance Matrix: (Units=1/GPa)
#
#
# Indices 1 2 3 4 5 6 
#
# 1 0.033812 -0.005939 0.000495 0.000000 0.000000 0.000000
# 2 -0.005939 0.012007 -0.005206 0.000000 0.000000 0.000000
# 3 0.000495 -0.005206 0.011662 0.000000 0.000000 0.000000
# 4 0.000000 0.000000 0.000000 -0.037536 0.000000 0.000000
# 5 0.000000 0.000000 0.000000 0.000000 0.026439 0.000000
# 6 0.000000 0.000000 0.000000 0.000000 0.000000 0.021481
#
#
# Mechanical properties :
#
#
# Convention : Reuss Voigt Hill
#
# Bulk Modulus (GPa) = 27.63820 45.52413 36.58117
# Shear Modulus (GPa) = 49.39515 23.44520 36.42018
#
# Velocity S-wave (km/s) = 5.07333 3.49525 4.35635
# Velocity P-wave (km/s) = 6.97997 6.32540 6.66073
#
# Compressibility (1/GPa) = 0.03618180
#
# Stress axis : x y z
#
# Youngs Moduli (GPa) = 29.57533 83.28730 85.74874
#
# Poissons Ratio (x) = 0.49464 -0.04248
# Poissons Ratio (y) = 0.17565 0.44639
# Poissons Ratio (z) = -0.01465 0.43358
#
# Static dielectric constant tensor:
#      x y z
#    x 3.424380 0.000000 0.000000 
#    y 0.000000 3.967470 0.000000 
#    z 0.000000 0.000000 3.232640 
# 
# 
# High freq. dielectric constant tensor:
#      x y z
#    x 1.741100 0.000000 0.000000 
#    y 0.000000 1.760300 0.000000 
#    z 0.000000 0.000000 1.752880 
# 
# From -- ./inp_files/26221.got.cif
#   From: 2010.03.12/outbox.cif.g09.slc.cpg/sg53_14_cif.got.tgz:26221.got - 2010.04.16 14:36:59.
