data_PCOD8221492
_publ_section_title
;
Structure prediction by ZEFSAII (Michael W. Deem and Ramdas Pophale) SiO2 
 PCOD8221492
Probable space group: P M N A
;
_chemical_formula_sum "Si O2"
_cell_formula_units_Z 64
_cell_length_a 9.173563
_cell_length_b 17.607667
_cell_length_c 20.016648
_cell_angle_alpha 90.000000
_cell_angle_beta 90.000000
_cell_angle_gamma 90.000000
_cell_volume 3233.189919
_symmetry_space_group_name_H-M "P M N A"
_symmetry_group_IT_number 53
_symmetry_cell_setting 'orthorhombic'
loop_
_space_group_symop_operation_xyz
x,y,z
1/2-x,-y,1/2+z
x,-y,-z
1/2-x,y,1/2-z
-x,-y,-z
1/2+x,y,1/2-z
-x,y,z
1/2+x,-y,1/2+z
loop_
_atom_site_type_symbol
_atom_site_label
_atom_site_fract_x
_atom_site_fract_y
_atom_site_fract_z
Si Si1 0.672563 0.726120 0.680980
Si Si2 0.342155 0.186396 0.443598
Si Si3 0.829626 0.447219 0.811192
Si Si4 0.172387 0.923540 0.463563
Si Si5 0.169918 0.698010 0.351792
Si Si6 0.328615 0.581972 0.601707
Si Si7 0.171360 0.129428 0.681952
Si Si8 0.159799 0.336851 0.978037
O O1 0.750000 0.744449 0.750000
O O2 0.500000 0.721465 0.692446
O O3 0.711053 0.798335 0.632346
O O4 0.737049 0.646792 0.650863
O O5 0.500000 0.143644 0.445035
O O6 0.226862 0.143899 0.489667
O O7 0.368889 0.270031 0.470791
O O8 0.750000 0.489544 0.750000
O O9 0.767228 0.362092 0.812388
O O10 0.785830 0.496065 0.876607
O O11 0.000000 0.443912 0.797659
O O12 0.226125 0.914836 0.385799
O O13 0.000000 0.918540 0.462592
O O14 0.227969 0.000000 0.500000
O O15 0.210281 0.782081 0.327226
O O16 0.213636 0.688223 0.428585
O O17 0.000000 0.680613 0.342514
O O18 0.500000 0.591663 0.607039
O O19 0.283182 0.593012 0.523937
O O20 0.250000 0.099582 0.750000
O O21 0.000000 0.116817 0.691726
O O22 0.000000 0.355823 0.943167
#
# Coordination Sequence:
#
# PCOD8221492 Si02
#       8
#     8   8   8   8   8   8   8   8
#     4   9  17  31  51  78 108 143 188 234 279 329
#     4   9  18  33  55  82 112 143 182 227 271 325
#     4  11  22  36  52  72 102 142 186 234 288 340
#     4  10  21  39  62  87 115 147 182 221 273 332
#     4  11  22  36  54  79 110 142 184 233 279 333
#     4   8  17  33  52  73 103 142 186 233 282 339
#     4  10  22  39  60  86 114 147 185 227 273 328
#     4   9  17  33  56  79 103 140 183 225 276 331
#
# _framework density 19.794692000000001
#
# number of rings (size 3 to 8) (size 9 to 14) (size 15 to 20)
#    0.000    2.375    1.250    3.000    0.000    3.750 
#    0.000    6.875    0.000    3.000    0.000    0.000 
#    0.000    0.000    0.000    0.000    0.000    0.000 
#
# Total GULP energy -792874.759867 kJ/mol
# GULP energy per Si atom -12388.668123 kJ/mol
# Density = 1.974964 g / cm^3
# Si number density = 19.794692 Si / 1000 Ang^3
#
#
#
# Elastic Constant Matrix: (Units=GPa)
#
#
# Indices 1 2 3 4 5 6 
#
# 1 50.2102 24.1871 36.1667 0.0000 0.0000 0.0000
# 2 24.1871 66.7189 35.0506 0.0000 0.0000 0.0000
# 3 36.1667 35.0506 127.0850 0.0000 0.0000 0.0000
# 4 0.0000 0.0000 0.0000 13.6782 0.0000 0.0000
# 5 0.0000 0.0000 0.0000 0.0000 32.6968 0.0000
# 6 0.0000 0.0000 0.0000 0.0000 0.0000 8.9895
#
#
#
# Elastic Compliance Matrix: (Units=1/GPa)
#
#
# Indices 1 2 3 4 5 6 
#
# 1 0.027490 -0.006848 -0.005934 0.000000 0.000000 0.000000
# 2 -0.006848 0.019234 -0.003356 0.000000 0.000000 0.000000
# 3 -0.005934 -0.003356 0.010483 0.000000 0.000000 0.000000
# 4 0.000000 0.000000 0.000000 0.073109 0.000000 0.000000
# 5 0.000000 0.000000 0.000000 0.000000 0.030584 0.000000
# 6 0.000000 0.000000 0.000000 0.000000 0.000000 0.111241
#
#
# Mechanical properties :
#
#
# Convention : Reuss Voigt Hill
#
# Bulk Modulus (GPa) = 40.11241 48.31365 44.21303
# Shear Modulus (GPa) = 15.98835 20.98021 18.48428
#
# Velocity S-wave (km/s) = 2.84511 3.25913 3.05913
# Velocity P-wave (km/s) = 5.57683 6.21473 5.90440
#
# Compressibility (1/GPa) = 0.02492994
#
# Stress axis : x y z
#
# Youngs Moduli (GPa) = 36.37719 51.99172 95.39073
#
# Poissons Ratio (x) = 0.35604 0.56610
# Poissons Ratio (y) = 0.24911 0.32012
# Poissons Ratio (z) = 0.21588 0.17448
#
# Static dielectric constant tensor:
#      x y z
#    x 3.368140 0.000000 0.000000 
#    y 0.000000 3.618920 0.000000 
#    z 0.000000 0.000000 4.188630 
# 
# 
# High freq. dielectric constant tensor:
#      x y z
#    x 1.748470 0.000000 0.000000 
#    y 0.000000 1.750730 0.000000 
#    z 0.000000 0.000000 1.788010 
# 
# From -- ./inp_files/31157.got.cif
#   From: 2010.03.12/outbox.cif.g09.slc.cpg/sg53_16_cif.got.tgz:31157.got - 2010.04.16 14:36:59.
