data_PCOD8221305
_publ_section_title
;
Structure prediction by ZEFSAII (Michael W. Deem and Ramdas Pophale) SiO2 
 PCOD8221305
Probable space group: P M N A
;
_chemical_formula_sum "Si O2"
_cell_formula_units_Z 64
_cell_length_a 8.612621
_cell_length_b 23.701254
_cell_length_c 15.449163
_cell_angle_alpha 90.000000
_cell_angle_beta 90.000000
_cell_angle_gamma 90.000000
_cell_volume 3153.636375
_symmetry_space_group_name_H-M "P M N A"
_symmetry_group_IT_number 53
_symmetry_cell_setting 'orthorhombic'
loop_
_space_group_symop_operation_xyz
x,y,z
1/2-x,-y,1/2+z
x,-y,-z
1/2-x,y,1/2-z
-x,-y,-z
1/2+x,y,1/2-z
-x,y,z
1/2+x,-y,1/2+z
loop_
_atom_site_type_symbol
_atom_site_label
_atom_site_fract_x
_atom_site_fract_y
_atom_site_fract_z
Si Si1 0.320304 0.065859 0.005051
Si Si2 0.182138 0.637354 0.341065
Si Si3 0.680208 0.874362 0.340904
Si Si4 0.816895 0.363217 0.341202
Si Si5 0.682980 0.757170 0.909646
Si Si6 0.817245 0.868276 0.838472
Si Si7 0.814811 0.563589 0.499743
Si Si8 0.178094 0.751043 0.096618
O O1 0.500000 0.079055 0.024120
O O2 0.274003 0.094153 0.915293
O O3 0.217489 0.090302 0.082449
O O4 0.286278 0.000000 0.000000
O O5 0.250000 0.617149 0.250000
O O6 0.249989 0.596839 0.416041
O O7 0.220745 0.702193 0.360436
O O8 0.000000 0.631081 0.336232
O O9 0.750000 0.894934 0.250000
O O10 0.500000 0.891122 0.347317
O O11 0.703706 0.807360 0.348188
O O12 0.750000 0.383251 0.250000
O O13 0.762004 0.299990 0.363059
O O14 0.751883 0.405085 0.414799
O O15 0.000000 0.366726 0.336808
O O16 0.500000 0.756737 0.927738
O O17 0.730841 0.808648 0.849062
O O18 0.771032 0.763975 0.999540
O O19 0.750000 0.895402 0.750000
O O20 0.000000 0.858448 0.831833
O O21 0.749717 0.500000 0.500000
O O22 0.000000 0.564205 0.498609
O O23 0.000000 0.731699 0.097633
#
# Coordination Sequence:
#
# PCOD8221305 Si02
#       8
#     8   8   8   8   8   8   8   8
#     4  11  25  45  68  93 123 163 210 260 311 362
#     4  11  22  38  60  88 120 158 201 249 304 363
#     4  11  24  41  64  94 126 163 204 250 306 367
#     4  10  21  37  58  88 117 155 197 240 300 357
#     4  11  21  37  62  91 125 161 200 248 306 370
#     4  12  25  42  65  95 128 166 208 252 308 367
#     4   9  19  38  60  81 113 158 204 249 303 364
#     4  11  22  37  61  93 125 160 200 246 304 366
#
# _framework density 20.294034
#
# number of rings (size 3 to 8) (size 9 to 14) (size 15 to 20)
#    0.000    1.250    2.500    3.750    0.000    6.500 
#    0.000    0.000    0.000    2.625    0.000    0.000 
#    0.000    0.000    0.000    0.000    0.000    0.000 
#
# Total GULP energy -793955.980180 kJ/mol
# GULP energy per Si atom -12405.562190 kJ/mol
# Density = 2.024784 g / cm^3
# Si number density = 20.294034 Si / 1000 Ang^3
#
#
#
# Elastic Constant Matrix: (Units=GPa)
#
#
# Indices 1 2 3 4 5 6 
#
# 1 44.8533 31.9461 23.9277 0.0000 0.0000 0.0000
# 2 31.9461 110.4942 45.0210 0.0000 0.0000 0.0000
# 3 23.9277 45.0210 156.8782 0.0000 0.0000 0.0000
# 4 0.0000 0.0000 0.0000 2.0735 0.0000 0.0000
# 5 0.0000 0.0000 0.0000 0.0000 37.6404 0.0000
# 6 0.0000 0.0000 0.0000 0.0000 0.0000 8.2815
#
#
#
# Elastic Compliance Matrix: (Units=1/GPa)
#
#
# Indices 1 2 3 4 5 6 
#
# 1 0.028771 -0.007395 -0.002266 0.000000 0.000000 0.000000
# 2 -0.007395 0.012149 -0.002359 0.000000 0.000000 0.000000
# 3 -0.002266 -0.002359 0.007397 0.000000 0.000000 0.000000
# 4 0.000000 0.000000 0.000000 0.482286 0.000000 0.000000
# 5 0.000000 0.000000 0.000000 0.000000 0.026567 0.000000
# 6 0.000000 0.000000 0.000000 0.000000 0.000000 0.120751
#
#
# Mechanical properties :
#
#
# Convention : Reuss Voigt Hill
#
# Bulk Modulus (GPa) = 41.19021 57.11282 49.15152
# Shear Modulus (GPa) = 7.04173 23.68781 15.36477
#
# Velocity S-wave (km/s) = 1.86477 3.42018 2.75454
# Velocity P-wave (km/s) = 4.99773 6.61820 5.86421
#
# Compressibility (1/GPa) = 0.02427761
#
# Stress axis : x y z
#
# Youngs Moduli (GPa) = 34.75767 82.30921 135.19167
#
# Poissons Ratio (x) = 0.60866 0.30635
# Poissons Ratio (y) = 0.25703 0.31888
# Poissons Ratio (z) = 0.07876 0.19414
#
# Static dielectric constant tensor:
#      x y z
#    x 3.579280 0.000000 0.000000 
#    y 0.000000 3.765400 0.000000 
#    z 0.000000 0.000000 3.928740 
# 
# 
# High freq. dielectric constant tensor:
#      x y z
#    x 1.787440 0.000000 0.000000 
#    y 0.000000 1.789600 0.000000 
#    z 0.000000 0.000000 1.809870 
# 
# From -- ./inp_files/20869.got.cif
#   From: 2010.03.12/outbox.cif.g09.slc.cpg/sg53_11_cif.got.tgz:20869.got - 2010.04.16 14:36:59.
