data_PCOD8221904
_publ_section_title
;
Structure prediction by ZEFSAII (Michael W. Deem and Ramdas Pophale) SiO2 
 PCOD8221904
Probable space group: P M N A
;
_chemical_formula_sum "Si O2"
_cell_formula_units_Z 28
_cell_length_a 12.911320
_cell_length_b 8.777231
_cell_length_c 10.725526
_cell_angle_alpha 90.000000
_cell_angle_beta 90.000000
_cell_angle_gamma 90.000000
_cell_volume 1215.477078
_symmetry_space_group_name_H-M "P M N A"
_symmetry_group_IT_number 53
_symmetry_cell_setting 'orthorhombic'
loop_
_space_group_symop_operation_xyz
x,y,z
1/2-x,-y,1/2+z
x,-y,-z
1/2-x,y,1/2-z
-x,-y,-z
1/2+x,y,1/2-z
-x,y,z
1/2+x,-y,1/2+z
loop_
_atom_site_type_symbol
_atom_site_label
_atom_site_fract_x
_atom_site_fract_y
_atom_site_fract_z
Si Si1 0.382319 0.581593 0.837494
Si Si2 0.880014 0.789107 0.891728
Si Si3 0.250000 0.964765 0.250000
Si Si4 0.708873 0.282332 0.933542
O O1 0.500000 0.524887 0.851504
O O2 0.361169 0.649036 0.702052
O O3 0.305657 0.440183 0.859439
O O4 0.361182 0.714399 0.940741
O O5 0.828295 0.939222 0.834288
O O6 0.000000 0.822881 0.915329
O O7 0.828372 0.739917 0.022472
O O8 0.318831 0.857642 0.157811
#
# Coordination Sequence:
#
# PCOD8221904 Si02
#       4
#     8   8   4   8
#     4  10  23  44  73  99 130 178 235 284 333 404
#     4  11  25  47  70 100 140 181 226 282 344 406
#     4  12  26  40  68 102 138 186 218 274 338 414
#     4  11  23  41  71  98 134 178 223 283 337 392
#
# _framework density 23.036223
#
# number of rings (size 3 to 8) (size 9 to 14) (size 15 to 20)
#    0.000    1.143    2.857    2.571    8.000    4.571 
#    0.000    5.714    0.000    0.000    0.000    0.000 
#    0.000    0.000    0.000    0.000    0.000    0.000 
#
# Total GULP energy -347173.099778 kJ/mol
# GULP energy per Si atom -12399.039278 kJ/mol
# Density = 2.298379 g / cm^3
# Si number density = 23.036223 Si / 1000 Ang^3
#
#
#
# Elastic Constant Matrix: (Units=GPa)
#
#
# Indices 1 2 3 4 5 6 
#
# 1 111.0365 83.4205 41.4753 0.0000 0.0000 0.0000
# 2 83.4205 136.1299 52.3836 0.0000 0.0000 0.0000
# 3 41.4753 52.3836 83.4326 0.0000 0.0000 0.0000
# 4 0.0000 0.0000 0.0000 42.4549 0.0000 0.0000
# 5 0.0000 0.0000 0.0000 0.0000 27.8666 0.0000
# 6 0.0000 0.0000 0.0000 0.0000 0.0000 17.4777
#
#
#
# Elastic Compliance Matrix: (Units=1/GPa)
#
#
# Indices 1 2 3 4 5 6 
#
# 1 0.017086 -0.009496 -0.002531 0.000000 0.000000 0.000000
# 2 -0.009496 0.014964 -0.004675 0.000000 0.000000 0.000000
# 3 -0.002531 -0.004675 0.016179 0.000000 0.000000 0.000000
# 4 0.000000 0.000000 0.000000 0.023554 0.000000 0.000000
# 5 0.000000 0.000000 0.000000 0.000000 0.035885 0.000000
# 6 0.000000 0.000000 0.000000 0.000000 0.000000 0.057216
#
#
# Mechanical properties :
#
#
# Convention : Reuss Voigt Hill
#
# Bulk Modulus (GPa) = 67.45485 76.12862 71.79174
# Shear Modulus (GPa) = 24.60262 27.78115 26.19189
#
# Velocity S-wave (km/s) = 3.27157 3.47649 3.37558
# Velocity P-wave (km/s) = 6.60428 7.01667 6.81360
#
# Compressibility (1/GPa) = 0.01482473
#
# Stress axis : x y z
#
# Youngs Moduli (GPa) = 58.52751 66.82710 61.80834
#
# Poissons Ratio (x) = 0.63460 0.15646
# Poissons Ratio (y) = 0.55579 0.28893
# Poissons Ratio (z) = 0.14816 0.31239
#
# Static dielectric constant tensor:
#      x y z
#    x 4.148110 0.000000 0.000000 
#    y 0.000000 4.118380 0.000000 
#    z 0.000000 0.000000 4.355170 
# 
# 
# High freq. dielectric constant tensor:
#      x y z
#    x 1.895640 0.000000 0.000000 
#    y 0.000000 1.909540 0.000000 
#    z 0.000000 0.000000 1.926680 
# 
# From -- ./inp_files/15303.got.cif
#   From: 2010.03.12/outbox.cif.g09.slc.cpg/sg53_8_cif.got.tgz:15303.got - 2010.04.16 14:36:59.
