data_PCOD8221668
_publ_section_title
;
Structure prediction by ZEFSAII (Michael W. Deem and Ramdas Pophale) SiO2 
 PCOD8221668
Probable space group: P M N A
;
_chemical_formula_sum "Si O2"
_cell_formula_units_Z 48
_cell_length_a 17.699357
_cell_length_b 15.349701
_cell_length_c 8.711702
_cell_angle_alpha 90.000000
_cell_angle_beta 90.000000
_cell_angle_gamma 90.000000
_cell_volume 2366.793787
_symmetry_space_group_name_H-M "P M N A"
_symmetry_group_IT_number 53
_symmetry_cell_setting 'orthorhombic'
loop_
_space_group_symop_operation_xyz
x,y,z
1/2-x,-y,1/2+z
x,-y,-z
1/2-x,y,1/2-z
-x,-y,-z
1/2+x,y,1/2-z
-x,y,z
1/2+x,-y,1/2+z
loop_
_atom_site_type_symbol
_atom_site_label
_atom_site_fract_x
_atom_site_fract_y
_atom_site_fract_z
Si Si1 0.090329 0.849110 0.878629
Si Si2 0.669906 0.323918 0.318991
Si Si3 0.329924 0.638730 0.325681
Si Si4 0.913510 0.516754 0.678272
Si Si5 0.418014 0.988979 0.178404
Si Si6 0.336109 0.168347 0.701542
O O1 0.112195 0.756768 0.803768
O O2 0.116838 0.926841 0.764662
O O3 0.000000 0.850090 0.912619
O O4 0.141940 0.861356 0.029596
O O5 0.750000 0.294408 0.250000
O O6 0.680449 0.357847 0.491803
O O7 0.637845 0.401589 0.217817
O O8 0.250000 0.615036 0.250000
O O9 0.390565 0.566791 0.278821
O O10 0.362349 0.732218 0.269034
O O11 0.901104 0.500000 0.500000
O O12 0.000000 0.537885 0.717888
O O13 0.500000 0.975375 0.253971
O O14 0.374124 0.899310 0.186799
O O15 0.424761 0.000000 0.000000
O O16 0.250000 0.162728 0.750000
#
# Coordination Sequence:
#
# PCOD8221668 Si02
#       6
#     8   8   8   8   8   8
#     4  10  22  41  64  89 122 165 209 253 305 368
#     4  11  23  39  63  90 121 158 199 252 307 361
#     4  10  22  40  60  85 117 154 197 244 301 359
#     4  11  24  40  60  87 119 157 200 247 301 364
#     4  10  22  38  58  86 121 161 201 246 302 363
#     4  10  22  38  60  89 118 155 203 256 309 361
#
# _framework density 20.280601000000001
#
# number of rings (size 3 to 8) (size 9 to 14) (size 15 to 20)
#    0.000    1.667    0.000    3.500    0.000   13.333 
#    0.000    3.333    0.000    0.000    0.000    0.000 
#    0.000    0.000    0.000    0.000    0.000    0.000 
#
# Total GULP energy -595056.365813 kJ/mol
# GULP energy per Si atom -12397.007621 kJ/mol
# Density = 2.023444 g / cm^3
# Si number density = 20.280601 Si / 1000 Ang^3
#
#
#
# Elastic Constant Matrix: (Units=GPa)
#
#
# Indices 1 2 3 4 5 6 
#
# 1 87.8046 48.8485 40.5981 0.0000 0.0000 0.0000
# 2 48.8485 109.7360 28.8685 0.0000 0.0000 0.0000
# 3 40.5981 28.8685 70.8341 0.0000 0.0000 0.0000
# 4 0.0000 0.0000 0.0000 22.8942 0.0000 0.0000
# 5 0.0000 0.0000 0.0000 0.0000 34.9589 0.0000
# 6 0.0000 0.0000 0.0000 0.0000 0.0000 38.4487
#
#
#
# Elastic Compliance Matrix: (Units=1/GPa)
#
#
# Indices 1 2 3 4 5 6 
#
# 1 0.018558 -0.006119 -0.008143 0.000000 0.000000 0.000000
# 2 -0.006119 0.012225 -0.001475 0.000000 0.000000 0.000000
# 3 -0.008143 -0.001475 0.019386 0.000000 0.000000 0.000000
# 4 0.000000 0.000000 0.000000 0.043679 0.000000 0.000000
# 5 0.000000 0.000000 0.000000 0.000000 0.028605 0.000000
# 6 0.000000 0.000000 0.000000 0.000000 0.000000 0.026009
#
#
# Mechanical properties :
#
#
# Convention : Reuss Voigt Hill
#
# Bulk Modulus (GPa) = 53.49066 56.11166 54.80116
# Shear Modulus (GPa) = 26.85775 29.26435 28.06105
#
# Velocity S-wave (km/s) = 3.64305 3.80277 3.72377
# Velocity P-wave (km/s) = 6.64291 6.85632 6.75046
#
# Compressibility (1/GPa) = 0.01869485
#
# Stress axis : x y z
#
# Youngs Moduli (GPa) = 53.88523 81.80189 51.58471
#
# Poissons Ratio (x) = 0.50054 0.42003
# Poissons Ratio (y) = 0.32972 0.07610
# Poissons Ratio (z) = 0.43877 0.12067
#
# Static dielectric constant tensor:
#      x y z
#    x 3.753820 0.000000 0.000000 
#    y 0.000000 3.992600 0.000000 
#    z 0.000000 0.000000 3.712850 
# 
# 
# High freq. dielectric constant tensor:
#      x y z
#    x 1.791080 0.000000 0.000000 
#    y 0.000000 1.810130 0.000000 
#    z 0.000000 0.000000 1.798000 
# 
# From -- ./inp_files/9963.got.cif
#   From: 2010.03.12/outbox.cif.g09.slc.cpg/sg53_5_cif.got.tgz:9963.got - 2010.04.16 14:36:59.
