data_PCOD8221886
_publ_section_title
;
Structure prediction by ZEFSAII (Michael W. Deem and Ramdas Pophale) SiO2 
 PCOD8221886
Probable space group: P M N A
;
_chemical_formula_sum "Si O2"
_cell_formula_units_Z 64
_cell_length_a 17.614115
_cell_length_b 11.301042
_cell_length_c 15.229468
_cell_angle_alpha 90.000000
_cell_angle_beta 90.000000
_cell_angle_gamma 90.000000
_cell_volume 3031.545209
_symmetry_space_group_name_H-M "P M N A"
_symmetry_group_IT_number 53
_symmetry_cell_setting 'orthorhombic'
loop_
_space_group_symop_operation_xyz
x,y,z
1/2-x,-y,1/2+z
x,-y,-z
1/2-x,y,1/2-z
-x,-y,-z
1/2+x,y,1/2-z
-x,y,z
1/2+x,-y,1/2+z
loop_
_atom_site_type_symbol
_atom_site_label
_atom_site_fract_x
_atom_site_fract_y
_atom_site_fract_z
Si Si1 0.909437 0.380518 0.048716
Si Si2 0.915468 0.508093 0.595335
Si Si3 0.415802 0.115630 0.203114
Si Si4 0.665464 0.898427 0.275574
Si Si5 0.915409 0.755969 0.370142
Si Si6 0.839648 0.865369 0.021797
Si Si7 0.333034 0.870207 0.973618
Si Si8 0.914952 0.367455 0.239761
O O1 0.876894 0.403634 0.147462
O O2 0.000000 0.376133 0.048889
O O3 0.880053 0.500000 0.000000
O O4 0.884528 0.251005 0.011934
O O5 0.872684 0.500000 0.500000
O O6 0.920924 0.382701 0.641715
O O7 0.873187 0.589098 0.669571
O O8 0.000000 0.561281 0.575981
O O9 0.500000 0.087246 0.165573
O O10 0.357733 0.147143 0.125971
O O11 0.418052 0.226722 0.266775
O O12 0.388226 0.010905 0.265278
O O13 0.750000 0.936458 0.250000
O O14 0.636912 0.798853 0.209009
O O15 0.662504 0.849939 0.373684
O O16 0.876990 0.779667 0.464069
O O17 0.000000 0.812792 0.366200
O O18 0.756808 0.854923 0.979520
O O19 0.872038 0.000000 0.000000
O O20 0.359536 0.000000 0.000000
O O21 0.000000 0.421609 0.245064
#
# Coordination Sequence:
#
# PCOD8221886 Si02
#       8
#     8   8   8   8   8   8   8   8
#     4  10  23  43  67  93 126 172 226 283 327 374
#     4   9  18  34  58  90 127 162 198 255 330 390
#     4  11  22  37  65  98 127 162 217 273 327 395
#     4  12  23  40  60  88 130 167 206 266 330 391
#     4  11  22  36  62  94 124 164 214 260 318 392
#     4  11  24  43  65  89 128 176 220 263 334 402
#     4  11  21  39  60  90 131 170 203 264 334 397
#     4   9  19  37  59  89 127 160 201 265 327 379
#
# _framework density 21.111346999999999
#
# number of rings (size 3 to 8) (size 9 to 14) (size 15 to 20)
#    0.000    1.500    2.500    3.000    1.750    3.750 
#    0.000    1.875    0.000    0.750    0.000    0.000 
#    0.000    0.000    0.000    0.000    0.000    0.000 
#
# Total GULP energy -792977.477401 kJ/mol
# GULP energy per Si atom -12390.273084 kJ/mol
# Density = 2.106330 g / cm^3
# Si number density = 21.111347 Si / 1000 Ang^3
#
#
#
# Elastic Constant Matrix: (Units=GPa)
#
#
# Indices 1 2 3 4 5 6 
#
# 1 65.5897 25.8102 28.4429 0.0000 0.0000 0.0000
# 2 25.8102 120.4638 43.4803 0.0000 0.0000 0.0000
# 3 28.4429 43.4803 161.0232 0.0000 0.0000 0.0000
# 4 0.0000 0.0000 0.0000 15.0481 0.0000 0.0000
# 5 0.0000 0.0000 0.0000 0.0000 28.6652 0.0000
# 6 0.0000 0.0000 0.0000 0.0000 0.0000 17.5745
#
#
#
# Elastic Compliance Matrix: (Units=1/GPa)
#
#
# Indices 1 2 3 4 5 6 
#
# 1 0.017379 -0.002898 -0.002287 0.000000 0.000000 0.000000
# 2 -0.002898 0.009681 -0.002102 0.000000 0.000000 0.000000
# 3 -0.002287 -0.002102 0.007182 0.000000 0.000000 0.000000
# 4 0.000000 0.000000 0.000000 0.066454 0.000000 0.000000
# 5 0.000000 0.000000 0.000000 0.000000 0.034886 0.000000
# 6 0.000000 0.000000 0.000000 0.000000 0.000000 0.056901
#
#
# Mechanical properties :
#
#
# Convention : Reuss Voigt Hill
#
# Bulk Modulus (GPa) = 50.84735 60.28261 55.56498
# Shear Modulus (GPa) = 23.40697 28.88043 26.14370
#
# Velocity S-wave (km/s) = 3.33339 3.70267 3.52287
# Velocity P-wave (km/s) = 6.24122 6.84808 6.55168
#
# Compressibility (1/GPa) = 0.01966671
#
# Stress axis : x y z
#
# Youngs Moduli (GPa) = 57.54236 103.29591 139.23816
#
# Poissons Ratio (x) = 0.29934 0.31847
# Poissons Ratio (y) = 0.16675 0.29271
# Poissons Ratio (z) = 0.13161 0.21715
#
# Static dielectric constant tensor:
#      x y z
#    x 3.639340 0.000000 0.000000 
#    y 0.000000 3.826660 0.000000 
#    z 0.000000 0.000000 3.105950 
# 
# 
# High freq. dielectric constant tensor:
#      x y z
#    x 1.791700 0.000000 0.000000 
#    y 0.000000 1.836600 0.000000 
#    z 0.000000 0.000000 1.842560 
# 
# From -- ./inp_files/23916.got.cif
#   From: 2010.03.12/outbox.cif.g09.slc.cpg/sg53_12_cif.got.tgz:23916.got - 2010.04.16 14:36:59.
