data_PCOD8221137
_publ_section_title
;
Structure prediction by ZEFSAII (Michael W. Deem and Ramdas Pophale) SiO2 
 PCOD8221137
Probable space group: P M N A
;
_chemical_formula_sum "Si O2"
_cell_formula_units_Z 32
_cell_length_a 10.464387
_cell_length_b 8.552774
_cell_length_c 16.928992
_cell_angle_alpha 90.000000
_cell_angle_beta 90.000000
_cell_angle_gamma 90.000000
_cell_volume 1515.136947
_symmetry_space_group_name_H-M "P M N A"
_symmetry_group_IT_number 53
_symmetry_cell_setting 'orthorhombic'
loop_
_space_group_symop_operation_xyz
x,y,z
1/2-x,-y,1/2+z
x,-y,-z
1/2-x,y,1/2-z
-x,-y,-z
1/2+x,y,1/2-z
-x,y,z
1/2+x,-y,1/2+z
loop_
_atom_site_type_symbol
_atom_site_label
_atom_site_fract_x
_atom_site_fract_y
_atom_site_fract_z
Si Si1 0.640550 0.491721 0.809065
Si Si2 0.362105 0.055664 0.411360
Si Si3 0.233919 0.348077 0.456928
Si Si4 0.143962 0.174087 0.608364
O O1 0.750000 0.552730 0.750000
O O2 0.500000 0.510113 0.770019
O O3 0.637697 0.590338 0.890031
O O4 0.667595 0.310927 0.828842
O O5 0.500000 0.024831 0.368869
O O6 0.339340 0.242584 0.412540
O O7 0.373424 0.000000 0.500000
O O8 0.246119 0.961586 0.369893
O O9 0.297264 0.500000 0.500000
O O10 0.159413 0.238992 0.519223
O O11 0.000000 0.106450 0.615593
#
# Coordination Sequence:
#
# PCOD8221137 Si02
#       4
#     8   8   8   8
#     4  10  21  36  54  78 106 137 174 216 264 315
#     4   9  18  31  50  80 111 136 169 215 264 310
#     4   9  18  33  55  81 107 136 174 217 258 306
#     4   9  18  34  56  78 102 137 178 217 257 306
#
# _framework density 21.120203
#
# number of rings (size 3 to 8) (size 9 to 14) (size 15 to 20)
#    0.000    2.750    0.000    0.750    0.000   11.000 
#    0.000    6.250    0.000    0.000    0.000    0.000 
#    0.000    0.000    0.000    0.000    0.000    0.000 
#
# Total GULP energy -396496.224169 kJ/mol
# GULP energy per Si atom -12390.507005 kJ/mol
# Density = 2.107213 g / cm^3
# Si number density = 21.120203 Si / 1000 Ang^3
#
#
#
# Elastic Constant Matrix: (Units=GPa)
#
#
# Indices 1 2 3 4 5 6 
#
# 1 173.3843 63.3994 26.6946 0.0000 0.0000 0.0000
# 2 63.3994 114.9555 7.1081 0.0000 0.0000 0.0000
# 3 26.6946 7.1081 46.1253 0.0000 0.0000 0.0000
# 4 0.0000 0.0000 0.0000 13.9449 0.0000 0.0000
# 5 0.0000 0.0000 0.0000 0.0000 0.4366 0.0000
# 6 0.0000 0.0000 0.0000 0.0000 0.0000 295.4344
#
#
#
# Elastic Compliance Matrix: (Units=1/GPa)
#
#
# Indices 1 2 3 4 5 6 
#
# 1 0.007870 -0.004098 -0.003923 0.000000 0.000000 0.000000
# 2 -0.004098 0.010916 0.000689 0.000000 0.000000 0.000000
# 3 -0.003923 0.000689 0.023844 0.000000 0.000000 0.000000
# 4 0.000000 0.000000 0.000000 0.071711 0.000000 0.000000
# 5 0.000000 0.000000 0.000000 0.000000 2.290293 0.000000
# 6 0.000000 0.000000 0.000000 0.000000 0.000000 0.003385
#
#
# Mechanical properties :
#
#
# Convention : Reuss Voigt Hill
#
# Bulk Modulus (GPa) = 35.75595 58.76326 47.25961
# Shear Modulus (GPa) = 2.05592 77.78071 39.91831
#
# Velocity S-wave (km/s) = 0.98770 6.07516 4.35219
# Velocity P-wave (km/s) = 4.27402 8.78031 6.90511
#
# Compressibility (1/GPa) = 0.02796737
#
# Stress axis : x y z
#
# Youngs Moduli (GPa) = 127.06555 91.60543 41.93859
#
# Poissons Ratio (x) = 0.37538 0.16453
# Poissons Ratio (y) = 0.52069 -0.02891
# Poissons Ratio (z) = 0.49850 -0.06314
#
# Static dielectric constant tensor:
#      x y z
#    x 4.033310 0.000000 0.000000 
#    y 0.000000 4.039660 0.000000 
#    z 0.000000 0.000000 3.346310 
# 
# 
# High freq. dielectric constant tensor:
#      x y z
#    x 1.822640 0.000000 0.000000 
#    y 0.000000 1.826510 0.000000 
#    z 0.000000 0.000000 1.785590 
# 
# From -- ./inp_files/21454.got.cif
#   From: 2010.03.12/outbox.cif.g09.slc.cpg/sg53_11_cif.got.tgz:21454.got - 2010.04.16 14:36:59.
