data_PCOD8221207
_publ_section_title
;
Structure prediction by ZEFSAII (Michael W. Deem and Ramdas Pophale) SiO2 
 PCOD8221207
Probable space group: P M N A
;
_chemical_formula_sum "Si O2"
_cell_formula_units_Z 48
_cell_length_a 8.660130
_cell_length_b 9.985480
_cell_length_c 29.070861
_cell_angle_alpha 90.000000
_cell_angle_beta 90.000000
_cell_angle_gamma 90.000000
_cell_volume 2513.918837
_symmetry_space_group_name_H-M "P M N A"
_symmetry_group_IT_number 53
_symmetry_cell_setting 'orthorhombic'
loop_
_space_group_symop_operation_xyz
x,y,z
1/2-x,-y,1/2+z
x,-y,-z
1/2-x,y,1/2-z
-x,-y,-z
1/2+x,y,1/2-z
-x,y,z
1/2+x,-y,1/2+z
loop_
_atom_site_type_symbol
_atom_site_label
_atom_site_fract_x
_atom_site_fract_y
_atom_site_fract_z
Si Si1 0.182839 0.007940 0.300089
Si Si2 0.682022 0.505544 0.372086
Si Si3 0.817946 0.786571 0.621193
Si Si4 0.682239 0.273727 0.700889
Si Si5 0.183384 0.864735 0.976577
Si Si6 0.316549 0.385099 0.532344
O O1 0.250000 0.044586 0.250000
O O2 0.236784 0.119273 0.336734
O O3 0.000000 0.000745 0.295835
O O4 0.244892 0.864369 0.317787
O O5 0.500000 0.479330 0.375311
O O6 0.762889 0.362840 0.367619
O O7 0.728453 0.599854 0.329975
O O8 0.743563 0.586271 0.416510
O O9 0.749322 0.844098 0.574146
O O10 0.000000 0.787218 0.616553
O O11 0.750000 0.309972 0.750000
O O12 0.500000 0.253053 0.703229
O O13 0.000000 0.861116 0.971832
O O14 0.246354 0.753330 0.011931
O O15 0.243017 0.000000 0.000000
O O16 0.248936 0.500000 0.500000
O O17 0.500000 0.384340 0.531681
#
# Coordination Sequence:
#
# PCOD8221207 Si02
#       6
#     8   8   8   8   8   8
#     4  10  22  40  60  83 113 150 189 234 284 338
#     4  10  21  37  59  85 112 148 192 234 277 334
#     4  11  24  39  56  83 120 153 186 234 290 340
#     4  10  21  37  61  88 115 147 186 235 286 342
#     4  10  21  36  59  85 111 149 193 236 277 330
#     4   9  16  32  56  81 110 140 182 235 273 313
#
# _framework density 19.093696000000001
#
# number of rings (size 3 to 8) (size 9 to 14) (size 15 to 20)
#    0.000    2.000    1.667    2.500    2.333    5.000 
#    0.000    5.000    0.000    0.000    0.000    0.000 
#    0.000    0.000    0.000    0.000    0.000    0.000 
#
# Total GULP energy -595146.068601 kJ/mol
# GULP energy per Si atom -12398.876429 kJ/mol
# Density = 1.905024 g / cm^3
# Si number density = 19.093696 Si / 1000 Ang^3
#
#
#
# Elastic Constant Matrix: (Units=GPa)
#
#
# Indices 1 2 3 4 5 6 
#
# 1 53.4407 42.9945 40.4204 0.0000 0.0000 0.0000
# 2 42.9945 190.7105 107.6491 0.0000 0.0000 0.0000
# 3 40.4204 107.6491 141.7468 0.0000 0.0000 0.0000
# 4 0.0000 0.0000 0.0000 44.1387 0.0000 0.0000
# 5 0.0000 0.0000 0.0000 0.0000 18.5807 0.0000
# 6 0.0000 0.0000 0.0000 0.0000 0.0000 18.6031
#
#
#
# Elastic Compliance Matrix: (Units=1/GPa)
#
#
# Indices 1 2 3 4 5 6 
#
# 1 0.024675 -0.002785 -0.004921 0.000000 0.000000 0.000000
# 2 -0.002785 0.009492 -0.006415 0.000000 0.000000 0.000000
# 3 -0.004921 -0.006415 0.013330 0.000000 0.000000 0.000000
# 4 0.000000 0.000000 0.000000 0.022656 0.000000 0.000000
# 5 0.000000 0.000000 0.000000 0.000000 0.053819 0.000000
# 6 0.000000 0.000000 0.000000 0.000000 0.000000 0.053754
#
#
# Mechanical properties :
#
#
# Convention : Reuss Voigt Hill
#
# Bulk Modulus (GPa) = 51.93376 85.33622 68.63499
# Shear Modulus (GPa) = 23.54189 29.25343 26.39766
#
# Velocity S-wave (km/s) = 3.51517 3.91845 3.72228
# Velocity P-wave (km/s) = 6.61315 8.07854 7.38229
#
# Compressibility (1/GPa) = 0.01925530
#
# Stress axis : x y z
#
# Youngs Moduli (GPa) = 40.52648 105.34889 75.01976
#
# Poissons Ratio (x) = 0.29339 0.36920
# Poissons Ratio (y) = 0.11287 0.48123
# Poissons Ratio (z) = 0.19944 0.67578
#
# Static dielectric constant tensor:
#      x y z
#    x 3.315580 0.000000 0.000000 
#    y 0.000000 3.751880 0.000000 
#    z 0.000000 0.000000 3.684300 
# 
# 
# High freq. dielectric constant tensor:
#      x y z
#    x 1.726210 0.000000 0.000000 
#    y 0.000000 1.756000 0.000000 
#    z 0.000000 0.000000 1.753240 
# 
# From -- ./inp_files/37727.got.cif
#   From: 2010.03.12/outbox.cif.g09.slc.cpg/sg53_19_cif.got.tgz:37727.got - 2010.04.16 14:36:59.
