data_PCOD8221827
_publ_section_title
;
Structure prediction by ZEFSAII (Michael W. Deem and Ramdas Pophale) SiO2 
 PCOD8221827
Probable space group: P M N A
;
_chemical_formula_sum "Si O2"
_cell_formula_units_Z 28
_cell_length_a 19.123647
_cell_length_b 5.101579
_cell_length_c 11.111158
_cell_angle_alpha 90.000000
_cell_angle_beta 90.000000
_cell_angle_gamma 90.000000
_cell_volume 1084.013418
_symmetry_space_group_name_H-M "P M N A"
_symmetry_group_IT_number 53
_symmetry_cell_setting 'orthorhombic'
loop_
_space_group_symop_operation_xyz
x,y,z
1/2-x,-y,1/2+z
x,-y,-z
1/2-x,y,1/2-z
-x,-y,-z
1/2+x,y,1/2-z
-x,y,z
1/2+x,-y,1/2+z
loop_
_atom_site_type_symbol
_atom_site_label
_atom_site_fract_x
_atom_site_fract_y
_atom_site_fract_z
Si Si1 0.179872 0.500000 0.000000
Si Si2 0.421915 0.700139 0.201961
Si Si3 0.723600 0.155759 0.877604
Si Si4 0.577170 0.198035 0.355479
O O1 0.228561 0.583670 0.112747
O O2 0.132141 0.255347 0.040019
O O3 0.500000 0.735896 0.143040
O O4 0.358568 0.769518 0.112357
O O5 0.412406 0.402245 0.245462
O O6 0.413144 0.900206 0.312900
O O7 0.750000 0.022512 0.750000
O O8 0.741205 0.000000 0.000000
O O9 0.500000 0.235404 0.410604
#
# Coordination Sequence:
#
# PCOD8221827 Si02
#       4
#     4   8   8   8
#     4  12  25  40  71 108 146 198 248 314 373 448
#     4  10  23  46  72 103 145 197 249 305 371 448
#     4  12  27  46  73 108 152 199 247 312 376 453
#     4  10  22  43  73 105 146 192 251 313 371 441
#
# _framework density 25.829937000000001
#
# number of rings (size 3 to 8) (size 9 to 14) (size 15 to 20)
#    0.000    1.143    2.857    2.143    4.000    1.714 
#    0.000    5.000    0.000    0.000    0.000    0.000 
#    0.000    0.000    0.000    0.000    0.000    0.000 
#
# Total GULP energy -346976.820256 kJ/mol
# GULP energy per Si atom -12392.029295 kJ/mol
# Density = 2.577115 g / cm^3
# Si number density = 25.829937 Si / 1000 Ang^3
#
#
#
# Elastic Constant Matrix: (Units=GPa)
#
#
# Indices 1 2 3 4 5 6 
#
# 1 190.1121 -6.8844 43.1178 0.0000 0.0000 0.0000
# 2 -6.8844 53.0635 15.7179 0.0000 0.0000 0.0000
# 3 43.1178 15.7179 117.5609 0.0000 0.0000 0.0000
# 4 0.0000 0.0000 0.0000 23.6818 0.0000 0.0000
# 5 0.0000 0.0000 0.0000 0.0000 39.9204 0.0000
# 6 0.0000 0.0000 0.0000 0.0000 0.0000 15.4783
#
#
#
# Elastic Compliance Matrix: (Units=1/GPa)
#
#
# Indices 1 2 3 4 5 6 
#
# 1 0.005843 0.001450 -0.002337 0.000000 0.000000 0.000000
# 2 0.001450 0.019982 -0.003204 0.000000 0.000000 0.000000
# 3 -0.002337 -0.003204 0.009792 0.000000 0.000000 0.000000
# 4 0.000000 0.000000 0.000000 0.042226 0.000000 0.000000
# 5 0.000000 0.000000 0.000000 0.000000 0.025050 0.000000
# 6 0.000000 0.000000 0.000000 0.000000 0.000000 0.064607
#
#
# Mechanical properties :
#
#
# Convention : Reuss Voigt Hill
#
# Bulk Modulus (GPa) = 36.44802 51.62656 44.03729
# Shear Modulus (GPa) = 27.05258 36.40178 31.72718
#
# Velocity S-wave (km/s) = 3.23977 3.75812 3.50853
# Velocity P-wave (km/s) = 5.30435 6.23392 5.78783
#
# Compressibility (1/GPa) = 0.02743633
#
# Stress axis : x y z
#
# Youngs Moduli (GPa) = 171.15811 50.04398 102.12835
#
# Poissons Ratio (x) = -0.07257 0.23865
# Poissons Ratio (y) = -0.24821 0.32717
# Poissons Ratio (z) = 0.39996 0.16032
#
# Static dielectric constant tensor:
#      x y z
#    x 5.297440 0.000000 0.000000 
#    y 0.000000 4.687750 0.000000 
#    z 0.000000 0.000000 4.138650 
# 
# 
# High freq. dielectric constant tensor:
#      x y z
#    x 2.073060 0.000000 0.000000 
#    y 0.000000 2.030430 0.000000 
#    z 0.000000 0.000000 1.989340 
# 
# From -- ./inp_files/17294.got.cif
#   From: 2010.03.12/outbox.cif.g09.slc.cpg/sg53_9_cif.got.tgz:17294.got - 2010.04.16 14:36:59.
