data_PCOD8221661
_publ_section_title
;
Structure prediction by ZEFSAII (Michael W. Deem and Ramdas Pophale) SiO2 
 PCOD8221661
Probable space group: P M N A
;
_chemical_formula_sum "Si O2"
_cell_formula_units_Z 56
_cell_length_a 19.813604
_cell_length_b 15.664091
_cell_length_c 8.958300
_cell_angle_alpha 90.000000
_cell_angle_beta 90.000000
_cell_angle_gamma 90.000000
_cell_volume 2780.316765
_symmetry_space_group_name_H-M "P M N A"
_symmetry_group_IT_number 53
_symmetry_cell_setting 'orthorhombic'
loop_
_space_group_symop_operation_xyz
x,y,z
1/2-x,-y,1/2+z
x,-y,-z
1/2-x,y,1/2-z
-x,-y,-z
1/2+x,y,1/2-z
-x,y,z
1/2+x,-y,1/2+z
loop_
_atom_site_type_symbol
_atom_site_label
_atom_site_fract_x
_atom_site_fract_y
_atom_site_fract_z
Si Si1 0.801121 0.071311 0.122436
Si Si2 0.074508 0.585844 0.297431
Si Si3 0.923697 0.815002 0.804596
Si Si4 0.122114 0.295798 0.456241
Si Si5 0.745214 0.787586 0.086893
Si Si6 0.634069 0.326599 0.518347
Si Si7 0.326294 0.564638 0.748053
O O1 0.750000 0.036207 0.250000
O O2 0.871940 0.104913 0.190852
O O3 0.762163 0.148554 0.045427
O O4 0.817901 0.000000 0.000000
O O5 0.074466 0.643809 0.445857
O O6 0.127653 0.509876 0.314426
O O7 0.000000 0.545572 0.283165
O O8 0.088016 0.643906 0.154171
O O9 0.921530 0.768742 0.643975
O O10 0.906057 0.747835 0.933877
O O11 0.000000 0.849029 0.828996
O O12 0.168735 0.242236 0.567580
O O13 0.170657 0.351143 0.349555
O O14 0.750000 0.831545 0.250000
O O15 0.794836 0.706599 0.081343
O O16 0.648516 0.409526 0.416594
O O17 0.250000 0.530201 0.750000
#
# Coordination Sequence:
#
# PCOD8221661 Si02
#       7
#     8   8   8   8   8   8   8
#     4  11  23  41  68 102 133 159 194 246 301 362
#     4  12  26  39  54  83 123 162 208 264 324 371
#     4  10  22  41  66  92 125 169 205 242 301 370
#     4  11  22  39  63  85 119 158 214 261 304 364
#     4  11  20  38  65  96 116 155 209 260 303 360
#     4  10  22  37  62  84 118 159 215 264 307 363
#     4  11  24  37  58  84 115 160 214 267 320 368
#
# _framework density 20.141590999999998
#
# number of rings (size 3 to 8) (size 9 to 14) (size 15 to 20)
#    0.000    1.143    4.286    2.143    2.000    6.000 
#    0.000    0.000    0.000    0.429    0.000    0.000 
#    0.000    0.000    0.000    0.000    0.000    0.000 
#
# Total GULP energy -694615.253232 kJ/mol
# GULP energy per Si atom -12403.843808 kJ/mol
# Density = 2.009575 g / cm^3
# Si number density = 20.141591 Si / 1000 Ang^3
#
#
#
# Elastic Constant Matrix: (Units=GPa)
#
#
# Indices 1 2 3 4 5 6 
#
# 1 140.7551 36.8291 27.1122 0.0000 0.0000 0.0000
# 2 36.8291 73.7411 22.9403 0.0000 0.0000 0.0000
# 3 27.1122 22.9403 102.3350 0.0000 0.0000 0.0000
# 4 0.0000 0.0000 0.0000 37.1133 0.0000 0.0000
# 5 0.0000 0.0000 0.0000 0.0000 22.2006 0.0000
# 6 0.0000 0.0000 0.0000 0.0000 0.0000 14.8026
#
#
#
# Elastic Compliance Matrix: (Units=1/GPa)
#
#
# Indices 1 2 3 4 5 6 
#
# 1 0.008348 -0.003742 -0.001373 0.000000 0.000000 0.000000
# 2 -0.003742 0.016255 -0.002652 0.000000 0.000000 0.000000
# 3 -0.001373 -0.002652 0.010730 0.000000 0.000000 0.000000
# 4 0.000000 0.000000 0.000000 0.026945 0.000000 0.000000
# 5 0.000000 0.000000 0.000000 0.000000 0.045044 0.000000
# 6 0.000000 0.000000 0.000000 0.000000 0.000000 0.067556
#
#
# Mechanical properties :
#
#
# Convention : Reuss Voigt Hill
#
# Bulk Modulus (GPa) = 50.50932 54.51050 52.50991
# Shear Modulus (GPa) = 25.37917 30.15327 27.76622
#
# Velocity S-wave (km/s) = 3.55355 3.87339 3.71691
# Velocity P-wave (km/s) = 6.47831 6.86488 6.67440
#
# Compressibility (1/GPa) = 0.01979833
#
# Stress axis : x y z
#
# Youngs Moduli (GPa) = 119.78687 61.51895 93.19559
#
# Poissons Ratio (x) = 0.23022 0.12794
# Poissons Ratio (y) = 0.44828 0.24719
# Poissons Ratio (z) = 0.16444 0.16317
#
# Static dielectric constant tensor:
#      x y z
#    x 3.524910 0.000000 0.000000 
#    y 0.000000 3.409400 0.000000 
#    z 0.000000 0.000000 3.804920 
# 
# 
# High freq. dielectric constant tensor:
#      x y z
#    x 1.782860 0.000000 0.000000 
#    y 0.000000 1.763150 0.000000 
#    z 0.000000 0.000000 1.801950 
# 
# From -- ./inp_files/11064.got.cif
#   From: 2010.03.12/outbox.cif.g09.slc.cpg/sg53_6_cif.got.tgz:11064.got - 2010.04.16 14:36:59.
