data_PCOD8221004
_publ_section_title
;
Structure prediction by ZEFSAII (Michael W. Deem and Ramdas Pophale) SiO2 
 PCOD8221004
Probable space group: P M N A
;
_chemical_formula_sum "Si O2"
_cell_formula_units_Z 20
_cell_length_a 9.873110
_cell_length_b 6.874903
_cell_length_c 14.065473
_cell_angle_alpha 90.000000
_cell_angle_beta 90.000000
_cell_angle_gamma 90.000000
_cell_volume 954.717519
_symmetry_space_group_name_H-M "P M N A"
_symmetry_group_IT_number 53
_symmetry_cell_setting 'orthorhombic'
loop_
_space_group_symop_operation_xyz
x,y,z
1/2-x,-y,1/2+z
x,-y,-z
1/2-x,y,1/2-z
-x,-y,-z
1/2+x,y,1/2-z
-x,y,z
1/2+x,-y,1/2+z
loop_
_atom_site_type_symbol
_atom_site_label
_atom_site_fract_x
_atom_site_fract_y
_atom_site_fract_z
Si Si1 0.704564 0.420257 0.393211
Si Si2 0.500000 0.084981 0.395737
Si Si3 0.000000 0.691937 0.209869
Si Si4 0.500000 0.480356 0.111872
O O1 0.697664 0.500000 0.500000
O O2 0.632686 0.214387 0.381900
O O3 0.634146 0.584878 0.329309
O O4 0.859321 0.374047 0.360240
O O5 0.500000 0.000000 0.500000
O O6 0.500000 0.916926 0.317294
O O7 0.000000 0.679869 0.325604
O O8 0.500000 0.500000 0.000000
#
# Coordination Sequence:
#
# PCOD8221004 Si02
#       4
#     8   4   4   4
#     4  10  20  39  65  94 130 168 210 270 328 389
#     4  11  19  37  71  99 119 160 222 267 319 390
#     4  11  20  39  67  92 124 167 221 262 319 390
#     4  10  23  41  62  88 132 178 210 261 334 384
#
# _framework density 20.948606000000002
#
# number of rings (size 3 to 8) (size 9 to 14) (size 15 to 20)
#    0.000    1.600    4.000    2.400    0.000    0.000 
#    0.000   19.000    0.000    0.000    0.000    0.000 
#    0.000    0.000    0.000    0.000    0.000    0.000 
#
# Total GULP energy -247789.421828 kJ/mol
# GULP energy per Si atom -12389.471091 kJ/mol
# Density = 2.090093 g / cm^3
# Si number density = 20.948606 Si / 1000 Ang^3
#
#
#
# Elastic Constant Matrix: (Units=GPa)
#
#
# Indices 1 2 3 4 5 6 
#
# 1 231.9794 78.5897 29.5643 0.0000 0.0000 0.0000
# 2 78.5897 163.2916 56.9550 0.0000 0.0000 0.0000
# 3 29.5643 56.9550 129.3738 0.0000 0.0000 0.0000
# 4 0.0000 0.0000 0.0000 35.9067 0.0000 0.0000
# 5 0.0000 0.0000 0.0000 0.0000 9.4297 0.0000
# 6 0.0000 0.0000 0.0000 0.0000 0.0000 0.5820
#
#
#
# Elastic Compliance Matrix: (Units=1/GPa)
#
#
# Indices 1 2 3 4 5 6 
#
# 1 0.005152 -0.002444 -0.000101 0.000000 0.000000 0.000000
# 2 -0.002444 0.008394 -0.003137 0.000000 0.000000 0.000000
# 3 -0.000101 -0.003137 0.009134 0.000000 0.000000 0.000000
# 4 0.000000 0.000000 0.000000 0.027850 0.000000 0.000000
# 5 0.000000 0.000000 0.000000 0.000000 0.106048 0.000000
# 6 0.000000 0.000000 0.000000 0.000000 0.000000 1.718332
#
#
# Mechanical properties :
#
#
# Convention : Reuss Voigt Hill
#
# Bulk Modulus (GPa) = 88.37774 94.98474 91.68124
# Shear Modulus (GPa) = 2.64544 33.15272 17.89908
#
# Velocity S-wave (km/s) = 1.12497 3.98247 2.92623
# Velocity P-wave (km/s) = 6.63075 8.16009 7.43485
#
# Compressibility (1/GPa) = 0.01131507
#
# Stress axis : x y z
#
# Youngs Moduli (GPa) = 194.11306 119.12581 109.48440
#
# Poissons Ratio (x) = 0.29115 0.01109
# Poissons Ratio (y) = 0.47443 0.34346
# Poissons Ratio (z) = 0.01966 0.37370
#
# Static dielectric constant tensor:
#      x y z
#    x 4.572770 0.000000 0.000000 
#    y 0.000000 3.373330 0.000000 
#    z 0.000000 0.000000 4.067400 
# 
# 
# High freq. dielectric constant tensor:
#      x y z
#    x 1.844590 0.000000 0.000000 
#    y 0.000000 1.780510 0.000000 
#    z 0.000000 0.000000 1.838890 
# 
# From -- ./inp_files/21125.got.cif
#   From: 2010.03.12/outbox.cif.g09.slc.cpg/sg53_11_cif.got.tgz:21125.got - 2010.04.16 14:36:59.
