data_PCOD8221054
_publ_section_title
;
Structure prediction by ZEFSAII (Michael W. Deem and Ramdas Pophale) SiO2 
 PCOD8221054
Probable space group: P M N A
;
_chemical_formula_sum "Si O2"
_cell_formula_units_Z 48
_cell_length_a 9.625904
_cell_length_b 30.182863
_cell_length_c 9.346748
_cell_angle_alpha 90.000000
_cell_angle_beta 90.000000
_cell_angle_gamma 90.000000
_cell_volume 2715.579317
_symmetry_space_group_name_H-M "P M N A"
_symmetry_group_IT_number 53
_symmetry_cell_setting 'orthorhombic'
loop_
_space_group_symop_operation_xyz
x,y,z
1/2-x,-y,1/2+z
x,-y,-z
1/2-x,y,1/2-z
-x,-y,-z
1/2+x,y,1/2-z
-x,y,z
1/2+x,-y,1/2+z
loop_
_atom_site_type_symbol
_atom_site_label
_atom_site_fract_x
_atom_site_fract_y
_atom_site_fract_z
Si Si1 0.159581 0.464289 0.614139
Si Si2 0.160521 0.886313 0.385535
Si Si3 0.339917 0.364097 0.888679
Si Si4 0.338322 0.960376 0.893701
Si Si5 0.661471 0.710895 0.891997
Si Si6 0.160053 0.215148 0.615794
O O1 0.209456 0.500000 0.500000
O O2 0.250000 0.474730 0.750000
O O3 0.185692 0.414356 0.557997
O O4 0.000000 0.471372 0.656013
O O5 0.250000 0.902481 0.250000
O O6 0.198571 0.914691 0.525380
O O7 0.194704 0.835523 0.424103
O O8 0.000000 0.893168 0.343407
O O9 0.250000 0.352745 0.750000
O O10 0.500000 0.356032 0.846552
O O11 0.294822 0.332024 0.016633
O O12 0.250000 0.963831 0.750000
O O13 0.500000 0.962676 0.851341
O O14 0.297945 0.000000 0.000000
O O15 0.750000 0.711236 0.750000
O O16 0.500000 0.709245 0.850660
O O17 0.697893 0.755223 0.979539
O O18 0.250000 0.231380 0.750000
O O19 0.000000 0.221323 0.659398
#
# Coordination Sequence:
#
# PCOD8221054 Si02
#       6
#     8   8   8   8   8   8
#     4   9  18  32  49  70  96 124 155 193 235 279
#     4   9  18  33  52  74  99 126 159 198 238 282
#     4   9  18  33  51  70  93 123 159 196 234 279
#     4  10  21  35  51  73 100 129 162 200 240 283
#     4  10  21  34  48  70  99 127 157 196 239 281
#     4   9  18  33  52  73  97 126 160 197 236 281
#
# _framework density 17.675785999999999
#
# number of rings (size 3 to 8) (size 9 to 14) (size 15 to 20)
#    0.000    2.667    0.000    1.000    0.000    4.000 
#    0.000    0.000    0.000    0.000    0.000    0.000 
#    0.000    0.000    0.000    0.000    0.000    0.000 
#
# Total GULP energy -595274.478289 kJ/mol
# GULP energy per Si atom -12401.551631 kJ/mol
# Density = 1.763556 g / cm^3
# Si number density = 17.675786 Si / 1000 Ang^3
#
#
#
# Elastic Constant Matrix: (Units=GPa)
#
#
# Indices 1 2 3 4 5 6 
#
# 1 70.7298 54.8239 80.7125 0.0000 0.0000 0.0000
# 2 54.8239 116.3293 89.0489 0.0000 0.0000 0.0000
# 3 80.7125 89.0489 155.9820 0.0000 0.0000 0.0000
# 4 0.0000 0.0000 0.0000 25.9960 0.0000 0.0000
# 5 0.0000 0.0000 0.0000 0.0000 41.1056 0.0000
# 6 0.0000 0.0000 0.0000 0.0000 0.0000 18.2269
#
#
#
# Elastic Compliance Matrix: (Units=1/GPa)
#
#
# Indices 1 2 3 4 5 6 
#
# 1 0.035975 -0.004804 -0.015872 0.000000 0.000000 0.000000
# 2 -0.004804 0.015911 -0.006597 0.000000 0.000000 0.000000
# 3 -0.015872 -0.006597 0.018391 0.000000 0.000000 0.000000
# 4 0.000000 0.000000 0.000000 0.038467 0.000000 0.000000
# 5 0.000000 0.000000 0.000000 0.000000 0.024328 0.000000
# 6 0.000000 0.000000 0.000000 0.000000 0.000000 0.054864
#
#
# Mechanical properties :
#
#
# Convention : Reuss Voigt Hill
#
# Bulk Modulus (GPa) = 63.58051 88.02350 75.80201
# Shear Modulus (GPa) = 20.18369 24.96277 22.57323
#
# Velocity S-wave (km/s) = 3.38284 3.76208 3.57749
# Velocity P-wave (km/s) = 7.16287 8.29325 7.74870
#
# Compressibility (1/GPa) = 0.01572809
#
# Stress axis : x y z
#
# Youngs Moduli (GPa) = 27.79740 62.85133 54.37587
#
# Poissons Ratio (x) = 0.30194 0.86307
# Poissons Ratio (y) = 0.13354 0.35874
# Poissons Ratio (z) = 0.44121 0.41465
#
# Static dielectric constant tensor:
#      x y z
#    x 3.274970 0.000000 0.000000 
#    y 0.000000 3.576320 0.000000 
#    z 0.000000 0.000000 3.113660 
# 
# 
# High freq. dielectric constant tensor:
#      x y z
#    x 1.682450 0.000000 0.000000 
#    y 0.000000 1.701370 0.000000 
#    z 0.000000 0.000000 1.670310 
# 
# From -- ./inp_files/6704.got.cif
#   From: 2010.03.12/outbox.cif.g09.slc.cpg/sg53_4_cif.got.tgz:6704.got - 2010.04.16 14:36:59.
