data_PCOD8221740
_publ_section_title
;
Structure prediction by ZEFSAII (Michael W. Deem and Ramdas Pophale) SiO2 
 PCOD8221740
Probable space group: P M N A
;
_chemical_formula_sum "Si O2"
_cell_formula_units_Z 48
_cell_length_a 27.308134
_cell_length_b 8.756779
_cell_length_c 9.412171
_cell_angle_alpha 90.000000
_cell_angle_beta 90.000000
_cell_angle_gamma 90.000000
_cell_volume 2250.744634
_symmetry_space_group_name_H-M "P M N A"
_symmetry_group_IT_number 53
_symmetry_cell_setting 'orthorhombic'
loop_
_space_group_symop_operation_xyz
x,y,z
1/2-x,-y,1/2+z
x,-y,-z
1/2-x,y,1/2-z
-x,-y,-z
1/2+x,y,1/2-z
-x,y,z
1/2+x,-y,1/2+z
loop_
_atom_site_type_symbol
_atom_site_label
_atom_site_fract_x
_atom_site_fract_y
_atom_site_fract_z
Si Si1 0.696590 0.640980 0.751791
Si Si2 0.557011 0.861471 0.721848
Si Si3 0.880316 0.668640 0.986809
Si Si4 0.115021 0.849556 0.268225
Si Si5 0.292617 0.022082 0.164311
Si Si6 0.607332 0.344821 0.049617
O O1 0.750000 0.549327 0.750000
O O2 0.671615 0.647932 0.595427
O O3 0.655312 0.588540 0.866500
O O4 0.712717 0.801876 0.809322
O O5 0.500000 0.844109 0.693756
O O6 0.584765 0.793095 0.585814
O O7 0.572014 0.757380 0.854801
O O8 0.567102 0.043596 0.745338
O O9 0.904883 0.500000 0.000000
O O10 0.872995 0.728007 0.146242
O O11 0.156215 0.977292 0.269431
O O12 0.118623 0.761590 0.415999
O O13 0.250000 0.932619 0.250000
O O14 0.286368 0.000000 0.000000
O O15 0.579583 0.500000 0.000000
#
# Coordination Sequence:
#
# PCOD8221740 Si02
#       6
#     8   8   8   8   8   8
#     4  10  22  40  61  91 133 171 214 262 305 368
#     4  11  25  45  68  94 123 160 213 269 323 386
#     4  11  25  43  64  94 130 171 209 258 325 382
#     4  12  22  40  68  93 125 166 216 265 312 377
#     4  11  22  36  62  97 129 168 218 268 313 366
#     4  11  23  43  66  93 131 169 207 260 322 382
#
# _framework density 21.326276
#
# number of rings (size 3 to 8) (size 9 to 14) (size 15 to 20)
#    0.000    1.000    5.000    3.000    4.667    4.000 
#    0.000    3.333    0.000    0.000    0.000    0.000 
#    0.000    0.000    0.000    0.000    0.000    0.000 
#
# Total GULP energy -594654.038165 kJ/mol
# GULP energy per Si atom -12388.625795 kJ/mol
# Density = 2.127774 g / cm^3
# Si number density = 21.326276 Si / 1000 Ang^3
#
#
#
# Elastic Constant Matrix: (Units=GPa)
#
#
# Indices 1 2 3 4 5 6 
#
# 1 101.1475 -5.9975 21.9996 0.0000 0.0000 0.0000
# 2 -5.9975 69.2708 6.5778 0.0000 0.0000 0.0000
# 3 21.9996 6.5778 96.7044 0.0000 0.0000 0.0000
# 4 0.0000 0.0000 0.0000 -29.7275 0.0000 0.0000
# 5 0.0000 0.0000 0.0000 0.0000 12.8703 0.0000
# 6 0.0000 0.0000 0.0000 0.0000 0.0000 4.6875
#
#
#
# Elastic Compliance Matrix: (Units=1/GPa)
#
#
# Indices 1 2 3 4 5 6 
#
# 1 0.010490 0.001142 -0.002464 0.000000 0.000000 0.000000
# 2 0.001142 0.014654 -0.001257 0.000000 0.000000 0.000000
# 3 -0.002464 -0.001257 0.010987 0.000000 0.000000 0.000000
# 4 0.000000 0.000000 0.000000 -0.033639 0.000000 0.000000
# 5 0.000000 0.000000 0.000000 0.000000 0.077698 0.000000
# 6 0.000000 0.000000 0.000000 0.000000 0.000000 0.213332
#
#
# Mechanical properties :
#
#
# Convention : Reuss Voigt Hill
#
# Bulk Modulus (GPa) = 32.28484 34.69806 33.49145
# Shear Modulus (GPa) = 16.18097 13.86891 15.02494
#
# Velocity S-wave (km/s) = 2.75750 2.55290 2.65717
# Velocity P-wave (km/s) = 5.03089 4.99952 5.01523
#
# Compressibility (1/GPa) = 0.03097429
#
# Stress axis : x y z
#
# Youngs Moduli (GPa) = 95.32673 68.23930 91.01793
#
# Poissons Ratio (x) = -0.07795 0.22428
# Poissons Ratio (y) = -0.10889 0.11438
# Poissons Ratio (z) = 0.23490 0.08575
#
# Static dielectric constant tensor:
#      x y z
#    x 4.183310 0.000000 0.000000 
#    y 0.000000 3.694360 0.000000 
#    z 0.000000 0.000000 4.272470 
# 
# 
# High freq. dielectric constant tensor:
#      x y z
#    x 1.819910 0.000000 0.000000 
#    y 0.000000 1.836630 0.000000 
#    z 0.000000 0.000000 1.854300 
# 
# From -- ./inp_files/12992.got.cif
#   From: 2010.03.12/outbox.cif.g09.slc.cpg/sg53_7_cif.got.tgz:12992.got - 2010.04.16 14:36:59.
