data_PCOD8221408
_publ_section_title
;
Structure prediction by ZEFSAII (Michael W. Deem and Ramdas Pophale) SiO2 
 PCOD8221408
Probable space group: P M N A
;
_chemical_formula_sum "Si O2"
_cell_formula_units_Z 40
_cell_length_a 21.342986
_cell_length_b 8.495018
_cell_length_c 9.907751
_cell_angle_alpha 90.000000
_cell_angle_beta 90.000000
_cell_angle_gamma 90.000000
_cell_volume 1796.364924
_symmetry_space_group_name_H-M "P M N A"
_symmetry_group_IT_number 53
_symmetry_cell_setting 'orthorhombic'
loop_
_space_group_symop_operation_xyz
x,y,z
1/2-x,-y,1/2+z
x,-y,-z
1/2-x,y,1/2-z
-x,-y,-z
1/2+x,y,1/2-z
-x,y,z
1/2+x,-y,1/2+z
loop_
_atom_site_type_symbol
_atom_site_label
_atom_site_fract_x
_atom_site_fract_y
_atom_site_fract_z
Si Si1 0.125235 0.825009 0.540132
Si Si2 0.425262 0.641677 0.205335
Si Si3 0.380739 0.317428 0.313277
Si Si4 0.570288 0.158288 0.553187
Si Si5 0.236204 0.130836 0.102729
O O1 0.093012 0.694449 0.444840
O O2 0.100895 0.800975 0.692353
O O3 0.200248 0.800822 0.536048
O O4 0.104411 0.000000 0.500000
O O5 0.500000 0.608501 0.214927
O O6 0.385356 0.490997 0.252057
O O7 0.401099 0.777741 0.307277
O O8 0.428407 0.292355 0.437048
O O9 0.312028 0.275696 0.375271
O O10 0.500000 0.112373 0.588331
O O11 0.605690 0.000000 0.500000
O O12 0.250000 0.053440 0.250000
O O13 0.208710 0.000000 0.000000
#
# Coordination Sequence:
#
# PCOD8221408 Si02
#       5
#     8   8   8   8   8
#     4  10  22  41  64  90 121 162 213 261 311 374
#     4  11  24  41  62  92 129 167 209 261 317 372
#     4  11  21  37  61  89 124 161 201 252 316 375
#     4  10  21  38  60  86 117 157 206 254 302 363
#     4   9  20  39  63  91 123 160 207 262 315 374
#
# _framework density 22.267188000000001
#
# number of rings (size 3 to 8) (size 9 to 14) (size 15 to 20)
#    0.000    1.800    0.000    3.600    0.000    7.600 
#    0.000   12.000    0.000    0.000    0.000    0.000 
#    0.000    0.000    0.000    0.000    0.000    0.000 
#
# Total GULP energy -495758.890306 kJ/mol
# GULP energy per Si atom -12393.972258 kJ/mol
# Density = 2.221651 g / cm^3
# Si number density = 22.267188 Si / 1000 Ang^3
#
#
#
# Elastic Constant Matrix: (Units=GPa)
#
#
# Indices 1 2 3 4 5 6 
#
# 1 74.2613 31.0253 29.9705 0.0000 0.0000 0.0000
# 2 31.0253 86.3826 16.1208 0.0000 0.0000 0.0000
# 3 29.9705 16.1208 105.6195 0.0000 0.0000 0.0000
# 4 0.0000 0.0000 0.0000 49.6616 0.0000 0.0000
# 5 0.0000 0.0000 0.0000 0.0000 35.5853 0.0000
# 6 0.0000 0.0000 0.0000 0.0000 0.0000 26.8511
#
#
#
# Elastic Compliance Matrix: (Units=1/GPa)
#
#
# Indices 1 2 3 4 5 6 
#
# 1 0.017416 -0.005489 -0.004104 0.000000 0.000000 0.000000
# 2 -0.005489 0.013646 -0.000525 0.000000 0.000000 0.000000
# 3 -0.004104 -0.000525 0.010713 0.000000 0.000000 0.000000
# 4 0.000000 0.000000 0.000000 0.020136 0.000000 0.000000
# 5 0.000000 0.000000 0.000000 0.000000 0.028101 0.000000
# 6 0.000000 0.000000 0.000000 0.000000 0.000000 0.037242
#
#
# Mechanical properties :
#
#
# Convention : Reuss Voigt Hill
#
# Bulk Modulus (GPa) = 46.43073 46.72186 46.57630
# Shear Modulus (GPa) = 32.32689 35.02939 33.67814
#
# Velocity S-wave (km/s) = 3.81435 3.97058 3.89325
# Velocity P-wave (km/s) = 6.34790 6.48449 6.41656
#
# Compressibility (1/GPa) = 0.02153746
#
# Stress axis : x y z
#
# Youngs Moduli (GPa) = 57.41998 73.28209 93.34743
#
# Poissons Ratio (x) = 0.40225 0.38310
# Poissons Ratio (y) = 0.31518 0.04903
# Poissons Ratio (z) = 0.23565 0.03849
#
# Static dielectric constant tensor:
#      x y z
#    x 3.847780 0.000000 0.000000 
#    y 0.000000 3.967080 0.000000 
#    z 0.000000 0.000000 4.321190 
# 
# 
# High freq. dielectric constant tensor:
#      x y z
#    x 1.868080 0.000000 0.000000 
#    y 0.000000 1.859020 0.000000 
#    z 0.000000 0.000000 1.897950 
# 
# From -- ./inp_files/11533.got.cif
#   From: 2010.03.12/outbox.cif.g09.slc.cpg/sg53_6_cif.got.tgz:11533.got - 2010.04.16 14:36:59.
