data_PCOD8221874
_publ_section_title
;
Structure prediction by ZEFSAII (Michael W. Deem and Ramdas Pophale) SiO2 
 PCOD8221874
Probable space group: P M N A
;
_chemical_formula_sum "Si O2"
_cell_formula_units_Z 40
_cell_length_a 8.386690
_cell_length_b 12.750078
_cell_length_c 17.320273
_cell_angle_alpha 90.000000
_cell_angle_beta 90.000000
_cell_angle_gamma 90.000000
_cell_volume 1852.073275
_symmetry_space_group_name_H-M "P M N A"
_symmetry_group_IT_number 53
_symmetry_cell_setting 'orthorhombic'
loop_
_space_group_symop_operation_xyz
x,y,z
1/2-x,-y,1/2+z
x,-y,-z
1/2-x,y,1/2-z
-x,-y,-z
1/2+x,y,1/2-z
-x,y,z
1/2+x,-y,1/2+z
loop_
_atom_site_type_symbol
_atom_site_label
_atom_site_fract_x
_atom_site_fract_y
_atom_site_fract_z
Si Si1 0.309427 0.259366 0.339016
Si Si2 0.815704 0.135949 0.666636
Si Si3 0.821066 0.529571 0.588835
Si Si4 0.683900 0.048758 0.421833
Si Si5 0.318205 0.659717 0.332566
O O1 0.250000 0.258570 0.250000
O O2 0.500000 0.261647 0.337052
O O3 0.242164 0.355402 0.388951
O O4 0.245265 0.156589 0.386410
O O5 0.750000 0.166909 0.750000
O O6 0.779269 0.246063 0.622748
O O7 0.000000 0.104321 0.662507
O O8 0.707527 0.039664 0.641859
O O9 0.825489 0.500000 0.500000
O O10 0.696030 0.447536 0.621842
O O11 0.000000 0.517914 0.623334
O O12 0.500000 0.068608 0.439776
O O13 0.766629 0.000000 0.500000
O O14 0.250000 0.631071 0.250000
O O15 0.500000 0.696085 0.327229
#
# Coordination Sequence:
#
# PCOD8221874 Si02
#       5
#     8   8   8   8   8
#     4  11  24  43  68  96 130 175 223 269 323 389
#     4  11  22  38  62  92 125 164 209 257 315 375
#     4  11  25  43  64  93 130 166 209 265 323 384
#     4  10  23  42  64  94 130 169 213 265 323 382
#     4  11  22  39  64  91 124 163 208 257 313 377
#
# _framework density 21.59742
#
# number of rings (size 3 to 8) (size 9 to 14) (size 15 to 20)
#    0.000    1.200    0.000    7.200    2.800    5.200 
#    0.000    0.000    0.000    0.000    0.000    0.000 
#    0.000    0.000    0.000    0.000    0.000    0.000 
#
# Total GULP energy -495669.881311 kJ/mol
# GULP energy per Si atom -12391.747033 kJ/mol
# Density = 2.154826 g / cm^3
# Si number density = 21.597420 Si / 1000 Ang^3
#
#
#
# Elastic Constant Matrix: (Units=GPa)
#
#
# Indices 1 2 3 4 5 6 
#
# 1 79.8501 19.4486 29.3939 0.0000 0.0000 0.0000
# 2 19.4486 185.4712 59.4323 0.0000 0.0000 0.0000
# 3 29.3939 59.4323 87.1985 0.0000 0.0000 0.0000
# 4 0.0000 0.0000 0.0000 37.0901 0.0000 0.0000
# 5 0.0000 0.0000 0.0000 0.0000 23.2875 0.0000
# 6 0.0000 0.0000 0.0000 0.0000 0.0000 33.1125
#
#
#
# Elastic Compliance Matrix: (Units=1/GPa)
#
#
# Indices 1 2 3 4 5 6 
#
# 1 0.014298 0.000058 -0.004859 0.000000 0.000000 0.000000
# 2 0.000058 0.006899 -0.004721 0.000000 0.000000 0.000000
# 3 -0.004859 -0.004721 0.016324 0.000000 0.000000 0.000000
# 4 0.000000 0.000000 0.000000 0.026961 0.000000 0.000000
# 5 0.000000 0.000000 0.000000 0.000000 0.042942 0.000000
# 6 0.000000 0.000000 0.000000 0.000000 0.000000 0.030200
#
#
# Mechanical properties :
#
#
# Convention : Reuss Voigt Hill
#
# Bulk Modulus (GPa) = 54.12658 63.22993 58.67825
# Shear Modulus (GPa) = 30.70736 34.98102 32.84419
#
# Velocity S-wave (km/s) = 3.77478 4.02890 3.90390
# Velocity P-wave (km/s) = 6.64188 7.14023 6.89556
#
# Compressibility (1/GPa) = 0.01847521
#
# Stress axis : x y z
#
# Youngs Moduli (GPa) = 69.93934 144.95866 61.25951
#
# Poissons Ratio (x) = -0.00837 0.29767
# Poissons Ratio (y) = -0.00404 0.28923
# Poissons Ratio (z) = 0.33984 0.68440
#
# Static dielectric constant tensor:
#      x y z
#    x 4.056460 0.000000 0.000000 
#    y 0.000000 4.226070 0.000000 
#    z 0.000000 0.000000 3.825350 
# 
# 
# High freq. dielectric constant tensor:
#      x y z
#    x 1.845980 0.000000 0.000000 
#    y 0.000000 1.874440 0.000000 
#    z 0.000000 0.000000 1.839090 
# 
# From -- ./inp_files/25834.got.cif
#   From: 2010.03.12/outbox.cif.g09.slc.cpg/sg53_13_cif.got.tgz:25834.got - 2010.04.16 14:36:59.
