data_PCOD8221917
_publ_section_title
;
Structure prediction by ZEFSAII (Michael W. Deem and Ramdas Pophale) SiO2 
 PCOD8221917
Probable space group: P M N A
;
_chemical_formula_sum "Si O2"
_cell_formula_units_Z 64
_cell_length_a 17.926754
_cell_length_b 11.443696
_cell_length_c 14.809159
_cell_angle_alpha 90.000000
_cell_angle_beta 90.000000
_cell_angle_gamma 90.000000
_cell_volume 3038.074135
_symmetry_space_group_name_H-M "P M N A"
_symmetry_group_IT_number 53
_symmetry_cell_setting 'orthorhombic'
loop_
_space_group_symop_operation_xyz
x,y,z
1/2-x,-y,1/2+z
x,-y,-z
1/2-x,y,1/2-z
-x,-y,-z
1/2+x,y,1/2-z
-x,y,z
1/2+x,-y,1/2+z
loop_
_atom_site_type_symbol
_atom_site_label
_atom_site_fract_x
_atom_site_fract_y
_atom_site_fract_z
Si Si1 0.165513 0.001441 0.730336
Si Si2 0.300437 0.441928 0.904720
Si Si3 0.087301 0.171063 0.403303
Si Si4 0.416097 0.665161 0.463627
Si Si5 0.645998 0.544658 0.629174
Si Si6 0.807731 0.168888 0.573826
Si Si7 0.143566 0.086707 0.924415
Si Si8 0.414585 0.413603 0.187536
O O1 0.250000 0.959371 0.750000
O O2 0.161693 0.116702 0.667617
O O3 0.128467 0.031371 0.826251
O O4 0.119052 0.899826 0.681798
O O5 0.230040 0.501076 0.855800
O O6 0.290712 0.304188 0.911771
O O7 0.373489 0.469942 0.846427
O O8 0.312623 0.500000 0.000000
O O9 0.133335 0.142238 0.494016
O O10 0.098320 0.307105 0.381073
O O11 0.000000 0.140978 0.418483
O O12 0.500000 0.658236 0.501360
O O13 0.405926 0.569594 0.384598
O O14 0.358179 0.631540 0.543253
O O15 0.400686 0.792586 0.425782
O O16 0.618068 0.619008 0.714404
O O17 0.730277 0.105696 0.551298
O O18 0.110230 0.000000 0.000000
O O19 0.500000 0.447011 0.195678
#
# Coordination Sequence:
#
# PCOD8221917 Si02
#       8
#     8   8   8   8   8   8   8   8
#     4  10  24  42  67  95 129 179 228 282 336 395
#     4  12  22  41  69  98 130 173 221 270 333 408
#     4  11  25  45  69 101 139 179 228 280 338 408
#     4  11  23  40  65  92 130 172 219 278 337 393
#     4  11  22  43  66  96 130 173 224 271 327 405
#     4  11  22  44  69  95 133 172 224 281 335 398
#     4  11  24  42  66  95 132 175 227 281 338 400
#     4  11  26  41  64 101 139 175 214 275 344 400
#
# _framework density 21.065975999999999
#
# number of rings (size 3 to 8) (size 9 to 14) (size 15 to 20)
#    0.000    1.000    3.750    3.750    3.500    4.500 
#    0.000    0.000    0.000    0.000    0.000    0.000 
#    0.000    0.000    0.000    0.000    0.000    0.000 
#
# Total GULP energy -793792.605424 kJ/mol
# GULP energy per Si atom -12403.009460 kJ/mol
# Density = 2.101803 g / cm^3
# Si number density = 21.065976 Si / 1000 Ang^3
#
#
#
# Elastic Constant Matrix: (Units=GPa)
#
#
# Indices 1 2 3 4 5 6 
#
# 1 111.8647 22.0131 46.6259 0.0000 0.0000 0.0000
# 2 22.0131 65.5790 26.6850 0.0000 0.0000 0.0000
# 3 46.6259 26.6850 111.4089 0.0000 0.0000 0.0000
# 4 0.0000 0.0000 0.0000 31.0821 0.0000 0.0000
# 5 0.0000 0.0000 0.0000 0.0000 31.2216 0.0000
# 6 0.0000 0.0000 0.0000 0.0000 0.0000 17.1728
#
#
#
# Elastic Compliance Matrix: (Units=1/GPa)
#
#
# Indices 1 2 3 4 5 6 
#
# 1 0.011066 -0.002028 -0.004146 0.000000 0.000000 0.000000
# 2 -0.002028 0.017267 -0.003287 0.000000 0.000000 0.000000
# 3 -0.004146 -0.003287 0.011498 0.000000 0.000000 0.000000
# 4 0.000000 0.000000 0.000000 0.032173 0.000000 0.000000
# 5 0.000000 0.000000 0.000000 0.000000 0.032029 0.000000
# 6 0.000000 0.000000 0.000000 0.000000 0.000000 0.058232
#
#
# Mechanical properties :
#
#
# Convention : Reuss Voigt Hill
#
# Bulk Modulus (GPa) = 47.82306 53.27784 50.55045
# Shear Modulus (GPa) = 26.57358 28.79721 27.68539
#
# Velocity S-wave (km/s) = 3.55554 3.70131 3.62915
# Velocity P-wave (km/s) = 6.29338 6.60395 6.45053
#
# Compressibility (1/GPa) = 0.02091041
#
# Stress axis : x y z
#
# Youngs Moduli (GPa) = 90.36401 57.91376 86.96911
#
# Poissons Ratio (x) = 0.11743 0.36055
# Poissons Ratio (y) = 0.18323 0.28589
# Poissons Ratio (z) = 0.37462 0.19038
#
# Static dielectric constant tensor:
#      x y z
#    x 3.845610 0.000000 0.000000 
#    y 0.000000 3.751060 0.000000 
#    z 0.000000 0.000000 3.851310 
# 
# 
# High freq. dielectric constant tensor:
#      x y z
#    x 1.824630 0.000000 0.000000 
#    y 0.000000 1.825520 0.000000 
#    z 0.000000 0.000000 1.830510 
# 
# From -- ./inp_files/23888.got.cif
#   From: 2010.03.12/outbox.cif.g09.slc.cpg/sg53_12_cif.got.tgz:23888.got - 2010.04.16 14:36:59.
