data_PCOD8221161
_publ_section_title
;
Structure prediction by ZEFSAII (Michael W. Deem and Ramdas Pophale) SiO2 
 PCOD8221161
Probable space group: P M N A
;
_chemical_formula_sum "Si O2"
_cell_formula_units_Z 48
_cell_length_a 8.729295
_cell_length_b 30.688237
_cell_length_c 8.884297
_cell_angle_alpha 90.000000
_cell_angle_beta 90.000000
_cell_angle_gamma 90.000000
_cell_volume 2379.984772
_symmetry_space_group_name_H-M "P M N A"
_symmetry_group_IT_number 53
_symmetry_cell_setting 'orthorhombic'
loop_
_space_group_symop_operation_xyz
x,y,z
1/2-x,-y,1/2+z
x,-y,-z
1/2-x,y,1/2-z
-x,-y,-z
1/2+x,y,1/2-z
-x,y,z
1/2+x,-y,1/2+z
loop_
_atom_site_type_symbol
_atom_site_label
_atom_site_fract_x
_atom_site_fract_y
_atom_site_fract_z
Si Si1 0.681519 0.871197 0.585642
Si Si2 0.318825 0.379051 0.911594
Si Si3 0.819150 0.299745 0.086026
Si Si4 0.824726 0.543860 0.907118
Si Si5 0.679874 0.786447 0.412456
Si Si6 0.318688 0.042885 0.585476
O O1 0.750000 0.867242 0.750000
O O2 0.500000 0.870097 0.599774
O O3 0.742465 0.831230 0.484322
O O4 0.739643 0.915539 0.508302
O O5 0.250000 0.389916 0.750000
O O6 0.500000 0.374982 0.899706
O O7 0.250948 0.334016 0.970756
O O8 0.274946 0.418002 0.021464
O O9 0.750000 0.306898 0.250000
O O10 0.000000 0.306416 0.094555
O O11 0.773393 0.252194 0.025326
O O12 0.750000 0.532115 0.750000
O O13 0.000000 0.559750 0.890318
O O14 0.814601 0.500000 0.000000
O O15 0.750000 0.778160 0.250000
O O16 0.500000 0.788673 0.390329
O O17 0.250000 0.044547 0.750000
O O18 0.500000 0.042673 0.600005
O O19 0.258565 0.000000 0.500000
#
# Coordination Sequence:
#
# PCOD8221161 Si02
#       6
#     8   8   8   8   8   8
#     4  10  21  37  56  82 113 146 188 234 283 340
#     4  12  25  42  64  90 122 158 198 244 294 348
#     4  11  23  40  61  87 118 153 195 240 291 347
#     4  11  24  42  65  93 125 161 201 245 294 347
#     4  10  22  38  58  84 114 149 190 237 287 343
#     4  10  21  36  55  81 112 146 187 233 281 338
#
# _framework density 20.168195000000001
#
# number of rings (size 3 to 8) (size 9 to 14) (size 15 to 20)
#    0.000    1.333    0.000    5.500    0.000    7.000 
#    0.000    0.000    0.000    0.000    0.000    0.000 
#    0.000    0.000    0.000    0.000    0.000    0.000 
#
# Total GULP energy -595488.693945 kJ/mol
# GULP energy per Si atom -12406.014457 kJ/mol
# Density = 2.012229 g / cm^3
# Si number density = 20.168195 Si / 1000 Ang^3
#
#
#
# Elastic Constant Matrix: (Units=GPa)
#
#
# Indices 1 2 3 4 5 6 
#
# 1 76.5197 43.1924 41.9086 0.0000 0.0000 0.0000
# 2 43.1924 112.5282 23.3054 0.0000 0.0000 0.0000
# 3 41.9086 23.3054 123.9729 0.0000 0.0000 0.0000
# 4 0.0000 0.0000 0.0000 89.1887 0.0000 0.0000
# 5 0.0000 0.0000 0.0000 0.0000 40.0458 0.0000
# 6 0.0000 0.0000 0.0000 0.0000 0.0000 56.9690
#
#
#
# Elastic Compliance Matrix: (Units=1/GPa)
#
#
# Indices 1 2 3 4 5 6 
#
# 1 0.019677 -0.006425 -0.005444 0.000000 0.000000 0.000000
# 2 -0.006425 0.011345 0.000039 0.000000 0.000000 0.000000
# 3 -0.005444 0.000039 0.009899 0.000000 0.000000 0.000000
# 4 0.000000 0.000000 0.000000 0.011212 0.000000 0.000000
# 5 0.000000 0.000000 0.000000 0.000000 0.024971 0.000000
# 6 0.000000 0.000000 0.000000 0.000000 0.000000 0.017553
#
#
# Mechanical properties :
#
#
# Convention : Reuss Voigt Hill
#
# Bulk Modulus (GPa) = 57.93299 58.87043 58.40171
# Shear Modulus (GPa) = 40.29956 50.88166 45.59061
#
# Velocity S-wave (km/s) = 4.47494 5.02826 4.75965
# Velocity P-wave (km/s) = 7.44899 7.93501 7.69584
#
# Compressibility (1/GPa) = 0.01726132
#
# Stress axis : x y z
#
# Youngs Moduli (GPa) = 50.82125 88.14658 101.01883
#
# Poissons Ratio (x) = 0.56636 0.54993
# Poissons Ratio (y) = 0.32654 -0.00397
# Poissons Ratio (z) = 0.27666 -0.00347
#
# Static dielectric constant tensor:
#      x y z
#    x 3.679950 0.000000 0.000000 
#    y 0.000000 4.200870 0.000000 
#    z 0.000000 0.000000 4.136650 
# 
# 
# High freq. dielectric constant tensor:
#      x y z
#    x 1.787240 0.000000 0.000000 
#    y 0.000000 1.808240 0.000000 
#    z 0.000000 0.000000 1.804980 
# 
# From -- ./inp_files/6658.got.cif
#   From: 2010.03.12/outbox.cif.g09.slc.cpg/sg53_4_cif.got.tgz:6658.got - 2010.04.16 14:36:59.
