data_PCOD8221081
_publ_section_title
;
Structure prediction by ZEFSAII (Michael W. Deem and Ramdas Pophale) SiO2 
 PCOD8221081
Probable space group: P M N A
;
_chemical_formula_sum "Si O2"
_cell_formula_units_Z 48
_cell_length_a 9.548920
_cell_length_b 30.895560
_cell_length_c 8.924082
_cell_angle_alpha 90.000000
_cell_angle_beta 90.000000
_cell_angle_gamma 90.000000
_cell_volume 2632.775807
_symmetry_space_group_name_H-M "P M N A"
_symmetry_group_IT_number 53
_symmetry_cell_setting 'orthorhombic'
loop_
_space_group_symop_operation_xyz
x,y,z
1/2-x,-y,1/2+z
x,-y,-z
1/2-x,y,1/2-z
-x,-y,-z
1/2+x,y,1/2-z
-x,y,z
1/2+x,-y,1/2+z
loop_
_atom_site_type_symbol
_atom_site_label
_atom_site_fract_x
_atom_site_fract_y
_atom_site_fract_z
Si Si1 0.163004 0.286913 0.100992
Si Si2 0.163194 0.123580 0.098958
Si Si3 0.160548 0.538009 0.104570
Si Si4 0.337297 0.205291 0.599409
Si Si5 0.163114 0.958872 0.098826
Si Si6 0.161009 0.365437 0.898871
O O1 0.250000 0.278589 0.250000
O O2 0.000000 0.285946 0.144414
O O3 0.199464 0.250320 0.980148
O O4 0.208160 0.332717 0.029022
O O5 0.250000 0.120170 0.250000
O O6 0.000000 0.123036 0.141495
O O7 0.205620 0.167214 0.013369
O O8 0.203422 0.083739 0.993135
O O9 0.250000 0.534226 0.250000
O O10 0.181402 0.586022 0.035078
O O11 0.000000 0.529597 0.146553
O O12 0.217772 0.500000 0.000000
O O13 0.250000 0.200952 0.750000
O O14 0.500000 0.202256 0.642669
O O15 0.250000 0.959704 0.250000
O O16 0.000000 0.959656 0.141314
O O17 0.205539 0.000000 0.000000
O O18 0.250000 0.357518 0.750000
O O19 0.000000 0.356943 0.854088
#
# Coordination Sequence:
#
# PCOD8221081 Si02
#       6
#     8   8   8   8   8   8
#     4  10  21  35  51  74 102 130 163 203 246 293
#     4  10  21  36  54  78 106 135 170 210 251 298
#     4   9  18  32  49  70  97 127 160 200 243 288
#     4  10  21  36  54  77 103 132 168 207 247 295
#     4  10  21  36  54  78 106 136 173 213 253 301
#     4   9  18  33  51  71  96 127 163 201 242 290
#
# _framework density 18.231708000000001
#
# number of rings (size 3 to 8) (size 9 to 14) (size 15 to 20)
#    0.000    2.333    0.000    2.000    0.000    4.000 
#    0.000    0.000    0.000    0.000    0.000    0.000 
#    0.000    0.000    0.000    0.000    0.000    0.000 
#
# Total GULP energy -595285.417950 kJ/mol
# GULP energy per Si atom -12401.779541 kJ/mol
# Density = 1.819021 g / cm^3
# Si number density = 18.231708 Si / 1000 Ang^3
#
#
#
# Elastic Constant Matrix: (Units=GPa)
#
#
# Indices 1 2 3 4 5 6 
#
# 1 61.6713 45.2824 67.1104 0.0000 0.0000 0.0000
# 2 45.2824 140.4801 66.9350 0.0000 0.0000 0.0000
# 3 67.1104 66.9350 130.3572 0.0000 0.0000 0.0000
# 4 0.0000 0.0000 0.0000 28.0933 0.0000 0.0000
# 5 0.0000 0.0000 0.0000 0.0000 37.1642 0.0000
# 6 0.0000 0.0000 0.0000 0.0000 0.0000 -124.1704
#
#
#
# Elastic Compliance Matrix: (Units=1/GPa)
#
#
# Indices 1 2 3 4 5 6 
#
# 1 0.038435 -0.003920 -0.017774 0.000000 0.000000 0.000000
# 2 -0.003920 0.009824 -0.003026 0.000000 0.000000 0.000000
# 3 -0.017774 -0.003026 0.018376 0.000000 0.000000 0.000000
# 4 0.000000 0.000000 0.000000 0.035596 0.000000 0.000000
# 5 0.000000 0.000000 0.000000 0.000000 0.026908 0.000000
# 6 0.000000 0.000000 0.000000 0.000000 0.000000 -0.008053
#
#
# Mechanical properties :
#
#
# Convention : Reuss Voigt Hill
#
# Bulk Modulus (GPa) = 58.16129 76.79602 67.47865
# Shear Modulus (GPa) = 28.36754 -1.57054 13.39850
#
# Velocity S-wave (km/s) = 3.94883 -0.92914 2.71385
# Velocity P-wave (km/s) = 7.26370 6.40801 6.84923
#
# Compressibility (1/GPa) = 0.01719357
#
# Stress axis : x y z
#
# Youngs Moduli (GPa) = 26.01762 101.79182 54.41979
#
# Poissons Ratio (x) = 0.39905 0.96728
# Poissons Ratio (y) = 0.10200 0.16468
# Poissons Ratio (z) = 0.46245 0.30803
#
# Static dielectric constant tensor:
#      x y z
#    x 3.329520 0.000000 0.000000 
#    y 0.000000 3.898930 0.000000 
#    z 0.000000 0.000000 3.183610 
# 
# 
# High freq. dielectric constant tensor:
#      x y z
#    x 1.703260 0.000000 0.000000 
#    y 0.000000 1.731270 0.000000 
#    z 0.000000 0.000000 1.699550 
# 
# From -- ./inp_files/6665.got.cif
#   From: 2010.03.12/outbox.cif.g09.slc.cpg/sg53_4_cif.got.tgz:6665.got - 2010.04.16 14:36:59.
