data_PCOD8221411
_publ_section_title
;
Structure prediction by ZEFSAII (Michael W. Deem and Ramdas Pophale) SiO2 
 PCOD8221411
Probable space group: P M N A
;
_chemical_formula_sum "Si O2"
_cell_formula_units_Z 40
_cell_length_a 8.703201
_cell_length_b 25.188659
_cell_length_c 9.179273
_cell_angle_alpha 90.000000
_cell_angle_beta 90.000000
_cell_angle_gamma 90.000000
_cell_volume 2012.298239
_symmetry_space_group_name_H-M "P M N A"
_symmetry_group_IT_number 53
_symmetry_cell_setting 'orthorhombic'
loop_
_space_group_symop_operation_xyz
x,y,z
1/2-x,-y,1/2+z
x,-y,-z
1/2-x,y,1/2-z
-x,-y,-z
1/2+x,y,1/2-z
-x,y,z
1/2+x,-y,1/2+z
loop_
_atom_site_type_symbol
_atom_site_label
_atom_site_fract_x
_atom_site_fract_y
_atom_site_fract_z
Si Si1 0.681663 0.641947 0.405064
Si Si2 0.179317 0.245633 0.598558
Si Si3 0.678508 0.551703 0.904866
Si Si4 0.321192 0.144901 0.091392
Si Si5 0.681161 0.051124 0.591304
O O1 0.750000 0.624207 0.250000
O O2 0.500000 0.641979 0.393030
O O3 0.739521 0.700166 0.450225
O O4 0.734504 0.601709 0.528308
O O5 0.250000 0.224300 0.750000
O O6 0.209272 0.203347 0.471788
O O7 0.000000 0.256461 0.623517
O O8 0.750000 0.538761 0.750000
O O9 0.500000 0.565742 0.891040
O O10 0.707687 0.500000 0.000000
O O11 0.250000 0.140669 0.250000
O O12 0.500000 0.131624 0.101460
O O13 0.243368 0.103558 0.984148
O O14 0.750000 0.044998 0.750000
O O15 0.500000 0.055657 0.603956
O O16 0.733004 0.000000 0.500000
#
# Coordination Sequence:
#
# PCOD8221411 Si02
#       5
#     8   8   8   8   8
#     4  11  22  38  62  89 120 157 197 243 294 349
#     4  10  21  38  60  87 118 154 198 244 294 351
#     4  11  24  41  62  88 119 155 196 242 293 350
#     4  11  24  40  61  88 120 158 199 246 296 349
#     4  11  24  41  63  90 121 157 197 243 294 351
#
# _framework density 19.877769000000001
#
# number of rings (size 3 to 8) (size 9 to 14) (size 15 to 20)
#    0.000    1.200    0.000    7.200    0.000   12.000 
#    0.000    2.000    0.000    0.000    0.000    0.000 
#    0.000    0.000    0.000    0.000    0.000    0.000 
#
# Total GULP energy -496261.815830 kJ/mol
# GULP energy per Si atom -12406.545396 kJ/mol
# Density = 1.983253 g / cm^3
# Si number density = 19.877769 Si / 1000 Ang^3
#
#
#
# Elastic Constant Matrix: (Units=GPa)
#
#
# Indices 1 2 3 4 5 6 
#
# 1 140.6895 68.7682 74.9342 0.0000 0.0000 0.0000
# 2 68.7682 101.6986 67.9253 0.0000 0.0000 0.0000
# 3 74.9342 67.9253 151.1818 0.0000 0.0000 0.0000
# 4 0.0000 0.0000 0.0000 43.3491 0.0000 0.0000
# 5 0.0000 0.0000 0.0000 0.0000 37.5258 0.0000
# 6 0.0000 0.0000 0.0000 0.0000 0.0000 234.6904
#
#
#
# Elastic Compliance Matrix: (Units=1/GPa)
#
#
# Indices 1 2 3 4 5 6 
#
# 1 0.011596 -0.005718 -0.003178 0.000000 0.000000 0.000000
# 2 -0.005718 0.016869 -0.004745 0.000000 0.000000 0.000000
# 3 -0.003178 -0.004745 0.010322 0.000000 0.000000 0.000000
# 4 0.000000 0.000000 0.000000 0.023069 0.000000 0.000000
# 5 0.000000 0.000000 0.000000 0.000000 0.026648 0.000000
# 6 0.000000 0.000000 0.000000 0.000000 0.000000 0.004261
#
#
# Mechanical properties :
#
#
# Convention : Reuss Voigt Hill
#
# Bulk Modulus (GPa) = 86.92967 90.75836 88.84402
# Shear Modulus (GPa) = 40.36139 75.24255 57.80197
#
# Velocity S-wave (km/s) = 4.51097 6.15912 5.39832
# Velocity P-wave (km/s) = 8.42371 9.81514 9.14593
#
# Compressibility (1/GPa) = 0.01150355
#
# Stress axis : x y z
#
# Youngs Moduli (GPa) = 86.23898 59.28175 96.88302
#
# Poissons Ratio (x) = 0.33898 0.30793
# Poissons Ratio (y) = 0.49312 0.45969
# Poissons Ratio (z) = 0.27410 0.28128
#
# Static dielectric constant tensor:
#      x y z
#    x 3.847130 0.000000 0.000000 
#    y 0.000000 3.758950 0.000000 
#    z 0.000000 0.000000 3.630390 
# 
# 
# High freq. dielectric constant tensor:
#      x y z
#    x 1.796410 0.000000 0.000000 
#    y 0.000000 1.789320 0.000000 
#    z 0.000000 0.000000 1.783170 
# 
# From -- ./inp_files/6289.got.cif
#   From: 2010.03.12/outbox.cif.g09.slc.cpg/sg53_4_cif.got.tgz:6289.got - 2010.04.16 14:36:59.
