data_PCOD8221646
_publ_section_title
;
Structure prediction by ZEFSAII (Michael W. Deem and Ramdas Pophale) SiO2 
 PCOD8221646
Probable space group: P M N A
;
_chemical_formula_sum "Si O2"
_cell_formula_units_Z 48
_cell_length_a 9.023569
_cell_length_b 31.310035
_cell_length_c 9.028940
_cell_angle_alpha 90.000000
_cell_angle_beta 90.000000
_cell_angle_gamma 90.000000
_cell_volume 2550.930719
_symmetry_space_group_name_H-M "P M N A"
_symmetry_group_IT_number 53
_symmetry_cell_setting 'orthorhombic'
loop_
_space_group_symop_operation_xyz
x,y,z
1/2-x,-y,1/2+z
x,-y,-z
1/2-x,y,1/2-z
-x,-y,-z
1/2+x,y,1/2-z
-x,y,z
1/2+x,-y,1/2+z
loop_
_atom_site_type_symbol
_atom_site_label
_atom_site_fract_x
_atom_site_fract_y
_atom_site_fract_z
Si Si1 0.325381 0.723100 0.909098
Si Si2 0.173767 0.114772 0.408503
Si Si3 0.827987 0.197995 0.595988
Si Si4 0.829296 0.957720 0.096015
Si Si5 0.673904 0.539131 0.906999
Si Si6 0.329102 0.369306 0.096004
O O1 0.250000 0.728992 0.750000
O O2 0.500000 0.729556 0.884876
O O3 0.287552 0.676038 0.981522
O O4 0.264872 0.758277 0.024027
O O5 0.250000 0.112743 0.250000
O O6 0.204110 0.160792 0.479082
O O7 0.244930 0.080195 0.515466
O O8 0.000000 0.105222 0.390172
O O9 0.750000 0.187780 0.750000
O O10 0.000000 0.202208 0.631790
O O11 0.750000 0.967320 0.250000
O O12 0.000000 0.944591 0.122736
O O13 0.817540 0.000000 0.000000
O O14 0.750000 0.538035 0.750000
O O15 0.500000 0.532340 0.884218
O O16 0.707277 0.585557 0.987586
O O17 0.741824 0.500000 0.000000
O O18 0.250000 0.370746 0.250000
O O19 0.500000 0.368371 0.135210
#
# Coordination Sequence:
#
# PCOD8221646 Si02
#       6
#     8   8   8   8   8   8
#     4   9  17  31  51  74  97 124 163 207 250 297
#     4  11  23  39  60  85 112 143 181 223 267 314
#     4  10  22  37  53  76 106 139 172 209 255 307
#     4  11  24  41  62  88 118 151 186 225 268 314
#     4   9  17  29  45  66  92 123 159 199 245 295
#     4   8  14  26  45  66  90 121 157 199 244 292
#
# _framework density 18.816659999999999
#
# number of rings (size 3 to 8) (size 9 to 14) (size 15 to 20)
#    0.000    2.333    0.000    2.500    0.000    6.333 
#    0.000    0.833    0.000    0.000    0.000    0.000 
#    0.000    0.000    0.000    0.000    0.000    0.000 
#
# Total GULP energy -594751.962938 kJ/mol
# GULP energy per Si atom -12390.665895 kJ/mol
# Density = 1.877383 g / cm^3
# Si number density = 18.816660 Si / 1000 Ang^3
#
#
#
# Elastic Constant Matrix: (Units=GPa)
#
#
# Indices 1 2 3 4 5 6 
#
# 1 68.0428 50.4642 43.3926 0.0000 0.0000 0.0000
# 2 50.4642 136.0372 38.6230 0.0000 0.0000 0.0000
# 3 43.3926 38.6230 91.1585 0.0000 0.0000 0.0000
# 4 0.0000 0.0000 0.0000 32.0388 0.0000 0.0000
# 5 0.0000 0.0000 0.0000 0.0000 29.2265 0.0000
# 6 0.0000 0.0000 0.0000 0.0000 0.0000 31.6918
#
#
#
# Elastic Compliance Matrix: (Units=1/GPa)
#
#
# Indices 1 2 3 4 5 6 
#
# 1 0.025781 -0.006911 -0.009344 0.000000 0.000000 0.000000
# 2 -0.006911 0.010209 -0.001036 0.000000 0.000000 0.000000
# 3 -0.009344 -0.001036 0.015857 0.000000 0.000000 0.000000
# 4 0.000000 0.000000 0.000000 0.031212 0.000000 0.000000
# 5 0.000000 0.000000 0.000000 0.000000 0.034216 0.000000
# 6 0.000000 0.000000 0.000000 0.000000 0.000000 0.031554
#
#
# Mechanical properties :
#
#
# Convention : Reuss Voigt Hill
#
# Bulk Modulus (GPa) = 57.92004 62.24424 60.08214
# Shear Modulus (GPa) = 26.43213 29.44200 27.93706
#
# Velocity S-wave (km/s) = 3.75202 3.95989 3.85736
# Velocity P-wave (km/s) = 7.04403 7.35247 7.19990
#
# Compressibility (1/GPa) = 0.01726518
#
# Stress axis : x y z
#
# Youngs Moduli (GPa) = 38.78834 97.95688 63.06528
#
# Poissons Ratio (x) = 0.67696 0.58928
# Poissons Ratio (y) = 0.26806 0.06531
# Poissons Ratio (z) = 0.36244 0.10145
#
# Static dielectric constant tensor:
#      x y z
#    x 3.736560 0.000000 0.000000 
#    y 0.000000 4.372580 0.000000 
#    z 0.000000 0.000000 3.098270 
# 
# 
# High freq. dielectric constant tensor:
#      x y z
#    x 1.731860 0.000000 0.000000 
#    y 0.000000 1.763850 0.000000 
#    z 0.000000 0.000000 1.702200 
# 
# From -- ./inp_files/6578.got.cif
#   From: 2010.03.12/outbox.cif.g09.slc.cpg/sg53_4_cif.got.tgz:6578.got - 2010.04.16 14:36:59.
