data_PCOD8221516
_publ_section_title
;
Structure prediction by ZEFSAII (Michael W. Deem and Ramdas Pophale) SiO2 
 PCOD8221516
Probable space group: P M N A
;
_chemical_formula_sum "Si O2"
_cell_formula_units_Z 36
_cell_length_a 10.235087
_cell_length_b 23.803069
_cell_length_c 6.900270
_cell_angle_alpha 90.000000
_cell_angle_beta 90.000000
_cell_angle_gamma 90.000000
_cell_volume 1681.088506
_symmetry_space_group_name_H-M "P M N A"
_symmetry_group_IT_number 53
_symmetry_cell_setting 'orthorhombic'
loop_
_space_group_symop_operation_xyz
x,y,z
1/2-x,-y,1/2+z
x,-y,-z
1/2-x,y,1/2-z
-x,-y,-z
1/2+x,y,1/2-z
-x,y,z
1/2+x,-y,1/2+z
loop_
_atom_site_type_symbol
_atom_site_label
_atom_site_fract_x
_atom_site_fract_y
_atom_site_fract_z
Si Si1 0.645489 0.442835 0.405204
Si Si2 0.250000 0.758369 0.250000
Si Si3 0.144233 0.174544 0.404889
Si Si4 0.147896 0.059535 0.586944
Si Si5 0.353909 0.679213 0.574590
O O1 0.697351 0.500000 0.500000
O O2 0.750000 0.426980 0.250000
O O3 0.500000 0.454829 0.322318
O O4 0.648396 0.383966 0.522877
O O5 0.158991 0.797608 0.383347
O O6 0.334679 0.720432 0.394399
O O7 0.250000 0.197471 0.250000
O O8 0.157221 0.107278 0.422750
O O9 0.000000 0.189709 0.324958
O O10 0.250000 0.076662 0.750000
O O11 0.000000 0.056551 0.671363
O O12 0.190196 0.000000 0.500000
O O13 0.250000 0.688899 0.750000
O O14 0.500000 0.689096 0.661841
#
# Coordination Sequence:
#
# PCOD8221516 Si02
#       5
#     8   4   8   8   8
#     4   9  19  36  58  86 119 153 196 248 303 362
#     4  12  24  40  66  92 124 168 208 258 302 378
#     4  11  25  43  64  94 128 166 210 259 311 369
#     4  10  21  39  63  93 127 163 207 256 310 367
#     4  10  23  42  63  91 125 163 208 257 310 369
#
# _framework density 21.414697
#
# number of rings (size 3 to 8) (size 9 to 14) (size 15 to 20)
#    0.000    1.778    1.111    2.000    1.556    7.111 
#    0.000    0.000    0.000    0.000    0.000    0.000 
#    0.000    0.000    0.000    0.000    0.000    0.000 
#
# Total GULP energy -445973.070822 kJ/mol
# GULP energy per Si atom -12388.140856 kJ/mol
# Density = 2.136596 g / cm^3
# Si number density = 21.414697 Si / 1000 Ang^3
#
#
#
# Elastic Constant Matrix: (Units=GPa)
#
#
# Indices 1 2 3 4 5 6 
#
# 1 133.4099 28.5414 52.6249 0.0000 0.0000 0.0000
# 2 28.5414 136.4397 39.7127 0.0000 0.0000 0.0000
# 3 52.6249 39.7127 90.8192 0.0000 0.0000 0.0000
# 4 0.0000 0.0000 0.0000 28.1680 0.0000 0.0000
# 5 0.0000 0.0000 0.0000 0.0000 32.1824 0.0000
# 6 0.0000 0.0000 0.0000 0.0000 0.0000 48.7970
#
#
#
# Elastic Compliance Matrix: (Units=1/GPa)
#
#
# Indices 1 2 3 4 5 6 
#
# 1 0.009741 -0.000452 -0.005447 0.000000 0.000000 0.000000
# 2 -0.000452 0.008419 -0.003419 0.000000 0.000000 0.000000
# 3 -0.005447 -0.003419 0.015662 0.000000 0.000000 0.000000
# 4 0.000000 0.000000 0.000000 0.035501 0.000000 0.000000
# 5 0.000000 0.000000 0.000000 0.000000 0.031073 0.000000
# 6 0.000000 0.000000 0.000000 0.000000 0.000000 0.020493
#
#
# Mechanical properties :
#
#
# Convention : Reuss Voigt Hill
#
# Bulk Modulus (GPa) = 65.85177 66.93629 66.39403
# Shear Modulus (GPa) = 34.58110 37.81546 36.19828
#
# Velocity S-wave (km/s) = 4.02285 4.20678 4.11584
# Velocity P-wave (km/s) = 7.23846 7.41087 7.32517
#
# Compressibility (1/GPa) = 0.01518562
#
# Stress axis : x y z
#
# Youngs Moduli (GPa) = 102.65979 118.77738 63.84871
#
# Poissons Ratio (x) = 0.05373 0.34775
# Poissons Ratio (y) = 0.04644 0.21832
# Poissons Ratio (z) = 0.55914 0.40614
#
# Static dielectric constant tensor:
#      x y z
#    x 3.956680 0.000000 0.000000 
#    y 0.000000 4.458010 0.000000 
#    z 0.000000 0.000000 3.414640 
# 
# 
# High freq. dielectric constant tensor:
#      x y z
#    x 1.851620 0.000000 0.000000 
#    y 0.000000 1.880480 0.000000 
#    z 0.000000 0.000000 1.792370 
# 
# From -- ./inp_files/709.got.cif
#   From: 2010.03.12/outbox.cif.g09.slc.cpg/sg53_1_cif.got.tgz:709.got - 2010.04.16 14:36:59.
