data_PCOD8221902
_publ_section_title
;
Structure prediction by ZEFSAII (Michael W. Deem and Ramdas Pophale) SiO2 
 PCOD8221902
Probable space group: P M N A
;
_chemical_formula_sum "Si O2"
_cell_formula_units_Z 40
_cell_length_a 9.369185
_cell_length_b 22.595317
_cell_length_c 9.345560
_cell_angle_alpha 90.000000
_cell_angle_beta 90.000000
_cell_angle_gamma 90.000000
_cell_volume 1978.452296
_symmetry_space_group_name_H-M "P M N A"
_symmetry_group_IT_number 53
_symmetry_cell_setting 'orthorhombic'
loop_
_space_group_symop_operation_xyz
x,y,z
1/2-x,-y,1/2+z
x,-y,-z
1/2-x,y,1/2-z
-x,-y,-z
1/2+x,y,1/2-z
-x,y,z
1/2+x,-y,1/2+z
loop_
_atom_site_type_symbol
_atom_site_label
_atom_site_fract_x
_atom_site_fract_y
_atom_site_fract_z
Si Si1 0.834515 0.447309 0.101842
Si Si2 0.000000 0.049886 0.811075
Si Si3 0.750000 0.129368 0.750000
Si Si4 0.250000 0.839883 0.750000
Si Si5 0.668712 0.660907 0.393529
Si Si6 0.834770 0.221675 0.524781
Si Si7 0.500000 0.080367 0.359626
O O1 0.750000 0.446591 0.250000
O O2 0.000000 0.457009 0.139575
O O3 0.778808 0.500000 0.000000
O O4 0.808851 0.386599 0.017921
O O5 0.874494 0.083373 0.735360
O O6 0.000000 0.980489 0.767817
O O7 0.000000 0.060190 0.978679
O O8 0.753750 0.170756 0.611553
O O9 0.168909 0.796740 0.640437
O O10 0.138972 0.881619 0.829299
O O11 0.750000 0.639412 0.250000
O O12 0.500000 0.671052 0.362370
O O13 0.743229 0.719912 0.449614
O O14 0.000000 0.230523 0.573499
#
# Coordination Sequence:
#
# PCOD8221902 Si02
#       7
#     8   4   4   4   8   8   4
#     4  10  23  44  69 101 140 182 226 273 327 383
#     4  11  24  41  67  91 127 157 212 265 328 389
#     4  12  23  42  64  94 119 168 210 266 320 396
#     4  12  25  44  64  90 127 164 212 264 332 396
#     4  11  25  42  67 100 133 173 224 275 324 388
#     4  12  26  42  65  92 130 171 215 268 326 392
#     4  11  24  43  63  95 123 165 204 269 328 393
#
# _framework density 20.217824
#
# number of rings (size 3 to 8) (size 9 to 14) (size 15 to 20)
#    0.000    0.800    5.000    1.800    4.200    2.000 
#    0.000    1.000    0.000    0.000    0.000    0.000 
#    0.000    0.000    0.000    0.000    0.000    0.000 
#
# Total GULP energy -495945.502240 kJ/mol
# GULP energy per Si atom -12398.637556 kJ/mol
# Density = 2.017181 g / cm^3
# Si number density = 20.217824 Si / 1000 Ang^3
#
#
#
# Elastic Constant Matrix: (Units=GPa)
#
#
# Indices 1 2 3 4 5 6 
#
# 1 120.7243 50.8909 31.0766 0.0000 0.0000 0.0000
# 2 50.8909 111.6744 41.2498 0.0000 0.0000 0.0000
# 3 31.0766 41.2498 109.0479 0.0000 0.0000 0.0000
# 4 0.0000 0.0000 0.0000 11.9834 0.0000 0.0000
# 5 0.0000 0.0000 0.0000 0.0000 97.5228 0.0000
# 6 0.0000 0.0000 0.0000 0.0000 0.0000 97.8806
#
#
#
# Elastic Compliance Matrix: (Units=1/GPa)
#
#
# Indices 1 2 3 4 5 6 
#
# 1 0.010425 -0.004247 -0.001364 0.000000 0.000000 0.000000
# 2 -0.004247 0.012139 -0.003382 0.000000 0.000000 0.000000
# 3 -0.001364 -0.003382 0.010838 0.000000 0.000000 0.000000
# 4 0.000000 0.000000 0.000000 0.083449 0.000000 0.000000
# 5 0.000000 0.000000 0.000000 0.000000 0.010254 0.000000
# 6 0.000000 0.000000 0.000000 0.000000 0.000000 0.010217
#
#
# Mechanical properties :
#
#
# Convention : Reuss Voigt Hill
#
# Bulk Modulus (GPa) = 64.86545 65.32014 65.09280
# Shear Modulus (GPa) = 31.16319 56.02598 43.59458
#
# Velocity S-wave (km/s) = 3.93029 5.26985 4.64858
# Velocity P-wave (km/s) = 7.26286 8.33107 7.81524
#
# Compressibility (1/GPa) = 0.01541653
#
# Stress axis : x y z
#
# Youngs Moduli (GPa) = 95.92576 82.37975 92.26542
#
# Poissons Ratio (x) = 0.34984 0.12589
# Poissons Ratio (y) = 0.40736 0.31200
# Poissons Ratio (z) = 0.13089 0.27858
#
# Static dielectric constant tensor:
#      x y z
#    x 3.545020 0.000000 0.000000 
#    y 0.000000 4.022300 0.000000 
#    z 0.000000 0.000000 3.466870 
# 
# 
# High freq. dielectric constant tensor:
#      x y z
#    x 1.801020 0.000000 0.000000 
#    y 0.000000 1.804860 0.000000 
#    z 0.000000 0.000000 1.793100 
# 
# From -- ./inp_files/6389.got.cif
#   From: 2010.03.12/outbox.cif.g09.slc.cpg/sg53_4_cif.got.tgz:6389.got - 2010.04.16 14:36:59.
