data_PCOD8221770
_publ_section_title
;
Structure prediction by ZEFSAII (Michael W. Deem and Ramdas Pophale) SiO2 
 PCOD8221770
Probable space group: P M N A
;
_chemical_formula_sum "Si O2"
_cell_formula_units_Z 40
_cell_length_a 18.271800
_cell_length_b 8.258448
_cell_length_c 11.696722
_cell_angle_alpha 90.000000
_cell_angle_beta 90.000000
_cell_angle_gamma 90.000000
_cell_volume 1764.996870
_symmetry_space_group_name_H-M "P M N A"
_symmetry_group_IT_number 53
_symmetry_cell_setting 'orthorhombic'
loop_
_space_group_symop_operation_xyz
x,y,z
1/2-x,-y,1/2+z
x,-y,-z
1/2-x,y,1/2-z
-x,-y,-z
1/2+x,y,1/2-z
-x,y,z
1/2+x,-y,1/2+z
loop_
_atom_site_type_symbol
_atom_site_label
_atom_site_fract_x
_atom_site_fract_y
_atom_site_fract_z
Si Si1 0.582707 0.354889 0.244712
Si Si2 0.419813 0.724810 0.182420
Si Si3 0.344340 0.815780 0.967127
Si Si4 0.917108 0.149887 0.918585
Si Si5 0.807090 0.332403 0.049090
O O1 0.500000 0.298262 0.281460
O O2 0.582261 0.546778 0.234399
O O3 0.602884 0.256181 0.130117
O O4 0.645348 0.318383 0.336346
O O5 0.500000 0.756680 0.127993
O O6 0.407097 0.864597 0.280657
O O7 0.358489 0.723487 0.085855
O O8 0.259874 0.791277 0.932792
O O9 0.362491 0.000000 0.000000
O O10 0.000000 0.201576 0.946306
O O11 0.861733 0.291458 0.947032
O O12 0.894810 0.000000 0.000000
O O13 0.774270 0.500000 0.000000
#
# Coordination Sequence:
#
# PCOD8221770 Si02
#       5
#     8   8   8   8   8
#     4  11  24  45  73 101 133 177 237 293 345 422
#     4  10  22  44  71 100 135 182 232 284 344 416
#     4  12  28  45  65  99 141 185 231 288 355 421
#     4  10  22  40  66 102 141 178 221 278 343 410
#     4  12  24  44  70 101 136 179 230 285 351 418
#
# _framework density 22.662929999999999
#
# number of rings (size 3 to 8) (size 9 to 14) (size 15 to 20)
#    0.000    1.000    2.000    4.200    2.800    4.800 
#    3.600    0.000    0.000    0.000    0.000    0.000 
#    0.000    0.000    0.000    0.000    0.000    0.000 
#
# Total GULP energy -495590.438386 kJ/mol
# GULP energy per Si atom -12389.760960 kJ/mol
# Density = 2.261135 g / cm^3
# Si number density = 22.662930 Si / 1000 Ang^3
#
#
#
# Elastic Constant Matrix: (Units=GPa)
#
#
# Indices 1 2 3 4 5 6 
#
# 1 114.5069 26.0735 64.4978 0.0000 0.0000 0.0000
# 2 26.0735 67.9661 33.6350 0.0000 0.0000 0.0000
# 3 64.4978 33.6350 137.3964 0.0000 0.0000 0.0000
# 4 0.0000 0.0000 0.0000 42.6214 0.0000 0.0000
# 5 0.0000 0.0000 0.0000 0.0000 56.1909 0.0000
# 6 0.0000 0.0000 0.0000 0.0000 0.0000 39.6702
#
#
#
# Elastic Compliance Matrix: (Units=1/GPa)
#
#
# Indices 1 2 3 4 5 6 
#
# 1 0.012127 -0.002088 -0.005182 0.000000 0.000000 0.000000
# 2 -0.002088 0.017101 -0.003206 0.000000 0.000000 0.000000
# 3 -0.005182 -0.003206 0.010496 0.000000 0.000000 0.000000
# 4 0.000000 0.000000 0.000000 0.023462 0.000000 0.000000
# 5 0.000000 0.000000 0.000000 0.000000 0.017796 0.000000
# 6 0.000000 0.000000 0.000000 0.000000 0.000000 0.025208
#
#
# Mechanical properties :
#
#
# Convention : Reuss Voigt Hill
#
# Bulk Modulus (GPa) = 53.27117 63.14246 58.20681
# Shear Modulus (GPa) = 37.48141 40.74070 39.11106
#
# Velocity S-wave (km/s) = 4.07119 4.24451 4.15875
# Velocity P-wave (km/s) = 6.75694 7.20716 6.98568
#
# Compressibility (1/GPa) = 0.01877188
#
# Stress axis : x y z
#
# Youngs Moduli (GPa) = 82.45915 58.47642 95.27858
#
# Poissons Ratio (x) = 0.12210 0.49371
# Poissons Ratio (y) = 0.17217 0.30548
# Poissons Ratio (z) = 0.42728 0.18749
#
# Static dielectric constant tensor:
#      x y z
#    x 4.099650 0.000000 0.000000 
#    y 0.000000 4.032690 0.000000 
#    z 0.000000 0.000000 4.108060 
# 
# 
# High freq. dielectric constant tensor:
#      x y z
#    x 1.903660 0.000000 0.000000 
#    y 0.000000 1.886850 0.000000 
#    z 0.000000 0.000000 1.901210 
# 
# From -- ./inp_files/16674.got.cif
#   From: 2010.03.12/outbox.cif.g09.slc.cpg/sg53_9_cif.got.tgz:16674.got - 2010.04.16 14:36:59.
