data_PCOD8221618
_publ_section_title
;
Structure prediction by ZEFSAII (Michael W. Deem and Ramdas Pophale) SiO2 
 PCOD8221618
Probable space group: P M N A
;
_chemical_formula_sum "Si O2"
_cell_formula_units_Z 36
_cell_length_a 14.246305
_cell_length_b 13.593092
_cell_length_c 9.583949
_cell_angle_alpha 90.000000
_cell_angle_beta 90.000000
_cell_angle_gamma 90.000000
_cell_volume 1855.944514
_symmetry_space_group_name_H-M "P M N A"
_symmetry_group_IT_number 53
_symmetry_cell_setting 'orthorhombic'
loop_
_space_group_symop_operation_xyz
x,y,z
1/2-x,-y,1/2+z
x,-y,-z
1/2-x,y,1/2-z
-x,-y,-z
1/2+x,y,1/2-z
-x,y,z
1/2+x,-y,1/2+z
loop_
_atom_site_type_symbol
_atom_site_label
_atom_site_fract_x
_atom_site_fract_y
_atom_site_fract_z
Si Si1 0.610377 0.390619 0.832413
Si Si2 0.252135 0.885607 0.972423
Si Si3 0.250000 0.239020 0.750000
Si Si4 0.890326 0.606211 0.645343
Si Si5 0.389081 0.812508 0.745811
O O1 0.500000 0.373343 0.816358
O O2 0.659728 0.310221 0.734119
O O3 0.641138 0.501942 0.787696
O O4 0.649775 0.375021 0.990058
O O5 0.344712 0.865780 0.880210
O O6 0.157080 0.852444 0.894773
O O7 0.260226 0.829901 0.117223
O O8 0.244544 0.000000 0.000000
O O9 0.864132 0.695999 0.747023
O O10 0.000000 0.598841 0.619540
O O11 0.500000 0.832838 0.744747
#
# Coordination Sequence:
#
# PCOD8221618 Si02
#       5
#     8   8   4   8   8
#     4   9  18  33  56  89 123 151 188 237 285 349
#     4  11  25  42  59  86 121 150 198 259 293 334
#     4  12  22  36  60  90 118 156 194 238 304 352
#     4   8  15  34  60  84 114 153 193 232 280 347
#     4  10  21  42  66  84 112 161 200 232 293 358
#
# _framework density 19.397133
#
# number of rings (size 3 to 8) (size 9 to 14) (size 15 to 20)
#    0.000    2.222    2.222    2.667    0.000    3.556 
#    0.000    2.222    0.000    4.000    0.000    0.000 
#    0.000    0.000    0.000    0.000    0.000    0.000 
#
# Total GULP energy -446247.530603 kJ/mol
# GULP energy per Si atom -12395.764739 kJ/mol
# Density = 1.935298 g / cm^3
# Si number density = 19.397133 Si / 1000 Ang^3
#
#
#
# Elastic Constant Matrix: (Units=GPa)
#
#
# Indices 1 2 3 4 5 6 
#
# 1 109.3524 52.5148 34.9968 0.0000 0.0000 0.0000
# 2 52.5148 167.9072 46.9487 0.0000 0.0000 0.0000
# 3 34.9968 46.9487 74.3353 0.0000 0.0000 0.0000
# 4 0.0000 0.0000 0.0000 12.2955 0.0000 0.0000
# 5 0.0000 0.0000 0.0000 0.0000 27.0273 0.0000
# 6 0.0000 0.0000 0.0000 0.0000 0.0000 25.2052
#
#
#
# Elastic Compliance Matrix: (Units=1/GPa)
#
#
# Indices 1 2 3 4 5 6 
#
# 1 0.011603 -0.002552 -0.003851 0.000000 0.000000 0.000000
# 2 -0.002552 0.007794 -0.003721 0.000000 0.000000 0.000000
# 3 -0.003851 -0.003721 0.017616 0.000000 0.000000 0.000000
# 4 0.000000 0.000000 0.000000 0.081330 0.000000 0.000000
# 5 0.000000 0.000000 0.000000 0.000000 0.037000 0.000000
# 6 0.000000 0.000000 0.000000 0.000000 0.000000 0.039674
#
#
# Mechanical properties :
#
#
# Convention : Reuss Voigt Hill
#
# Bulk Modulus (GPa) = 59.64902 68.94617 64.29760
# Shear Modulus (GPa) = 22.63943 27.38123 25.01033
#
# Velocity S-wave (km/s) = 3.42007 3.76122 3.59469
# Velocity P-wave (km/s) = 6.81279 7.38133 7.10275
#
# Compressibility (1/GPa) = 0.01676473
#
# Stress axis : x y z
#
# Youngs Moduli (GPa) = 86.18655 128.29729 56.76766
#
# Poissons Ratio (x) = 0.32744 0.21859
# Poissons Ratio (y) = 0.21997 0.21124
# Poissons Ratio (z) = 0.33187 0.47742
#
# Static dielectric constant tensor:
#      x y z
#    x 3.426300 0.000000 0.000000 
#    y 0.000000 3.862540 0.000000 
#    z 0.000000 0.000000 3.254890 
# 
# 
# High freq. dielectric constant tensor:
#      x y z
#    x 1.747340 0.000000 0.000000 
#    y 0.000000 1.772250 0.000000 
#    z 0.000000 0.000000 1.735000 
# 
# From -- ./inp_files/8267.got.cif
#   From: 2010.03.12/outbox.cif.g09.slc.cpg/sg53_5_cif.got.tgz:8267.got - 2010.04.16 14:36:59.
