data_PCOD8221157
_publ_section_title
;
Structure prediction by ZEFSAII (Michael W. Deem and Ramdas Pophale) SiO2 
 PCOD8221157
Probable space group: P M N A
;
_chemical_formula_sum "Si O2"
_cell_formula_units_Z 56
_cell_length_a 17.003812
_cell_length_b 32.529345
_cell_length_c 5.088557
_cell_angle_alpha 90.000000
_cell_angle_beta 90.000000
_cell_angle_gamma 90.000000
_cell_volume 2814.597236
_symmetry_space_group_name_H-M "P M N A"
_symmetry_group_IT_number 53
_symmetry_cell_setting 'orthorhombic'
loop_
_space_group_symop_operation_xyz
x,y,z
1/2-x,-y,1/2+z
x,-y,-z
1/2-x,y,1/2-z
-x,-y,-z
1/2+x,y,1/2-z
-x,y,z
1/2+x,-y,1/2+z
loop_
_atom_site_type_symbol
_atom_site_label
_atom_site_fract_x
_atom_site_fract_y
_atom_site_fract_z
Si Si1 0.197234 0.046505 0.000543
Si Si2 0.093038 0.826609 0.468472
Si Si3 0.091712 0.619682 0.135070
Si Si4 0.802361 0.748993 0.507359
Si Si5 0.907334 0.877008 0.967871
Si Si6 0.837186 0.658341 0.652340
Si Si7 0.802977 0.453280 0.998300
O O1 0.250000 0.055661 0.750000
O O2 0.123804 0.076836 0.009301
O O3 0.250000 0.055060 0.250000
O O4 0.164022 0.000000 0.000000
O O5 0.128847 0.781432 0.463728
O O6 0.122360 0.850100 0.210937
O O7 0.000000 0.821080 0.478441
O O8 0.124119 0.853813 0.710468
O O9 0.138274 0.631249 0.400976
O O10 0.121521 0.576199 0.018630
O O11 0.000000 0.616718 0.203402
O O12 0.105218 0.652660 0.901915
O O13 0.750000 0.764246 0.750000
O O14 0.842794 0.705742 0.571733
O O15 0.750000 0.743888 0.250000
O O16 0.000000 0.881171 0.963803
O O17 0.750000 0.645542 0.750000
O O18 0.750000 0.444635 0.750000
O O19 0.834544 0.500000 0.000000
O O20 0.750000 0.443132 0.250000
#
# Coordination Sequence:
#
# PCOD8221157 Si02
#       7
#     8   8   8   8   8   8   8
#     4  10  21  36  55  81 110 140 179 228 277 321
#     4  10  22  38  56  81 114 146 179 227 281 332
#     4  12  24  38  61  92 121 152 194 244 295 342
#     4  11  23  39  60  86 111 145 194 238 278 331
#     4  10  21  37  56  80 110 147 185 219 270 336
#     4  11  23  42  62  84 118 158 197 239 287 348
#     4  10  21  38  61  86 115 157 200 235 284 349
#
# _framework density 19.896274999999999
#
# number of rings (size 3 to 8) (size 9 to 14) (size 15 to 20)
#    0.000    1.429    0.000    6.429    0.000    5.143 
#    0.000    1.429    0.000    9.429    0.000    0.000 
#    0.000    0.000    0.000    0.000    0.000    0.000 
#
# Total GULP energy -694590.446918 kJ/mol
# GULP energy per Si atom -12403.400838 kJ/mol
# Density = 1.985099 g / cm^3
# Si number density = 19.896275 Si / 1000 Ang^3
#
#
#
# Elastic Constant Matrix: (Units=GPa)
#
#
# Indices 1 2 3 4 5 6 
#
# 1 74.4460 61.7935 37.1762 0.0000 0.0000 0.0000
# 2 61.7935 118.4580 23.2342 0.0000 0.0000 0.0000
# 3 37.1762 23.2342 126.6776 0.0000 0.0000 0.0000
# 4 0.0000 0.0000 0.0000 36.1765 0.0000 0.0000
# 5 0.0000 0.0000 0.0000 0.0000 11.8721 0.0000
# 6 0.0000 0.0000 0.0000 0.0000 0.0000 34.2225
#
#
#
# Elastic Compliance Matrix: (Units=1/GPa)
#
#
# Indices 1 2 3 4 5 6 
#
# 1 0.026976 -0.012986 -0.005535 0.000000 0.000000 0.000000
# 2 -0.012986 0.015008 0.001058 0.000000 0.000000 0.000000
# 3 -0.005535 0.001058 0.009324 0.000000 0.000000 0.000000
# 4 0.000000 0.000000 0.000000 0.027642 0.000000 0.000000
# 5 0.000000 0.000000 0.000000 0.000000 0.084231 0.000000
# 6 0.000000 0.000000 0.000000 0.000000 0.000000 0.029221
#
#
# Mechanical properties :
#
#
# Convention : Reuss Voigt Hill
#
# Bulk Modulus (GPa) = 61.03855 62.66548 61.85202
# Shear Modulus (GPa) = 21.47877 29.61276 25.54577
#
# Velocity S-wave (km/s) = 3.28920 3.86211 3.58711
# Velocity P-wave (km/s) = 6.72087 7.17303 6.95062
#
# Compressibility (1/GPa) = 0.01638309
#
# Stress axis : x y z
#
# Youngs Moduli (GPa) = 37.07059 66.62902 107.24752
#
# Poissons Ratio (x) = 0.86526 0.59359
# Poissons Ratio (y) = 0.48141 -0.11350
# Poissons Ratio (z) = 0.20518 -0.07052
#
# Static dielectric constant tensor:
#      x y z
#    x 3.338210 0.000000 0.000000 
#    y 0.000000 3.814940 0.000000 
#    z 0.000000 0.000000 4.259330 
# 
# 
# High freq. dielectric constant tensor:
#      x y z
#    x 1.756140 0.000000 0.000000 
#    y 0.000000 1.788020 0.000000 
#    z 0.000000 0.000000 1.803330 
# 
# From -- ./inp_files/1469.got.cif
#   From: 2010.03.12/outbox.cif.g09.slc.cpg/sg53_1_cif.got.tgz:1469.got - 2010.04.16 14:36:59.
