data_PCOD8221561
_publ_section_title
;
Structure prediction by ZEFSAII (Michael W. Deem and Ramdas Pophale) SiO2 
 PCOD8221561
Probable space group: P M N A
;
_chemical_formula_sum "Si O2"
_cell_formula_units_Z 48
_cell_length_a 8.871414
_cell_length_b 9.740453
_cell_length_c 27.564787
_cell_angle_alpha 90.000000
_cell_angle_beta 90.000000
_cell_angle_gamma 90.000000
_cell_volume 2381.917103
_symmetry_space_group_name_H-M "P M N A"
_symmetry_group_IT_number 53
_symmetry_cell_setting 'orthorhombic'
loop_
_space_group_symop_operation_xyz
x,y,z
1/2-x,-y,1/2+z
x,-y,-z
1/2-x,y,1/2-z
-x,-y,-z
1/2+x,y,1/2-z
-x,y,z
1/2+x,-y,1/2+z
loop_
_atom_site_type_symbol
_atom_site_label
_atom_site_fract_x
_atom_site_fract_y
_atom_site_fract_z
Si Si1 0.177362 0.894812 0.541923
Si Si2 0.673771 0.001704 0.852427
Si Si3 0.321080 0.461220 0.140922
Si Si4 0.673498 0.599745 0.545096
Si Si5 0.825879 0.722095 0.300982
Si Si6 0.177089 0.770094 0.800113
O O1 0.222415 0.965932 0.592853
O O2 0.261149 0.750831 0.534365
O O3 0.000000 0.865472 0.539429
O O4 0.228307 0.000000 0.500000
O O5 0.500000 0.960505 0.843206
O O6 0.778485 0.925060 0.813287
O O7 0.701018 0.161543 0.841524
O O8 0.500000 0.450068 0.142169
O O9 0.265969 0.481230 0.086260
O O10 0.260830 0.583076 0.175360
O O11 0.246461 0.319837 0.157179
O O12 0.691576 0.500000 0.500000
O O13 0.500000 0.617157 0.560542
O O14 0.750000 0.757110 0.250000
O O15 0.000000 0.703673 0.289272
O O16 0.250000 0.722186 0.750000
O O17 0.000000 0.751626 0.796357
#
# Coordination Sequence:
#
# PCOD8221561 Si02
#       6
#     8   8   8   8   8   8
#     4  10  22  40  67  96 124 163 209 256 309 371
#     4  10  21  40  62  91 127 160 205 257 306 369
#     4  11  23  41  65  92 122 161 208 259 310 369
#     4  11  25  43  63  93 129 164 205 256 312 374
#     4  10  23  40  61  90 125 162 206 255 306 365
#     4  12  24  39  62  91 124 163 206 254 309 369
#
# _framework density 20.151837
#
# number of rings (size 3 to 8) (size 9 to 14) (size 15 to 20)
#    0.000    1.333    1.667    3.500    2.333    6.333 
#    0.000    0.000    0.000    0.000    0.000    0.000 
#    0.000    0.000    0.000    0.000    0.000    0.000 
#
# Total GULP energy -595379.187985 kJ/mol
# GULP energy per Si atom -12403.733083 kJ/mol
# Density = 2.010597 g / cm^3
# Si number density = 20.151837 Si / 1000 Ang^3
#
#
#
# Elastic Constant Matrix: (Units=GPa)
#
#
# Indices 1 2 3 4 5 6 
#
# 1 99.7302 42.5086 47.8352 0.0000 0.0000 0.0000
# 2 42.5086 108.3873 46.9851 0.0000 0.0000 0.0000
# 3 47.8352 46.9851 113.0868 0.0000 0.0000 0.0000
# 4 0.0000 0.0000 0.0000 40.1527 0.0000 0.0000
# 5 0.0000 0.0000 0.0000 0.0000 32.0479 0.0000
# 6 0.0000 0.0000 0.0000 0.0000 0.0000 21.9997
#
#
#
# Elastic Compliance Matrix: (Units=1/GPa)
#
#
# Indices 1 2 3 4 5 6 
#
# 1 0.013563 -0.003454 -0.004302 0.000000 0.000000 0.000000
# 2 -0.003454 0.012133 -0.003580 0.000000 0.000000 0.000000
# 3 -0.004302 -0.003580 0.012150 0.000000 0.000000 0.000000
# 4 0.000000 0.000000 0.000000 0.024905 0.000000 0.000000
# 5 0.000000 0.000000 0.000000 0.000000 0.031203 0.000000
# 6 0.000000 0.000000 0.000000 0.000000 0.000000 0.045455
#
#
# Mechanical properties :
#
#
# Convention : Reuss Voigt Hill
#
# Bulk Modulus (GPa) = 65.90455 66.20689 66.05572
# Shear Modulus (GPa) = 29.91538 31.09842 30.50690
#
# Velocity S-wave (km/s) = 3.85710 3.93263 3.89505
# Velocity P-wave (km/s) = 7.25336 7.31752 7.28551
#
# Compressibility (1/GPa) = 0.01517346
#
# Stress axis : x y z
#
# Youngs Moduli (GPa) = 73.73123 82.42162 82.30682
#
# Poissons Ratio (x) = 0.28472 0.35406
# Poissons Ratio (y) = 0.25470 0.29463
# Poissons Ratio (z) = 0.31717 0.29504
#
# Static dielectric constant tensor:
#      x y z
#    x 3.634230 0.000000 0.000000 
#    y 0.000000 3.708090 0.000000 
#    z 0.000000 0.000000 3.757610 
# 
# 
# High freq. dielectric constant tensor:
#      x y z
#    x 1.783130 0.000000 0.000000 
#    y 0.000000 1.795700 0.000000 
#    z 0.000000 0.000000 1.799220 
# 
# From -- ./inp_files/37722.got.cif
#   From: 2010.03.12/outbox.cif.g09.slc.cpg/sg53_19_cif.got.tgz:37722.got - 2010.04.16 14:36:59.
