data_PCOD8221707
_publ_section_title
;
Structure prediction by ZEFSAII (Michael W. Deem and Ramdas Pophale) SiO2 
 PCOD8221707
Probable space group: P M N A
;
_chemical_formula_sum "Si O2"
_cell_formula_units_Z 32
_cell_length_a 8.625908
_cell_length_b 20.430082
_cell_length_c 8.892513
_cell_angle_alpha 90.000000
_cell_angle_beta 90.000000
_cell_angle_gamma 90.000000
_cell_volume 1567.109850
_symmetry_space_group_name_H-M "P M N A"
_symmetry_group_IT_number 53
_symmetry_cell_setting 'orthorhombic'
loop_
_space_group_symop_operation_xyz
x,y,z
1/2-x,-y,1/2+z
x,-y,-z
1/2-x,y,1/2-z
-x,-y,-z
1/2+x,y,1/2-z
-x,y,z
1/2+x,-y,1/2+z
loop_
_atom_site_type_symbol
_atom_site_label
_atom_site_fract_x
_atom_site_fract_y
_atom_site_fract_z
Si Si1 0.183208 0.805577 0.584682
Si Si2 0.182396 0.316201 0.912562
Si Si3 0.177673 0.566359 0.590861
Si Si4 0.816593 0.064503 0.583977
O O1 0.250000 0.796337 0.750000
O O2 0.242515 0.749203 0.476208
O O3 0.240194 0.874013 0.514439
O O4 0.000000 0.802030 0.595026
O O5 0.250000 0.331687 0.750000
O O6 0.000000 0.306296 0.902083
O O7 0.220552 0.377001 0.017980
O O8 0.190821 0.500000 0.500000
O O9 0.250000 0.550147 0.750000
O O10 0.000000 0.590128 0.603661
O O11 0.750000 0.069244 0.750000
O O12 0.000000 0.062807 0.597405
O O13 0.753069 0.000000 0.500000
#
# Coordination Sequence:
#
# PCOD8221707 Si02
#       4
#     8   8   8   8
#     4  11  23  40  62  89 122 159 202 249 301 359
#     4  12  25  42  64  90 123 160 202 250 301 358
#     4  11  24  42  65  93 125 161 202 248 300 357
#     4  10  22  39  60  88 120 156 199 247 300 358
#
# _framework density 20.419754000000001
#
# number of rings (size 3 to 8) (size 9 to 14) (size 15 to 20)
#    0.000    1.000    0.000    6.750    0.000    8.500 
#    0.000    0.000    0.000    0.000    0.000    0.000 
#    0.000    0.000    0.000    0.000    0.000    0.000 
#
# Total GULP energy -397016.761422 kJ/mol
# GULP energy per Si atom -12406.773794 kJ/mol
# Density = 2.037328 g / cm^3
# Si number density = 20.419754 Si / 1000 Ang^3
#
#
#
# Elastic Constant Matrix: (Units=GPa)
#
#
# Indices 1 2 3 4 5 6 
#
# 1 62.5436 33.3249 36.4732 0.0000 0.0000 0.0000
# 2 33.3249 108.3924 20.8777 0.0000 0.0000 0.0000
# 3 36.4732 20.8777 120.4270 0.0000 0.0000 0.0000
# 4 0.0000 0.0000 0.0000 139.5479 0.0000 0.0000
# 5 0.0000 0.0000 0.0000 0.0000 34.5148 0.0000
# 6 0.0000 0.0000 0.0000 0.0000 0.0000 55.3446
#
#
#
# Elastic Compliance Matrix: (Units=1/GPa)
#
#
# Indices 1 2 3 4 5 6 
#
# 1 0.022453 -0.005786 -0.005797 0.000000 0.000000 0.000000
# 2 -0.005786 0.011036 -0.000161 0.000000 0.000000 0.000000
# 3 -0.005797 -0.000161 0.010087 0.000000 0.000000 0.000000
# 4 0.000000 0.000000 0.000000 0.007166 0.000000 0.000000
# 5 0.000000 0.000000 0.000000 0.000000 0.028973 0.000000
# 6 0.000000 0.000000 0.000000 0.000000 0.000000 0.018069
#
#
# Mechanical properties :
#
#
# Convention : Reuss Voigt Hill
#
# Bulk Modulus (GPa) = 49.78216 52.52382 51.15299
# Shear Modulus (GPa) = 39.07251 59.26063 49.16657
#
# Velocity S-wave (km/s) = 4.37906 5.39298 4.91225
# Velocity P-wave (km/s) = 7.07111 8.03473 7.56827
#
# Compressibility (1/GPa) = 0.02008752
#
# Stress axis : x y z
#
# Youngs Moduli (GPa) = 44.53832 90.61502 99.13414
#
# Poissons Ratio (x) = 0.52434 0.57468
# Poissons Ratio (y) = 0.25772 0.01593
# Poissons Ratio (z) = 0.25819 0.01456
#
# Static dielectric constant tensor:
#      x y z
#    x 3.840980 0.000000 0.000000 
#    y 0.000000 4.037510 0.000000 
#    z 0.000000 0.000000 3.990110 
# 
# 
# High freq. dielectric constant tensor:
#      x y z
#    x 1.806940 0.000000 0.000000 
#    y 0.000000 1.818400 0.000000 
#    z 0.000000 0.000000 1.818350 
# 
# From -- ./inp_files/6021.got.cif
#   From: 2010.03.12/outbox.cif.g09.slc.cpg/sg53_4_cif.got.tgz:6021.got - 2010.04.16 14:36:59.
