data_PCOD8221031
_publ_section_title
;
Structure prediction by ZEFSAII (Michael W. Deem and Ramdas Pophale) SiO2 
 PCOD8221031
Probable space group: P M N A
;
_chemical_formula_sum "Si O2"
_cell_formula_units_Z 28
_cell_length_a 26.636220
_cell_length_b 8.326025
_cell_length_c 5.331295
_cell_angle_alpha 90.000000
_cell_angle_beta 90.000000
_cell_angle_gamma 90.000000
_cell_volume 1182.341730
_symmetry_space_group_name_H-M "P M N A"
_symmetry_group_IT_number 53
_symmetry_cell_setting 'orthorhombic'
loop_
_space_group_symop_operation_xyz
x,y,z
1/2-x,-y,1/2+z
x,-y,-z
1/2-x,y,1/2-z
-x,-y,-z
1/2+x,y,1/2-z
-x,y,z
1/2+x,-y,1/2+z
loop_
_atom_site_type_symbol
_atom_site_label
_atom_site_fract_x
_atom_site_fract_y
_atom_site_fract_z
Si Si1 0.698962 0.825438 0.590908
Si Si2 0.401280 0.691932 0.754566
Si Si3 0.250000 0.399803 0.750000
Si Si4 0.441899 0.338824 0.746390
O O1 0.750000 0.834622 0.750000
O O2 0.656780 0.743823 0.763612
O O3 0.704684 0.714310 0.342825
O O4 0.682052 0.000000 0.500000
O O5 0.408198 0.499690 0.750288
O O6 0.427359 0.763037 0.501722
O O7 0.428362 0.762744 0.003642
O O8 0.233206 0.500000 0.500000
O O9 0.500000 0.388012 0.743399
#
# Coordination Sequence:
#
# PCOD8221031 Si02
#       4
#     8   8   4   8
#     4  12  28  48  72 101 157 205 243 295 380 443
#     4  10  22  35  67  99 130 183 245 282 353 448
#     4  12  28  44  74 104 138 186 254 314 346 420
#     4  10  20  40  67 102 143 178 229 318 385 417
#
# _framework density 23.681816999999999
#
# number of rings (size 3 to 8) (size 9 to 14) (size 15 to 20)
#    0.000    1.143    2.857    4.286    8.000    2.286 
#    0.000    0.000    0.000    9.429    0.000    0.000 
#    0.000    0.000    0.000    0.000    0.000    0.000 
#
# Total GULP energy -346956.860280 kJ/mol
# GULP energy per Si atom -12391.316439 kJ/mol
# Density = 2.362792 g / cm^3
# Si number density = 23.681817 Si / 1000 Ang^3
#
#
#
# Elastic Constant Matrix: (Units=GPa)
#
#
# Indices 1 2 3 4 5 6 
#
# 1 159.2460 44.8169 57.9096 0.0000 0.0000 0.0000
# 2 44.8169 91.1005 30.3173 0.0000 0.0000 0.0000
# 3 57.9096 30.3173 239.7027 0.0000 0.0000 0.0000
# 4 0.0000 0.0000 0.0000 17.2701 0.0000 0.0000
# 5 0.0000 0.0000 0.0000 0.0000 44.4872 0.0000
# 6 0.0000 0.0000 0.0000 0.0000 0.0000 1.7695
#
#
#
# Elastic Compliance Matrix: (Units=1/GPa)
#
#
# Indices 1 2 3 4 5 6 
#
# 1 0.007743 -0.003327 -0.001450 0.000000 0.000000 0.000000
# 2 -0.003327 0.012888 -0.000826 0.000000 0.000000 0.000000
# 3 -0.001450 -0.000826 0.004627 0.000000 0.000000 0.000000
# 4 0.000000 0.000000 0.000000 0.057903 0.000000 0.000000
# 5 0.000000 0.000000 0.000000 0.000000 0.022478 0.000000
# 6 0.000000 0.000000 0.000000 0.000000 0.000000 0.565141
#
#
# Mechanical properties :
#
#
# Convention : Reuss Voigt Hill
#
# Bulk Modulus (GPa) = 71.16335 84.01519 77.58927
# Shear Modulus (GPa) = 7.28151 36.50572 21.89361
#
# Velocity S-wave (km/s) = 1.75539 3.93046 3.04384
# Velocity P-wave (km/s) = 5.85009 7.49345 6.72218
#
# Compressibility (1/GPa) = 0.01405218
#
# Stress axis : x y z
#
# Youngs Moduli (GPa) = 129.14751 77.58860 216.13976
#
# Poissons Ratio (x) = 0.25811 0.31338
# Poissons Ratio (y) = 0.42964 0.17862
# Poissons Ratio (z) = 0.18725 0.06412
#
# Static dielectric constant tensor:
#      x y z
#    x 4.009920 0.000000 0.000000 
#    y 0.000000 3.934440 0.000000 
#    z 0.000000 0.000000 6.256730 
# 
# 
# High freq. dielectric constant tensor:
#      x y z
#    x 1.927620 0.000000 0.000000 
#    y 0.000000 1.880340 0.000000 
#    z 0.000000 0.000000 1.979140 
# 
# From -- ./inp_files/4876.got.cif
#   From: 2010.03.12/outbox.cif.g09.slc.cpg/sg53_3_cif.got.tgz:4876.got - 2010.04.16 14:36:59.
