data_PCOD8221043
_publ_section_title
;
Structure prediction by ZEFSAII (Michael W. Deem and Ramdas Pophale) SiO2 
 PCOD8221043
Probable space group: P M N A
;
_chemical_formula_sum "Si O2"
_cell_formula_units_Z 40
_cell_length_a 14.618893
_cell_length_b 7.640126
_cell_length_c 16.247209
_cell_angle_alpha 90.000000
_cell_angle_beta 90.000000
_cell_angle_gamma 90.000000
_cell_volume 1814.653771
_symmetry_space_group_name_H-M "P M N A"
_symmetry_group_IT_number 53
_symmetry_cell_setting 'orthorhombic'
loop_
_space_group_symop_operation_xyz
x,y,z
1/2-x,-y,1/2+z
x,-y,-z
1/2-x,y,1/2-z
-x,-y,-z
1/2+x,y,1/2-z
-x,y,z
1/2+x,-y,1/2+z
loop_
_atom_site_type_symbol
_atom_site_label
_atom_site_fract_x
_atom_site_fract_y
_atom_site_fract_z
Si Si1 0.740159 0.500000 0.000000
Si Si2 0.500000 0.011439 0.709742
Si Si3 0.500000 0.294373 0.840491
Si Si4 0.193535 0.588624 0.828342
Si Si5 0.203628 0.012566 0.165571
Si Si6 0.659838 0.162269 0.950911
Si Si7 0.000000 0.372274 0.245932
O O1 0.794962 0.479509 0.913470
O O2 0.680431 0.324503 0.011185
O O3 0.406275 0.009231 0.657595
O O4 0.500000 0.836074 0.768711
O O5 0.500000 0.195703 0.754492
O O6 0.590662 0.235178 0.884812
O O7 0.500000 0.505371 0.827416
O O8 0.250000 0.508152 0.750000
O O9 0.229795 0.784432 0.843636
O O10 0.086882 0.581006 0.809074
O O11 0.250000 0.942349 0.250000
O O12 0.246797 0.905792 0.090639
O O13 0.614794 0.000000 0.000000
#
# Coordination Sequence:
#
# PCOD8221043 Si02
#       7
#     4   4   4   8   8   8   4
#     4  12  26  42  70  98 142 192 224 290 356 406
#     4  10  22  41  71 104 126 179 229 293 345 404
#     4  12  25  41  72 102 136 184 234 285 353 425
#     4  10  22  43  69  99 136 181 234 288 345 417
#     4  10  20  42  70  95 134 176 233 287 341 412
#     4  12  26  44  64 101 140 183 231 285 351 421
#     4  10  24  42  66 104 137 174 233 292 349 411
#
# _framework density 22.042771999999999
#
# number of rings (size 3 to 8) (size 9 to 14) (size 15 to 20)
#    0.000    1.200    4.000    1.500    2.800    3.200 
#    0.000    2.500    0.000    0.000    0.000    0.000 
#    0.000    0.000    0.000    0.000    0.000    0.000 
#
# Total GULP energy -495796.774780 kJ/mol
# GULP energy per Si atom -12394.919369 kJ/mol
# Density = 2.199260 g / cm^3
# Si number density = 22.042772 Si / 1000 Ang^3
#
#
#
# Elastic Constant Matrix: (Units=GPa)
#
#
# Indices 1 2 3 4 5 6 
#
# 1 122.0543 21.4682 30.5860 0.0000 0.0000 0.0000
# 2 21.4682 113.0735 22.1020 0.0000 0.0000 0.0000
# 3 30.5860 22.1020 94.3580 0.0000 0.0000 0.0000
# 4 0.0000 0.0000 0.0000 37.2070 0.0000 0.0000
# 5 0.0000 0.0000 0.0000 0.0000 44.4673 0.0000
# 6 0.0000 0.0000 0.0000 0.0000 0.0000 10.6934
#
#
#
# Elastic Compliance Matrix: (Units=1/GPa)
#
#
# Indices 1 2 3 4 5 6 
#
# 1 0.009071 -0.001203 -0.002659 0.000000 0.000000 0.000000
# 2 -0.001203 0.009428 -0.001818 0.000000 0.000000 0.000000
# 3 -0.002659 -0.001818 0.011886 0.000000 0.000000 0.000000
# 4 0.000000 0.000000 0.000000 0.026877 0.000000 0.000000
# 5 0.000000 0.000000 0.000000 0.000000 0.022488 0.000000
# 6 0.000000 0.000000 0.000000 0.000000 0.000000 0.093516
#
#
# Mechanical properties :
#
#
# Convention : Reuss Voigt Hill
#
# Bulk Modulus (GPa) = 52.56291 53.08870 52.82580
# Shear Modulus (GPa) = 26.18266 35.49550 30.83908
#
# Velocity S-wave (km/s) = 3.45020 4.01721 3.74445
# Velocity P-wave (km/s) = 6.30631 6.75677 6.53542
#
# Compressibility (1/GPa) = 0.01902482
#
# Stress axis : x y z
#
# Youngs Moduli (GPa) = 110.24363 106.07189 84.13490
#
# Poissons Ratio (x) = 0.12755 0.22368
# Poissons Ratio (y) = 0.13257 0.15300
# Poissons Ratio (z) = 0.29310 0.19289
#
# Static dielectric constant tensor:
#      x y z
#    x 3.576160 0.000000 0.000000 
#    y 0.000000 4.387980 0.000000 
#    z 0.000000 0.000000 3.775110 
# 
# 
# High freq. dielectric constant tensor:
#      x y z
#    x 1.867320 0.000000 0.000000 
#    y 0.000000 1.881500 0.000000 
#    z 0.000000 0.000000 1.844680 
# 
# From -- ./inp_files/22499.got.cif
#   From: 2010.03.12/outbox.cif.g09.slc.cpg/sg53_12_cif.got.tgz:22499.got - 2010.04.16 14:36:59.
