data_PCOD8221690
_publ_section_title
;
Structure prediction by ZEFSAII (Michael W. Deem and Ramdas Pophale) SiO2 
 PCOD8221690
Probable space group: P M N A
;
_chemical_formula_sum "Si O2"
_cell_formula_units_Z 48
_cell_length_a 8.905083
_cell_length_b 14.814594
_cell_length_c 18.687110
_cell_angle_alpha 90.000000
_cell_angle_beta 90.000000
_cell_angle_gamma 90.000000
_cell_volume 2465.300522
_symmetry_space_group_name_H-M "P M N A"
_symmetry_group_IT_number 53
_symmetry_cell_setting 'orthorhombic'
loop_
_space_group_symop_operation_xyz
x,y,z
1/2-x,-y,1/2+z
x,-y,-z
1/2-x,y,1/2-z
-x,-y,-z
1/2+x,y,1/2-z
-x,y,z
1/2+x,-y,1/2+z
loop_
_atom_site_type_symbol
_atom_site_label
_atom_site_fract_x
_atom_site_fract_y
_atom_site_fract_z
Si Si1 0.322939 0.534297 0.174001
Si Si2 0.677069 0.873299 0.449512
Si Si3 0.177336 0.939380 0.897457
Si Si4 0.324660 0.785887 0.821310
Si Si5 0.325109 0.630364 0.929071
Si Si6 0.178446 0.673229 0.074585
O O1 0.250000 0.512068 0.250000
O O2 0.500000 0.545097 0.183810
O O3 0.281566 0.453955 0.120079
O O4 0.253820 0.626155 0.142679
O O5 0.500000 0.868302 0.455944
O O6 0.738149 0.897888 0.528027
O O7 0.739083 0.776670 0.423780
O O8 0.721043 0.954074 0.394649
O O9 0.262192 0.886641 0.834635
O O10 0.000000 0.925711 0.888355
O O11 0.250000 0.745742 0.750000
O O12 0.500000 0.789368 0.808249
O O13 0.281862 0.721395 0.887197
O O14 0.500000 0.627946 0.949834
O O15 0.229197 0.624991 0.001339
O O16 0.000000 0.667221 0.081190
#
# Coordination Sequence:
#
# PCOD8221690 Si02
#       6
#     8   8   8   8   8   8
#     4  11  24  42  60  81 113 152 191 235 286 339
#     4   8  16  31  56  84 110 142 182 226 274 327
#     4   9  16  33  56  79 109 146 184 225 274 329
#     4  11  22  35  53  81 115 151 190 235 287 340
#     4  10  22  39  58  83 115 149 188 235 286 337
#     4  11  21  36  61  91 116 146 189 234 281 338
#
# _framework density 19.470243
#
# number of rings (size 3 to 8) (size 9 to 14) (size 15 to 20)
#    0.000    2.000    1.667    3.500    0.000    4.000 
#    0.000    4.167    0.000    0.000    0.000    0.000 
#    0.000    0.000    0.000    0.000    0.000    0.000 
#
# Total GULP energy -595213.478754 kJ/mol
# GULP energy per Si atom -12400.280807 kJ/mol
# Density = 1.942593 g / cm^3
# Si number density = 19.470243 Si / 1000 Ang^3
#
#
#
# Elastic Constant Matrix: (Units=GPa)
#
#
# Indices 1 2 3 4 5 6 
#
# 1 66.6773 33.3827 27.5297 0.0000 0.0000 0.0000
# 2 33.3827 120.6582 24.7663 0.0000 0.0000 0.0000
# 3 27.5297 24.7663 56.4883 0.0000 0.0000 0.0000
# 4 0.0000 0.0000 0.0000 13.9531 0.0000 0.0000
# 5 0.0000 0.0000 0.0000 0.0000 33.5076 0.0000
# 6 0.0000 0.0000 0.0000 0.0000 0.0000 26.2918
#
#
#
# Elastic Compliance Matrix: (Units=1/GPa)
#
#
# Indices 1 2 3 4 5 6 
#
# 1 0.020357 -0.003951 -0.008188 0.000000 0.000000 0.000000
# 2 -0.003951 0.009874 -0.002404 0.000000 0.000000 0.000000
# 3 -0.008188 -0.002404 0.022747 0.000000 0.000000 0.000000
# 4 0.000000 0.000000 0.000000 0.071668 0.000000 0.000000
# 5 0.000000 0.000000 0.000000 0.000000 0.029844 0.000000
# 6 0.000000 0.000000 0.000000 0.000000 0.000000 0.038035
#
#
# Mechanical properties :
#
#
# Convention : Reuss Voigt Hill
#
# Bulk Modulus (GPa) = 41.85571 46.13124 43.99348
# Shear Modulus (GPa) = 21.77925 25.29353 23.53639
#
# Velocity S-wave (km/s) = 3.34816 3.60819 3.48061
# Velocity P-wave (km/s) = 6.04077 6.41119 6.22873
#
# Compressibility (1/GPa) = 0.02389160
#
# Stress axis : x y z
#
# Youngs Moduli (GPa) = 49.12372 101.27128 43.96132
#
# Poissons Ratio (x) = 0.40016 0.35998
# Poissons Ratio (y) = 0.19411 0.10566
# Poissons Ratio (z) = 0.40225 0.24341
#
# Static dielectric constant tensor:
#      x y z
#    x 3.324200 0.000000 0.000000 
#    y 0.000000 3.961540 0.000000 
#    z 0.000000 0.000000 3.385370 
# 
# 
# High freq. dielectric constant tensor:
#      x y z
#    x 1.743530 0.000000 0.000000 
#    y 0.000000 1.770870 0.000000 
#    z 0.000000 0.000000 1.743740 
# 
# From -- ./inp_files/26223.got.cif
#   From: 2010.03.12/outbox.cif.g09.slc.cpg/sg53_14_cif.got.tgz:26223.got - 2010.04.16 14:36:59.
