data_PCOD8221728
_publ_section_title
;
Structure prediction by ZEFSAII (Michael W. Deem and Ramdas Pophale) SiO2 
 PCOD8221728
Probable space group: P M N A
;
_chemical_formula_sum "Si O2"
_cell_formula_units_Z 40
_cell_length_a 14.446083
_cell_length_b 13.529665
_cell_length_c 9.978623
_cell_angle_alpha 90.000000
_cell_angle_beta 90.000000
_cell_angle_gamma 90.000000
_cell_volume 1950.328487
_symmetry_space_group_name_H-M "P M N A"
_symmetry_group_IT_number 53
_symmetry_cell_setting 'orthorhombic'
loop_
_space_group_symop_operation_xyz
x,y,z
1/2-x,-y,1/2+z
x,-y,-z
1/2-x,y,1/2-z
-x,-y,-z
1/2+x,y,1/2-z
-x,y,z
1/2+x,-y,1/2+z
loop_
_atom_site_type_symbol
_atom_site_label
_atom_site_fract_x
_atom_site_fract_y
_atom_site_fract_z
Si Si1 0.765452 0.414516 0.094564
Si Si2 0.602266 0.244894 0.326650
Si Si3 0.110423 0.027812 0.143980
Si Si4 0.110139 0.915976 0.400630
Si Si5 0.102822 0.290051 0.482644
O O1 0.750000 0.448765 0.250000
O O2 0.834736 0.322140 0.094043
O O3 0.673073 0.382361 0.011825
O O4 0.808611 0.500000 0.000000
O O5 0.500000 0.246985 0.393661
O O6 0.649267 0.137394 0.331793
O O7 0.593739 0.267111 0.172201
O O8 0.000000 0.030537 0.149560
O O9 0.145667 0.947680 0.252765
O O10 0.149975 0.000000 0.000000
O O11 0.144012 0.805372 0.438047
O O12 0.000000 0.914911 0.411581
O O13 0.149851 0.000000 0.500000
O O14 0.000000 0.319171 0.538145
#
# Coordination Sequence:
#
# PCOD8221728 Si02
#       5
#     8   8   8   8   8
#     4  10  22  40  58  76 106 141 181 236 285 322
#     4   9  17  33  57  79 105 144 183 217 266 333
#     4   9  16  27  47  78 113 142 169 209 262 315
#     4   9  14  25  49  78 106 137 172 209 252 314
#     4   9  17  32  57  82 104 139 184 224 267 323
#
# _framework density 20.509366
#
# number of rings (size 3 to 8) (size 9 to 14) (size 15 to 20)
#    0.000    2.800    2.000    0.000    0.000    0.800 
#    3.600    1.000    0.000    0.000    0.000    0.000 
#    0.000    0.000    0.000    0.000    0.000    0.000 
#
# Total GULP energy -495617.180510 kJ/mol
# GULP energy per Si atom -12390.429513 kJ/mol
# Density = 2.046269 g / cm^3
# Si number density = 20.509366 Si / 1000 Ang^3
#
#
#
# Elastic Constant Matrix: (Units=GPa)
#
#
# Indices 1 2 3 4 5 6 
#
# 1 51.7590 29.0317 13.1896 0.0000 0.0000 0.0000
# 2 29.0317 100.7233 38.0643 0.0000 0.0000 0.0000
# 3 13.1896 38.0643 89.3252 0.0000 0.0000 0.0000
# 4 0.0000 0.0000 0.0000 43.2849 0.0000 0.0000
# 5 0.0000 0.0000 0.0000 0.0000 5.7445 0.0000
# 6 0.0000 0.0000 0.0000 0.0000 0.0000 33.8180
#
#
#
# Elastic Compliance Matrix: (Units=1/GPa)
#
#
# Indices 1 2 3 4 5 6 
#
# 1 0.023081 -0.006395 -0.000683 0.000000 0.000000 0.000000
# 2 -0.006395 0.013606 -0.004854 0.000000 0.000000 0.000000
# 3 -0.000683 -0.004854 0.013364 0.000000 0.000000 0.000000
# 4 0.000000 0.000000 0.000000 0.023103 0.000000 0.000000
# 5 0.000000 0.000000 0.000000 0.000000 0.174080 0.000000
# 6 0.000000 0.000000 0.000000 0.000000 0.000000 0.029570
#
#
# Mechanical properties :
#
#
# Convention : Reuss Voigt Hill
#
# Bulk Modulus (GPa) = 38.18504 44.70874 41.44689
# Shear Modulus (GPa) = 16.16052 27.33761 21.74906
#
# Velocity S-wave (km/s) = 2.81010 3.65490 3.25998
# Velocity P-wave (km/s) = 5.40256 6.29742 5.86708
#
# Compressibility (1/GPa) = 0.02618827
#
# Stress axis : x y z
#
# Youngs Moduli (GPa) = 43.32541 73.49969 74.82697
#
# Poissons Ratio (x) = 0.47000 0.05112
# Poissons Ratio (y) = 0.27705 0.36317
# Poissons Ratio (z) = 0.02960 0.35673
#
# Static dielectric constant tensor:
#      x y z
#    x 4.457320 0.000000 0.000000 
#    y 0.000000 3.161540 0.000000 
#    z 0.000000 0.000000 3.636980 
# 
# 
# High freq. dielectric constant tensor:
#      x y z
#    x 1.788260 0.000000 0.000000 
#    y 0.000000 1.791100 0.000000 
#    z 0.000000 0.000000 1.782040 
# 
# From -- ./inp_files/8393.got.cif
#   From: 2010.03.12/outbox.cif.g09.slc.cpg/sg53_5_cif.got.tgz:8393.got - 2010.04.16 14:36:59.
