data_PCOD8221331
_publ_section_title
;
Structure prediction by ZEFSAII (Michael W. Deem and Ramdas Pophale) SiO2 
 PCOD8221331
Probable space group: P M N A
;
_chemical_formula_sum "Si O2"
_cell_formula_units_Z 40
_cell_length_a 9.438744
_cell_length_b 24.393947
_cell_length_c 8.739719
_cell_angle_alpha 90.000000
_cell_angle_beta 90.000000
_cell_angle_gamma 90.000000
_cell_volume 2012.304751
_symmetry_space_group_name_H-M "P M N A"
_symmetry_group_IT_number 53
_symmetry_cell_setting 'orthorhombic'
loop_
_space_group_symop_operation_xyz
x,y,z
1/2-x,-y,1/2+z
x,-y,-z
1/2-x,y,1/2-z
-x,-y,-z
1/2+x,y,1/2-z
-x,y,z
1/2+x,-y,1/2+z
loop_
_atom_site_type_symbol
_atom_site_label
_atom_site_fract_x
_atom_site_fract_y
_atom_site_fract_z
Si Si1 0.000000 0.061025 0.566761
Si Si2 0.000000 0.059130 0.928695
Si Si3 0.831942 0.342230 0.091686
Si Si4 0.333214 0.445246 0.094305
Si Si5 0.334667 0.232979 0.593593
Si Si6 0.753113 0.126687 0.068832
O O1 0.000000 0.054710 0.747385
O O2 0.122325 0.098935 0.508290
O O3 0.000000 0.000000 0.500000
O O4 0.128650 0.092268 0.989897
O O5 0.000000 0.000000 0.000000
O O6 0.750000 0.329070 0.250000
O O7 0.750876 0.394435 0.014937
O O8 0.000000 0.353492 0.120814
O O9 0.811781 0.292946 0.974633
O O10 0.250000 0.455760 0.250000
O O11 0.500000 0.431274 0.118807
O O12 0.315015 0.500000 0.000000
O O13 0.250000 0.227389 0.750000
O O14 0.500000 0.220523 0.623209
O O15 0.269740 0.190559 0.471704
O O16 0.750000 0.120058 0.250000
#
# Coordination Sequence:
#
# PCOD8221331 Si02
#       6
#     4   4   8   8   8   8
#     4  12  26  44  68  98 128 170 209 260 323 372
#     4  12  24  44  68  94 132 166 211 262 311 384
#     4  10  21  39  62  90 124 163 211 260 315 378
#     4  10  21  37  59  89 124 165 213 263 318 380
#     4  11  25  43  64  93 127 164 208 261 317 378
#     4  12  25  44  66  95 128 166 214 260 317 382
#
# _framework density 19.877706
#
# number of rings (size 3 to 8) (size 9 to 14) (size 15 to 20)
#    0.000    1.000    1.000    7.200    1.400    4.000 
#    0.000    4.000    0.000    0.000    0.000    0.000 
#    0.000    0.000    0.000    0.000    0.000    0.000 
#
# Total GULP energy -495689.869537 kJ/mol
# GULP energy per Si atom -12392.246738 kJ/mol
# Density = 1.983246 g / cm^3
# Si number density = 19.877706 Si / 1000 Ang^3
#
#
#
# Elastic Constant Matrix: (Units=GPa)
#
#
# Indices 1 2 3 4 5 6 
#
# 1 176.2023 70.9536 61.9412 0.0000 0.0000 0.0000
# 2 70.9536 152.1895 64.5511 0.0000 0.0000 0.0000
# 3 61.9412 64.5511 149.4606 0.0000 0.0000 0.0000
# 4 0.0000 0.0000 0.0000 49.0120 0.0000 0.0000
# 5 0.0000 0.0000 0.0000 0.0000 26.9173 0.0000
# 6 0.0000 0.0000 0.0000 0.0000 0.0000 39.1444
#
#
#
# Elastic Compliance Matrix: (Units=1/GPa)
#
#
# Indices 1 2 3 4 5 6 
#
# 1 0.007418 -0.002638 -0.001935 0.000000 0.000000 0.000000
# 2 -0.002638 0.008982 -0.002786 0.000000 0.000000 0.000000
# 3 -0.001935 -0.002786 0.008696 0.000000 0.000000 0.000000
# 4 0.000000 0.000000 0.000000 0.020403 0.000000 0.000000
# 5 0.000000 0.000000 0.000000 0.000000 0.037151 0.000000
# 6 0.000000 0.000000 0.000000 0.000000 0.000000 0.025546
#
#
# Mechanical properties :
#
#
# Convention : Reuss Voigt Hill
#
# Bulk Modulus (GPa) = 96.35495 96.97158 96.66326
# Shear Modulus (GPa) = 39.56537 41.70851 40.63694
#
# Velocity S-wave (km/s) = 4.46627 4.58564 4.52635
# Velocity P-wave (km/s) = 8.67040 8.77083 8.72076
#
# Compressibility (1/GPa) = 0.01037829
#
# Stress axis : x y z
#
# Youngs Moduli (GPa) = 134.81491 111.33107 114.99511
#
# Poissons Ratio (x) = 0.29364 0.22251
# Poissons Ratio (y) = 0.35558 0.32041
# Poissons Ratio (z) = 0.26086 0.31020
#
# Static dielectric constant tensor:
#      x y z
#    x 3.978190 0.000000 0.000000 
#    y 0.000000 4.033900 0.000000 
#    z 0.000000 0.000000 2.622550 
# 
# 
# High freq. dielectric constant tensor:
#      x y z
#    x 1.800950 0.000000 0.000000 
#    y 0.000000 1.799900 0.000000 
#    z 0.000000 0.000000 1.774940 
# 
# From -- ./inp_files/6363.got.cif
#   From: 2010.03.12/outbox.cif.g09.slc.cpg/sg53_4_cif.got.tgz:6363.got - 2010.04.16 14:36:59.
