data_PCOD8221641
_publ_section_title
;
Structure prediction by ZEFSAII (Michael W. Deem and Ramdas Pophale) SiO2 
 PCOD8221641
Probable space group: P M N A
;
_chemical_formula_sum "Si O2"
_cell_formula_units_Z 56
_cell_length_a 16.915528
_cell_length_b 12.288931
_cell_length_c 13.697113
_cell_angle_alpha 90.000000
_cell_angle_beta 90.000000
_cell_angle_gamma 90.000000
_cell_volume 2847.270331
_symmetry_space_group_name_H-M "P M N A"
_symmetry_group_IT_number 53
_symmetry_cell_setting 'orthorhombic'
loop_
_space_group_symop_operation_xyz
x,y,z
1/2-x,-y,1/2+z
x,-y,-z
1/2-x,y,1/2-z
-x,-y,-z
1/2+x,y,1/2-z
-x,y,z
1/2+x,-y,1/2+z
loop_
_atom_site_type_symbol
_atom_site_label
_atom_site_fract_x
_atom_site_fract_y
_atom_site_fract_z
Si Si1 0.658035 0.640815 0.247037
Si Si2 0.684356 0.740627 0.670078
Si Si3 0.187985 0.194576 0.475208
Si Si4 0.408113 0.097687 0.196937
Si Si5 0.913145 0.384171 0.545617
Si Si6 0.907737 0.473880 0.108790
Si Si7 0.827374 0.880825 0.304229
O O1 0.750000 0.613026 0.250000
O O2 0.622020 0.590520 0.150446
O O3 0.613178 0.584850 0.335680
O O4 0.643704 0.770628 0.248345
O O5 0.750000 0.711338 0.750000
O O6 0.724888 0.786472 0.570840
O O7 0.626076 0.832604 0.712943
O O8 0.637436 0.630565 0.649595
O O9 0.136659 0.119866 0.404209
O O10 0.144767 0.310580 0.481583
O O11 0.193530 0.139976 0.581760
O O12 0.500000 0.124631 0.186168
O O13 0.395934 0.968869 0.213459
O O14 0.922647 0.500000 0.500000
O O15 0.000000 0.327928 0.552789
O O16 0.000000 0.448280 0.116964
O O17 0.880601 0.500000 0.000000
O O18 0.750000 0.926776 0.250000
#
# Coordination Sequence:
#
# PCOD8221641 Si02
#       7
#     8   8   8   8   8   8   8
#     4  10  23  38  61  89 119 164 205 252 306 371
#     4  10  23  41  64  93 121 163 207 258 308 371
#     4  10  22  38  64  93 120 162 207 255 307 373
#     4  11  23  40  64  92 126 161 203 258 314 375
#     4  10  22  36  56  89 126 157 192 251 316 367
#     4  11  25  40  61  88 124 166 206 256 307 372
#     4  10  22  40  63  92 120 161 206 257 311 364
#
# _framework density 19.667959
#
# number of rings (size 3 to 8) (size 9 to 14) (size 15 to 20)
#    0.000    1.714    0.000    3.429   12.000    4.000 
#    0.000    0.000    0.000    0.857    0.000    0.000 
#    0.000    0.000    0.000    0.000    0.000    0.000 
#
# Total GULP energy -694449.237115 kJ/mol
# GULP energy per Si atom -12400.879234 kJ/mol
# Density = 1.962319 g / cm^3
# Si number density = 19.667959 Si / 1000 Ang^3
#
#
#
# Elastic Constant Matrix: (Units=GPa)
#
#
# Indices 1 2 3 4 5 6 
#
# 1 86.8404 37.7991 37.2635 0.0000 0.0000 0.0000
# 2 37.7991 105.2152 49.5710 0.0000 0.0000 0.0000
# 3 37.2635 49.5710 85.3100 0.0000 0.0000 0.0000
# 4 0.0000 0.0000 0.0000 30.1372 0.0000 0.0000
# 5 0.0000 0.0000 0.0000 0.0000 81.5621 0.0000
# 6 0.0000 0.0000 0.0000 0.0000 0.0000 80.4839
#
#
#
# Elastic Compliance Matrix: (Units=1/GPa)
#
#
# Indices 1 2 3 4 5 6 
#
# 1 0.014892 -0.003147 -0.004676 0.000000 0.000000 0.000000
# 2 -0.003147 0.013752 -0.006616 0.000000 0.000000 0.000000
# 3 -0.004676 -0.006616 0.017609 0.000000 0.000000 0.000000
# 4 0.000000 0.000000 0.000000 0.033182 0.000000 0.000000
# 5 0.000000 0.000000 0.000000 0.000000 0.012261 0.000000
# 6 0.000000 0.000000 0.000000 0.000000 0.000000 0.012425
#
#
# Mechanical properties :
#
#
# Convention : Reuss Voigt Hill
#
# Bulk Modulus (GPa) = 57.55690 58.51475 58.03583
# Shear Modulus (GPa) = 36.02566 48.61877 42.32222
#
# Velocity S-wave (km/s) = 4.28447 4.97729 4.64382
# Velocity P-wave (km/s) = 7.33508 7.92762 7.63710
#
# Compressibility (1/GPa) = 0.01737411
#
# Stress axis : x y z
#
# Youngs Moduli (GPa) = 67.15174 72.71638 56.78880
#
# Poissons Ratio (x) = 0.22882 0.26556
# Poissons Ratio (y) = 0.21131 0.37574
# Poissons Ratio (z) = 0.31402 0.48112
#
# Static dielectric constant tensor:
#      x y z
#    x 3.777900 0.000000 0.000000 
#    y 0.000000 3.688950 0.000000 
#    z 0.000000 0.000000 3.729630 
# 
# 
# High freq. dielectric constant tensor:
#      x y z
#    x 1.769000 0.000000 0.000000 
#    y 0.000000 1.774640 0.000000 
#    z 0.000000 0.000000 1.770920 
# 
# From -- ./inp_files/22824.got.cif
#   From: 2010.03.12/outbox.cif.g09.slc.cpg/sg53_12_cif.got.tgz:22824.got - 2010.04.16 14:36:59.
