data_PCOD8221745
_publ_section_title
;
Structure prediction by ZEFSAII (Michael W. Deem and Ramdas Pophale) SiO2 
 PCOD8221745
Probable space group: P M N A
;
_chemical_formula_sum "Si O2"
_cell_formula_units_Z 28
_cell_length_a 23.674729
_cell_length_b 12.035585
_cell_length_c 5.024140
_cell_angle_alpha 90.000000
_cell_angle_beta 90.000000
_cell_angle_gamma 90.000000
_cell_volume 1431.574499
_symmetry_space_group_name_H-M "P M N A"
_symmetry_group_IT_number 53
_symmetry_cell_setting 'orthorhombic'
loop_
_space_group_symop_operation_xyz
x,y,z
1/2-x,-y,1/2+z
x,-y,-z
1/2-x,y,1/2-z
-x,-y,-z
1/2+x,y,1/2-z
-x,y,z
1/2+x,-y,1/2+z
loop_
_atom_site_type_symbol
_atom_site_label
_atom_site_fract_x
_atom_site_fract_y
_atom_site_fract_z
Si Si1 0.597700 0.247192 0.592860
Si Si2 0.213166 0.870336 0.999675
Si Si3 0.000000 0.079926 0.760488
Si Si4 0.436124 0.628882 0.936858
O O1 0.654872 0.194803 0.486314
O O2 0.555825 0.152941 0.702591
O O3 0.574439 0.330772 0.365366
O O4 0.608704 0.317168 0.860375
O O5 0.250000 0.834724 0.750000
O O6 0.250000 0.834785 0.250000
O O7 0.198454 0.000000 0.000000
O O8 0.000000 0.000000 0.500000
O O9 0.000000 0.000000 0.000000
O O10 0.500000 0.666994 0.009329
O O11 0.429777 0.500000 0.000000
#
# Coordination Sequence:
#
# PCOD8221745 Si02
#       4
#     8   8   4   8
#     4  12  22  40  62  89 125 159 199 255 308 362
#     4  10  22  40  62  87 117 163 211 244 289 361
#     4  12  24  36  55  92 131 158 188 242 318 374
#     4  11  22  39  62  90 122 159 206 249 303 375
#
# _framework density 19.558885
#
# number of rings (size 3 to 8) (size 9 to 14) (size 15 to 20)
#    0.000    0.857    2.857    5.143    0.000    5.714 
#    0.000    0.000    0.000   17.143    0.000    0.000 
#    0.000    0.000    0.000    0.000    0.000    0.000 
#
# Total GULP energy -346971.410416 kJ/mol
# GULP energy per Si atom -12391.836086 kJ/mol
# Density = 1.951437 g / cm^3
# Si number density = 19.558885 Si / 1000 Ang^3
#
#
#
# Elastic Constant Matrix: (Units=GPa)
#
#
# Indices 1 2 3 4 5 6 
#
# 1 118.5346 55.8811 37.2113 0.0000 0.0000 0.0000
# 2 55.8811 87.8632 58.9905 0.0000 0.0000 0.0000
# 3 37.2113 58.9905 161.2693 0.0000 0.0000 0.0000
# 4 0.0000 0.0000 0.0000 50.6801 0.0000 0.0000
# 5 0.0000 0.0000 0.0000 0.0000 -354.2324 0.0000
# 6 0.0000 0.0000 0.0000 0.0000 0.0000 23.4752
#
#
#
# Elastic Compliance Matrix: (Units=1/GPa)
#
#
# Indices 1 2 3 4 5 6 
#
# 1 0.012049 -0.007684 0.000030 0.000000 0.000000 0.000000
# 2 -0.007684 0.019986 -0.005538 0.000000 0.000000 0.000000
# 3 0.000030 -0.005538 0.008219 0.000000 0.000000 0.000000
# 4 0.000000 0.000000 0.000000 0.019732 0.000000 0.000000
# 5 0.000000 0.000000 0.000000 0.000000 -0.002823 0.000000
# 6 0.000000 0.000000 0.000000 0.000000 0.000000 0.042598
#
#
# Mechanical properties :
#
#
# Convention : Reuss Voigt Hill
#
# Bulk Modulus (GPa) = 72.08444 74.64811 73.36627
# Shear Modulus (GPa) = 38.23566 -41.64315 -1.70375
#
# Velocity S-wave (km/s) = 4.42622 -4.61924 -0.93433
# Velocity P-wave (km/s) = 7.94084 3.13031 6.03555
#
# Compressibility (1/GPa) = 0.01387262
#
# Stress axis : x y z
#
# Youngs Moduli (GPa) = 82.99334 50.03461 121.66253
#
# Poissons Ratio (x) = 0.38445 -0.00370
# Poissons Ratio (y) = 0.63769 0.67374
# Poissons Ratio (z) = -0.00252 0.27708
#
# Static dielectric constant tensor:
#      x y z
#    x 3.440150 0.000000 0.000000 
#    y 0.000000 3.657790 0.000000 
#    z 0.000000 0.000000 3.833450 
# 
# 
# High freq. dielectric constant tensor:
#      x y z
#    x 1.747940 0.000000 0.000000 
#    y 0.000000 1.767140 0.000000 
#    z 0.000000 0.000000 1.787540 
# 
# From -- ./inp_files/2561.got.cif
#   From: 2010.03.12/outbox.cif.g09.slc.cpg/sg53_2_cif.got.tgz:2561.got - 2010.04.16 14:36:59.
