data_PCOD8221182
_publ_section_title
;
Structure prediction by ZEFSAII (Michael W. Deem and Ramdas Pophale) SiO2 
 PCOD8221182
Probable space group: P M N A
;
_chemical_formula_sum "Si O2"
_cell_formula_units_Z 64
_cell_length_a 24.529709
_cell_length_b 9.467897
_cell_length_c 14.112323
_cell_angle_alpha 90.000000
_cell_angle_beta 90.000000
_cell_angle_gamma 90.000000
_cell_volume 3277.513044
_symmetry_space_group_name_H-M "P M N A"
_symmetry_group_IT_number 53
_symmetry_cell_setting 'orthorhombic'
loop_
_space_group_symop_operation_xyz
x,y,z
1/2-x,-y,1/2+z
x,-y,-z
1/2-x,y,1/2-z
-x,-y,-z
1/2+x,y,1/2-z
-x,y,z
1/2+x,-y,1/2+z
loop_
_atom_site_type_symbol
_atom_site_label
_atom_site_fract_x
_atom_site_fract_y
_atom_site_fract_z
Si Si1 0.828066 0.934659 0.901962
Si Si2 0.563417 0.230641 0.074462
Si Si3 0.381112 0.997926 0.203199
Si Si4 0.698977 0.659969 0.691790
Si Si5 0.730920 0.873665 0.147183
Si Si6 0.373541 0.468139 0.161119
Si Si7 0.760258 0.564305 0.407034
Si Si8 0.562036 0.259245 0.855681
O O1 0.866609 0.964455 0.811572
O O2 0.816375 0.764834 0.896388
O O3 0.769694 0.008305 0.895426
O O4 0.854371 0.000000 0.000000
O O5 0.500000 0.206119 0.096860
O O6 0.598895 0.128526 0.140553
O O7 0.580919 0.389902 0.098658
O O8 0.575866 0.211729 0.963365
O O9 0.329728 0.933410 0.147375
O O10 0.427867 0.879126 0.208086
O O11 0.750000 0.733062 0.750000
O O12 0.643441 0.632330 0.750643
O O13 0.718818 0.499838 0.670161
O O14 0.750000 0.825312 0.250000
O O15 0.736145 0.732345 0.085377
O O16 0.319575 0.495371 0.101339
O O17 0.399890 0.618463 0.187956
O O18 0.733468 0.500000 0.500000
O O19 0.500000 0.309330 0.846755
#
# Coordination Sequence:
#
# PCOD8221182 Si02
#       8
#     8   8   8   8   8   8   8   8
#     4  11  23  39  59  87 116 153 199 240 286 345
#     4  11  23  39  60  87 118 152 195 241 291 355
#     4  11  22  39  60  84 120 156 193 239 295 345
#     4  10  21  37  58  84 122 157 192 239 285 351
#     4  10  21  36  56  82 116 153 190 235 283 341
#     4  11  21  37  59  85 121 155 188 231 293 350
#     4  11  21  34  55  87 120 156 194 230 282 346
#     4  11  23  39  60  89 117 150 194 241 292 353
#
# _framework density 19.527002
#
# number of rings (size 3 to 8) (size 9 to 14) (size 15 to 20)
#    0.000    1.250    2.500    5.250    3.500    3.000 
#    0.000    0.000    0.000    1.500    0.000    0.875 
#    0.000    0.000    0.000    0.000    0.000    0.000 
#
# Total GULP energy -793117.048163 kJ/mol
# GULP energy per Si atom -12392.453878 kJ/mol
# Density = 1.948256 g / cm^3
# Si number density = 19.527002 Si / 1000 Ang^3
#
#
#
# Elastic Constant Matrix: (Units=GPa)
#
#
# Indices 1 2 3 4 5 6 
#
# 1 80.7092 33.6428 37.4098 0.0000 0.0000 0.0000
# 2 33.6428 108.2734 27.6694 0.0000 0.0000 0.0000
# 3 37.4098 27.6694 67.7045 0.0000 0.0000 0.0000
# 4 0.0000 0.0000 0.0000 21.6148 0.0000 0.0000
# 5 0.0000 0.0000 0.0000 0.0000 20.7680 0.0000
# 6 0.0000 0.0000 0.0000 0.0000 0.0000 11.7847
#
#
#
# Elastic Compliance Matrix: (Units=1/GPa)
#
#
# Indices 1 2 3 4 5 6 
#
# 1 0.017679 -0.003346 -0.008401 0.000000 0.000000 0.000000
# 2 -0.003346 0.010946 -0.002625 0.000000 0.000000 0.000000
# 3 -0.008401 -0.002625 0.020484 0.000000 0.000000 0.000000
# 4 0.000000 0.000000 0.000000 0.046265 0.000000 0.000000
# 5 0.000000 0.000000 0.000000 0.000000 0.048151 0.000000
# 6 0.000000 0.000000 0.000000 0.000000 0.000000 0.084856
#
#
# Mechanical properties :
#
#
# Convention : Reuss Voigt Hill
#
# Bulk Modulus (GPa) = 49.10058 50.45900 49.77979
# Shear Modulus (GPa) = 18.94561 21.36452 20.15506
#
# Velocity S-wave (km/s) = 3.11822 3.31131 3.21622
# Velocity P-wave (km/s) = 6.17770 6.36525 6.27218
#
# Compressibility (1/GPa) = 0.02036636
#
# Stress axis : x y z
#
# Youngs Moduli (GPa) = 56.56441 91.35450 48.81749
#
# Poissons Ratio (x) = 0.30571 0.41011
# Poissons Ratio (y) = 0.18929 0.12812
# Poissons Ratio (z) = 0.47519 0.23976
#
# Static dielectric constant tensor:
#      x y z
#    x 3.442070 0.000000 0.000000 
#    y 0.000000 3.671970 0.000000 
#    z 0.000000 0.000000 3.598370 
# 
# 
# High freq. dielectric constant tensor:
#      x y z
#    x 1.742070 0.000000 0.000000 
#    y 0.000000 1.780830 0.000000 
#    z 0.000000 0.000000 1.741530 
# 
# From -- ./inp_files/24708.got.cif
#   From: 2010.03.12/outbox.cif.g09.slc.cpg/sg53_13_cif.got.tgz:24708.got - 2010.04.16 14:36:59.
