data_PCOD8221213
_publ_section_title
;
Structure prediction by ZEFSAII (Michael W. Deem and Ramdas Pophale) SiO2 
 PCOD8221213
Probable space group: P M N A
;
_chemical_formula_sum "Si O2"
_cell_formula_units_Z 40
_cell_length_a 9.546329
_cell_length_b 22.362136
_cell_length_c 10.021328
_cell_angle_alpha 90.000000
_cell_angle_beta 90.000000
_cell_angle_gamma 90.000000
_cell_volume 2139.316097
_symmetry_space_group_name_H-M "P M N A"
_symmetry_group_IT_number 53
_symmetry_cell_setting 'orthorhombic'
loop_
_space_group_symop_operation_xyz
x,y,z
1/2-x,-y,1/2+z
x,-y,-z
1/2-x,y,1/2-z
-x,-y,-z
1/2+x,y,1/2-z
-x,y,z
1/2+x,-y,1/2+z
loop_
_atom_site_type_symbol
_atom_site_label
_atom_site_fract_x
_atom_site_fract_y
_atom_site_fract_z
Si Si1 0.839118 0.458947 0.120447
Si Si2 0.000000 0.072572 0.853783
Si Si3 0.750000 0.150983 0.750000
Si Si4 0.250000 0.859255 0.750000
Si Si5 0.664146 0.678675 0.616153
Si Si6 0.837214 0.222544 0.495614
Si Si7 0.500000 0.060977 0.332945
O O1 0.750000 0.474940 0.250000
O O2 0.819950 0.390394 0.076163
O O3 0.000000 0.473083 0.154834
O O4 0.784623 0.500000 0.000000
O O5 0.863754 0.108789 0.815224
O O6 0.000000 0.007794 0.782372
O O7 0.000000 0.063281 0.009743
O O8 0.821795 0.191740 0.638307
O O9 0.221029 0.818977 0.621608
O O10 0.372609 0.904655 0.728367
O O11 0.750000 0.692826 0.750000
O O12 0.500000 0.696320 0.633080
O O13 0.739565 0.717983 0.502029
O O14 0.000000 0.238885 0.471329
#
# Coordination Sequence:
#
# PCOD8221213 Si02
#       7
#     8   4   4   4   8   8   4
#     4   9  19  38  61  89 125 162 204 250 300 351
#     4  11  24  43  63  89 121 155 192 247 304 365
#     4  12  25  44  62  86 121 158 194 246 310 364
#     4  12  23  40  62  92 115 152 200 248 290 360
#     4  10  21  36  62  92 122 160 206 256 296 349
#     4  12  25  40  62  88 123 158 199 250 301 361
#     4  11  24  41  65  91 117 151 200 245 301 358
#
# _framework density 18.697565000000001
#
# number of rings (size 3 to 8) (size 9 to 14) (size 15 to 20)
#    0.000    1.200    5.000    1.200    2.800    1.200 
#    1.800    1.000    0.000    0.000    0.000    0.000 
#    0.000    0.000    0.000    0.000    0.000    0.000 
#
# Total GULP energy -496033.480654 kJ/mol
# GULP energy per Si atom -12400.837016 kJ/mol
# Density = 1.865501 g / cm^3
# Si number density = 18.697565 Si / 1000 Ang^3
#
#
#
# Elastic Constant Matrix: (Units=GPa)
#
#
# Indices 1 2 3 4 5 6 
#
# 1 120.0323 45.4334 18.2304 0.0000 0.0000 0.0000
# 2 45.4334 103.4944 39.7899 0.0000 0.0000 0.0000
# 3 18.2304 39.7899 73.9685 0.0000 0.0000 0.0000
# 4 0.0000 0.0000 0.0000 -262.7598 0.0000 0.0000
# 5 0.0000 0.0000 0.0000 0.0000 33.5016 0.0000
# 6 0.0000 0.0000 0.0000 0.0000 0.0000 27.1834
#
#
#
# Elastic Compliance Matrix: (Units=1/GPa)
#
#
# Indices 1 2 3 4 5 6 
#
# 1 0.009992 -0.004337 -0.000130 0.000000 0.000000 0.000000
# 2 -0.004337 0.014064 -0.006497 0.000000 0.000000 0.000000
# 3 -0.000130 -0.006497 0.017046 0.000000 0.000000 0.000000
# 4 0.000000 0.000000 0.000000 -0.003806 0.000000 0.000000
# 5 0.000000 0.000000 0.000000 0.000000 0.029849 0.000000
# 6 0.000000 0.000000 0.000000 0.000000 0.000000 0.036787
#
#
# Mechanical properties :
#
#
# Convention : Reuss Voigt Hill
#
# Bulk Modulus (GPa) = 52.14870 56.04471 54.09671
# Shear Modulus (GPa) = 37.80695 -27.47886 5.16404
#
# Velocity S-wave (km/s) = 4.50157 -3.83776 1.66369
# Velocity P-wave (km/s) = 7.41418 3.22514 5.71715
#
# Compressibility (1/GPa) = 0.01917593
#
# Stress axis : x y z
#
# Youngs Moduli (GPa) = 100.07734 71.10461 58.66486
#
# Poissons Ratio (x) = 0.30835 0.00762
# Poissons Ratio (y) = 0.43400 0.38112
# Poissons Ratio (z) = 0.01300 0.46193
#
# Static dielectric constant tensor:
#      x y z
#    x 3.517730 0.000000 0.000000 
#    y 0.000000 3.857620 0.000000 
#    z 0.000000 0.000000 3.365700 
# 
# 
# High freq. dielectric constant tensor:
#      x y z
#    x 1.744260 0.000000 0.000000 
#    y 0.000000 1.737760 0.000000 
#    z 0.000000 0.000000 1.715210 
# 
# From -- ./inp_files/6391.got.cif
#   From: 2010.03.12/outbox.cif.g09.slc.cpg/sg53_4_cif.got.tgz:6391.got - 2010.04.16 14:36:59.
