data_PCOD8221172
_publ_section_title
;
Structure prediction by ZEFSAII (Michael W. Deem and Ramdas Pophale) SiO2 
 PCOD8221172
Probable space group: P M N A
;
_chemical_formula_sum "Si O2"
_cell_formula_units_Z 64
_cell_length_a 18.459252
_cell_length_b 14.461295
_cell_length_c 12.182138
_cell_angle_alpha 90.000000
_cell_angle_beta 90.000000
_cell_angle_gamma 90.000000
_cell_volume 3251.957036
_symmetry_space_group_name_H-M "P M N A"
_symmetry_group_IT_number 53
_symmetry_cell_setting 'orthorhombic'
loop_
_space_group_symop_operation_xyz
x,y,z
1/2-x,-y,1/2+z
x,-y,-z
1/2-x,y,1/2-z
-x,-y,-z
1/2+x,y,1/2-z
-x,y,z
1/2+x,-y,1/2+z
loop_
_atom_site_type_symbol
_atom_site_label
_atom_site_fract_x
_atom_site_fract_y
_atom_site_fract_z
Si Si1 0.581570 0.932332 0.910548
Si Si2 0.172403 0.703150 0.301024
Si Si3 0.580840 0.018476 0.330360
Si Si4 0.169850 0.638597 0.718678
Si Si5 0.847854 0.795021 0.897776
Si Si6 0.187375 0.225150 0.462799
Si Si7 0.085085 0.476285 0.626933
Si Si8 0.915274 0.813435 0.120087
O O1 0.500000 0.901821 0.942162
O O2 0.581531 0.991888 0.800101
O O3 0.628867 0.840933 0.906767
O O4 0.615894 0.000000 0.000000
O O5 0.250000 0.674576 0.250000
O O6 0.182204 0.768652 0.406480
O O7 0.128281 0.614253 0.338570
O O8 0.127276 0.760350 0.213626
O O9 0.500000 0.040364 0.374295
O O10 0.630905 0.104283 0.356902
O O11 0.608246 0.921929 0.382627
O O12 0.250000 0.601808 0.750000
O O13 0.142333 0.715943 0.805479
O O14 0.173994 0.676798 0.594853
O O15 0.112492 0.555586 0.711100
O O16 0.765761 0.810900 0.931100
O O17 0.895846 0.766971 0.003360
O O18 0.100978 0.500000 0.500000
O O19 0.000000 0.460997 0.646725
O O20 0.000000 0.803994 0.145101
#
# Coordination Sequence:
#
# PCOD8221172 Si02
#       8
#     8   8   8   8   8   8   8   8
#     4  10  21  36  55  86 124 167 213 265 321 366
#     4  12  24  45  66  93 130 167 208 263 321 382
#     4  10  21  38  60  89 129 174 218 262 312 373
#     4  10  22  42  65  94 126 162 206 259 321 381
#     4  11  22  40  63  95 128 170 212 259 317 375
#     4  11  22  40  63  91 126 162 214 264 312 374
#     4  11  24  42  69  99 124 159 209 264 322 384
#     4  11  24  42  63  92 130 174 216 257 313 382
#
# _framework density 19.680457000000001
#
# number of rings (size 3 to 8) (size 9 to 14) (size 15 to 20)
#    0.000    1.250    3.750    2.250    0.000    5.500 
#    2.250    0.625    0.000    1.500    0.000    0.000 
#    0.000    0.000    0.000    0.000    0.000    0.000 
#
# Total GULP energy -793582.902975 kJ/mol
# GULP energy per Si atom -12399.732859 kJ/mol
# Density = 1.963566 g / cm^3
# Si number density = 19.680457 Si / 1000 Ang^3
#
#
#
# Elastic Constant Matrix: (Units=GPa)
#
#
# Indices 1 2 3 4 5 6 
#
# 1 114.4036 65.4446 37.8296 0.0000 0.0000 0.0000
# 2 65.4446 100.0175 36.3449 0.0000 0.0000 0.0000
# 3 37.8296 36.3449 110.0604 0.0000 0.0000 0.0000
# 4 0.0000 0.0000 0.0000 27.2711 0.0000 0.0000
# 5 0.0000 0.0000 0.0000 0.0000 58.2198 0.0000
# 6 0.0000 0.0000 0.0000 0.0000 0.0000 29.9063
#
#
#
# Elastic Compliance Matrix: (Units=1/GPa)
#
#
# Indices 1 2 3 4 5 6 
#
# 1 0.014379 -0.008651 -0.002086 0.000000 0.000000 0.000000
# 2 -0.008651 0.016566 -0.002497 0.000000 0.000000 0.000000
# 3 -0.002086 -0.002497 0.010627 0.000000 0.000000 0.000000
# 4 0.000000 0.000000 0.000000 0.036669 0.000000 0.000000
# 5 0.000000 0.000000 0.000000 0.000000 0.017176 0.000000
# 6 0.000000 0.000000 0.000000 0.000000 0.000000 0.033438
#
#
# Mechanical properties :
#
#
# Convention : Reuss Voigt Hill
#
# Bulk Modulus (GPa) = 66.20090 67.07998 66.64044
# Shear Modulus (GPa) = 31.18004 35.40360 33.29182
#
# Velocity S-wave (km/s) = 3.98466 4.24597 4.11739
# Velocity P-wave (km/s) = 7.40817 7.62865 7.51922
#
# Compressibility (1/GPa) = 0.01510554
#
# Stress axis : x y z
#
# Youngs Moduli (GPa) = 69.54354 60.36342 94.09631
#
# Poissons Ratio (x) = 0.52221 0.19625
# Poissons Ratio (y) = 0.60162 0.23497
# Poissons Ratio (z) = 0.14504 0.15074
#
# Static dielectric constant tensor:
#      x y z
#    x 3.686450 0.000000 0.000000 
#    y 0.000000 3.450660 0.000000 
#    z 0.000000 0.000000 3.904870 
# 
# 
# High freq. dielectric constant tensor:
#      x y z
#    x 1.772890 0.000000 0.000000 
#    y 0.000000 1.757030 0.000000 
#    z 0.000000 0.000000 1.784500 
# 
# From -- ./inp_files/17146.got.cif
#   From: 2010.03.12/outbox.cif.g09.slc.cpg/sg53_9_cif.got.tgz:17146.got - 2010.04.16 14:36:59.
