data_PCOD8221133
_publ_section_title
;
Structure prediction by ZEFSAII (Michael W. Deem and Ramdas Pophale) SiO2 
 PCOD8221133
Probable space group: P M N A
;
_chemical_formula_sum "Si O2"
_cell_formula_units_Z 64
_cell_length_a 9.177830
_cell_length_b 16.499467
_cell_length_c 21.761882
_cell_angle_alpha 90.000000
_cell_angle_beta 90.000000
_cell_angle_gamma 90.000000
_cell_volume 3295.386628
_symmetry_space_group_name_H-M "P M N A"
_symmetry_group_IT_number 53
_symmetry_cell_setting 'orthorhombic'
loop_
_space_group_symop_operation_xyz
x,y,z
1/2-x,-y,1/2+z
x,-y,-z
1/2-x,y,1/2-z
-x,-y,-z
1/2+x,y,1/2-z
-x,y,z
1/2+x,-y,1/2+z
loop_
_atom_site_type_symbol
_atom_site_label
_atom_site_fract_x
_atom_site_fract_y
_atom_site_fract_z
Si Si1 0.334073 0.215985 0.936736
Si Si2 0.664425 0.277041 0.805935
Si Si3 0.663348 0.884950 0.575065
Si Si4 0.835726 0.017101 0.188216
Si Si5 0.172211 0.452938 0.437828
Si Si6 0.827375 0.038986 0.578775
Si Si7 0.671535 0.539298 0.188701
Si Si8 0.171426 0.708925 0.963568
O O1 0.500000 0.237435 0.955571
O O2 0.314969 0.220118 0.864099
O O3 0.291811 0.123727 0.956657
O O4 0.226362 0.282120 0.966291
O O5 0.750000 0.235887 0.750000
O O6 0.500000 0.282396 0.784152
O O7 0.720959 0.367766 0.819619
O O8 0.500000 0.891621 0.546579
O O9 0.658147 0.899388 0.648742
O O10 0.763747 0.957640 0.545066
O O11 0.724448 0.793995 0.566775
O O12 0.750000 0.035039 0.250000
O O13 0.000000 0.985780 0.201888
O O14 0.747216 0.952451 0.146304
O O15 0.224247 0.500000 0.500000
O O16 0.220609 0.497817 0.375303
O O17 0.248945 0.365979 0.432272
O O18 0.000000 0.440322 0.440830
O O19 0.000000 0.028578 0.585669
O O20 0.750000 0.502693 0.250000
O O21 0.500000 0.528346 0.198117
O O22 0.000000 0.695128 0.959859
#
# Coordination Sequence:
#
# PCOD8221133 Si02
#       8
#     8   8   8   8   8   8   8   8
#     4  10  21  36  53  79 113 149 186 226 274 332
#     4   9  18  34  54  78 110 144 178 217 264 323
#     4   8  19  37  52  72 105 142 177 225 280 325
#     4   9  17  32  52  73 102 138 180 229 281 333
#     4  10  21  39  62  87 116 152 191 234 291 353
#     4   9  18  32  52  77 103 138 185 228 273 327
#     4   9  18  34  58  83 110 147 185 226 279 339
#     4  11  23  38  57  81 111 144 185 234 283 334
#
# _framework density 19.42109
#
# number of rings (size 3 to 8) (size 9 to 14) (size 15 to 20)
#    0.750    1.875    0.000    1.500    0.000    6.250 
#    0.000    6.875    0.000    3.000    0.000    0.000 
#    0.000    0.000    0.000    0.000    0.000    0.000 
#
# Total GULP energy -792992.621874 kJ/mol
# GULP energy per Si atom -12390.509717 kJ/mol
# Density = 1.937689 g / cm^3
# Si number density = 19.421090 Si / 1000 Ang^3
#
#
#
# Elastic Constant Matrix: (Units=GPa)
#
#
# Indices 1 2 3 4 5 6 
#
# 1 58.3871 35.1666 14.7755 0.0000 0.0000 0.0000
# 2 35.1666 85.9499 26.8523 0.0000 0.0000 0.0000
# 3 14.7755 26.8523 70.4872 0.0000 0.0000 0.0000
# 4 0.0000 0.0000 0.0000 -7.6911 0.0000 0.0000
# 5 0.0000 0.0000 0.0000 0.0000 23.8237 0.0000
# 6 0.0000 0.0000 0.0000 0.0000 0.0000 28.9306
#
#
#
# Elastic Compliance Matrix: (Units=1/GPa)
#
#
# Indices 1 2 3 4 5 6 
#
# 1 0.022848 -0.008913 -0.001394 0.000000 0.000000 0.000000
# 2 -0.008913 0.016683 -0.004487 0.000000 0.000000 0.000000
# 3 -0.001394 -0.004487 0.016189 0.000000 0.000000 0.000000
# 4 0.000000 0.000000 0.000000 -0.130021 0.000000 0.000000
# 5 0.000000 0.000000 0.000000 0.000000 0.041975 0.000000
# 6 0.000000 0.000000 0.000000 0.000000 0.000000 0.034565
#
#
# Mechanical properties :
#
#
# Convention : Reuss Voigt Hill
#
# Bulk Modulus (GPa) = 38.26761 40.93479 39.60120
# Shear Modulus (GPa) = 123.33907 18.21463 70.77685
#
# Velocity S-wave (km/s) = 7.97782 3.06580 6.04338
# Velocity P-wave (km/s) = 10.22780 5.80133 8.31454
#
# Compressibility (1/GPa) = 0.02613176
#
# Stress axis : x y z
#
# Youngs Moduli (GPa) = 43.76741 59.94025 61.77179
#
# Poissons Ratio (x) = 0.53424 0.08611
# Poissons Ratio (y) = 0.39009 0.27719
# Poissons Ratio (z) = 0.06101 0.26897
#
# Static dielectric constant tensor:
#      x y z
#    x 3.503900 0.000000 0.000000 
#    y 0.000000 3.443270 0.000000 
#    z 0.000000 0.000000 3.519310 
# 
# 
# High freq. dielectric constant tensor:
#      x y z
#    x 1.753510 0.000000 0.000000 
#    y 0.000000 1.744650 0.000000 
#    z 0.000000 0.000000 1.754880 
# 
# From -- ./inp_files/31286.got.cif
#   From: 2010.03.12/outbox.cif.g09.slc.cpg/sg53_16_cif.got.tgz:31286.got - 2010.04.16 14:36:59.
