data_PCOD8221148
_publ_section_title
;
Structure prediction by ZEFSAII (Michael W. Deem and Ramdas Pophale) SiO2 
 PCOD8221148
Probable space group: P M N A
;
_chemical_formula_sum "Si O2"
_cell_formula_units_Z 64
_cell_length_a 8.756590
_cell_length_b 11.977143
_cell_length_c 31.516290
_cell_angle_alpha 90.000000
_cell_angle_beta 90.000000
_cell_angle_gamma 90.000000
_cell_volume 3305.394792
_symmetry_space_group_name_H-M "P M N A"
_symmetry_group_IT_number 53
_symmetry_cell_setting 'orthorhombic'
loop_
_space_group_symop_operation_xyz
x,y,z
1/2-x,-y,1/2+z
x,-y,-z
1/2-x,y,1/2-z
-x,-y,-z
1/2+x,y,1/2-z
-x,y,z
1/2+x,-y,1/2+z
loop_
_atom_site_type_symbol
_atom_site_label
_atom_site_fract_x
_atom_site_fract_y
_atom_site_fract_z
Si Si1 0.819319 0.300769 0.705349
Si Si2 0.328758 0.852071 0.086739
Si Si3 0.320978 0.940254 0.293114
Si Si4 0.676088 0.349623 0.622639
Si Si5 0.328155 0.929946 0.864005
Si Si6 0.322793 0.748672 0.928277
Si Si7 0.168750 0.130963 0.996615
Si Si8 0.820196 0.479987 0.049332
O O1 0.750000 0.343762 0.750000
O O2 0.763344 0.175096 0.695328
O O3 0.765928 0.381088 0.666280
O O4 0.000000 0.302521 0.708991
O O5 0.500000 0.809159 0.095936
O O6 0.211263 0.780333 0.114458
O O7 0.292070 0.831680 0.037711
O O8 0.310129 0.982485 0.097255
O O9 0.250000 0.988259 0.250000
O O10 0.500000 0.917001 0.288442
O O11 0.291213 0.036422 0.327789
O O12 0.500000 0.367973 0.632517
O O13 0.725142 0.417451 0.580254
O O14 0.500000 0.936498 0.845476
O O15 0.295085 0.805590 0.882047
O O16 0.500000 0.759541 0.940953
O O17 0.271809 0.620911 0.929327
O O18 0.215787 0.816214 0.959522
O O19 0.000000 0.176763 0.984192
O O20 0.162972 0.000000 0.000000
O O21 0.000000 0.455165 0.050681
O O22 0.769750 0.500000 0.000000
#
# Coordination Sequence:
#
# PCOD8221148 Si02
#       8
#     8   8   8   8   8   8   8   8
#     4  11  21  35  56  85 121 156 194 241 295 353
#     4  11  21  34  54  80 115 150 187 233 283 339
#     4  11  21  34  56  84 119 158 194 233 286 350
#     4  11  22  37  59  86 118 154 195 241 294 348
#     4  10  21  36  54  82 118 150 185 234 288 341
#     4  11  23  39  60  83 112 149 193 241 287 342
#     4  11  22  34  51  76 110 148 187 230 278 336
#     4  10  23  43  63  84 115 155 200 251 298 349
#
# _framework density 19.362286999999998
#
# number of rings (size 3 to 8) (size 9 to 14) (size 15 to 20)
#    0.000    1.250    2.500    5.250    0.000    4.250 
#    0.000    0.000    0.000    0.750    0.000    5.250 
#    0.000    0.000    0.000    0.000    0.000    0.000 
#
# Total GULP energy -793441.501339 kJ/mol
# GULP energy per Si atom -12397.523458 kJ/mol
# Density = 1.931822 g / cm^3
# Si number density = 19.362287 Si / 1000 Ang^3
#
#
#
# Elastic Constant Matrix: (Units=GPa)
#
#
# Indices 1 2 3 4 5 6 
#
# 1 106.9743 35.5722 49.8967 0.0000 0.0000 0.0000
# 2 35.5722 68.5491 32.4430 0.0000 0.0000 0.0000
# 3 49.8967 32.4430 130.7498 0.0000 0.0000 0.0000
# 4 0.0000 0.0000 0.0000 29.3969 0.0000 0.0000
# 5 0.0000 0.0000 0.0000 0.0000 36.1603 0.0000
# 6 0.0000 0.0000 0.0000 0.0000 0.0000 29.0633
#
#
#
# Elastic Compliance Matrix: (Units=1/GPa)
#
#
# Indices 1 2 3 4 5 6 
#
# 1 0.012651 -0.004850 -0.003625 0.000000 0.000000 0.000000
# 2 -0.004850 0.018388 -0.002712 0.000000 0.000000 0.000000
# 3 -0.003625 -0.002712 0.009704 0.000000 0.000000 0.000000
# 4 0.000000 0.000000 0.000000 0.034017 0.000000 0.000000
# 5 0.000000 0.000000 0.000000 0.000000 0.027655 0.000000
# 6 0.000000 0.000000 0.000000 0.000000 0.000000 0.034408
#
#
# Mechanical properties :
#
#
# Convention : Reuss Voigt Hill
#
# Bulk Modulus (GPa) = 54.43250 60.23301 57.33275
# Shear Modulus (GPa) = 30.24439 31.48151 30.86295
#
# Velocity S-wave (km/s) = 3.95653 4.03664 3.99679
# Velocity P-wave (km/s) = 7.00328 7.27337 7.13960
#
# Compressibility (1/GPa) = 0.01837138
#
# Stress axis : x y z
#
# Youngs Moduli (GPa) = 79.04267 54.38256 103.04655
#
# Poissons Ratio (x) = 0.26374 0.37351
# Poissons Ratio (y) = 0.38333 0.27946
# Poissons Ratio (z) = 0.28650 0.14748
#
# Static dielectric constant tensor:
#      x y z
#    x 3.605480 0.000000 0.000000 
#    y 0.000000 2.174460 0.000000 
#    z 0.000000 0.000000 3.618450 
# 
# 
# High freq. dielectric constant tensor:
#      x y z
#    x 1.763230 0.000000 0.000000 
#    y 0.000000 1.717530 0.000000 
#    z 0.000000 0.000000 1.759150 
# 
# From -- ./inp_files/38212.got.cif
#   From: 2010.03.12/outbox.cif.g09.slc.cpg/sg53_20_cif.got.tgz:38212.got - 2010.04.16 14:36:59.
