data_PCOD8221581
_publ_section_title
;
Structure prediction by ZEFSAII (Michael W. Deem and Ramdas Pophale) SiO2 
 PCOD8221581
Probable space group: P M N A
;
_chemical_formula_sum "Si O2"
_cell_formula_units_Z 48
_cell_length_a 15.884182
_cell_length_b 14.486911
_cell_length_c 9.531101
_cell_angle_alpha 90.000000
_cell_angle_beta 90.000000
_cell_angle_gamma 90.000000
_cell_volume 2193.227680
_symmetry_space_group_name_H-M "P M N A"
_symmetry_group_IT_number 53
_symmetry_cell_setting 'orthorhombic'
loop_
_space_group_symop_operation_xyz
x,y,z
1/2-x,-y,1/2+z
x,-y,-z
1/2-x,y,1/2-z
-x,-y,-z
1/2+x,y,1/2-z
-x,y,z
1/2+x,-y,1/2+z
loop_
_atom_site_type_symbol
_atom_site_label
_atom_site_fract_x
_atom_site_fract_y
_atom_site_fract_z
Si Si1 0.594165 0.588437 0.096609
Si Si2 0.500000 0.025077 0.724092
Si Si3 0.099640 0.469846 0.150577
Si Si4 0.500000 0.846914 0.530928
Si Si5 0.857855 0.737372 0.835892
Si Si6 0.676341 0.940158 0.133156
Si Si7 0.822799 0.239467 0.462665
O O1 0.500000 0.631412 0.110179
O O2 0.628726 0.551702 0.245701
O O3 0.590270 0.500000 0.000000
O O4 0.657153 0.663497 0.035083
O O5 0.500000 0.116751 0.627998
O O6 0.585718 0.024005 0.814067
O O7 0.500000 0.932784 0.634324
O O8 0.140173 0.372203 0.187253
O O9 0.000000 0.457161 0.158031
O O10 0.132689 0.500000 0.000000
O O11 0.578202 0.779474 0.553016
O O12 0.770444 0.764280 0.903552
O O13 0.877025 0.778880 0.679715
O O14 0.750000 0.947480 0.250000
O O15 0.662851 0.835903 0.082377
O O16 0.706478 0.000000 0.000000
#
# Coordination Sequence:
#
# PCOD8221581 Si02
#       7
#     8   4   8   4   8   8   8
#     4  10  21  40  68  98 137 183 231 291 347 413
#     4  11  27  48  74 114 136 195 247 299 374 433
#     4  10  21  40  64  97 134 179 231 284 348 421
#     4  11  24  44  79  97 149 182 243 293 365 446
#     4  11  23  43  68 103 139 190 233 293 360 434
#     4  12  29  50  77 109 151 187 242 305 371 440
#     4  11  26  42  69 104 142 183 242 291 365 424
#
# _framework density 21.885553000000002
#
# number of rings (size 3 to 8) (size 9 to 14) (size 15 to 20)
#    0.000    1.167    2.500    2.250    9.333    3.333 
#    0.000    0.000    0.000    0.000    0.000    0.000 
#    0.000    0.000    0.000    0.000    0.000    0.000 
#
# Total GULP energy -595120.371504 kJ/mol
# GULP energy per Si atom -12398.341073 kJ/mol
# Density = 2.183574 g / cm^3
# Si number density = 21.885553 Si / 1000 Ang^3
#
#
#
# Elastic Constant Matrix: (Units=GPa)
#
#
# Indices 1 2 3 4 5 6 
#
# 1 56.1032 14.4256 28.2620 0.0000 0.0000 0.0000
# 2 14.4256 82.0835 26.2427 0.0000 0.0000 0.0000
# 3 28.2620 26.2427 132.1759 0.0000 0.0000 0.0000
# 4 0.0000 0.0000 0.0000 44.3542 0.0000 0.0000
# 5 0.0000 0.0000 0.0000 0.0000 34.4979 0.0000
# 6 0.0000 0.0000 0.0000 0.0000 0.0000 14.7541
#
#
#
# Elastic Compliance Matrix: (Units=1/GPa)
#
#
# Indices 1 2 3 4 5 6 
#
# 1 0.020388 -0.002338 -0.003895 0.000000 0.000000 0.000000
# 2 -0.002338 0.013276 -0.002136 0.000000 0.000000 0.000000
# 3 -0.003895 -0.002136 0.008823 0.000000 0.000000 0.000000
# 4 0.000000 0.000000 0.000000 0.022546 0.000000 0.000000
# 5 0.000000 0.000000 0.000000 0.000000 0.028987 0.000000
# 6 0.000000 0.000000 0.000000 0.000000 0.000000 0.067778
#
#
# Mechanical properties :
#
#
# Convention : Reuss Voigt Hill
#
# Bulk Modulus (GPa) = 38.83676 45.35814 42.09745
# Shear Modulus (GPa) = 26.72110 32.15008 29.43559
#
# Velocity S-wave (km/s) = 3.49800 3.83692 3.67137
# Velocity P-wave (km/s) = 5.83940 6.35606 6.10320
#
# Compressibility (1/GPa) = 0.02574880
#
# Stress axis : x y z
#
# Youngs Moduli (GPa) = 49.04953 75.32124 113.34456
#
# Poissons Ratio (x) = 0.17608 0.44150
# Poissons Ratio (y) = 0.11466 0.24212
# Poissons Ratio (z) = 0.19106 0.16090
#
# Static dielectric constant tensor:
#      x y z
#    x 4.091720 0.000000 0.000000 
#    y 0.000000 4.083440 0.000000 
#    z 0.000000 0.000000 4.584330 
# 
# 
# High freq. dielectric constant tensor:
#      x y z
#    x 1.856450 0.000000 0.000000 
#    y 0.000000 1.864870 0.000000 
#    z 0.000000 0.000000 1.876030 
# 
# From -- ./inp_files/10035.got.cif
#   From: 2010.03.12/outbox.cif.g09.slc.cpg/sg53_6_cif.got.tgz:10035.got - 2010.04.16 14:36:59.
