data_PCOD8221042
_publ_section_title
;
Structure prediction by ZEFSAII (Michael W. Deem and Ramdas Pophale) SiO2 
 PCOD8221042
Probable space group: P M N A
;
_chemical_formula_sum "Si O2"
_cell_formula_units_Z 32
_cell_length_a 19.814444
_cell_length_b 5.311625
_cell_length_c 13.909960
_cell_angle_alpha 90.000000
_cell_angle_beta 90.000000
_cell_angle_gamma 90.000000
_cell_volume 1463.980115
_symmetry_space_group_name_H-M "P M N A"
_symmetry_group_IT_number 53
_symmetry_cell_setting 'orthorhombic'
loop_
_space_group_symop_operation_xyz
x,y,z
1/2-x,-y,1/2+z
x,-y,-z
1/2-x,y,1/2-z
-x,-y,-z
1/2+x,y,1/2-z
-x,y,z
1/2+x,-y,1/2+z
loop_
_atom_site_type_symbol
_atom_site_label
_atom_site_fract_x
_atom_site_fract_y
_atom_site_fract_z
Si Si1 0.195365 0.127828 0.598376
Si Si2 0.377803 0.652405 0.666390
Si Si3 0.250000 0.773259 0.750000
Si Si4 0.293075 0.500000 0.500000
Si Si5 0.575010 0.835539 0.246124
O O1 0.243523 0.364082 0.575702
O O2 0.128764 0.192770 0.660054
O O3 0.170001 0.000000 0.500000
O O4 0.245519 0.943632 0.654682
O O5 0.317037 0.607157 0.742999
O O6 0.344679 0.674678 0.560537
O O7 0.423124 0.404131 0.681421
O O8 0.415362 0.912367 0.690630
O O9 0.500000 0.844727 0.200660
#
# Coordination Sequence:
#
# PCOD8221042 Si02
#       5
#     8   8   4   4   8
#     4  11  23  39  67 101 135 168 215 278 338 396
#     4  11  23  41  69  93 134 174 219 282 327 391
#     4  10  20  42  62 100 136 170 212 280 346 396
#     4  12  22  40  68 110 128 162 226 294 348 386
#     4  11  26  46  64  92 135 187 222 255 326 406
#
# _framework density 21.858219999999999
#
# number of rings (size 3 to 8) (size 9 to 14) (size 15 to 20)
#    0.000    1.000    2.500    5.250    3.500    1.500 
#    0.000    4.375    0.000    0.000    0.000    0.000 
#    0.000    0.000    0.000    0.000    0.000    0.000 
#
# Total GULP energy -396561.074421 kJ/mol
# GULP energy per Si atom -12392.533576 kJ/mol
# Density = 2.180847 g / cm^3
# Si number density = 21.858220 Si / 1000 Ang^3
#
#
#
# Elastic Constant Matrix: (Units=GPa)
#
#
# Indices 1 2 3 4 5 6 
#
# 1 125.3777 42.4135 47.2875 0.0000 0.0000 0.0000
# 2 42.4135 128.9289 38.0075 0.0000 0.0000 0.0000
# 3 47.2875 38.0075 111.8521 0.0000 0.0000 0.0000
# 4 0.0000 0.0000 0.0000 38.0835 0.0000 0.0000
# 5 0.0000 0.0000 0.0000 0.0000 30.4071 0.0000
# 6 0.0000 0.0000 0.0000 0.0000 0.0000 19.0048
#
#
#
# Elastic Compliance Matrix: (Units=1/GPa)
#
#
# Indices 1 2 3 4 5 6 
#
# 1 0.010060 -0.002284 -0.003477 0.000000 0.000000 0.000000
# 2 -0.002284 0.009138 -0.002139 0.000000 0.000000 0.000000
# 3 -0.003477 -0.002139 0.011137 0.000000 0.000000 0.000000
# 4 0.000000 0.000000 0.000000 0.026258 0.000000 0.000000
# 5 0.000000 0.000000 0.000000 0.000000 0.032887 0.000000
# 6 0.000000 0.000000 0.000000 0.000000 0.000000 0.052618
#
#
# Mechanical properties :
#
#
# Convention : Reuss Voigt Hill
#
# Bulk Modulus (GPa) = 68.80296 69.06395 68.93346
# Shear Modulus (GPa) = 30.72283 33.39575 32.05929
#
# Velocity S-wave (km/s) = 3.75313 3.91299 3.83390
# Velocity P-wave (km/s) = 7.09413 7.21667 7.15566
#
# Compressibility (1/GPa) = 0.01453426
#
# Stress axis : x y z
#
# Youngs Moduli (GPa) = 99.40342 109.42799 89.78896
#
# Poissons Ratio (x) = 0.24999 0.31218
# Poissons Ratio (y) = 0.22709 0.19210
# Poissons Ratio (z) = 0.34560 0.23411
#
# Static dielectric constant tensor:
#      x y z
#    x 3.812630 0.000000 0.000000 
#    y 0.000000 3.979910 0.000000 
#    z 0.000000 0.000000 3.856000 
# 
# 
# High freq. dielectric constant tensor:
#      x y z
#    x 1.851450 0.000000 0.000000 
#    y 0.000000 1.867500 0.000000 
#    z 0.000000 0.000000 1.855890 
# 
# From -- ./inp_files/17413.got.cif
#   From: 2010.03.12/outbox.cif.g09.slc.cpg/sg53_9_cif.got.tgz:17413.got - 2010.04.16 14:36:59.
