data_PCOD8221114
_publ_section_title
;
Structure prediction by ZEFSAII (Michael W. Deem and Ramdas Pophale) SiO2 
 PCOD8221114
Probable space group: P M N A
;
_chemical_formula_sum "Si O2"
_cell_formula_units_Z 32
_cell_length_a 20.841687
_cell_length_b 14.631444
_cell_length_c 5.237003
_cell_angle_alpha 90.000000
_cell_angle_beta 90.000000
_cell_angle_gamma 90.000000
_cell_volume 1596.992518
_symmetry_space_group_name_H-M "P M N A"
_symmetry_group_IT_number 53
_symmetry_cell_setting 'orthorhombic'
loop_
_space_group_symop_operation_xyz
x,y,z
1/2-x,-y,1/2+z
x,-y,-z
1/2-x,y,1/2-z
-x,-y,-z
1/2+x,y,1/2-z
-x,y,z
1/2+x,-y,1/2+z
loop_
_atom_site_type_symbol
_atom_site_label
_atom_site_fract_x
_atom_site_fract_y
_atom_site_fract_z
Si Si1 0.874484 0.748983 0.308474
Si Si2 0.928202 0.181955 0.202651
Si Si3 0.174603 0.548091 0.250812
Si Si4 0.689968 0.898522 0.911705
O O1 0.917282 0.744233 0.567926
O O2 0.839126 0.655036 0.254082
O O3 0.821010 0.829595 0.348678
O O4 0.919874 0.770313 0.069660
O O5 0.875317 0.101261 0.238899
O O6 0.000000 0.140958 0.219253
O O7 0.144060 0.500000 0.500000
O O8 0.250000 0.531899 0.250000
O O9 0.144368 0.500000 0.000000
O O10 0.750000 0.860598 0.750000
O O11 0.705892 0.000000 0.000000
#
# Coordination Sequence:
#
# PCOD8221114 Si02
#       4
#     8   8   8   8
#     4  10  23  39  66  89 129 168 207 263 322 364
#     4  10  23  42  65  92 126 174 220 257 311 381
#     4  10  21  35  60  94 128 161 208 263 321 388
#     4  10  26  39  66  98 132 166 210 264 320 383
#
# _framework density 20.037665000000001
#
# number of rings (size 3 to 8) (size 9 to 14) (size 15 to 20)
#    1.500    0.500    0.000    2.250    7.000    1.500 
#    0.000    1.250    0.000   15.000    0.000    0.000 
#    0.000    0.000    0.000    0.000    0.000    0.000 
#
# Total GULP energy -396519.566084 kJ/mol
# GULP energy per Si atom -12391.236440 kJ/mol
# Density = 1.999206 g / cm^3
# Si number density = 20.037665 Si / 1000 Ang^3
#
#
#
# Elastic Constant Matrix: (Units=GPa)
#
#
# Indices 1 2 3 4 5 6 
#
# 1 86.4528 15.8734 42.1382 0.0000 0.0000 0.0000
# 2 15.8734 107.6704 37.5586 0.0000 0.0000 0.0000
# 3 42.1382 37.5586 159.5466 0.0000 0.0000 0.0000
# 4 0.0000 0.0000 0.0000 24.2139 0.0000 0.0000
# 5 0.0000 0.0000 0.0000 0.0000 17.3741 0.0000
# 6 0.0000 0.0000 0.0000 0.0000 0.0000 5.3796
#
#
#
# Elastic Compliance Matrix: (Units=1/GPa)
#
#
# Indices 1 2 3 4 5 6 
#
# 1 0.013340 -0.000804 -0.003334 0.000000 0.000000 0.000000
# 2 -0.000804 0.010167 -0.002181 0.000000 0.000000 0.000000
# 3 -0.003334 -0.002181 0.007662 0.000000 0.000000 0.000000
# 4 0.000000 0.000000 0.000000 0.041299 0.000000 0.000000
# 5 0.000000 0.000000 0.000000 0.000000 0.057557 0.000000
# 6 0.000000 0.000000 0.000000 0.000000 0.000000 0.185886
#
#
# Mechanical properties :
#
#
# Convention : Reuss Voigt Hill
#
# Bulk Modulus (GPa) = 53.96412 60.53445 57.24929
# Shear Modulus (GPa) = 14.93765 26.60016 20.76891
#
# Velocity S-wave (km/s) = 2.73331 3.64745 3.22295
# Velocity P-wave (km/s) = 6.07874 6.92925 6.51788
#
# Compressibility (1/GPa) = 0.01853083
#
# Stress axis : x y z
#
# Youngs Moduli (GPa) = 74.96493 98.35826 130.51836
#
# Poissons Ratio (x) = 0.07904 0.43514
# Poissons Ratio (y) = 0.06024 0.28468
# Poissons Ratio (z) = 0.24993 0.21453
#
# Static dielectric constant tensor:
#      x y z
#    x 3.375250 0.000000 0.000000 
#    y 0.000000 3.258470 0.000000 
#    z 0.000000 0.000000 4.034240 
# 
# 
# High freq. dielectric constant tensor:
#      x y z
#    x 1.761350 0.000000 0.000000 
#    y 0.000000 1.755680 0.000000 
#    z 0.000000 0.000000 1.802280 
# 
# From -- ./inp_files/2721.got.cif
#   From: 2010.03.12/outbox.cif.g09.slc.cpg/sg53_2_cif.got.tgz:2721.got - 2010.04.16 14:36:59.
