data_PCOD8221583
_publ_section_title
;
Structure prediction by ZEFSAII (Michael W. Deem and Ramdas Pophale) SiO2 
 PCOD8221583
Probable space group: P M N A
;
_chemical_formula_sum "Si O2"
_cell_formula_units_Z 28
_cell_length_a 19.140585
_cell_length_b 6.486552
_cell_length_c 10.157412
_cell_angle_alpha 90.000000
_cell_angle_beta 90.000000
_cell_angle_gamma 90.000000
_cell_volume 1261.107706
_symmetry_space_group_name_H-M "P M N A"
_symmetry_group_IT_number 53
_symmetry_cell_setting 'orthorhombic'
loop_
_space_group_symop_operation_xyz
x,y,z
1/2-x,-y,1/2+z
x,-y,-z
1/2-x,y,1/2-z
-x,-y,-z
1/2+x,y,1/2-z
-x,y,z
1/2+x,-y,1/2+z
loop_
_atom_site_type_symbol
_atom_site_label
_atom_site_fract_x
_atom_site_fract_y
_atom_site_fract_z
Si Si1 0.724166 0.832071 0.385408
Si Si2 0.920173 0.833203 0.608146
Si Si3 0.677746 0.500000 0.000000
Si Si4 0.574670 0.101950 0.639643
O O1 0.750000 0.938686 0.250000
O O2 0.772494 0.636097 0.408760
O O3 0.643378 0.753859 0.366531
O O4 0.729817 0.000000 0.500000
O O5 0.871068 0.634091 0.595972
O O6 0.000000 0.767423 0.580307
O O7 0.895278 0.000000 0.500000
O O8 0.911134 0.924054 0.753434
O O9 0.500000 0.216582 0.674319
O O10 0.564537 0.000000 0.500000
#
# Coordination Sequence:
#
# PCOD8221583 Si02
#       4
#     8   8   4   8
#     4  11  24  41  62  90 125 165 206 254 309 368
#     4  10  21  40  65  90 121 161 206 256 307 365
#     4  12  23  36  61  98 128 156 202 258 317 368
#     4   9  19  38  61  83 114 159 203 244 294 354
#
# _framework density 22.202701000000001
#
# number of rings (size 3 to 8) (size 9 to 14) (size 15 to 20)
#    0.000    1.714    0.000    4.714    0.000    5.714 
#    0.000    2.143    0.000    0.000    0.000    0.000 
#    0.000    0.000    0.000    0.000    0.000    0.000 
#
# Total GULP energy -346987.051179 kJ/mol
# GULP energy per Si atom -12392.394685 kJ/mol
# Density = 2.215217 g / cm^3
# Si number density = 22.202701 Si / 1000 Ang^3
#
#
#
# Elastic Constant Matrix: (Units=GPa)
#
#
# Indices 1 2 3 4 5 6 
#
# 1 206.7840 73.0457 49.3665 0.0000 0.0000 0.0000
# 2 73.0457 90.5790 45.0721 0.0000 0.0000 0.0000
# 3 49.3665 45.0721 165.9311 0.0000 0.0000 0.0000
# 4 0.0000 0.0000 0.0000 15.0632 0.0000 0.0000
# 5 0.0000 0.0000 0.0000 0.0000 32.7006 0.0000
# 6 0.0000 0.0000 0.0000 0.0000 0.0000 25.0808
#
#
#
# Elastic Compliance Matrix: (Units=1/GPa)
#
#
# Indices 1 2 3 4 5 6 
#
# 1 0.006817 -0.005190 -0.000618 0.000000 0.000000 0.000000
# 2 -0.005190 0.016716 -0.002997 0.000000 0.000000 0.000000
# 3 -0.000618 -0.002997 0.007025 0.000000 0.000000 0.000000
# 4 0.000000 0.000000 0.000000 0.066387 0.000000 0.000000
# 5 0.000000 0.000000 0.000000 0.000000 0.030580 0.000000
# 6 0.000000 0.000000 0.000000 0.000000 0.000000 0.039871
#
#
# Mechanical properties :
#
#
# Convention : Reuss Voigt Hill
#
# Bulk Modulus (GPa) = 77.23040 88.69585 82.96312
# Shear Modulus (GPa) = 26.41009 34.28958 30.34983
#
# Velocity S-wave (km/s) = 3.45265 3.93413 3.70123
# Velocity P-wave (km/s) = 7.12420 7.78919 7.46410
#
# Compressibility (1/GPa) = 0.01294827
#
# Stress axis : x y z
#
# Youngs Moduli (GPa) = 146.69662 59.82202 142.35706
#
# Poissons Ratio (x) = 0.31045 0.08804
# Poissons Ratio (y) = 0.76129 0.42660
# Poissons Ratio (z) = 0.09072 0.17927
#
# Static dielectric constant tensor:
#      x y z
#    x 5.118100 0.000000 0.000000 
#    y 0.000000 3.234460 0.000000 
#    z 0.000000 0.000000 4.163460 
# 
# 
# High freq. dielectric constant tensor:
#      x y z
#    x 1.921010 0.000000 0.000000 
#    y 0.000000 1.810520 0.000000 
#    z 0.000000 0.000000 1.892960 
# 
# From -- ./inp_files/17313.got.cif
#   From: 2010.03.12/outbox.cif.g09.slc.cpg/sg53_9_cif.got.tgz:17313.got - 2010.04.16 14:36:59.
