data_PCOD8221876
_publ_section_title
;
Structure prediction by ZEFSAII (Michael W. Deem and Ramdas Pophale) SiO2 
 PCOD8221876
Probable space group: P M N A
;
_chemical_formula_sum "Si O2"
_cell_formula_units_Z 48
_cell_length_a 31.212718
_cell_length_b 7.525397
_cell_length_c 9.747300
_cell_angle_alpha 90.000000
_cell_angle_beta 90.000000
_cell_angle_gamma 90.000000
_cell_volume 2289.524723
_symmetry_space_group_name_H-M "P M N A"
_symmetry_group_IT_number 53
_symmetry_cell_setting 'orthorhombic'
loop_
_space_group_symop_operation_xyz
x,y,z
1/2-x,-y,1/2+z
x,-y,-z
1/2-x,y,1/2-z
-x,-y,-z
1/2+x,y,1/2-z
-x,y,z
1/2+x,-y,1/2+z
loop_
_atom_site_type_symbol
_atom_site_label
_atom_site_fract_x
_atom_site_fract_y
_atom_site_fract_z
Si Si1 0.500000 0.676733 0.587431
Si Si2 0.000000 0.328044 0.408482
Si Si3 0.589430 0.199704 0.024995
Si Si4 0.862424 0.773510 0.268876
Si Si5 0.850562 0.179692 0.246058
Si Si6 0.907460 0.710781 0.995895
Si Si7 0.206770 0.513698 0.667892
O O1 0.500000 0.500000 0.500000
O O2 0.500000 0.627373 0.747846
O O3 0.544673 0.780053 0.550074
O O4 0.000000 0.500000 0.500000
O O5 0.960563 0.210965 0.454663
O O6 0.612549 0.269297 0.160787
O O7 0.608197 0.300275 0.893616
O O8 0.603151 0.000000 0.000000
O O9 0.896345 0.780093 0.145817
O O10 0.824201 0.633170 0.263681
O O11 0.842225 0.971919 0.279186
O O12 0.807807 0.288994 0.284414
O O13 0.868483 0.210331 0.093820
O O14 0.906280 0.500000 0.000000
O O15 0.210973 0.500000 0.500000
O O16 0.250000 0.475897 0.750000
#
# Coordination Sequence:
#
# PCOD8221876 Si02
#       7
#     4   4   8   8   8   8   8
#     4  10  24  39  56  97 141 177 228 280 324 388
#     4  12  25  35  65  96 130 179 230 280 330 376
#     4  10  23  42  65  93 130 177 227 278 325 385
#     4  11  25  44  72 100 132 180 226 272 336 400
#     4  11  23  46  71  98 135 179 223 275 330 399
#     4  11  22  40  69  97 141 184 227 275 329 394
#     4  12  28  47  74 103 136 171 213 276 342 406
#
# _framework density 20.965050000000002
#
# number of rings (size 3 to 8) (size 9 to 14) (size 15 to 20)
#    0.000    1.000    5.000    0.750    9.333    0.667 
#    0.000    2.500    0.000    0.000    0.000    0.000 
#    0.000    0.000    0.000    0.000    0.000    0.000 
#
# Total GULP energy -594769.214243 kJ/mol
# GULP energy per Si atom -12391.025297 kJ/mol
# Density = 2.091733 g / cm^3
# Si number density = 20.965050 Si / 1000 Ang^3
#
#
#
# Elastic Constant Matrix: (Units=GPa)
#
#
# Indices 1 2 3 4 5 6 
#
# 1 121.8664 22.8430 44.4937 0.0000 0.0000 0.0000
# 2 22.8430 79.6070 25.3480 0.0000 0.0000 0.0000
# 3 44.4937 25.3480 89.2013 0.0000 0.0000 0.0000
# 4 0.0000 0.0000 0.0000 26.0394 0.0000 0.0000
# 5 0.0000 0.0000 0.0000 0.0000 37.6065 0.0000
# 6 0.0000 0.0000 0.0000 0.0000 0.0000 3.1430
#
#
#
# Elastic Compliance Matrix: (Units=1/GPa)
#
#
# Indices 1 2 3 4 5 6 
#
# 1 0.010180 -0.001434 -0.004670 0.000000 0.000000 0.000000
# 2 -0.001434 0.014013 -0.003267 0.000000 0.000000 0.000000
# 3 -0.004670 -0.003267 0.014468 0.000000 0.000000 0.000000
# 4 0.000000 0.000000 0.000000 0.038403 0.000000 0.000000
# 5 0.000000 0.000000 0.000000 0.000000 0.026591 0.000000
# 6 0.000000 0.000000 0.000000 0.000000 0.000000 0.318165
#
#
# Mechanical properties :
#
#
# Convention : Reuss Voigt Hill
#
# Bulk Modulus (GPa) = 50.20214 52.89381 51.54797
# Shear Modulus (GPa) = 11.18061 26.55711 18.86886
#
# Velocity S-wave (km/s) = 2.31183 3.56298 3.00328
# Velocity P-wave (km/s) = 5.57886 6.49698 6.05535
#
# Compressibility (1/GPa) = 0.01991947
#
# Stress axis : x y z
#
# Youngs Moduli (GPa) = 98.23615 71.36022 69.11624
#
# Poissons Ratio (x) = 0.10233 0.32278
# Poissons Ratio (y) = 0.14087 0.22579
# Poissons Ratio (z) = 0.45877 0.23312
#
# Static dielectric constant tensor:
#      x y z
#    x 3.778320 0.000000 0.000000 
#    y 0.000000 3.708470 0.000000 
#    z 0.000000 0.000000 4.111150 
# 
# 
# High freq. dielectric constant tensor:
#      x y z
#    x 1.814810 0.000000 0.000000 
#    y 0.000000 1.816770 0.000000 
#    z 0.000000 0.000000 1.840710 
# 
# From -- ./inp_files/13108.got.cif
#   From: 2010.03.12/outbox.cif.g09.slc.cpg/sg53_7_cif.got.tgz:13108.got - 2010.04.16 14:36:59.
