data_PCOD8221660
_publ_section_title
;
Structure prediction by ZEFSAII (Michael W. Deem and Ramdas Pophale) SiO2 
 PCOD8221660
Probable space group: P M N A
;
_chemical_formula_sum "Si O2"
_cell_formula_units_Z 40
_cell_length_a 8.426767
_cell_length_b 10.089250
_cell_length_c 22.707691
_cell_angle_alpha 90.000000
_cell_angle_beta 90.000000
_cell_angle_gamma 90.000000
_cell_volume 1930.602415
_symmetry_space_group_name_H-M "P M N A"
_symmetry_group_IT_number 53
_symmetry_cell_setting 'orthorhombic'
loop_
_space_group_symop_operation_xyz
x,y,z
1/2-x,-y,1/2+z
x,-y,-z
1/2-x,y,1/2-z
-x,-y,-z
1/2+x,y,1/2-z
-x,y,z
1/2+x,-y,1/2+z
loop_
_atom_site_type_symbol
_atom_site_label
_atom_site_fract_x
_atom_site_fract_y
_atom_site_fract_z
Si Si1 0.314251 0.233311 0.610649
Si Si2 0.185389 0.347589 0.496420
Si Si3 0.814117 0.524636 0.187641
Si Si4 0.313471 0.736107 0.626380
Si Si5 0.314460 0.003041 0.185123
O O1 0.500000 0.204178 0.619761
O O2 0.275388 0.251408 0.542053
O O3 0.255677 0.369308 0.640211
O O4 0.214870 0.116182 0.640063
O O5 0.249303 0.500000 0.500000
O O6 0.218326 0.279941 0.433973
O O7 0.000000 0.345195 0.510616
O O8 0.750000 0.569332 0.250000
O O9 0.751880 0.380205 0.169340
O O10 0.000000 0.524075 0.191379
O O11 0.500000 0.724493 0.612894
O O12 0.276951 0.871577 0.659205
O O13 0.250000 0.967302 0.250000
O O14 0.500000 0.034113 0.189185
#
# Coordination Sequence:
#
# PCOD8221660 Si02
#       5
#     8   8   8   8   8
#     4  11  23  42  66  94 127 171 216 265 322 381
#     4  11  23  40  65  98 133 170 212 266 323 382
#     4  10  22  37  60  91 123 160 210 262 315 376
#     4  11  23  42  66  94 127 171 216 265 322 381
#     4  12  26  45  66  95 132 172 216 266 322 386
#
# _framework density 20.718921000000002
#
# number of rings (size 3 to 8) (size 9 to 14) (size 15 to 20)
#    0.000    1.000    2.000    4.800    0.000    8.000 
#    0.000    4.000    0.000    0.000    0.000    0.000 
#    0.000    0.000    0.000    0.000    0.000    0.000 
#
# Total GULP energy -496206.473175 kJ/mol
# GULP energy per Si atom -12405.161829 kJ/mol
# Density = 2.067176 g / cm^3
# Si number density = 20.718921 Si / 1000 Ang^3
#
#
#
# Elastic Constant Matrix: (Units=GPa)
#
#
# Indices 1 2 3 4 5 6 
#
# 1 51.0159 20.2480 15.7267 0.0000 0.0000 0.0000
# 2 20.2480 90.2876 5.5124 0.0000 0.0000 0.0000
# 3 15.7267 5.5124 83.7874 0.0000 0.0000 0.0000
# 4 0.0000 0.0000 0.0000 39.4924 0.0000 0.0000
# 5 0.0000 0.0000 0.0000 0.0000 33.3118 0.0000
# 6 0.0000 0.0000 0.0000 0.0000 0.0000 52.1681
#
#
#
# Elastic Compliance Matrix: (Units=1/GPa)
#
#
# Indices 1 2 3 4 5 6 
#
# 1 0.022749 -0.004860 -0.003950 0.000000 0.000000 0.000000
# 2 -0.004860 0.012159 0.000112 0.000000 0.000000 0.000000
# 3 -0.003950 0.000112 0.012669 0.000000 0.000000 0.000000
# 4 0.000000 0.000000 0.000000 0.025321 0.000000 0.000000
# 5 0.000000 0.000000 0.000000 0.000000 0.030019 0.000000
# 6 0.000000 0.000000 0.000000 0.000000 0.000000 0.019169
#
#
# Mechanical properties :
#
#
# Convention : Reuss Voigt Hill
#
# Bulk Modulus (GPa) = 33.13445 34.22945 33.68195
# Shear Modulus (GPa) = 33.43537 37.23470 35.33504
#
# Velocity S-wave (km/s) = 4.02152 4.24386 4.13419
# Velocity P-wave (km/s) = 6.13112 6.36950 6.25145
#
# Compressibility (1/GPa) = 0.03018007
#
# Stress axis : x y z
#
# Youngs Moduli (GPa) = 43.95891 82.24446 78.93284
#
# Poissons Ratio (x) = 0.39974 0.31179
# Poissons Ratio (y) = 0.21366 -0.00887
# Poissons Ratio (z) = 0.17364 -0.00924
#
# Static dielectric constant tensor:
#      x y z
#    x 3.672860 0.000000 0.000000 
#    y 0.000000 3.937460 0.000000 
#    z 0.000000 0.000000 3.823000 
# 
# 
# High freq. dielectric constant tensor:
#      x y z
#    x 1.813590 0.000000 0.000000 
#    y 0.000000 1.815730 0.000000 
#    z 0.000000 0.000000 1.824150 
# 
# From -- ./inp_files/33613.got.cif
#   From: 2010.03.12/outbox.cif.g09.slc.cpg/sg53_17_cif.got.tgz:33613.got - 2010.04.16 14:36:59.
