data_PCOD8221890
_publ_section_title
;
Structure prediction by ZEFSAII (Michael W. Deem and Ramdas Pophale) SiO2 
 PCOD8221890
Probable space group: P M N A
;
_chemical_formula_sum "Si O2"
_cell_formula_units_Z 32
_cell_length_a 31.884119
_cell_length_b 9.351201
_cell_length_c 4.897563
_cell_angle_alpha 90.000000
_cell_angle_beta 90.000000
_cell_angle_gamma 90.000000
_cell_volume 1460.231944
_symmetry_space_group_name_H-M "P M N A"
_symmetry_group_IT_number 53
_symmetry_cell_setting 'orthorhombic'
loop_
_space_group_symop_operation_xyz
x,y,z
1/2-x,-y,1/2+z
x,-y,-z
1/2-x,y,1/2-z
-x,-y,-z
1/2+x,y,1/2-z
-x,y,z
1/2+x,-y,1/2+z
loop_
_atom_site_type_symbol
_atom_site_label
_atom_site_fract_x
_atom_site_fract_y
_atom_site_fract_z
Si Si1 0.775322 0.500000 0.500000
Si Si2 0.280169 0.000000 0.000000
Si Si3 0.663131 0.729984 0.928093
Si Si4 0.952831 0.098455 0.739767
Si Si5 0.890509 0.664523 0.064986
O O1 0.750000 0.426470 0.750000
O O2 0.802574 0.384486 0.334497
O O3 0.250000 0.039388 0.750000
O O4 0.312761 0.877177 0.932568
O O5 0.624621 0.738015 0.715601
O O6 0.647372 0.674517 0.221735
O O7 0.928569 0.245627 0.802887
O O8 0.000000 0.143440 0.653208
O O9 0.932272 0.000000 0.500000
O O10 0.953197 0.000000 0.000000
O O11 0.903804 0.500000 0.000000
#
# Coordination Sequence:
#
# PCOD8221890 Si02
#       5
#     4   4   8   8   8
#     4  12  22  40  64  88 125 174 215 268 332 390
#     4  12  26  46  64  92 129 170 225 282 336 394
#     4  12  25  42  65  98 128 170 221 276 327 398
#     4  10  23  43  69 101 134 174 219 263 323 396
#     4  12  24  43  66 100 136 172 218 270 330 397
#
# _framework density 21.914325000000002
#
# number of rings (size 3 to 8) (size 9 to 14) (size 15 to 20)
#    0.000    0.500    2.500    6.000    5.250    0.500 
#    0.000    0.000    0.000    7.500    0.000    0.000 
#    0.000    0.000    0.000    0.000    0.000    0.000 
#
# Total GULP energy -396712.979016 kJ/mol
# GULP energy per Si atom -12397.280594 kJ/mol
# Density = 2.186445 g / cm^3
# Si number density = 21.914325 Si / 1000 Ang^3
#
#
#
# Elastic Constant Matrix: (Units=GPa)
#
#
# Indices 1 2 3 4 5 6 
#
# 1 96.0181 70.2858 25.3559 0.0000 0.0000 0.0000
# 2 70.2858 167.1063 32.0833 0.0000 0.0000 0.0000
# 3 25.3559 32.0833 108.3439 0.0000 0.0000 0.0000
# 4 0.0000 0.0000 0.0000 36.2470 0.0000 0.0000
# 5 0.0000 0.0000 0.0000 0.0000 33.1499 0.0000
# 6 0.0000 0.0000 0.0000 0.0000 0.0000 41.7097
#
#
#
# Elastic Compliance Matrix: (Units=1/GPa)
#
#
# Indices 1 2 3 4 5 6 
#
# 1 0.015366 -0.006121 -0.001784 0.000000 0.000000 0.000000
# 2 -0.006121 0.008783 -0.001168 0.000000 0.000000 0.000000
# 3 -0.001784 -0.001168 0.009993 0.000000 0.000000 0.000000
# 4 0.000000 0.000000 0.000000 0.027589 0.000000 0.000000
# 5 0.000000 0.000000 0.000000 0.000000 0.030166 0.000000
# 6 0.000000 0.000000 0.000000 0.000000 0.000000 0.023975
#
#
# Mechanical properties :
#
#
# Convention : Reuss Voigt Hill
#
# Bulk Modulus (GPa) = 62.51229 69.65761 66.08495
# Shear Modulus (GPa) = 35.88097 38.47087 37.17592
#
# Velocity S-wave (km/s) = 4.05078 4.19443 4.12323
# Velocity P-wave (km/s) = 7.10395 7.43727 7.27252
#
# Compressibility (1/GPa) = 0.01599686
#
# Stress axis : x y z
#
# Youngs Moduli (GPa) = 65.07857 113.85765 100.06698
#
# Poissons Ratio (x) = 0.69688 0.17849
# Poissons Ratio (y) = 0.39832 0.11692
# Poissons Ratio (z) = 0.11608 0.13303
#
# Static dielectric constant tensor:
#      x y z
#    x 4.110980 0.000000 0.000000 
#    y 0.000000 4.137770 0.000000 
#    z 0.000000 0.000000 4.322970 
# 
# 
# High freq. dielectric constant tensor:
#      x y z
#    x 1.859730 0.000000 0.000000 
#    y 0.000000 1.863280 0.000000 
#    z 0.000000 0.000000 1.879580 
# 
# From -- ./inp_files/5044.got.cif
#   From: 2010.03.12/outbox.cif.g09.slc.cpg/sg53_3_cif.got.tgz:5044.got - 2010.04.16 14:36:59.
