data_PCOD8221512
_publ_section_title
;
Structure prediction by ZEFSAII (Michael W. Deem and Ramdas Pophale) SiO2 
 PCOD8221512
Probable space group: P M N A
;
_chemical_formula_sum "Si O2"
_cell_formula_units_Z 64
_cell_length_a 14.411232
_cell_length_b 8.797850
_cell_length_c 22.974610
_cell_angle_alpha 90.000000
_cell_angle_beta 90.000000
_cell_angle_gamma 90.000000
_cell_volume 2912.901578
_symmetry_space_group_name_H-M "P M N A"
_symmetry_group_IT_number 53
_symmetry_cell_setting 'orthorhombic'
loop_
_space_group_symop_operation_xyz
x,y,z
1/2-x,-y,1/2+z
x,-y,-z
1/2-x,y,1/2-z
-x,-y,-z
1/2+x,y,1/2-z
-x,y,z
1/2+x,-y,1/2+z
loop_
_atom_site_type_symbol
_atom_site_label
_atom_site_fract_x
_atom_site_fract_y
_atom_site_fract_z
Si Si1 0.604994 0.473026 0.829349
Si Si2 0.740658 0.742792 0.359338
Si Si3 0.103876 0.807783 0.949623
Si Si4 0.604034 0.003129 0.334749
Si Si5 0.721983 0.841418 0.017376
Si Si6 0.106757 0.520247 0.877181
Si Si7 0.399604 0.617970 0.949675
Si Si8 0.648760 0.289988 0.267303
O O1 0.500000 0.404096 0.831180
O O2 0.682600 0.340130 0.816979
O O3 0.636775 0.536620 0.891715
O O4 0.602495 0.613200 0.784457
O O5 0.797276 0.808402 0.414860
O O6 0.664558 0.631640 0.387923
O O7 0.683063 0.873549 0.324323
O O8 0.130715 0.913065 0.894733
O O9 0.113754 0.630373 0.932623
O O10 0.000000 0.841775 0.970481
O O11 0.167639 0.844257 0.004899
O O12 0.500000 0.931697 0.337488
O O13 0.599083 0.130553 0.283358
O O14 0.679080 0.730098 0.970166
O O15 0.675596 0.000000 0.000000
O O16 0.152776 0.598925 0.821748
O O17 0.000000 0.480213 0.863401
O O18 0.500000 0.697220 0.937196
O O19 0.415995 0.500000 0.000000
O O20 0.750000 0.238707 0.250000
#
# Coordination Sequence:
#
# PCOD8221512 Si02
#       8
#     8   8   8   8   8   8   8   8
#     4  11  23  42  71  99 127 169 225 277 324 384
#     4  12  23  39  64 100 128 169 217 264 322 385
#     4   9  20  37  59  89 127 173 213 250 307 384
#     4  10  22  42  65  93 134 173 210 261 327 391
#     4  12  24  37  60  91 133 173 212 261 319 380
#     4  10  21  39  63  92 127 165 208 263 324 380
#     4  10  22  41  66  94 125 166 214 269 326 378
#     4  11  22  42  71  95 124 165 218 267 323 391
#
# _framework density 21.971218
#
# number of rings (size 3 to 8) (size 9 to 14) (size 15 to 20)
#    0.000    1.375    3.750    3.000    1.750    1.500 
#    2.250    1.250    0.000    1.500    0.000    0.000 
#    0.000    0.000    0.000    0.000    0.000    0.000 
#
# Total GULP energy -793265.509981 kJ/mol
# GULP energy per Si atom -12394.773593 kJ/mol
# Density = 2.192121 g / cm^3
# Si number density = 21.971218 Si / 1000 Ang^3
#
#
#
# Elastic Constant Matrix: (Units=GPa)
#
#
# Indices 1 2 3 4 5 6 
#
# 1 104.2188 45.1589 6.7601 0.0000 0.0000 0.0000
# 2 45.1589 113.0588 22.7116 0.0000 0.0000 0.0000
# 3 6.7601 22.7116 69.2445 0.0000 0.0000 0.0000
# 4 0.0000 0.0000 0.0000 12.9831 0.0000 0.0000
# 5 0.0000 0.0000 0.0000 0.0000 31.2375 0.0000
# 6 0.0000 0.0000 0.0000 0.0000 0.0000 107.5745
#
#
#
# Elastic Compliance Matrix: (Units=1/GPa)
#
#
# Indices 1 2 3 4 5 6 
#
# 1 0.011615 -0.004723 0.000415 0.000000 0.000000 0.000000
# 2 -0.004723 0.011389 -0.003274 0.000000 0.000000 0.000000
# 3 0.000415 -0.003274 0.015475 0.000000 0.000000 0.000000
# 4 0.000000 0.000000 0.000000 0.077023 0.000000 0.000000
# 5 0.000000 0.000000 0.000000 0.000000 0.032013 0.000000
# 6 0.000000 0.000000 0.000000 0.000000 0.000000 0.009296
#
#
# Mechanical properties :
#
#
# Convention : Reuss Voigt Hill
#
# Bulk Modulus (GPa) = 42.89126 48.42036 45.65581
# Shear Modulus (GPa) = 27.81702 44.48511 36.15107
#
# Velocity S-wave (km/s) = 3.56204 4.50455 4.06073
# Velocity P-wave (km/s) = 6.03999 7.01003 6.54301
#
# Compressibility (1/GPa) = 0.02331477
#
# Stress axis : x y z
#
# Youngs Moduli (GPa) = 86.09843 87.80340 64.62013
#
# Poissons Ratio (x) = 0.41466 -0.02682
# Poissons Ratio (y) = 0.40661 0.21160
# Poissons Ratio (z) = -0.03574 0.28751
#
# Static dielectric constant tensor:
#      x y z
#    x 4.076420 0.000000 0.000000 
#    y 0.000000 3.978460 0.000000 
#    z 0.000000 0.000000 3.650400 
# 
# 
# High freq. dielectric constant tensor:
#      x y z
#    x 1.872520 0.000000 0.000000 
#    y 0.000000 1.855310 0.000000 
#    z 0.000000 0.000000 1.847600 
# 
# From -- ./inp_files/35376.got.cif
#   From: 2010.03.12/outbox.cif.g09.slc.cpg/sg53_18_cif.got.tgz:35376.got - 2010.04.16 14:36:59.
