data_PCOD8221185
_publ_section_title
;
Structure prediction by ZEFSAII (Michael W. Deem and Ramdas Pophale) SiO2 
 PCOD8221185
Probable space group: P M N A
;
_chemical_formula_sum "Si O2"
_cell_formula_units_Z 24
_cell_length_a 15.190143
_cell_length_b 10.089373
_cell_length_c 8.721552
_cell_angle_alpha 90.000000
_cell_angle_beta 90.000000
_cell_angle_gamma 90.000000
_cell_volume 1336.656501
_symmetry_space_group_name_H-M "P M N A"
_symmetry_group_IT_number 53
_symmetry_cell_setting 'orthorhombic'
loop_
_space_group_symop_operation_xyz
x,y,z
1/2-x,-y,1/2+z
x,-y,-z
1/2-x,y,1/2-z
-x,-y,-z
1/2+x,y,1/2-z
-x,y,z
1/2+x,-y,1/2+z
loop_
_atom_site_type_symbol
_atom_site_label
_atom_site_fract_x
_atom_site_fract_y
_atom_site_fract_z
Si Si1 0.900920 0.874782 0.913880
Si Si2 0.500000 0.406454 0.144758
Si Si3 0.333530 0.401308 0.358042
Si Si4 0.500000 0.107784 0.130028
O O1 0.839564 0.746279 0.931052
O O2 0.000000 0.844815 0.981233
O O3 0.912140 0.912039 0.733798
O O4 0.856978 0.000000 0.000000
O O5 0.417234 0.433443 0.253427
O O6 0.500000 0.259188 0.071390
O O7 0.500000 0.500000 0.000000
O O8 0.326193 0.500000 0.500000
O O9 0.250000 0.415513 0.250000
O O10 0.500000 0.000000 0.000000
#
# Coordination Sequence:
#
# PCOD8221185 Si02
#       4
#     8   4   8   4
#     4   8  17  35  57  79 105 145 187 230 280 341
#     4  10  21  36  56  84 110 150 189 230 286 338
#     4  11  22  38  57  83 118 151 191 241 283 342
#     4   8  15  28  50  78 106 132 171 230 268 320
#
# _framework density 17.955248000000001
#
# number of rings (size 3 to 8) (size 9 to 14) (size 15 to 20)
#    1.000    1.667    1.667    1.500    0.000    2.667 
#    0.000    8.333    0.000    0.000    0.000    0.000 
#    0.000    0.000    0.000    0.000    0.000    0.000 
#
# Total GULP energy -297338.264100 kJ/mol
# GULP energy per Si atom -12389.094338 kJ/mol
# Density = 1.791438 g / cm^3
# Si number density = 17.955248 Si / 1000 Ang^3
#
#
#
# Elastic Constant Matrix: (Units=GPa)
#
#
# Indices 1 2 3 4 5 6 
#
# 1 102.5145 52.8651 47.7041 0.0000 0.0000 0.0000
# 2 52.8651 181.5909 121.4740 0.0000 0.0000 0.0000
# 3 47.7041 121.4740 114.4334 0.0000 0.0000 0.0000
# 4 0.0000 0.0000 0.0000 53.1298 0.0000 0.0000
# 5 0.0000 0.0000 0.0000 0.0000 26.1318 0.0000
# 6 0.0000 0.0000 0.0000 0.0000 0.0000 32.0929
#
#
#
# Elastic Compliance Matrix: (Units=1/GPa)
#
#
# Indices 1 2 3 4 5 6 
#
# 1 0.012116 -0.000512 -0.004507 0.000000 0.000000 0.000000
# 2 -0.000512 0.019017 -0.019974 0.000000 0.000000 0.000000
# 3 -0.004507 -0.019974 0.031820 0.000000 0.000000 0.000000
# 4 0.000000 0.000000 0.000000 0.018822 0.000000 0.000000
# 5 0.000000 0.000000 0.000000 0.000000 0.038267 0.000000
# 6 0.000000 0.000000 0.000000 0.000000 0.000000 0.031160
#
#
# Mechanical properties :
#
#
# Convention : Reuss Voigt Hill
#
# Bulk Modulus (GPa) = 77.11622 93.62503 85.37062
# Shear Modulus (GPa) = 24.32944 34.03729 29.18337
#
# Velocity S-wave (km/s) = 3.68503 4.35866 4.03592
# Velocity P-wave (km/s) = 7.81974 8.80836 8.32873
#
# Compressibility (1/GPa) = 0.01296744
#
# Stress axis : x y z
#
# Youngs Moduli (GPa) = 82.53392 52.58317 31.42630
#
# Poissons Ratio (x) = 0.02694 0.14164
# Poissons Ratio (y) = 0.04228 0.62771
# Poissons Ratio (z) = 0.37199 1.05030
#
# Static dielectric constant tensor:
#      x y z
#    x 3.087230 0.000000 0.000000 
#    y 0.000000 3.354650 0.000000 
#    z 0.000000 0.000000 3.189740 
# 
# 
# High freq. dielectric constant tensor:
#      x y z
#    x 1.669880 0.000000 0.000000 
#    y 0.000000 1.702590 0.000000 
#    z 0.000000 0.000000 1.684890 
# 
# From -- ./inp_files/7827.got.cif
#   From: 2010.03.12/outbox.cif.g09.slc.cpg/sg53_4_cif.got.tgz:7827.got - 2010.04.16 14:36:59.
