data_PCOD8221532
_publ_section_title
;
Structure prediction by ZEFSAII (Michael W. Deem and Ramdas Pophale) SiO2 
 PCOD8221532
Probable space group: P M N A
;
_chemical_formula_sum "Si O2"
_cell_formula_units_Z 40
_cell_length_a 14.851908
_cell_length_b 7.462836
_cell_length_c 16.611137
_cell_angle_alpha 90.000000
_cell_angle_beta 90.000000
_cell_angle_gamma 90.000000
_cell_volume 1841.134467
_symmetry_space_group_name_H-M "P M N A"
_symmetry_group_IT_number 53
_symmetry_cell_setting 'orthorhombic'
loop_
_space_group_symop_operation_xyz
x,y,z
1/2-x,-y,1/2+z
x,-y,-z
1/2-x,y,1/2-z
-x,-y,-z
1/2+x,y,1/2-z
-x,y,z
1/2+x,-y,1/2+z
loop_
_atom_site_type_symbol
_atom_site_label
_atom_site_fract_x
_atom_site_fract_y
_atom_site_fract_z
Si Si1 0.101536 0.872199 0.342566
Si Si2 0.646058 0.436546 0.739901
Si Si3 0.597249 0.646934 0.434155
Si Si4 0.601754 0.274758 0.130520
Si Si5 0.783754 0.205196 0.515892
O O1 0.115455 0.768139 0.258667
O O2 0.161286 0.751508 0.403338
O O3 0.000000 0.859636 0.373486
O O4 0.129549 0.080185 0.332662
O O5 0.750000 0.467990 0.750000
O O6 0.619160 0.461596 0.647429
O O7 0.599247 0.581661 0.797786
O O8 0.583780 0.500000 0.500000
O O9 0.500000 0.750120 0.425773
O O10 0.678256 0.772118 0.465561
O O11 0.500000 0.266927 0.094466
O O12 0.674835 0.320177 0.059250
O O13 0.805805 0.000000 0.500000
#
# Coordination Sequence:
#
# PCOD8221532 Si02
#       5
#     8   8   8   8   8
#     4  10  21  39  64  96 131 163 203 260 320 382
#     4  12  23  41  66  91 129 171 210 264 319 372
#     4  11  24  43  62  86 125 169 217 264 310 373
#     4  10  22  40  66 100 130 162 209 263 324 383
#     4  10  21  40  64  94 128 165 206 259 322 381
#
# _framework density 21.725736000000001
#
# number of rings (size 3 to 8) (size 9 to 14) (size 15 to 20)
#    0.000    1.400    2.000    3.600    0.000    3.600 
#    3.600    2.000    0.000    0.000    0.000    0.000 
#    0.000    0.000    0.000    0.000    0.000    0.000 
#
# Total GULP energy -495708.010815 kJ/mol
# GULP energy per Si atom -12392.700270 kJ/mol
# Density = 2.167629 g / cm^3
# Si number density = 21.725736 Si / 1000 Ang^3
#
#
#
# Elastic Constant Matrix: (Units=GPa)
#
#
# Indices 1 2 3 4 5 6 
#
# 1 154.1736 7.9302 40.6379 0.0000 0.0000 0.0000
# 2 7.9302 50.2471 30.2939 0.0000 0.0000 0.0000
# 3 40.6379 30.2939 130.4407 0.0000 0.0000 0.0000
# 4 0.0000 0.0000 0.0000 15.3863 0.0000 0.0000
# 5 0.0000 0.0000 0.0000 0.0000 -0.7966 0.0000
# 6 0.0000 0.0000 0.0000 0.0000 0.0000 9.3329
#
#
#
# Elastic Compliance Matrix: (Units=1/GPa)
#
#
# Indices 1 2 3 4 5 6 
#
# 1 0.007069 0.000247 -0.002260 0.000000 0.000000 0.000000
# 2 0.000247 0.023151 -0.005453 0.000000 0.000000 0.000000
# 3 -0.002260 -0.005453 0.009637 0.000000 0.000000 0.000000
# 4 0.000000 0.000000 0.000000 0.064993 0.000000 0.000000
# 5 0.000000 0.000000 0.000000 0.000000 -1.255279 0.000000
# 6 0.000000 0.000000 0.000000 0.000000 0.000000 0.107148
#
#
# Mechanical properties :
#
#
# Convention : Reuss Voigt Hill
#
# Bulk Modulus (GPa) = 40.12237 54.73171 47.42704
# Shear Modulus (GPa) = -4.90177 21.85113 8.47468
#
# Velocity S-wave (km/s) = -1.50370 3.17483 1.97718
# Velocity P-wave (km/s) = 3.93611 6.21982 5.20477
#
# Compressibility (1/GPa) = 0.02492375
#
# Stress axis : x y z
#
# Youngs Moduli (GPa) = 141.46055 43.19546 103.76899
#
# Poissons Ratio (x) = -0.01065 0.23448
# Poissons Ratio (y) = -0.03489 0.56589
# Poissons Ratio (z) = 0.31965 0.23556
#
# Static dielectric constant tensor:
#      x y z
#    x 4.699640 0.000000 0.000000 
#    y 0.000000 3.763540 0.000000 
#    z 0.000000 0.000000 4.219730 
# 
# 
# High freq. dielectric constant tensor:
#      x y z
#    x 1.872480 0.000000 0.000000 
#    y 0.000000 1.834640 0.000000 
#    z 0.000000 0.000000 1.853690 
# 
# From -- ./inp_files/22411.got.cif
#   From: 2010.03.12/outbox.cif.g09.slc.cpg/sg53_12_cif.got.tgz:22411.got - 2010.04.16 14:36:59.
