data_PCOD8221470
_publ_section_title
;
Structure prediction by ZEFSAII (Michael W. Deem and Ramdas Pophale) SiO2 
 PCOD8221470
Probable space group: P M N A
;
_chemical_formula_sum "Si O2"
_cell_formula_units_Z 48
_cell_length_a 7.714860
_cell_length_b 10.214248
_cell_length_c 30.551479
_cell_angle_alpha 90.000000
_cell_angle_beta 90.000000
_cell_angle_gamma 90.000000
_cell_volume 2407.502168
_symmetry_space_group_name_H-M "P M N A"
_symmetry_group_IT_number 53
_symmetry_cell_setting 'orthorhombic'
loop_
_space_group_symop_operation_xyz
x,y,z
1/2-x,-y,1/2+z
x,-y,-z
1/2-x,y,1/2-z
-x,-y,-z
1/2+x,y,1/2-z
-x,y,z
1/2+x,-y,1/2+z
loop_
_atom_site_type_symbol
_atom_site_label
_atom_site_fract_x
_atom_site_fract_y
_atom_site_fract_z
Si Si1 0.204715 0.430224 0.700967
Si Si2 0.295559 0.928579 0.867524
Si Si3 0.500000 0.206184 0.503889
Si Si4 0.500000 0.002827 0.568784
Si Si5 0.193664 0.625878 0.529875
Si Si6 0.702177 0.861402 0.202048
Si Si7 0.797581 0.629441 0.629119
O O1 0.250000 0.478896 0.750000
O O2 0.283048 0.283493 0.692970
O O3 0.286756 0.528893 0.664531
O O4 0.000000 0.427018 0.696093
O O5 0.500000 0.945442 0.878185
O O6 0.228358 0.024307 0.829249
O O7 0.180568 0.970942 0.908068
O O8 0.251819 0.777564 0.856139
O O9 0.500000 0.155387 0.554211
O O10 0.324187 0.283971 0.496216
O O11 0.500000 0.082692 0.473690
O O12 0.180467 0.500000 0.500000
O O13 0.266963 0.600361 0.579311
O O14 0.000000 0.689311 0.533706
O O15 0.750000 0.910029 0.250000
O O16 0.500000 0.849108 0.195859
O O17 0.000000 0.605503 0.630312
#
# Coordination Sequence:
#
# PCOD8221470 Si02
#       7
#     8   8   4   4   8   8   8
#     4   9  18  35  54  80 114 145 187 236 288 348
#     4  10  21  39  59  83 116 156 198 240 294 351
#     4  11  23  40  58  88 121 151 198 250 296 355
#     4  11  24  38  60  86 118 158 196 246 300 353
#     4  10  21  39  63  87 117 157 196 244 304 357
#     4   9  19  34  56  82 114 151 189 238 289 347
#     4   9  18  35  58  80 111 149 188 236 288 347
#
# _framework density 19.937676
#
# number of rings (size 3 to 8) (size 9 to 14) (size 15 to 20)
#    0.000    2.333    1.667    0.250    1.167    2.667 
#    3.000    5.000    0.000    0.000    0.000    0.000 
#    0.000    0.000    0.000    0.000    0.000    0.000 
#
# Total GULP energy -594735.510404 kJ/mol
# GULP energy per Si atom -12390.323133 kJ/mol
# Density = 1.989230 g / cm^3
# Si number density = 19.937676 Si / 1000 Ang^3
#
#
#
# Elastic Constant Matrix: (Units=GPa)
#
#
# Indices 1 2 3 4 5 6 
#
# 1 59.2470 30.1134 20.0346 0.0000 0.0000 0.0000
# 2 30.1134 122.2183 69.4173 0.0000 0.0000 0.0000
# 3 20.0346 69.4173 64.1759 0.0000 0.0000 0.0000
# 4 0.0000 0.0000 0.0000 44.6953 0.0000 0.0000
# 5 0.0000 0.0000 0.0000 0.0000 28.9455 0.0000
# 6 0.0000 0.0000 0.0000 0.0000 0.0000 -50.3205
#
#
#
# Elastic Compliance Matrix: (Units=1/GPa)
#
#
# Indices 1 2 3 4 5 6 
#
# 1 0.019425 -0.003480 -0.002300 0.000000 0.000000 0.000000
# 2 -0.003480 0.021840 -0.022538 0.000000 0.000000 0.000000
# 3 -0.002300 -0.022538 0.040679 0.000000 0.000000 0.000000
# 4 0.000000 0.000000 0.000000 0.022374 0.000000 0.000000
# 5 0.000000 0.000000 0.000000 0.000000 0.034548 0.000000
# 6 0.000000 0.000000 0.000000 0.000000 0.000000 -0.019873
#
#
# Mechanical properties :
#
#
# Convention : Reuss Voigt Hill
#
# Bulk Modulus (GPa) = 39.51229 53.86354 46.68791
# Shear Modulus (GPa) = 27.16429 13.06912 20.11671
#
# Velocity S-wave (km/s) = 3.69516 2.56305 3.17989
# Velocity P-wave (km/s) = 6.16981 5.98611 6.07865
#
# Compressibility (1/GPa) = 0.02530858
#
# Stress axis : x y z
#
# Youngs Moduli (GPa) = 51.48027 45.78658 24.58270
#
# Poissons Ratio (x) = 0.15932 0.05655
# Poissons Ratio (y) = 0.17913 0.55404
# Poissons Ratio (z) = 0.11842 1.03194
#
# Static dielectric constant tensor:
#      x y z
#    x 3.236860 0.000000 0.000000 
#    y 0.000000 5.077420 0.000000 
#    z 0.000000 0.000000 4.060710 
# 
# 
# High freq. dielectric constant tensor:
#      x y z
#    x 1.769680 0.000000 0.000000 
#    y 0.000000 1.778900 0.000000 
#    z 0.000000 0.000000 1.778030 
# 
# From -- ./inp_files/37811.got.cif
#   From: 2010.03.12/outbox.cif.g09.slc.cpg/sg53_19_cif.got.tgz:37811.got - 2010.04.16 14:36:59.
