data_PCOD8221932
_publ_section_title
;
Structure prediction by ZEFSAII (Michael W. Deem and Ramdas Pophale) SiO2 
 PCOD8221932
Probable space group: P M N A
;
_chemical_formula_sum "Si O2"
_cell_formula_units_Z 20
_cell_length_a 30.377282
_cell_length_b 4.882183
_cell_length_c 5.207393
_cell_angle_alpha 90.000000
_cell_angle_beta 90.000000
_cell_angle_gamma 90.000000
_cell_volume 772.295176
_symmetry_space_group_name_H-M "P M N A"
_symmetry_group_IT_number 53
_symmetry_cell_setting 'orthorhombic'
loop_
_space_group_symop_operation_xyz
x,y,z
1/2-x,-y,1/2+z
x,-y,-z
1/2-x,y,1/2-z
-x,-y,-z
1/2+x,y,1/2-z
-x,y,z
1/2+x,-y,1/2+z
loop_
_atom_site_type_symbol
_atom_site_label
_atom_site_fract_x
_atom_site_fract_y
_atom_site_fract_z
Si Si1 0.500000 0.811006 0.250063
Si Si2 0.200834 0.321127 0.748161
Si Si3 0.572704 0.500000 0.500000
Si Si4 0.367499 0.000000 0.500000
O O1 0.542700 0.612108 0.263486
O O2 0.500000 0.000000 0.500000
O O3 0.500000 0.000000 0.000000
O O4 0.192223 0.500000 0.500000
O O5 0.250000 0.191639 0.750000
O O6 0.164350 0.081542 0.760718
O O7 0.193603 0.500000 0.000000
O O8 0.602633 0.250535 0.397988
#
# Coordination Sequence:
#
# PCOD8221932 Si02
#       4
#     4   8   4   4
#     4  11  26  56  85 113 160 205 257 324 407 489
#     4  10  24  48  77 110 158 219 271 324 393 461
#     4  11  26  52  82 126 152 210 260 332 402 479
#     4  12  24  53  76 122 164 204 270 335 388 470
#
# _framework density 25.896837000000001
#
# number of rings (size 3 to 8) (size 9 to 14) (size 15 to 20)
#    0.000    1.200    4.000    0.000    0.000    9.600 
#   14.400    0.000    0.000    0.000    0.000    0.000 
#    0.000    0.000    0.000    0.000    0.000    0.000 
#
# Total GULP energy -247950.795544 kJ/mol
# GULP energy per Si atom -12397.539777 kJ/mol
# Density = 2.583789 g / cm^3
# Si number density = 25.896837 Si / 1000 Ang^3
#
#
#
# Elastic Constant Matrix: (Units=GPa)
#
#
# Indices 1 2 3 4 5 6 
#
# 1 241.9325 123.0997 68.2497 0.0000 0.0000 0.0000
# 2 123.0997 194.7386 79.9816 0.0000 0.0000 0.0000
# 3 68.2497 79.9816 176.0418 0.0000 0.0000 0.0000
# 4 0.0000 0.0000 0.0000 45.8074 0.0000 0.0000
# 5 0.0000 0.0000 0.0000 0.0000 10.6141 0.0000
# 6 0.0000 0.0000 0.0000 0.0000 0.0000 -45.6026
#
#
#
# Elastic Compliance Matrix: (Units=1/GPa)
#
#
# Indices 1 2 3 4 5 6 
#
# 1 0.006175 -0.003590 -0.000763 0.000000 0.000000 0.000000
# 2 -0.003590 0.008400 -0.002425 0.000000 0.000000 0.000000
# 3 -0.000763 -0.002425 0.007078 0.000000 0.000000 0.000000
# 4 0.000000 0.000000 0.000000 0.021831 0.000000 0.000000
# 5 0.000000 0.000000 0.000000 0.000000 0.094215 0.000000
# 6 0.000000 0.000000 0.000000 0.000000 0.000000 -0.021929
#
#
# Mechanical properties :
#
#
# Convention : Reuss Voigt Hill
#
# Bulk Modulus (GPa) = 123.48914 128.37497 125.93206
# Shear Modulus (GPa) = 37.87144 24.92255 31.39700
#
# Velocity S-wave (km/s) = 3.82828 3.10559 3.48571
# Velocity P-wave (km/s) = 8.20546 7.90815 8.05817
#
# Compressibility (1/GPa) = 0.00809788
#
# Stress axis : x y z
#
# Youngs Moduli (GPa) = 161.93199 119.04097 141.28533
#
# Poissons Ratio (x) = 0.42739 0.10780
# Poissons Ratio (y) = 0.58139 0.34257
# Poissons Ratio (z) = 0.12355 0.28864
#
# Static dielectric constant tensor:
#      x y z
#    x 5.577910 0.000000 0.000000 
#    y 0.000000 5.051950 0.000000 
#    z 0.000000 0.000000 3.809820 
# 
# 
# High freq. dielectric constant tensor:
#      x y z
#    x 2.061940 0.000000 0.000000 
#    y 0.000000 2.052820 0.000000 
#    z 0.000000 0.000000 2.005670 
# 
# From -- ./inp_files/4795.got.cif
#   From: 2010.03.12/outbox.cif.g09.slc.cpg/sg53_3_cif.got.tgz:4795.got - 2010.04.16 14:36:59.
