data_PCOD8221738
_publ_section_title
;
Structure prediction by ZEFSAII (Michael W. Deem and Ramdas Pophale) SiO2 
 PCOD8221738
Probable space group: P M N A
;
_chemical_formula_sum "Si O2"
_cell_formula_units_Z 48
_cell_length_a 8.993257
_cell_length_b 14.541633
_cell_length_c 18.414175
_cell_angle_alpha 90.000000
_cell_angle_beta 90.000000
_cell_angle_gamma 90.000000
_cell_volume 2408.143986
_symmetry_space_group_name_H-M "P M N A"
_symmetry_group_IT_number 53
_symmetry_cell_setting 'orthorhombic'
loop_
_space_group_symop_operation_xyz
x,y,z
1/2-x,-y,1/2+z
x,-y,-z
1/2-x,y,1/2-z
-x,-y,-z
1/2+x,y,1/2-z
-x,y,z
1/2+x,-y,1/2+z
loop_
_atom_site_type_symbol
_atom_site_label
_atom_site_fract_x
_atom_site_fract_y
_atom_site_fract_z
Si Si1 0.823558 0.029247 0.826567
Si Si2 0.669954 0.715862 0.820087
Si Si3 0.174062 0.178910 0.583845
Si Si4 0.170613 0.118635 0.423232
Si Si5 0.328982 0.563987 0.602593
Si Si6 0.671767 0.366241 0.555914
O O1 0.750000 0.002289 0.750000
O O2 0.763770 0.128233 0.852372
O O3 0.000000 0.031654 0.817618
O O4 0.779238 0.954617 0.886983
O O5 0.750000 0.758930 0.750000
O O6 0.500000 0.706119 0.799760
O O7 0.697936 0.781851 0.888280
O O8 0.731812 0.614390 0.836717
O O9 0.209325 0.127684 0.507998
O O10 0.224329 0.284389 0.582905
O O11 0.000000 0.175486 0.601418
O O12 0.000000 0.086313 0.412024
O O13 0.500000 0.586589 0.617614
O O14 0.282225 0.603843 0.524627
O O15 0.300612 0.454653 0.607374
O O16 0.500000 0.335152 0.558782
#
# Coordination Sequence:
#
# PCOD8221738 Si02
#       6
#     8   8   8   8   8   8
#     4  12  26  43  63  87 117 157 199 244 299 357
#     4  11  22  36  55  84 120 160 200 244 299 355
#     4  11  22  39  63  92 123 155 195 246 295 349
#     4  10  22  40  61  89 121 155 196 244 296 352
#     4   9  18  34  56  83 117 154 192 240 290 344
#     4   9  18  34  58  87 117 151 194 240 289 342
#
# _framework density 19.932362000000001
#
# number of rings (size 3 to 8) (size 9 to 14) (size 15 to 20)
#    0.000    1.667    1.667    4.500    0.000    6.667 
#    0.000    2.500    0.000    4.000    0.000    0.000 
#    0.000    0.000    0.000    0.000    0.000    0.000 
#
# Total GULP energy -595373.382647 kJ/mol
# GULP energy per Si atom -12403.612138 kJ/mol
# Density = 1.988700 g / cm^3
# Si number density = 19.932362 Si / 1000 Ang^3
#
#
#
# Elastic Constant Matrix: (Units=GPa)
#
#
# Indices 1 2 3 4 5 6 
#
# 1 114.7148 49.1713 31.5216 0.0000 0.0000 0.0000
# 2 49.1713 96.2995 13.7298 0.0000 0.0000 0.0000
# 3 31.5216 13.7298 51.8249 0.0000 0.0000 0.0000
# 4 0.0000 0.0000 0.0000 17.6523 0.0000 0.0000
# 5 0.0000 0.0000 0.0000 0.0000 29.9557 0.0000
# 6 0.0000 0.0000 0.0000 0.0000 0.0000 37.4954
#
#
#
# Elastic Compliance Matrix: (Units=1/GPa)
#
#
# Indices 1 2 3 4 5 6 
#
# 1 0.012893 -0.005680 -0.006337 0.000000 0.000000 0.000000
# 2 -0.005680 0.013294 -0.000067 0.000000 0.000000 0.000000
# 3 -0.006337 -0.000067 0.023168 0.000000 0.000000 0.000000
# 4 0.000000 0.000000 0.000000 0.056650 0.000000 0.000000
# 5 0.000000 0.000000 0.000000 0.000000 0.033383 0.000000
# 6 0.000000 0.000000 0.000000 0.000000 0.000000 0.026670
#
#
# Mechanical properties :
#
#
# Convention : Reuss Voigt Hill
#
# Bulk Modulus (GPa) = 39.70386 50.18717 44.94552
# Shear Modulus (GPa) = 25.17339 28.24845 26.71092
#
# Velocity S-wave (km/s) = 3.55764 3.76868 3.66468
# Velocity P-wave (km/s) = 6.06946 6.64610 6.36431
#
# Compressibility (1/GPa) = 0.02518647
#
# Stress axis : x y z
#
# Youngs Moduli (GPa) = 77.55980 75.22164 43.16274
#
# Poissons Ratio (x) = 0.42725 0.27354
# Poissons Ratio (y) = 0.44053 0.00290
# Poissons Ratio (z) = 0.49152 0.00506
#
# Static dielectric constant tensor:
#      x y z
#    x 3.552190 0.000000 0.000000 
#    y 0.000000 3.646740 0.000000 
#    z 0.000000 0.000000 3.509680 
# 
# 
# High freq. dielectric constant tensor:
#      x y z
#    x 1.777180 0.000000 0.000000 
#    y 0.000000 1.783940 0.000000 
#    z 0.000000 0.000000 1.764930 
# 
# From -- ./inp_files/26165.got.cif
#   From: 2010.03.12/outbox.cif.g09.slc.cpg/sg53_14_cif.got.tgz:26165.got - 2010.04.16 14:36:59.
