data_PCOD8221442
_publ_section_title
;
Structure prediction by ZEFSAII (Michael W. Deem and Ramdas Pophale) SiO2 
 PCOD8221442
Probable space group: P M N A
;
_chemical_formula_sum "Si O2"
_cell_formula_units_Z 64
_cell_length_a 9.039149
_cell_length_b 17.227042
_cell_length_c 20.338090
_cell_angle_alpha 90.000000
_cell_angle_beta 90.000000
_cell_angle_gamma 90.000000
_cell_volume 3167.002620
_symmetry_space_group_name_H-M "P M N A"
_symmetry_group_IT_number 53
_symmetry_cell_setting 'orthorhombic'
loop_
_space_group_symop_operation_xyz
x,y,z
1/2-x,-y,1/2+z
x,-y,-z
1/2-x,y,1/2-z
-x,-y,-z
1/2+x,y,1/2-z
-x,y,z
1/2+x,-y,1/2+z
loop_
_atom_site_type_symbol
_atom_site_label
_atom_site_fract_x
_atom_site_fract_y
_atom_site_fract_z
Si Si1 0.662334 0.408132 0.500000
Si Si2 0.328676 0.744279 0.184455
Si Si3 0.831299 0.413920 0.372465
Si Si4 0.166343 0.000000 0.422279
Si Si5 0.328676 0.744279 0.815545
Si Si6 0.674269 0.843648 0.576808
Si Si7 0.831299 0.413920 0.627535
Si Si8 0.825731 0.156352 0.923192
O O1 0.652999 0.500000 0.500000
O O2 0.500000 0.369596 0.500000
O O3 0.743918 0.380451 0.434789
O O4 0.743918 0.380451 0.565211
O O5 0.250000 0.776246 0.250000
O O6 0.500000 0.769584 0.184805
O O7 0.312471 0.650172 0.184428
O O8 0.249397 0.776783 0.119723
O O9 0.812471 0.349828 0.315572
O O10 0.774853 0.500000 0.349428
O O11 0.000000 0.420519 0.394990
O O12 0.255609 0.075429 0.398694
O O13 0.000000 0.000000 0.392295
O O14 0.157080 0.000000 0.500000
O O15 0.255609 0.924571 0.398694
O O16 0.250000 0.776246 0.750000
O O17 0.500000 0.769584 0.815195
O O18 0.249397 0.776783 0.880277
O O19 0.500000 0.846458 0.589999
O O20 0.708488 0.827339 0.500000
O O21 0.000000 0.420519 0.605010
O O22 0.000000 0.153542 0.910001
#
# Coordination Sequence:
#
# PCOD8221442 Si02
#       8
#     8   8   8   8   8   8   8   8
#     4   9  17  29  49  79 109 136 175 232 289 339
#     4  11  24  40  58  82 116 156 198 245 296 351
#     4   9  19  36  56  78 108 149 194 240 293 351
#     4   9  17  33  60  93 124 153 190 235 281 339
#     4  11  24  40  58  82 116 156 198 245 296 351
#     4  10  21  38  62  91 122 156 193 237 287 343
#     4   9  19  36  56  78 108 149 194 240 293 351
#     4  10  21  38  62  91 122 156 193 237 287 343
#
# _framework density 20.208382
#
# number of rings (size 3 to 8) (size 9 to 14) (size 15 to 20)
#    0.000    2.250    0.000    2.250    1.750    7.000 
#    0.000    0.625    0.000    0.000    0.000    0.000 
#    0.000    0.000    0.000    0.000    0.000    0.000 
#
# Total GULP energy -793407.386175 kJ/mol
# GULP energy per Si atom -12396.990409 kJ/mol
# Density = 2.016239 g / cm^3
# Si number density = 20.208382 Si / 1000 Ang^3
#
#
#
# Elastic Constant Matrix: (Units=GPa)
#
#
# Indices 1 2 3 4 5 6 
#
# 1 139.6003 49.3266 54.6392 0.0000 0.0000 0.0000
# 2 49.3266 99.7267 36.0745 0.0000 0.0000 0.0000
# 3 54.6392 36.0745 81.3106 0.0000 0.0000 0.0000
# 4 0.0000 0.0000 0.0000 15.6154 0.0000 0.0000
# 5 0.0000 0.0000 0.0000 0.0000 27.5634 0.0000
# 6 0.0000 0.0000 0.0000 0.0000 0.0000 28.1540
#
#
#
# Elastic Compliance Matrix: (Units=1/GPa)
#
#
# Indices 1 2 3 4 5 6 
#
# 1 0.010486 -0.003142 -0.005652 0.000000 0.000000 0.000000
# 2 -0.003142 0.012886 -0.003606 0.000000 0.000000 0.000000
# 3 -0.005652 -0.003606 0.017696 0.000000 0.000000 0.000000
# 4 0.000000 0.000000 0.000000 0.064039 0.000000 0.000000
# 5 0.000000 0.000000 0.000000 0.000000 0.036280 0.000000
# 6 0.000000 0.000000 0.000000 0.000000 0.000000 0.035519
#
#
# Mechanical properties :
#
#
# Convention : Reuss Voigt Hill
#
# Bulk Modulus (GPa) = 61.46917 66.74647 64.10782
# Shear Modulus (GPa) = 24.13961 26.30639 25.22300
#
# Velocity S-wave (km/s) = 3.45995 3.61190 3.53674
# Velocity P-wave (km/s) = 6.81509 7.10600 6.96206
#
# Compressibility (1/GPa) = 0.01626832
#
# Stress axis : x y z
#
# Youngs Moduli (GPa) = 95.36763 77.60548 56.50839
#
# Poissons Ratio (x) = 0.24382 0.31940
# Poissons Ratio (y) = 0.29963 0.20375
# Poissons Ratio (z) = 0.53905 0.27982
#
# Static dielectric constant tensor:
#      x y z
#    x 3.864680 0.000000 0.000000 
#    y 0.000000 3.731250 0.000000 
#    z 0.000000 0.000000 3.294750 
# 
# 
# High freq. dielectric constant tensor:
#      x y z
#    x 1.800420 0.000000 0.000000 
#    y 0.000000 1.789720 0.000000 
#    z 0.000000 0.000000 1.757900 
# 
# From -- ./inp_files/31171.got.cif
#   From: 2010.03.12/outbox.cif.g09.slc.cpg/sg53_16_cif.got.tgz:31171.got - 2010.04.16 14:36:59.
