data_PCOD8221730
_publ_section_title
;
Structure prediction by ZEFSAII (Michael W. Deem and Ramdas Pophale) SiO2 
 PCOD8221730
Probable space group: P M N A
;
_chemical_formula_sum "Si O2"
_cell_formula_units_Z 64
_cell_length_a 24.581312
_cell_length_b 9.398082
_cell_length_c 13.728007
_cell_angle_alpha 90.000000
_cell_angle_beta 90.000000
_cell_angle_gamma 90.000000
_cell_volume 3171.405544
_symmetry_space_group_name_H-M "P M N A"
_symmetry_group_IT_number 53
_symmetry_cell_setting 'orthorhombic'
loop_
_space_group_symop_operation_xyz
x,y,z
1/2-x,-y,1/2+z
x,-y,-z
1/2-x,y,1/2-z
-x,-y,-z
1/2+x,y,1/2-z
-x,y,z
1/2+x,-y,1/2+z
loop_
_atom_site_type_symbol
_atom_site_label
_atom_site_fract_x
_atom_site_fract_y
_atom_site_fract_z
Si Si1 0.274026 0.581371 0.091238
Si Si2 0.298002 0.643008 0.673213
Si Si3 0.720457 0.086671 0.901993
Si Si4 0.385275 0.987840 0.795252
Si Si5 0.624195 0.515330 0.805185
Si Si6 0.938577 0.742954 0.348973
Si Si7 0.673782 0.937069 0.605227
Si Si8 0.434414 0.740554 0.927569
O O1 0.217004 0.502449 0.116202
O O2 0.269010 0.748273 0.074091
O O3 0.316158 0.548252 0.175550
O O4 0.300024 0.500000 0.000000
O O5 0.250000 0.686017 0.750000
O O6 0.359292 0.623096 0.718579
O O7 0.305062 0.773594 0.597196
O O8 0.669507 0.062566 0.832807
O O9 0.775991 0.030218 0.853228
O O10 0.709962 0.000000 0.000000
O O11 0.432436 0.105911 0.796355
O O12 0.375327 0.941036 0.683620
O O13 0.405027 0.861490 0.864582
O O14 0.589534 0.375405 0.780666
O O15 0.589719 0.591911 0.889914
O O16 0.915351 0.754324 0.459991
O O17 0.000000 0.696765 0.357033
O O18 0.655078 0.000000 0.500000
O O19 0.500000 0.747913 0.915661
#
# Coordination Sequence:
#
# PCOD8221730 Si02
#       8
#     8   8   8   8   8   8   8   8
#     4  11  22  35  58  89 126 162 201 239 291 359
#     4  10  22  40  59  87 124 162 203 251 297 359
#     4  11  23  36  60  93 127 162 198 240 297 365
#     4  12  23  38  63  88 123 161 200 248 304 358
#     4  11  22  37  61  87 124 163 197 237 298 364
#     4  11  23  39  60  93 126 154 195 247 302 369
#     4  11  24  41  61  86 118 158 207 254 302 352
#     4  11  23  40  62  90 122 159 199 244 302 369
#
# _framework density 20.180326999999998
#
# number of rings (size 3 to 8) (size 9 to 14) (size 15 to 20)
#    0.000    1.000    2.500    5.625    5.250    3.000 
#    0.000    0.000    0.000    1.500    0.000    0.875 
#    0.000    0.000    0.000    0.000    0.000    0.000 
#
# Total GULP energy -793059.563781 kJ/mol
# GULP energy per Si atom -12391.555684 kJ/mol
# Density = 2.013440 g / cm^3
# Si number density = 20.180327 Si / 1000 Ang^3
#
#
#
# Elastic Constant Matrix: (Units=GPa)
#
#
# Indices 1 2 3 4 5 6 
#
# 1 64.8090 30.9918 28.7050 0.0000 0.0000 0.0000
# 2 30.9918 145.3437 38.4648 0.0000 0.0000 0.0000
# 3 28.7050 38.4648 71.2199 0.0000 0.0000 0.0000
# 4 0.0000 0.0000 0.0000 31.2309 0.0000 0.0000
# 5 0.0000 0.0000 0.0000 0.0000 28.8421 0.0000
# 6 0.0000 0.0000 0.0000 0.0000 0.0000 26.0708
#
#
#
# Elastic Compliance Matrix: (Units=1/GPa)
#
#
# Indices 1 2 3 4 5 6 
#
# 1 0.019488 -0.002423 -0.006546 0.000000 0.000000 0.000000
# 2 -0.002423 0.008329 -0.003522 0.000000 0.000000 0.000000
# 3 -0.006546 -0.003522 0.018581 0.000000 0.000000 0.000000
# 4 0.000000 0.000000 0.000000 0.032020 0.000000 0.000000
# 5 0.000000 0.000000 0.000000 0.000000 0.034672 0.000000
# 6 0.000000 0.000000 0.000000 0.000000 0.000000 0.038357
#
#
# Mechanical properties :
#
#
# Convention : Reuss Voigt Hill
#
# Bulk Modulus (GPa) = 46.69221 53.07732 49.88477
# Shear Modulus (GPa) = 27.23803 29.44282 28.34043
#
# Velocity S-wave (km/s) = 3.67786 3.82381 3.75154
# Velocity P-wave (km/s) = 6.42053 6.77156 6.59838
#
# Compressibility (1/GPa) = 0.02141685
#
# Stress axis : x y z
#
# Youngs Moduli (GPa) = 51.31371 120.06343 53.81732
#
# Poissons Ratio (x) = 0.29092 0.35228
# Poissons Ratio (y) = 0.12434 0.18953
# Poissons Ratio (z) = 0.33590 0.42283
#
# Static dielectric constant tensor:
#      x y z
#    x 3.627010 0.000000 0.000000 
#    y 0.000000 3.854120 0.000000 
#    z 0.000000 0.000000 3.591300 
# 
# 
# High freq. dielectric constant tensor:
#      x y z
#    x 1.768930 0.000000 0.000000 
#    y 0.000000 1.812610 0.000000 
#    z 0.000000 0.000000 1.760740 
# 
# From -- ./inp_files/24730.got.cif
#   From: 2010.03.12/outbox.cif.g09.slc.cpg/sg53_13_cif.got.tgz:24730.got - 2010.04.16 14:36:59.
