data_PCOD8221211
_publ_section_title
;
Structure prediction by ZEFSAII (Michael W. Deem and Ramdas Pophale) SiO2 
 PCOD8221211
Probable space group: P M N A
;
_chemical_formula_sum "Si O2"
_cell_formula_units_Z 40
_cell_length_a 18.679736
_cell_length_b 9.224914
_cell_length_c 11.449267
_cell_angle_alpha 90.000000
_cell_angle_beta 90.000000
_cell_angle_gamma 90.000000
_cell_volume 1972.925761
_symmetry_space_group_name_H-M "P M N A"
_symmetry_group_IT_number 53
_symmetry_cell_setting 'orthorhombic'
loop_
_space_group_symop_operation_xyz
x,y,z
1/2-x,-y,1/2+z
x,-y,-z
1/2-x,y,1/2-z
-x,-y,-z
1/2+x,y,1/2-z
-x,y,z
1/2+x,-y,1/2+z
loop_
_atom_site_type_symbol
_atom_site_label
_atom_site_fract_x
_atom_site_fract_y
_atom_site_fract_z
Si Si1 0.177320 0.920874 0.315258
Si Si2 0.916607 0.720496 0.192317
Si Si3 0.165705 0.452593 0.273282
Si Si4 0.308665 0.212052 0.058095
Si Si5 0.661490 0.343546 0.464241
O O1 0.250000 0.871860 0.250000
O O2 0.111499 0.879761 0.229743
O O3 0.160071 0.832383 0.433913
O O4 0.178319 0.091010 0.342702
O O5 0.874610 0.606200 0.276116
O O6 0.000000 0.705650 0.215249
O O7 0.900899 0.698547 0.054806
O O8 0.250000 0.477184 0.250000
O O9 0.156576 0.361778 0.393602
O O10 0.130657 0.359100 0.167063
O O11 0.223635 0.224246 0.036458
O O12 0.694806 0.500000 0.500000
#
# Coordination Sequence:
#
# PCOD8221211 Si02
#       5
#     8   8   8   8   8
#     4  11  21  37  62  88 118 157 206 247 297 357
#     4  11  23  38  59  90 126 164 199 240 302 368
#     4   9  19  36  60  89 120 154 201 253 301 348
#     4  10  21  36  61  91 115 150 203 258 299 346
#     4   9  18  34  61  90 120 151 198 258 300 347
#
# _framework density 20.274457999999999
#
# number of rings (size 3 to 8) (size 9 to 14) (size 15 to 20)
#    0.000    2.000    2.000    2.400    5.600    3.600 
#    0.000    5.000    0.000    8.400    0.000    0.000 
#    0.000    0.000    0.000    0.000    0.000    0.000 
#
# Total GULP energy -495726.322015 kJ/mol
# GULP energy per Si atom -12393.158050 kJ/mol
# Density = 2.022831 g / cm^3
# Si number density = 20.274458 Si / 1000 Ang^3
#
#
#
# Elastic Constant Matrix: (Units=GPa)
#
#
# Indices 1 2 3 4 5 6 
#
# 1 97.3812 44.1539 26.7892 0.0000 0.0000 0.0000
# 2 44.1539 74.2741 28.0377 0.0000 0.0000 0.0000
# 3 26.7892 28.0377 80.3907 0.0000 0.0000 0.0000
# 4 0.0000 0.0000 0.0000 30.8242 0.0000 0.0000
# 5 0.0000 0.0000 0.0000 0.0000 23.3185 0.0000
# 6 0.0000 0.0000 0.0000 0.0000 0.0000 6.8743
#
#
#
# Elastic Compliance Matrix: (Units=1/GPa)
#
#
# Indices 1 2 3 4 5 6 
#
# 1 0.014354 -0.007748 -0.002081 0.000000 0.000000 0.000000
# 2 -0.007748 0.019687 -0.004284 0.000000 0.000000 0.000000
# 3 -0.002081 -0.004284 0.014627 0.000000 0.000000 0.000000
# 4 0.000000 0.000000 0.000000 0.032442 0.000000 0.000000
# 5 0.000000 0.000000 0.000000 0.000000 0.042884 0.000000
# 6 0.000000 0.000000 0.000000 0.000000 0.000000 0.145470
#
#
# Mechanical properties :
#
#
# Convention : Reuss Voigt Hill
#
# Bulk Modulus (GPa) = 48.91966 50.00085 49.46025
# Shear Modulus (GPa) = 16.42009 22.40772 19.41391
#
# Velocity S-wave (km/s) = 2.84894 3.32809 3.09780
# Velocity P-wave (km/s) = 5.91634 6.28361 6.10274
#
# Compressibility (1/GPa) = 0.02044168
#
# Stress axis : x y z
#
# Youngs Moduli (GPa) = 69.66528 50.79580 68.36657
#
# Poissons Ratio (x) = 0.39355 0.14229
# Poissons Ratio (y) = 0.53974 0.29290
# Poissons Ratio (z) = 0.14499 0.21762
#
# Static dielectric constant tensor:
#      x y z
#    x 3.073010 0.000000 0.000000 
#    y 0.000000 3.715170 0.000000 
#    z 0.000000 0.000000 4.023890 
# 
# 
# High freq. dielectric constant tensor:
#      x y z
#    x 1.728250 0.000000 0.000000 
#    y 0.000000 1.791130 0.000000 
#    z 0.000000 0.000000 1.811190 
# 
# From -- ./inp_files/16703.got.cif
#   From: 2010.03.12/outbox.cif.g09.slc.cpg/sg53_9_cif.got.tgz:16703.got - 2010.04.16 14:36:59.
