data_PCOD8221918
_publ_section_title
;
Structure prediction by ZEFSAII (Michael W. Deem and Ramdas Pophale) SiO2 
 PCOD8221918
Probable space group: P M N A
;
_chemical_formula_sum "Si O2"
_cell_formula_units_Z 28
_cell_length_a 26.769124
_cell_length_b 5.110754
_cell_length_c 8.725262
_cell_angle_alpha 90.000000
_cell_angle_beta 90.000000
_cell_angle_gamma 90.000000
_cell_volume 1193.706650
_symmetry_space_group_name_H-M "P M N A"
_symmetry_group_IT_number 53
_symmetry_cell_setting 'orthorhombic'
loop_
_space_group_symop_operation_xyz
x,y,z
1/2-x,-y,1/2+z
x,-y,-z
1/2-x,y,1/2-z
-x,-y,-z
1/2+x,y,1/2-z
-x,y,z
1/2+x,-y,1/2+z
loop_
_atom_site_type_symbol
_atom_site_label
_atom_site_fract_x
_atom_site_fract_y
_atom_site_fract_z
Si Si1 0.298282 0.574181 0.824393
Si Si2 0.150313 0.246142 0.899209
Si Si3 0.102317 0.091046 0.326152
Si Si4 0.000000 0.748004 0.605995
O O1 0.250000 0.720384 0.750000
O O2 0.304959 0.314794 0.719049
O O3 0.348846 0.734591 0.799004
O O4 0.288604 0.500000 0.000000
O O5 0.103548 0.151129 0.793401
O O6 0.134687 0.500000 0.000000
O O7 0.168638 0.000000 0.000000
O O8 0.050877 0.249424 0.292829
O O9 0.103508 0.000000 0.500000
O O10 0.000000 0.500000 0.500000
O O11 0.000000 0.000000 0.500000
#
# Coordination Sequence:
#
# PCOD8221918 Si02
#       4
#     8   8   8   4
#     4  12  26  47  76 112 149 200 251 311 372 450
#     4  12  26  47  73 106 154 195 243 308 375 447
#     4  11  24  48  79 111 151 196 257 314 376 449
#     4  10  24  42  80 115 148 193 256 319 374 445
#
# _framework density 23.456348999999999
#
# number of rings (size 3 to 8) (size 9 to 14) (size 15 to 20)
#    0.000    0.571    5.714    1.714    4.000    1.143 
#    5.143    1.429    0.000    0.000    0.000    0.000 
#    0.000    0.000    0.000    0.000    0.000    0.000 
#
# Total GULP energy -346906.864917 kJ/mol
# GULP energy per Si atom -12389.530890 kJ/mol
# Density = 2.340296 g / cm^3
# Si number density = 23.456349 Si / 1000 Ang^3
#
#
#
# Elastic Constant Matrix: (Units=GPa)
#
#
# Indices 1 2 3 4 5 6 
#
# 1 229.2430 62.8539 65.1384 0.0000 0.0000 0.0000
# 2 62.8539 137.2027 67.6252 0.0000 0.0000 0.0000
# 3 65.1384 67.6252 186.8368 0.0000 0.0000 0.0000
# 4 0.0000 0.0000 0.0000 42.9052 0.0000 0.0000
# 5 0.0000 0.0000 0.0000 0.0000 31.6160 0.0000
# 6 0.0000 0.0000 0.0000 0.0000 0.0000 25.6731
#
#
#
# Elastic Compliance Matrix: (Units=1/GPa)
#
#
# Indices 1 2 3 4 5 6 
#
# 1 0.005185 -0.001807 -0.001154 0.000000 0.000000 0.000000
# 2 -0.001807 0.009501 -0.002809 0.000000 0.000000 0.000000
# 3 -0.001154 -0.002809 0.006771 0.000000 0.000000 0.000000
# 4 0.000000 0.000000 0.000000 0.023307 0.000000 0.000000
# 5 0.000000 0.000000 0.000000 0.000000 0.031630 0.000000
# 6 0.000000 0.000000 0.000000 0.000000 0.000000 0.038951
#
#
# Mechanical properties :
#
#
# Convention : Reuss Voigt Hill
#
# Bulk Modulus (GPa) = 100.82369 104.94639 102.88504
# Shear Modulus (GPa) = 38.40532 43.88319 41.14425
#
# Velocity S-wave (km/s) = 4.05076 4.33002 4.19271
# Velocity P-wave (km/s) = 8.05947 8.35686 8.20951
#
# Compressibility (1/GPa) = 0.00991830
#
# Stress axis : x y z
#
# Youngs Moduli (GPa) = 192.84791 105.25640 147.68429
#
# Poissons Ratio (x) = 0.19017 0.17041
# Poissons Ratio (y) = 0.34843 0.41482
# Poissons Ratio (z) = 0.22252 0.29565
#
# Static dielectric constant tensor:
#      x y z
#    x 5.040290 0.000000 0.000000 
#    y 0.000000 4.393480 0.000000 
#    z 0.000000 0.000000 4.868480 
# 
# 
# High freq. dielectric constant tensor:
#      x y z
#    x 1.920430 0.000000 0.000000 
#    y 0.000000 1.927960 0.000000 
#    z 0.000000 0.000000 1.942180 
# 
# From -- ./inp_files/12083.got.cif
#   From: 2010.03.12/outbox.cif.g09.slc.cpg/sg53_7_cif.got.tgz:12083.got - 2010.04.16 14:36:59.
