data_PCOD8221989
_publ_section_title
;
Structure prediction by ZEFSAII (Michael W. Deem and Ramdas Pophale) SiO2 
 PCOD8221989
Probable space group: P M N A
;
_chemical_formula_sum "Si O2"
_cell_formula_units_Z 56
_cell_length_a 21.137888
_cell_length_b 9.586001
_cell_length_c 13.859915
_cell_angle_alpha 90.000000
_cell_angle_beta 90.000000
_cell_angle_gamma 90.000000
_cell_volume 2808.404300
_symmetry_space_group_name_H-M "P M N A"
_symmetry_group_IT_number 53
_symmetry_cell_setting 'orthorhombic'
loop_
_space_group_symop_operation_xyz
x,y,z
1/2-x,-y,1/2+z
x,-y,-z
1/2-x,y,1/2-z
-x,-y,-z
1/2+x,y,1/2-z
-x,y,z
1/2+x,-y,1/2+z
loop_
_atom_site_type_symbol
_atom_site_label
_atom_site_fract_x
_atom_site_fract_y
_atom_site_fract_z
Si Si1 0.074883 0.729140 0.724721
Si Si2 0.849853 0.993318 0.752773
Si Si3 0.352205 0.462577 0.732212
Si Si4 0.074123 0.345942 0.488861
Si Si5 0.427127 0.773259 0.186252
Si Si6 0.757129 0.583721 0.402471
Si Si7 0.252317 0.917785 0.400536
O O1 0.123542 0.838868 0.772007
O O2 0.095193 0.583055 0.770826
O O3 0.090985 0.728598 0.610831
O O4 0.000000 0.756047 0.744541
O O5 0.913753 0.069745 0.717437
O O6 0.799006 0.007934 0.667555
O O7 0.820716 0.057205 0.850736
O O8 0.390576 0.319704 0.736614
O O9 0.312426 0.460269 0.633867
O O10 0.307047 0.473015 0.825054
O O11 0.105152 0.500000 0.500000
O O12 0.099632 0.253055 0.577607
O O13 0.000000 0.363877 0.497259
O O14 0.500000 0.736727 0.191136
O O15 0.770693 0.500000 0.500000
O O16 0.761148 0.752413 0.413891
O O17 0.251295 0.000000 0.500000
#
# Coordination Sequence:
#
# PCOD8221989 Si02
#       7
#     8   8   8   8   8   8   8
#     4  11  24  38  60  96 132 164 204 253 306 374
#     4  11  24  42  62  90 128 163 208 250 309 377
#     4  11  22  40  64  91 128 161 207 253 308 369
#     4   9  18  31  50  84 123 160 195 234 291 356
#     4  11  20  36  63  88 122 170 201 245 311 374
#     4  11  25  42  66  95 120 159 214 263 308 363
#     4  11  25  44  65  90 123 164 209 263 312 358
#
# _framework density 19.940149999999999
#
# number of rings (size 3 to 8) (size 9 to 14) (size 15 to 20)
#    0.000    1.286    4.286    1.714    8.000    1.143 
#    0.000    2.143    0.000    5.143    0.000    0.000 
#    0.000    0.000    0.000    0.000    0.000    0.000 
#
# Total GULP energy -694126.664737 kJ/mol
# GULP energy per Si atom -12395.119013 kJ/mol
# Density = 1.989477 g / cm^3
# Si number density = 19.940150 Si / 1000 Ang^3
#
#
#
# Elastic Constant Matrix: (Units=GPa)
#
#
# Indices 1 2 3 4 5 6 
#
# 1 82.3689 23.2265 20.5771 0.0000 0.0000 0.0000
# 2 23.2265 79.5161 23.8379 0.0000 0.0000 0.0000
# 3 20.5771 23.8379 69.1158 0.0000 0.0000 0.0000
# 4 0.0000 0.0000 0.0000 26.4763 0.0000 0.0000
# 5 0.0000 0.0000 0.0000 0.0000 24.4589 0.0000
# 6 0.0000 0.0000 0.0000 0.0000 0.0000 36.0814
#
#
#
# Elastic Compliance Matrix: (Units=1/GPa)
#
#
# Indices 1 2 3 4 5 6 
#
# 1 0.013775 -0.003116 -0.003026 0.000000 0.000000 0.000000
# 2 -0.003116 0.014731 -0.004153 0.000000 0.000000 0.000000
# 3 -0.003026 -0.004153 0.016802 0.000000 0.000000 0.000000
# 4 0.000000 0.000000 0.000000 0.037770 0.000000 0.000000
# 5 0.000000 0.000000 0.000000 0.000000 0.040885 0.000000
# 6 0.000000 0.000000 0.000000 0.000000 0.000000 0.027715
#
#
# Mechanical properties :
#
#
# Convention : Reuss Voigt Hill
#
# Bulk Modulus (GPa) = 40.45803 40.69818 40.57810
# Shear Modulus (GPa) = 27.69947 28.29393 27.99670
#
# Velocity S-wave (km/s) = 3.73115 3.77097 3.75111
# Velocity P-wave (km/s) = 6.23664 6.27812 6.25742
#
# Compressibility (1/GPa) = 0.02471697
#
# Stress axis : x y z
#
# Youngs Moduli (GPa) = 72.59361 67.88219 59.51735
#
# Poissons Ratio (x) = 0.21155 0.18012
# Poissons Ratio (y) = 0.22624 0.24717
# Poissons Ratio (z) = 0.21969 0.28191
#
# Static dielectric constant tensor:
#      x y z
#    x 3.725060 0.000000 0.000000 
#    y 0.000000 3.598290 0.000000 
#    z 0.000000 0.000000 3.542510 
# 
# 
# High freq. dielectric constant tensor:
#      x y z
#    x 1.788480 0.000000 0.000000 
#    y 0.000000 1.781560 0.000000 
#    z 0.000000 0.000000 1.750130 
# 
# From -- ./inp_files/24346.got.cif
#   From: 2010.03.12/outbox.cif.g09.slc.cpg/sg53_13_cif.got.tgz:24346.got - 2010.04.16 14:36:59.
