data_PCOD8221251
_publ_section_title
;
Structure prediction by ZEFSAII (Michael W. Deem and Ramdas Pophale) SiO2 
 PCOD8221251
Probable space group: P M N A
;
_chemical_formula_sum "Si O2"
_cell_formula_units_Z 64
_cell_length_a 9.366393
_cell_length_b 15.065039
_cell_length_c 23.702726
_cell_angle_alpha 90.000000
_cell_angle_beta 90.000000
_cell_angle_gamma 90.000000
_cell_volume 3344.574950
_symmetry_space_group_name_H-M "P M N A"
_symmetry_group_IT_number 53
_symmetry_cell_setting 'orthorhombic'
loop_
_space_group_symop_operation_xyz
x,y,z
1/2-x,-y,1/2+z
x,-y,-z
1/2-x,y,1/2-z
-x,-y,-z
1/2+x,y,1/2-z
-x,y,z
1/2+x,-y,1/2+z
loop_
_atom_site_type_symbol
_atom_site_label
_atom_site_fract_x
_atom_site_fract_y
_atom_site_fract_z
Si Si1 0.166638 0.855387 0.109825
Si Si2 0.832929 0.895962 0.500880
Si Si3 0.835967 0.448661 0.881324
Si Si4 0.662077 0.703715 0.304342
Si Si5 0.836304 0.165599 0.108974
Si Si6 0.333907 0.014464 0.307762
Si Si7 0.836977 0.358771 0.087011
Si Si8 0.341420 0.398381 0.983268
O O1 0.258700 0.851329 0.053051
O O2 0.204390 0.766354 0.143683
O O3 0.000000 0.861072 0.093580
O O4 0.212430 0.939281 0.147801
O O5 0.766202 0.857336 0.557597
O O6 0.000000 0.873297 0.499564
O O7 0.803258 0.000000 0.500000
O O8 0.812309 0.399655 0.821466
O O9 0.791079 0.552824 0.877808
O O10 0.742849 0.392157 0.925046
O O11 0.000000 0.439796 0.900544
O O12 0.750000 0.730035 0.250000
O O13 0.500000 0.721198 0.287275
O O14 0.795184 0.109478 0.164407
O O15 0.818283 0.270208 0.124696
O O16 0.000000 0.144209 0.091427
O O17 0.250000 0.002362 0.250000
O O18 0.500000 0.006380 0.293030
O O19 0.000000 0.369574 0.066710
O O20 0.741203 0.344719 0.031566
O O21 0.500000 0.357789 0.976376
O O22 0.349701 0.500000 0.000000
#
# Coordination Sequence:
#
# PCOD8221251 Si02
#       8
#     8   8   8   8   8   8   8   8
#     4  10  21  38  59  82 110 147 186 224 274 336
#     4  11  23  37  56  86 119 149 181 226 283 334
#     4   9  18  34  53  75 104 139 183 227 267 318
#     4  10  22  38  57  81 109 144 188 234 280 333
#     4  10  21  37  57  81 112 152 191 225 271 333
#     4  10  21  37  58  80 105 140 183 229 274 324
#     4   9  18  33  54  76 104 144 185 223 264 318
#     4   9  17  29  47  74 106 137 171 216 269 321
#
# _framework density 19.135466000000001
#
# number of rings (size 3 to 8) (size 9 to 14) (size 15 to 20)
#    0.000    2.250    1.250    1.125    1.750    4.500 
#    0.000    0.625    0.000    0.000    0.000    0.000 
#    0.000    0.000    0.000    0.000    0.000    0.000 
#
# Total GULP energy -793503.995357 kJ/mol
# GULP energy per Si atom -12398.499927 kJ/mol
# Density = 1.909191 g / cm^3
# Si number density = 19.135466 Si / 1000 Ang^3
#
#
#
# Elastic Constant Matrix: (Units=GPa)
#
#
# Indices 1 2 3 4 5 6 
#
# 1 74.2348 23.2575 38.6974 0.0000 0.0000 0.0000
# 2 23.2575 85.4392 15.3605 0.0000 0.0000 0.0000
# 3 38.6974 15.3605 72.5650 0.0000 0.0000 0.0000
# 4 0.0000 0.0000 0.0000 9.5811 0.0000 0.0000
# 5 0.0000 0.0000 0.0000 0.0000 29.7681 0.0000
# 6 0.0000 0.0000 0.0000 0.0000 0.0000 46.7742
#
#
#
# Elastic Compliance Matrix: (Units=1/GPa)
#
#
# Indices 1 2 3 4 5 6 
#
# 1 0.019671 -0.003606 -0.009727 0.000000 0.000000 0.000000
# 2 -0.003606 0.012828 -0.000793 0.000000 0.000000 0.000000
# 3 -0.009727 -0.000793 0.019136 0.000000 0.000000 0.000000
# 4 0.000000 0.000000 0.000000 0.104372 0.000000 0.000000
# 5 0.000000 0.000000 0.000000 0.000000 0.033593 0.000000
# 6 0.000000 0.000000 0.000000 0.000000 0.000000 0.021379
#
#
# Mechanical properties :
#
#
# Convention : Reuss Voigt Hill
#
# Bulk Modulus (GPa) = 42.76367 42.98553 42.87460
# Shear Modulus (GPa) = 20.24095 27.55291 23.89693
#
# Velocity S-wave (km/s) = 3.25587 3.79870 3.53771
# Velocity P-wave (km/s) = 6.04406 6.46164 6.25633
#
# Compressibility (1/GPa) = 0.02338433
#
# Stress axis : x y z
#
# Youngs Moduli (GPa) = 50.83650 77.95269 52.25863
#
# Poissons Ratio (x) = 0.28109 0.50831
# Poissons Ratio (y) = 0.18331 0.04142
# Poissons Ratio (z) = 0.49448 0.06178
#
# Static dielectric constant tensor:
#      x y z
#    x 3.581230 0.000000 0.000000 
#    y 0.000000 3.741030 0.000000 
#    z 0.000000 0.000000 3.201180 
# 
# 
# High freq. dielectric constant tensor:
#      x y z
#    x 1.741190 0.000000 0.000000 
#    y 0.000000 1.758400 0.000000 
#    z 0.000000 0.000000 1.717410 
# 
# From -- ./inp_files/34211.got.cif
#   From: 2010.03.12/outbox.cif.g09.slc.cpg/sg53_18_cif.got.tgz:34211.got - 2010.04.16 14:36:59.
