data_PCOD8221635
_publ_section_title
;
Structure prediction by ZEFSAII (Michael W. Deem and Ramdas Pophale) SiO2 
 PCOD8221635
Probable space group: P M N A
;
_chemical_formula_sum "Si O2"
_cell_formula_units_Z 40
_cell_length_a 17.379090
_cell_length_b 12.132867
_cell_length_c 9.235712
_cell_angle_alpha 90.000000
_cell_angle_beta 90.000000
_cell_angle_gamma 90.000000
_cell_volume 1947.425493
_symmetry_space_group_name_H-M "P M N A"
_symmetry_group_IT_number 53
_symmetry_cell_setting 'orthorhombic'
loop_
_space_group_symop_operation_xyz
x,y,z
1/2-x,-y,1/2+z
x,-y,-z
1/2-x,y,1/2-z
-x,-y,-z
1/2+x,y,1/2-z
-x,y,z
1/2+x,-y,1/2+z
loop_
_atom_site_type_symbol
_atom_site_label
_atom_site_fract_x
_atom_site_fract_y
_atom_site_fract_z
Si Si1 0.239531 0.109311 0.918895
Si Si2 0.587797 0.400147 0.792960
Si Si3 0.142683 0.382635 0.155746
Si Si4 0.696678 0.668927 0.961266
Si Si5 0.916027 0.220491 0.937309
O O1 0.250000 0.090953 0.750000
O O2 0.149927 0.129859 0.957272
O O3 0.291678 0.209619 0.974087
O O4 0.267487 0.000000 0.000000
O O5 0.500000 0.416726 0.846456
O O6 0.610410 0.494883 0.678674
O O7 0.597898 0.283530 0.713950
O O8 0.645690 0.404199 0.928775
O O9 0.221932 0.391099 0.064510
O O10 0.153010 0.320968 0.309136
O O11 0.082747 0.309290 0.066985
O O12 0.000000 0.162857 0.935926
#
# Coordination Sequence:
#
# PCOD8221635 Si02
#       5
#     8   8   8   8   8
#     4  11  24  42  69  88 116 154 210 264 317 368
#     4  11  22  39  61  91 132 174 206 249 309 372
#     4  10  22  35  60  92 130 164 214 242 295 370
#     4  10  23  40  58  91 125 164 209 260 306 364
#     4  10  22  40  62  91 127 161 202 257 309 365
#
# _framework density 20.539937999999999
#
# number of rings (size 3 to 8) (size 9 to 14) (size 15 to 20)
#    0.000    1.600    2.000    1.800    5.600   15.600 
#    0.000    0.000    0.000    1.200    0.000    0.000 
#    0.000    0.000    0.000    0.000    0.000    0.000 
#
# Total GULP energy -496100.013859 kJ/mol
# GULP energy per Si atom -12402.500346 kJ/mol
# Density = 2.049319 g / cm^3
# Si number density = 20.539938 Si / 1000 Ang^3
#
#
#
# Elastic Constant Matrix: (Units=GPa)
#
#
# Indices 1 2 3 4 5 6 
#
# 1 86.7740 20.2355 22.1849 0.0000 0.0000 0.0000
# 2 20.2355 77.8996 14.7993 0.0000 0.0000 0.0000
# 3 22.1849 14.7993 78.1006 0.0000 0.0000 0.0000
# 4 0.0000 0.0000 0.0000 32.3409 0.0000 0.0000
# 5 0.0000 0.0000 0.0000 0.0000 29.1975 0.0000
# 6 0.0000 0.0000 0.0000 0.0000 0.0000 18.1785
#
#
#
# Elastic Compliance Matrix: (Units=1/GPa)
#
#
# Indices 1 2 3 4 5 6 
#
# 1 0.012979 -0.002771 -0.003162 0.000000 0.000000 0.000000
# 2 -0.002771 0.013908 -0.001848 0.000000 0.000000 0.000000
# 3 -0.003162 -0.001848 0.014052 0.000000 0.000000 0.000000
# 4 0.000000 0.000000 0.000000 0.030921 0.000000 0.000000
# 5 0.000000 0.000000 0.000000 0.000000 0.034250 0.000000
# 6 0.000000 0.000000 0.000000 0.000000 0.000000 0.055010
#
#
# Mechanical properties :
#
#
# Convention : Reuss Voigt Hill
#
# Bulk Modulus (GPa) = 39.40513 39.69041 39.54777
# Shear Modulus (GPa) = 27.00664 28.31367 27.66015
#
# Velocity S-wave (km/s) = 3.63000 3.71680 3.67366
# Velocity P-wave (km/s) = 6.06593 6.14695 6.10657
#
# Compressibility (1/GPa) = 0.02537741
#
# Stress axis : x y z
#
# Youngs Moduli (GPa) = 77.04968 71.90146 71.16259
#
# Poissons Ratio (x) = 0.19922 0.22499
# Poissons Ratio (y) = 0.21348 0.13154
# Poissons Ratio (z) = 0.24360 0.13290
#
# Static dielectric constant tensor:
#      x y z
#    x 3.729660 0.000000 0.000000 
#    y 0.000000 3.420040 0.000000 
#    z 0.000000 0.000000 3.815010 
# 
# 
# High freq. dielectric constant tensor:
#      x y z
#    x 1.802410 0.000000 0.000000 
#    y 0.000000 1.779110 0.000000 
#    z 0.000000 0.000000 1.817560 
# 
# From -- ./inp_files/9607.got.cif
#   From: 2010.03.12/outbox.cif.g09.slc.cpg/sg53_5_cif.got.tgz:9607.got - 2010.04.16 14:36:59.
