data_PCOD8221863
_publ_section_title
;
Structure prediction by ZEFSAII (Michael W. Deem and Ramdas Pophale) SiO2 
 PCOD8221863
Probable space group: P M N A
;
_chemical_formula_sum "Si O2"
_cell_formula_units_Z 56
_cell_length_a 14.689607
_cell_length_b 11.658475
_cell_length_c 14.436219
_cell_angle_alpha 90.000000
_cell_angle_beta 90.000000
_cell_angle_gamma 90.000000
_cell_volume 2472.323999
_symmetry_space_group_name_H-M "P M N A"
_symmetry_group_IT_number 53
_symmetry_cell_setting 'orthorhombic'
loop_
_space_group_symop_operation_xyz
x,y,z
1/2-x,-y,1/2+z
x,-y,-z
1/2-x,y,1/2-z
-x,-y,-z
1/2+x,y,1/2-z
-x,y,z
1/2+x,-y,1/2+z
loop_
_atom_site_type_symbol
_atom_site_label
_atom_site_fract_x
_atom_site_fract_y
_atom_site_fract_z
Si Si1 0.603908 0.780500 0.318394
Si Si2 0.901033 0.323453 0.346393
Si Si3 0.602640 0.681705 0.053880
Si Si4 0.896430 0.133416 0.013783
Si Si5 0.847506 0.553085 0.276733
Si Si6 0.269336 0.119502 0.150836
Si Si7 0.606645 0.085445 0.863944
O O1 0.500000 0.813572 0.329665
O O2 0.646214 0.810701 0.419355
O O3 0.614384 0.645197 0.296894
O O4 0.641578 0.858876 0.234072
O O5 0.884007 0.366195 0.451442
O O6 0.905657 0.436481 0.281867
O O7 0.823290 0.234519 0.321678
O O8 0.000000 0.263077 0.338846
O O9 0.500000 0.662296 0.091821
O O10 0.666229 0.612752 0.123592
O O11 0.623438 0.818331 0.056778
O O12 0.822176 0.154381 0.094815
O O13 0.000000 0.180390 0.038414
O O14 0.905709 0.000000 0.000000
O O15 0.750000 0.507260 0.250000
O O16 0.250000 0.062643 0.250000
O O17 0.333970 0.023911 0.102862
O O18 0.500000 0.050474 0.858580
#
# Coordination Sequence:
#
# PCOD8221863 Si02
#       7
#     8   8   8   8   8   8   8
#     4   9  19  39  66  93 124 167 216 273 332 385
#     4  11  24  42  63  89 129 176 217 264 330 394
#     4   9  20  39  64  93 125 165 212 269 333 388
#     4  10  23  41  64  94 133 176 220 272 333 401
#     4  11  22  36  63  95 128 164 214 271 320 383
#     4  12  26  39  61  92 132 176 219 267 330 390
#     4   9  19  38  63  96 132 168 213 262 327 400
#
# _framework density 22.650753000000002
#
# number of rings (size 3 to 8) (size 9 to 14) (size 15 to 20)
#    0.000    1.857    0.000    4.286    4.000    6.857 
#    0.000    2.143    0.000    0.000    0.000    5.000 
#    0.000    0.000    0.000    0.000    0.000    0.000 
#
# Total GULP energy -693955.397282 kJ/mol
# GULP energy per Si atom -12392.060666 kJ/mol
# Density = 2.259920 g / cm^3
# Si number density = 22.650753 Si / 1000 Ang^3
#
#
#
# Elastic Constant Matrix: (Units=GPa)
#
#
# Indices 1 2 3 4 5 6 
#
# 1 95.4660 37.2490 34.2809 0.0000 0.0000 0.0000
# 2 37.2490 118.9555 29.3567 0.0000 0.0000 0.0000
# 3 34.2809 29.3567 83.4709 0.0000 0.0000 0.0000
# 4 0.0000 0.0000 0.0000 34.5398 0.0000 0.0000
# 5 0.0000 0.0000 0.0000 0.0000 23.6537 0.0000
# 6 0.0000 0.0000 0.0000 0.0000 0.0000 -40.2444
#
#
#
# Elastic Compliance Matrix: (Units=1/GPa)
#
#
# Indices 1 2 3 4 5 6 
#
# 1 0.013237 -0.003070 -0.004357 0.000000 0.000000 0.000000
# 2 -0.003070 0.009917 -0.002227 0.000000 0.000000 0.000000
# 3 -0.004357 -0.002227 0.014553 0.000000 0.000000 0.000000
# 4 0.000000 0.000000 0.000000 0.028952 0.000000 0.000000
# 5 0.000000 0.000000 0.000000 0.000000 0.042277 0.000000
# 6 0.000000 0.000000 0.000000 0.000000 0.000000 -0.024848
#
#
# Mechanical properties :
#
#
# Convention : Reuss Voigt Hill
#
# Bulk Modulus (GPa) = 54.34825 55.51840 54.93333
# Shear Modulus (GPa) = 45.65006 16.72353 31.18680
#
# Velocity S-wave (km/s) = 4.49418 2.72015 3.71462
# Velocity P-wave (km/s) = 7.13977 5.86766 6.53474
#
# Compressibility (1/GPa) = 0.01839985
#
# Stress axis : x y z
#
# Youngs Moduli (GPa) = 75.54473 100.83274 68.71519
#
# Poissons Ratio (x) = 0.30954 0.29938
# Poissons Ratio (y) = 0.23191 0.15304
# Poissons Ratio (z) = 0.32913 0.22457
#
# Static dielectric constant tensor:
#      x y z
#    x 4.147060 0.000000 0.000000 
#    y 0.000000 3.852070 0.000000 
#    z 0.000000 0.000000 4.216940 
# 
# 
# High freq. dielectric constant tensor:
#      x y z
#    x 1.893470 0.000000 0.000000 
#    y 0.000000 1.883470 0.000000 
#    z 0.000000 0.000000 1.882010 
# 
# From -- ./inp_files/22826.got.cif
#   From: 2010.03.12/outbox.cif.g09.slc.cpg/sg53_12_cif.got.tgz:22826.got - 2010.04.16 14:36:59.
