data_PCOD8221959
_publ_section_title
;
Structure prediction by ZEFSAII (Michael W. Deem and Ramdas Pophale) SiO2 
 PCOD8221959
Probable space group: P M N A
;
_chemical_formula_sum "Si O2"
_cell_formula_units_Z 56
_cell_length_a 26.305067
_cell_length_b 7.832215
_cell_length_c 16.814310
_cell_angle_alpha 90.000000
_cell_angle_beta 90.000000
_cell_angle_gamma 90.000000
_cell_volume 3464.200843
_symmetry_space_group_name_H-M "P M N A"
_symmetry_group_IT_number 53
_symmetry_cell_setting 'orthorhombic'
loop_
_space_group_symop_operation_xyz
x,y,z
1/2-x,-y,1/2+z
x,-y,-z
1/2-x,y,1/2-z
-x,-y,-z
1/2+x,y,1/2-z
-x,y,z
1/2+x,-y,1/2+z
loop_
_atom_site_type_symbol
_atom_site_label
_atom_site_fract_x
_atom_site_fract_y
_atom_site_fract_z
Si Si1 0.309095 0.553200 0.745820
Si Si2 0.845337 0.093181 0.221335
Si Si3 0.702025 0.796842 0.191427
Si Si4 0.283611 0.926036 0.413104
Si Si5 0.943162 0.088224 0.122937
Si Si6 0.056528 0.732269 0.038162
Si Si7 0.343159 0.584436 0.420646
O O1 0.250000 0.585272 0.750000
O O2 0.334333 0.732687 0.770607
O O3 0.323271 0.393485 0.804658
O O4 0.327064 0.521570 0.655742
O O5 0.903347 0.108269 0.193849
O O6 0.839881 0.934442 0.281937
O O7 0.804986 0.069241 0.148321
O O8 0.750000 0.793471 0.250000
O O9 0.727241 0.851588 0.107718
O O10 0.325032 0.777632 0.411417
O O11 0.278867 0.000000 0.500000
O O12 0.000000 0.134562 0.153256
O O13 0.942347 0.894632 0.094752
O O14 0.927140 0.212185 0.050702
O O15 0.095428 0.590028 0.070978
O O16 0.000000 0.652091 0.038620
O O17 0.319048 0.500000 0.500000
#
# Coordination Sequence:
#
# PCOD8221959 Si02
#       7
#     8   8   8   8   8   8   8
#     4  11  19  33  47  65  92 123 163 205 249 288
#     4  11  19  31  53  66  88 133 165 191 244 296
#     4   9  18  34  47  65  94 124 156 199 241 293
#     4  11  19  32  47  69  97 123 162 205 240 290
#     4   9  16  28  45  67  93 124 162 206 239 273
#     4   9  17  29  43  61  96 131 160 203 245 270
#     4  12  21  29  45  69  95 127 171 209 237 276
#
# _framework density 16.165344999999999
#
# number of rings (size 3 to 8) (size 9 to 14) (size 15 to 20)
#    0.000    1.714    5.714    4.714    0.000    0.286 
#    0.000    0.714    0.000    0.857    0.000    0.000 
#    0.000    0.571    0.000    1.286    0.000    0.286 
#
# Total GULP energy -694063.790519 kJ/mol
# GULP energy per Si atom -12393.996259 kJ/mol
# Density = 1.612855 g / cm^3
# Si number density = 16.165345 Si / 1000 Ang^3
#
#
#
# Elastic Constant Matrix: (Units=GPa)
#
#
# Indices 1 2 3 4 5 6 
#
# 1 91.1617 28.7642 24.6672 0.0000 0.0000 0.0000
# 2 28.7642 94.2859 9.9649 0.0000 0.0000 0.0000
# 3 24.6672 9.9649 24.3493 0.0000 0.0000 0.0000
# 4 0.0000 0.0000 0.0000 18.7699 0.0000 0.0000
# 5 0.0000 0.0000 0.0000 0.0000 27.2720 0.0000
# 6 0.0000 0.0000 0.0000 0.0000 0.0000 28.5090
#
#
#
# Elastic Compliance Matrix: (Units=1/GPa)
#
#
# Indices 1 2 3 4 5 6 
#
# 1 0.016049 -0.003321 -0.014899 0.000000 0.000000 0.000000
# 2 -0.003321 0.011773 -0.001453 0.000000 0.000000 0.000000
# 3 -0.014899 -0.001453 0.056757 0.000000 0.000000 0.000000
# 4 0.000000 0.000000 0.000000 0.053277 0.000000 0.000000
# 5 0.000000 0.000000 0.000000 0.000000 0.036668 0.000000
# 6 0.000000 0.000000 0.000000 0.000000 0.000000 0.035077
#
#
# Mechanical properties :
#
#
# Convention : Reuss Voigt Hill
#
# Bulk Modulus (GPa) = 22.10850 37.39884 29.75367
# Shear Modulus (GPa) = 18.93755 24.67022 21.80389
#
# Velocity S-wave (km/s) = 3.42642 3.91079 3.67659
# Velocity P-wave (km/s) = 5.41848 6.60135 6.03895
#
# Compressibility (1/GPa) = 0.04523148
#
# Stress axis : x y z
#
# Youngs Moduli (GPa) = 62.30877 84.94064 17.61884
#
# Poissons Ratio (x) = 0.28213 0.26251
# Poissons Ratio (y) = 0.20696 0.02560
# Poissons Ratio (z) = 0.92836 0.12344
#
# Static dielectric constant tensor:
#      x y z
#    x 3.152810 0.000000 0.000000 
#    y 0.000000 3.357230 0.000000 
#    z 0.000000 0.000000 2.944780 
# 
# 
# High freq. dielectric constant tensor:
#      x y z
#    x 1.601680 0.000000 0.000000 
#    y 0.000000 1.643010 0.000000 
#    z 0.000000 0.000000 1.570980 
# 
# From -- ./inp_files/29565.got.cif
#   From: 2010.03.12/outbox.cif.g09.slc.cpg/sg53_15_cif.got.tgz:29565.got - 2010.04.16 14:36:59.
