data_PCOD8221826
_publ_section_title
;
Structure prediction by ZEFSAII (Michael W. Deem and Ramdas Pophale) SiO2 
 PCOD8221826
Probable space group: P M N A
;
_chemical_formula_sum "Si O2"
_cell_formula_units_Z 20
_cell_length_a 15.921927
_cell_length_b 5.164634
_cell_length_c 8.947057
_cell_angle_alpha 90.000000
_cell_angle_beta 90.000000
_cell_angle_gamma 90.000000
_cell_volume 735.724778
_symmetry_space_group_name_H-M "P M N A"
_symmetry_group_IT_number 53
_symmetry_cell_setting 'orthorhombic'
loop_
_space_group_symop_operation_xyz
x,y,z
1/2-x,-y,1/2+z
x,-y,-z
1/2-x,y,1/2-z
-x,-y,-z
1/2+x,y,1/2-z
-x,y,z
1/2+x,-y,1/2+z
loop_
_atom_site_type_symbol
_atom_site_label
_atom_site_fract_x
_atom_site_fract_y
_atom_site_fract_z
Si Si1 0.331352 0.058491 0.827384
Si Si2 0.500000 0.745776 0.101424
Si Si3 0.095455 0.262751 0.093971
O O1 0.250000 0.189857 0.750000
O O2 0.413740 0.244215 0.801565
O O3 0.350639 0.784695 0.744662
O O4 0.311985 0.000000 0.000000
O O5 0.500000 0.500000 0.000000
O O6 0.500000 0.000000 0.000000
O O7 0.000000 0.332501 0.142160
O O8 0.134935 0.500000 0.000000
O O9 0.099518 0.000000 0.000000
#
# Coordination Sequence:
#
# PCOD8221826 Si02
#       3
#     8   4   8
#     4  11  24  48  77 116 163 215 275 339 410 487
#     4  10  24  48  76 110 154 214 268 324 406 494
#     4  10  22  43  72 108 151 203 263 329 398 474
#
# _framework density 27.184076999999998
#
# number of rings (size 3 to 8) (size 9 to 14) (size 15 to 20)
#    0.000    1.600    2.000    1.200    0.000    6.400 
#    0.000   32.000    0.000    0.000    0.000    0.000 
#    0.000    0.000    0.000    0.000    0.000    0.000 
#
# Total GULP energy -247998.852603 kJ/mol
# GULP energy per Si atom -12399.942630 kJ/mol
# Density = 2.712221 g / cm^3
# Si number density = 27.184077 Si / 1000 Ang^3
#
#
#
# Elastic Constant Matrix: (Units=GPa)
#
#
# Indices 1 2 3 4 5 6 
#
# 1 242.8367 51.9793 80.9218 0.0000 0.0000 0.0000
# 2 51.9793 144.5632 55.3815 0.0000 0.0000 0.0000
# 3 80.9218 55.3815 189.4972 0.0000 0.0000 0.0000
# 4 0.0000 0.0000 0.0000 49.3599 0.0000 0.0000
# 5 0.0000 0.0000 0.0000 0.0000 53.8753 0.0000
# 6 0.0000 0.0000 0.0000 0.0000 0.0000 16.7314
#
#
#
# Elastic Compliance Matrix: (Units=1/GPa)
#
#
# Indices 1 2 3 4 5 6 
#
# 1 0.004950 -0.001092 -0.001795 0.000000 0.000000 0.000000
# 2 -0.001092 0.008031 -0.001881 0.000000 0.000000 0.000000
# 3 -0.001795 -0.001881 0.006593 0.000000 0.000000 0.000000
# 4 0.000000 0.000000 0.000000 0.020259 0.000000 0.000000
# 5 0.000000 0.000000 0.000000 0.000000 0.018561 0.000000
# 6 0.000000 0.000000 0.000000 0.000000 0.000000 0.059768
#
#
# Mechanical properties :
#
#
# Convention : Reuss Voigt Hill
#
# Bulk Modulus (GPa) = 99.61404 105.94023 102.77714
# Shear Modulus (GPa) = 38.15547 49.90095 44.02821
#
# Velocity S-wave (km/s) = 3.75052 4.28912 4.02883
# Velocity P-wave (km/s) = 7.44843 7.97400 7.71569
#
# Compressibility (1/GPa) = 0.01003875
#
# Stress axis : x y z
#
# Youngs Moduli (GPa) = 202.02875 124.52443 151.67540
#
# Poissons Ratio (x) = 0.13602 0.27218
# Poissons Ratio (y) = 0.22067 0.28523
# Poissons Ratio (z) = 0.36254 0.23417
#
# Static dielectric constant tensor:
#      x y z
#    x 5.776800 0.000000 0.000000 
#    y 0.000000 36.605820 0.000000 
#    z 0.000000 0.000000 5.112330 
# 
# 
# High freq. dielectric constant tensor:
#      x y z
#    x 2.096440 0.000000 0.000000 
#    y 0.000000 2.074660 0.000000 
#    z 0.000000 0.000000 2.111110 
# 
# From -- ./inp_files/9063.got.cif
#   From: 2010.03.12/outbox.cif.g09.slc.cpg/sg53_5_cif.got.tgz:9063.got - 2010.04.16 14:36:59.
