data_PCOD8221811
_publ_section_title
;
Structure prediction by ZEFSAII (Michael W. Deem and Ramdas Pophale) SiO2 
 PCOD8221811
Probable space group: P M N A
;
_chemical_formula_sum "Si O2"
_cell_formula_units_Z 40
_cell_length_a 25.601210
_cell_length_b 5.063054
_cell_length_c 14.985436
_cell_angle_alpha 90.000000
_cell_angle_beta 90.000000
_cell_angle_gamma 90.000000
_cell_volume 1942.416840
_symmetry_space_group_name_H-M "P M N A"
_symmetry_group_IT_number 53
_symmetry_cell_setting 'orthorhombic'
loop_
_space_group_symop_operation_xyz
x,y,z
1/2-x,-y,1/2+z
x,-y,-z
1/2-x,y,1/2-z
-x,-y,-z
1/2+x,y,1/2-z
-x,y,z
1/2+x,-y,1/2+z
loop_
_atom_site_type_symbol
_atom_site_label
_atom_site_fract_x
_atom_site_fract_y
_atom_site_fract_z
Si Si1 0.817167 0.436450 0.599171
Si Si2 0.893376 0.603659 0.247473
Si Si3 0.653415 0.343730 0.409568
Si Si4 0.745811 0.056125 0.147373
Si Si5 0.440893 0.876866 0.674548
O O1 0.836716 0.500000 0.500000
O O2 0.866824 0.345334 0.657203
O O3 0.793123 0.696706 0.643415
O O4 0.775405 0.197882 0.593470
O O5 0.847819 0.553850 0.172712
O O6 0.931614 0.349268 0.249714
O O7 0.928816 0.849114 0.221562
O O8 0.662149 0.500000 0.500000
O O9 0.699039 0.131577 0.395992
O O10 0.598142 0.182651 0.409127
O O11 0.750000 0.969874 0.250000
O O12 0.500000 0.874527 0.638552
#
# Coordination Sequence:
#
# PCOD8221811 Si02
#       5
#     8   8   8   8   8
#     4  12  25  42  64  96 130 175 214 261 320 390
#     4  10  22  43  65  92 124 172 210 270 322 386
#     4  10  24  41  63  93 131 169 217 264 321 384
#     4  12  23  41  64  92 136 172 216 258 321 387
#     4  10  22  42  67  93 125 168 217 271 338 385
#
# _framework density 20.592903
#
# number of rings (size 3 to 8) (size 9 to 14) (size 15 to 20)
#    1.200    0.000    2.000    4.800    2.800    1.200 
#    0.000    1.000    0.000    3.600    0.000    0.000 
#    0.000    0.000    0.000    0.000    0.000    0.000 
#
# Total GULP energy -495945.573347 kJ/mol
# GULP energy per Si atom -12398.639334 kJ/mol
# Density = 2.054603 g / cm^3
# Si number density = 20.592903 Si / 1000 Ang^3
#
#
#
# Elastic Constant Matrix: (Units=GPa)
#
#
# Indices 1 2 3 4 5 6 
#
# 1 74.2826 18.2926 37.7644 0.0000 0.0000 0.0000
# 2 18.2926 123.6086 30.8623 0.0000 0.0000 0.0000
# 3 37.7644 30.8623 108.6603 0.0000 0.0000 0.0000
# 4 0.0000 0.0000 0.0000 23.9042 0.0000 0.0000
# 5 0.0000 0.0000 0.0000 0.0000 12.4538 0.0000
# 6 0.0000 0.0000 0.0000 0.0000 0.0000 25.8806
#
#
#
# Elastic Compliance Matrix: (Units=1/GPa)
#
#
# Indices 1 2 3 4 5 6 
#
# 1 0.016486 -0.001086 -0.005421 0.000000 0.000000 0.000000
# 2 -0.001086 0.008779 -0.002116 0.000000 0.000000 0.000000
# 3 -0.005421 -0.002116 0.011688 0.000000 0.000000 0.000000
# 4 0.000000 0.000000 0.000000 0.041834 0.000000 0.000000
# 5 0.000000 0.000000 0.000000 0.000000 0.080297 0.000000
# 6 0.000000 0.000000 0.000000 0.000000 0.000000 0.038639
#
#
# Mechanical properties :
#
#
# Convention : Reuss Voigt Hill
#
# Bulk Modulus (GPa) = 50.74496 53.37668 52.06082
# Shear Modulus (GPa) = 22.56955 27.08985 24.82970
#
# Velocity S-wave (km/s) = 3.31416 3.63091 3.47614
# Velocity P-wave (km/s) = 6.27219 6.59956 6.43796
#
# Compressibility (1/GPa) = 0.01970639
#
# Stress axis : x y z
#
# Youngs Moduli (GPa) = 60.65921 113.90677 85.55761
#
# Poissons Ratio (x) = 0.12372 0.46381
# Poissons Ratio (y) = 0.06589 0.18104
# Poissons Ratio (z) = 0.32883 0.24103
#
# Static dielectric constant tensor:
#      x y z
#    x 3.519670 0.000000 0.000000 
#    y 0.000000 3.852740 0.000000 
#    z 0.000000 0.000000 3.492800 
# 
# 
# High freq. dielectric constant tensor:
#      x y z
#    x 1.784650 0.000000 0.000000 
#    y 0.000000 1.827800 0.000000 
#    z 0.000000 0.000000 1.784910 
# 
# From -- ./inp_files/24809.got.cif
#   From: 2010.03.12/outbox.cif.g09.slc.cpg/sg53_13_cif.got.tgz:24809.got - 2010.04.16 14:36:59.
