data_PCOD8221565
_publ_section_title
;
Structure prediction by ZEFSAII (Michael W. Deem and Ramdas Pophale) SiO2 
 PCOD8221565
Probable space group: P M N A
;
_chemical_formula_sum "Si O2"
_cell_formula_units_Z 40
_cell_length_a 30.894513
_cell_length_b 8.669293
_cell_length_c 7.184076
_cell_angle_alpha 90.000000
_cell_angle_beta 90.000000
_cell_angle_gamma 90.000000
_cell_volume 1924.136832
_symmetry_space_group_name_H-M "P M N A"
_symmetry_group_IT_number 53
_symmetry_cell_setting 'orthorhombic'
loop_
_space_group_symop_operation_xyz
x,y,z
1/2-x,-y,1/2+z
x,-y,-z
1/2-x,y,1/2-z
-x,-y,-z
1/2+x,y,1/2-z
-x,y,z
1/2+x,-y,1/2+z
loop_
_atom_site_type_symbol
_atom_site_label
_atom_site_fract_x
_atom_site_fract_y
_atom_site_fract_z
Si Si1 0.657981 0.846947 0.089583
Si Si2 0.625718 0.352237 0.253525
Si Si3 0.798877 0.441105 0.701052
Si Si4 0.046939 0.441196 0.793041
Si Si5 0.407563 0.846888 0.406942
O O1 0.693691 0.743512 0.198349
O O2 0.624848 0.904122 0.246498
O O3 0.634599 0.751068 0.926929
O O4 0.679826 0.000000 0.000000
O O5 0.666055 0.461705 0.320448
O O6 0.584943 0.460786 0.194153
O O7 0.616904 0.250263 0.434515
O O8 0.809878 0.500000 0.500000
O O9 0.750000 0.484386 0.750000
O O10 0.056963 0.258255 0.803547
O O11 0.000000 0.463164 0.692679
O O12 0.043066 0.500000 0.000000
O O13 0.428595 0.000000 0.500000
#
# Coordination Sequence:
#
# PCOD8221565 Si02
#       5
#     8   8   8   8   8
#     4  11  22  40  60  89 124 156 199 245 300 356
#     4  10  21  40  63  89 117 159 204 247 298 349
#     4  10  23  39  64  90 118 154 202 253 293 355
#     4   9  19  36  62  92 119 154 206 253 295 353
#     4  11  21  36  64  87 119 166 194 242 305 360
#
# _framework density 20.788542
#
# number of rings (size 3 to 8) (size 9 to 14) (size 15 to 20)
#    0.000    1.800    4.000    0.000    2.800    0.400 
#    0.000    7.000    0.000    1.200    0.000    0.000 
#    0.000    0.000    0.000    0.000    0.000    0.000 
#
# Total GULP energy -495572.758669 kJ/mol
# GULP energy per Si atom -12389.318967 kJ/mol
# Density = 2.074123 g / cm^3
# Si number density = 20.788542 Si / 1000 Ang^3
#
#
#
# Elastic Constant Matrix: (Units=GPa)
#
#
# Indices 1 2 3 4 5 6 
#
# 1 126.6453 42.5814 2.0629 0.0000 0.0000 0.0000
# 2 42.5814 143.6174 17.0170 0.0000 0.0000 0.0000
# 3 2.0629 17.0170 53.7382 0.0000 0.0000 0.0000
# 4 0.0000 0.0000 0.0000 30.8968 0.0000 0.0000
# 5 0.0000 0.0000 0.0000 0.0000 15.1202 0.0000
# 6 0.0000 0.0000 0.0000 0.0000 0.0000 17.3904
#
#
#
# Elastic Compliance Matrix: (Units=1/GPa)
#
#
# Indices 1 2 3 4 5 6 
#
# 1 0.008784 -0.002664 0.000506 0.000000 0.000000 0.000000
# 2 -0.002664 0.008043 -0.002445 0.000000 0.000000 0.000000
# 3 0.000506 -0.002445 0.019363 0.000000 0.000000 0.000000
# 4 0.000000 0.000000 0.000000 0.032366 0.000000 0.000000
# 5 0.000000 0.000000 0.000000 0.000000 0.066136 0.000000
# 6 0.000000 0.000000 0.000000 0.000000 0.000000 0.057503
#
#
# Mechanical properties :
#
#
# Convention : Reuss Voigt Hill
#
# Bulk Modulus (GPa) = 37.05772 49.70262 43.38017
# Shear Modulus (GPa) = 23.76487 30.17078 26.96783
#
# Velocity S-wave (km/s) = 3.38475 3.81375 3.60564
# Velocity P-wave (km/s) = 5.75674 6.58434 6.18440
#
# Compressibility (1/GPa) = 0.02698493
#
# Stress axis : x y z
#
# Youngs Moduli (GPa) = 113.84825 124.33899 51.64389
#
# Poissons Ratio (x) = 0.33127 -0.02616
# Poissons Ratio (y) = 0.30332 0.12624
# Poissons Ratio (z) = -0.05766 0.30395
#
# Static dielectric constant tensor:
#      x y z
#    x 4.812980 0.000000 0.000000 
#    y 0.000000 4.151450 0.000000 
#    z 0.000000 0.000000 3.886870 
# 
# 
# High freq. dielectric constant tensor:
#      x y z
#    x 1.786110 0.000000 0.000000 
#    y 0.000000 1.821250 0.000000 
#    z 0.000000 0.000000 1.817710 
# 
# From -- ./inp_files/12289.got.cif
#   From: 2010.03.12/outbox.cif.g09.slc.cpg/sg53_7_cif.got.tgz:12289.got - 2010.04.16 14:36:59.
