data_PCOD8221922
_publ_section_title
;
Structure prediction by ZEFSAII (Michael W. Deem and Ramdas Pophale) SiO2 
 PCOD8221922
Probable space group: P M N A
;
_chemical_formula_sum "Si O2"
_cell_formula_units_Z 40
_cell_length_a 25.230354
_cell_length_b 8.537040
_cell_length_c 8.889028
_cell_angle_alpha 90.000000
_cell_angle_beta 90.000000
_cell_angle_gamma 90.000000
_cell_volume 1914.630331
_symmetry_space_group_name_H-M "P M N A"
_symmetry_group_IT_number 53
_symmetry_cell_setting 'orthorhombic'
loop_
_space_group_symop_operation_xyz
x,y,z
1/2-x,-y,1/2+z
x,-y,-z
1/2-x,y,1/2-z
-x,-y,-z
1/2+x,y,1/2-z
-x,y,z
1/2+x,-y,1/2+z
loop_
_atom_site_type_symbol
_atom_site_label
_atom_site_fract_x
_atom_site_fract_y
_atom_site_fract_z
Si Si1 0.000000 0.041745 0.671634
Si Si2 0.369571 0.500000 0.000000
Si Si3 0.602960 0.771039 0.196498
Si Si4 0.000000 0.171355 0.076902
Si Si5 0.807806 0.266381 0.290486
Si Si6 0.113972 0.684529 0.981675
Si Si7 0.171129 0.000000 0.500000
O O1 0.047667 0.147937 0.728155
O O2 0.000000 0.000000 0.500000
O O3 0.000000 0.870126 0.746281
O O4 0.405592 0.602908 0.113667
O O5 0.332033 0.391184 0.097678
O O6 0.632172 0.754659 0.357314
O O7 0.635589 0.877897 0.086535
O O8 0.947399 0.271963 0.046137
O O9 0.000000 0.000000 0.000000
O O10 0.750000 0.331613 0.250000
O O11 0.796808 0.099917 0.375610
O O12 0.846980 0.246610 0.146578
O O13 0.119465 0.500000 0.000000
#
# Coordination Sequence:
#
# PCOD8221922 Si02
#       7
#     4   4   8   4   8   8   4
#     4  12  24  37  65  98 137 182 231 273 341 405
#     4  10  24  43  64  96 136 173 230 280 344 416
#     4  11  22  42  66  97 136 179 227 280 340 405
#     4  12  25  42  66 102 136 182 228 284 336 415
#     4  11  26  45  71  99 135 181 228 288 348 405
#     4  12  25  44  68 102 140 180 227 284 346 410
#     4  10  24  43  64  98 132 171 226 284 336 408
#
# _framework density 20.891760000000001
#
# number of rings (size 3 to 8) (size 9 to 14) (size 15 to 20)
#    0.000    0.800    5.000    1.500    4.200    2.000 
#    0.000    4.000    0.000    0.000    0.000    0.000 
#    0.000    0.000    0.000    0.000    0.000    0.000 
#
# Total GULP energy -495781.486187 kJ/mol
# GULP energy per Si atom -12394.537155 kJ/mol
# Density = 2.084421 g / cm^3
# Si number density = 20.891760 Si / 1000 Ang^3
#
#
#
# Elastic Constant Matrix: (Units=GPa)
#
#
# Indices 1 2 3 4 5 6 
#
# 1 82.2240 10.3428 23.6359 0.0000 0.0000 0.0000
# 2 10.3428 96.2285 42.6838 0.0000 0.0000 0.0000
# 3 23.6359 42.6838 157.1057 0.0000 0.0000 0.0000
# 4 0.0000 0.0000 0.0000 38.3407 0.0000 0.0000
# 5 0.0000 0.0000 0.0000 0.0000 23.8915 0.0000
# 6 0.0000 0.0000 0.0000 0.0000 0.0000 17.2339
#
#
#
# Elastic Compliance Matrix: (Units=1/GPa)
#
#
# Indices 1 2 3 4 5 6 
#
# 1 0.012741 -0.000590 -0.001756 0.000000 0.000000 0.000000
# 2 -0.000590 0.011843 -0.003129 0.000000 0.000000 0.000000
# 3 -0.001756 -0.003129 0.007479 0.000000 0.000000 0.000000
# 4 0.000000 0.000000 0.000000 0.026082 0.000000 0.000000
# 5 0.000000 0.000000 0.000000 0.000000 0.041856 0.000000
# 6 0.000000 0.000000 0.000000 0.000000 0.000000 0.058025
#
#
# Mechanical properties :
#
#
# Convention : Reuss Voigt Hill
#
# Bulk Modulus (GPa) = 47.36532 54.32035 50.84284
# Shear Modulus (GPa) = 28.40659 33.15294 30.77977
#
# Velocity S-wave (km/s) = 3.69142 3.98790 3.84252
# Velocity P-wave (km/s) = 6.39451 6.87472 6.63896
#
# Compressibility (1/GPa) = 0.02111249
#
# Stress axis : x y z
#
# Youngs Moduli (GPa) = 78.48640 84.43638 133.69935
#
# Poissons Ratio (x) = 0.04984 0.23484
# Poissons Ratio (y) = 0.04633 0.41833
# Poissons Ratio (z) = 0.13786 0.26419
#
# Static dielectric constant tensor:
#      x y z
#    x 3.637620 0.000000 0.000000 
#    y 0.000000 4.309390 0.000000 
#    z 0.000000 0.000000 3.686420 
# 
# 
# High freq. dielectric constant tensor:
#      x y z
#    x 1.792530 0.000000 0.000000 
#    y 0.000000 1.829940 0.000000 
#    z 0.000000 0.000000 1.851770 
# 
# From -- ./inp_files/12378.got.cif
#   From: 2010.03.12/outbox.cif.g09.slc.cpg/sg53_7_cif.got.tgz:12378.got - 2010.04.16 14:36:59.
