data_PCOD8221187
_publ_section_title
;
Structure prediction by ZEFSAII (Michael W. Deem and Ramdas Pophale) SiO2 
 PCOD8221187
Probable space group: P M N A
;
_chemical_formula_sum "Si O2"
_cell_formula_units_Z 32
_cell_length_a 26.277681
_cell_length_b 5.000292
_cell_length_c 13.423607
_cell_angle_alpha 90.000000
_cell_angle_beta 90.000000
_cell_angle_gamma 90.000000
_cell_volume 1763.809314
_symmetry_space_group_name_H-M "P M N A"
_symmetry_group_IT_number 53
_symmetry_cell_setting 'orthorhombic'
loop_
_space_group_symop_operation_xyz
x,y,z
1/2-x,-y,1/2+z
x,-y,-z
1/2-x,y,1/2-z
-x,-y,-z
1/2+x,y,1/2-z
-x,y,z
1/2+x,-y,1/2+z
loop_
_atom_site_type_symbol
_atom_site_label
_atom_site_fract_x
_atom_site_fract_y
_atom_site_fract_z
Si Si1 0.792675 0.000000 0.000000
Si Si2 0.648662 0.890895 0.690597
Si Si3 0.723262 0.500000 0.000000
Si Si4 0.193542 0.628229 0.286141
Si Si5 0.056866 0.257890 0.067566
O O1 0.758375 0.251281 0.023672
O O2 0.828519 0.039692 0.905610
O O3 0.679451 0.629389 0.721818
O O4 0.591180 0.797967 0.665422
O O5 0.653841 0.124461 0.773342
O O6 0.689283 0.442396 0.902891
O O7 0.250000 0.720549 0.250000
O O8 0.000000 0.332417 0.105373
O O9 0.079274 0.500000 0.000000
O O10 0.054998 0.000000 0.000000
#
# Coordination Sequence:
#
# PCOD8221187 Si02
#       5
#     4   8   4   8   8
#     4  12  20  32  55  78 110 146 181 218 270 324
#     4  12  22  35  56  81 110 150 182 217 276 338
#     4  12  24  36  52  74 114 148 186 234 258 312
#     4  12  23  37  52  80 108 149 191 223 270 324
#     4  10  21  36  56  84 114 142 178 226 278 335
#
# _framework density 18.142551999999998
#
# number of rings (size 3 to 8) (size 9 to 14) (size 15 to 20)
#    0.000    0.500    6.250    3.750    1.750    0.000 
#    0.000    0.000    0.000    0.000    0.000    5.250 
#    0.000    0.000    0.000    0.000    0.000    0.000 
#
# Total GULP energy -396788.627053 kJ/mol
# GULP energy per Si atom -12399.644595 kJ/mol
# Density = 1.810126 g / cm^3
# Si number density = 18.142552 Si / 1000 Ang^3
#
#
#
# Elastic Constant Matrix: (Units=GPa)
#
#
# Indices 1 2 3 4 5 6 
#
# 1 87.2237 34.2074 54.7072 0.0000 0.0000 0.0000
# 2 34.2074 118.6717 26.9622 0.0000 0.0000 0.0000
# 3 54.7072 26.9622 89.3188 0.0000 0.0000 0.0000
# 4 0.0000 0.0000 0.0000 34.7080 0.0000 0.0000
# 5 0.0000 0.0000 0.0000 0.0000 31.5140 0.0000
# 6 0.0000 0.0000 0.0000 0.0000 0.0000 24.5756
#
#
#
# Elastic Compliance Matrix: (Units=1/GPa)
#
#
# Indices 1 2 3 4 5 6 
#
# 1 0.019653 -0.003146 -0.011088 0.000000 0.000000 0.000000
# 2 -0.003146 0.009551 -0.000956 0.000000 0.000000 0.000000
# 3 -0.011088 -0.000956 0.018276 0.000000 0.000000 0.000000
# 4 0.000000 0.000000 0.000000 0.028812 0.000000 0.000000
# 5 0.000000 0.000000 0.000000 0.000000 0.031732 0.000000
# 6 0.000000 0.000000 0.000000 0.000000 0.000000 0.040691
#
#
# Mechanical properties :
#
#
# Convention : Reuss Voigt Hill
#
# Bulk Modulus (GPa) = 58.48042 58.55196 58.51619
# Shear Modulus (GPa) = 27.05740 30.11535 28.58637
#
# Velocity S-wave (km/s) = 3.86603 4.07864 3.97376
# Velocity P-wave (km/s) = 7.22717 7.38402 7.30602
#
# Compressibility (1/GPa) = 0.01709974
#
# Stress axis : x y z
#
# Youngs Moduli (GPa) = 50.88371 104.70488 54.71803
#
# Poissons Ratio (x) = 0.32938 0.60669
# Poissons Ratio (y) = 0.16007 0.05232
# Poissons Ratio (z) = 0.56417 0.10012
#
# Static dielectric constant tensor:
#      x y z
#    x 3.468970 0.000000 0.000000 
#    y 0.000000 3.415140 0.000000 
#    z 0.000000 0.000000 3.387000 
# 
# 
# High freq. dielectric constant tensor:
#      x y z
#    x 1.670510 0.000000 0.000000 
#    y 0.000000 1.732070 0.000000 
#    z 0.000000 0.000000 1.685050 
# 
# From -- ./inp_files/18064.got.cif
#   From: 2010.03.12/outbox.cif.g09.slc.cpg/sg53_10_cif.got.tgz:18064.got - 2010.04.16 14:36:59.
