data_PCOD8221786
_publ_section_title
;
Structure prediction by ZEFSAII (Michael W. Deem and Ramdas Pophale) SiO2 
 PCOD8221786
Probable space group: P M N A
;
_chemical_formula_sum "Si O2"
_cell_formula_units_Z 48
_cell_length_a 8.724085
_cell_length_b 14.839557
_cell_length_c 17.392284
_cell_angle_alpha 90.000000
_cell_angle_beta 90.000000
_cell_angle_gamma 90.000000
_cell_volume 2251.632160
_symmetry_space_group_name_H-M "P M N A"
_symmetry_group_IT_number 53
_symmetry_cell_setting 'orthorhombic'
loop_
_space_group_symop_operation_xyz
x,y,z
1/2-x,-y,1/2+z
x,-y,-z
1/2-x,y,1/2-z
-x,-y,-z
1/2+x,y,1/2-z
-x,y,z
1/2+x,-y,1/2+z
loop_
_atom_site_type_symbol
_atom_site_label
_atom_site_fract_x
_atom_site_fract_y
_atom_site_fract_z
Si Si1 0.180596 0.144139 0.413844
Si Si2 0.677396 0.981049 0.332948
Si Si3 0.823489 0.467734 0.416687
Si Si4 0.677696 0.349611 0.832424
Si Si5 0.820066 0.691000 0.830442
Si Si6 0.177143 0.195003 0.926250
O O1 0.252969 0.212529 0.352815
O O2 0.225502 0.168766 0.499935
O O3 0.000000 0.147327 0.405065
O O4 0.240749 0.044609 0.394987
O O5 0.750000 0.994438 0.250000
O O6 0.500000 0.007405 0.328878
O O7 0.701307 0.878639 0.359746
O O8 0.767804 0.500000 0.500000
O O9 0.800009 0.546484 0.354693
O O10 0.720853 0.382574 0.394700
O O11 0.000000 0.436362 0.420146
O O12 0.750000 0.331532 0.750000
O O13 0.500000 0.322086 0.830624
O O14 0.763753 0.290175 0.895598
O O15 0.750000 0.658639 0.750000
O O16 0.000000 0.699340 0.822131
O O17 0.000000 0.203098 0.950548
#
# Coordination Sequence:
#
# PCOD8221786 Si02
#       6
#     8   8   8   8   8   8
#     4  12  25  42  65  92 125 163 205 253 308 369
#     4  11  24  42  64  92 126 163 206 255 306 362
#     4  10  22  41  64  92 126 163 205 254 307 364
#     4  11  23  39  62  91 126 166 208 256 308 365
#     4  12  25  42  65  92 125 163 206 255 308 367
#     4  11  24  42  65  93 126 162 205 256 308 366
#
# _framework density 21.317869000000002
#
# number of rings (size 3 to 8) (size 9 to 14) (size 15 to 20)
#    0.000    0.833    0.000    7.500    0.000   10.333 
#    0.000    0.000    0.000    0.000    0.000    0.000 
#    0.000    0.000    0.000    0.000    0.000    0.000 
#
# Total GULP energy -595672.361685 kJ/mol
# GULP energy per Si atom -12409.840868 kJ/mol
# Density = 2.126935 g / cm^3
# Si number density = 21.317869 Si / 1000 Ang^3
#
#
#
# Elastic Constant Matrix: (Units=GPa)
#
#
# Indices 1 2 3 4 5 6 
#
# 1 156.2761 39.9911 31.5261 0.0000 0.0000 0.0000
# 2 39.9911 66.4505 -1.9080 0.0000 0.0000 0.0000
# 3 31.5261 -1.9080 89.2315 0.0000 0.0000 0.0000
# 4 0.0000 0.0000 0.0000 49.7808 0.0000 0.0000
# 5 0.0000 0.0000 0.0000 0.0000 39.2859 0.0000
# 6 0.0000 0.0000 0.0000 0.0000 0.0000 40.1663
#
#
#
# Elastic Compliance Matrix: (Units=1/GPa)
#
#
# Indices 1 2 3 4 5 6 
#
# 1 0.008317 -0.005093 -0.003047 0.000000 0.000000 0.000000
# 2 -0.005093 0.018177 0.002188 0.000000 0.000000 0.000000
# 3 -0.003047 0.002188 0.012330 0.000000 0.000000 0.000000
# 4 0.000000 0.000000 0.000000 0.020088 0.000000 0.000000
# 5 0.000000 0.000000 0.000000 0.000000 0.025454 0.000000
# 6 0.000000 0.000000 0.000000 0.000000 0.000000 0.024896
#
#
# Mechanical properties :
#
#
# Convention : Reuss Voigt Hill
#
# Bulk Modulus (GPa) = 37.14787 50.13072 43.63929
# Shear Modulus (GPa) = 38.42016 42.00319 40.21168
#
# Velocity S-wave (km/s) = 4.24990 4.44365 4.34786
# Velocity P-wave (km/s) = 6.44560 7.06364 6.76168
#
# Compressibility (1/GPa) = 0.02691944
#
# Stress axis : x y z
#
# Youngs Moduli (GPa) = 120.23687 55.01602 81.10147
#
# Poissons Ratio (x) = 0.28018 0.24714
# Poissons Ratio (y) = 0.61234 -0.17745
# Poissons Ratio (z) = 0.36640 -0.12037
#
# Static dielectric constant tensor:
#      x y z
#    x 3.937140 0.000000 0.000000 
#    y 0.000000 3.935110 0.000000 
#    z 0.000000 0.000000 3.847970 
# 
# 
# High freq. dielectric constant tensor:
#      x y z
#    x 1.846780 0.000000 0.000000 
#    y 0.000000 1.847310 0.000000 
#    z 0.000000 0.000000 1.849780 
# 
# From -- ./inp_files/26219.got.cif
#   From: 2010.03.12/outbox.cif.g09.slc.cpg/sg53_14_cif.got.tgz:26219.got - 2010.04.16 14:36:59.
