data_PCOD8221554
_publ_section_title
;
Structure prediction by ZEFSAII (Michael W. Deem and Ramdas Pophale) SiO2 
 PCOD8221554
Probable space group: P M N A
;
_chemical_formula_sum "Si O2"
_cell_formula_units_Z 32
_cell_length_a 16.391169
_cell_length_b 9.769722
_cell_length_c 9.286183
_cell_angle_alpha 90.000000
_cell_angle_beta 90.000000
_cell_angle_gamma 90.000000
_cell_volume 1487.063014
_symmetry_space_group_name_H-M "P M N A"
_symmetry_group_IT_number 53
_symmetry_cell_setting 'orthorhombic'
loop_
_space_group_symop_operation_xyz
x,y,z
1/2-x,-y,1/2+z
x,-y,-z
1/2-x,y,1/2-z
-x,-y,-z
1/2+x,y,1/2-z
-x,y,z
1/2+x,-y,1/2+z
loop_
_atom_site_type_symbol
_atom_site_label
_atom_site_fract_x
_atom_site_fract_y
_atom_site_fract_z
Si Si1 0.595147 0.812616 0.576816
Si Si2 0.658794 0.924540 0.290977
Si Si3 0.903706 0.308220 0.601385
Si Si4 0.096790 0.593967 0.702814
O O1 0.500000 0.803504 0.530612
O O2 0.651720 0.834519 0.437127
O O3 0.626667 0.673975 0.654510
O O4 0.605492 0.938667 0.688395
O O5 0.750000 0.966782 0.250000
O O6 0.626769 0.836513 0.157887
O O7 0.868887 0.331957 0.440809
O O8 0.874696 0.435152 0.704092
O O9 0.000000 0.307299 0.598399
O O10 0.000000 0.603470 0.698240
#
# Coordination Sequence:
#
# PCOD8221554 Si02
#       4
#     8   8   8   8
#     4  10  21  40  61  83 111 151 196 238 281 338
#     4  11  23  36  52  80 114 148 186 233 285 337
#     4   9  17  35  58  82 110 143 183 230 276 331
#     4   8  17  33  58  85 108 138 185 233 274 324
#
# _framework density 21.518926
#
# number of rings (size 3 to 8) (size 9 to 14) (size 15 to 20)
#    0.000    2.500    0.000    4.500    0.000    6.000 
#    0.000   13.750    0.000    0.000    0.000    0.000 
#    0.000    0.000    0.000    0.000    0.000    0.000 
#
# Total GULP energy -396609.540529 kJ/mol
# GULP energy per Si atom -12394.048142 kJ/mol
# Density = 2.146995 g / cm^3
# Si number density = 21.518926 Si / 1000 Ang^3
#
#
#
# Elastic Constant Matrix: (Units=GPa)
#
#
# Indices 1 2 3 4 5 6 
#
# 1 39.5187 2.6094 22.9666 0.0000 0.0000 0.0000
# 2 2.6094 29.8096 -0.9438 0.0000 0.0000 0.0000
# 3 22.9666 -0.9438 40.9728 0.0000 0.0000 0.0000
# 4 0.0000 0.0000 0.0000 45.9040 0.0000 0.0000
# 5 0.0000 0.0000 0.0000 0.0000 22.5855 0.0000
# 6 0.0000 0.0000 0.0000 0.0000 0.0000 3.7548
#
#
#
# Elastic Compliance Matrix: (Units=1/GPa)
#
#
# Indices 1 2 3 4 5 6 
#
# 1 0.038002 -0.004004 -0.021394 0.000000 0.000000 0.000000
# 2 -0.004004 0.033993 0.003027 0.000000 0.000000 0.000000
# 3 -0.021394 0.003027 0.036468 0.000000 0.000000 0.000000
# 4 0.000000 0.000000 0.000000 0.021785 0.000000 0.000000
# 5 0.000000 0.000000 0.000000 0.000000 0.044276 0.000000
# 6 0.000000 0.000000 0.000000 0.000000 0.000000 0.266324
#
#
# Mechanical properties :
#
#
# Convention : Reuss Voigt Hill
#
# Bulk Modulus (GPa) = 15.69314 17.72952 16.71133
# Shear Modulus (GPa) = 9.86528 20.16012 15.01270
#
# Velocity S-wave (km/s) = 2.14346 3.06413 2.64417
# Velocity P-wave (km/s) = 3.66530 4.55801 4.13581
#
# Compressibility (1/GPa) = 0.06372211
#
# Stress axis : x y z
#
# Youngs Moduli (GPa) = 26.31444 29.41824 27.42128
#
# Poissons Ratio (x) = 0.11779 0.58664
# Poissons Ratio (y) = 0.10536 -0.08301
# Poissons Ratio (z) = 0.56296 -0.08906
#
# Static dielectric constant tensor:
#      x y z
#    x 3.431340 0.000000 0.000000 
#    y 0.000000 4.194680 0.000000 
#    z 0.000000 0.000000 4.225820 
# 
# 
# High freq. dielectric constant tensor:
#      x y z
#    x 1.803700 0.000000 0.000000 
#    y 0.000000 1.850220 0.000000 
#    z 0.000000 0.000000 1.843080 
# 
# From -- ./inp_files/7996.got.cif
#   From: 2010.03.12/outbox.cif.g09.slc.cpg/sg53_4_cif.got.tgz:7996.got - 2010.04.16 14:36:59.
