data_PCOD8221881
_publ_section_title
;
Structure prediction by ZEFSAII (Michael W. Deem and Ramdas Pophale) SiO2 
 PCOD8221881
Probable space group: P M N A
;
_chemical_formula_sum "Si O2"
_cell_formula_units_Z 56
_cell_length_a 30.550752
_cell_length_b 5.379969
_cell_length_c 16.250468
_cell_angle_alpha 90.000000
_cell_angle_beta 90.000000
_cell_angle_gamma 90.000000
_cell_volume 2670.961025
_symmetry_space_group_name_H-M "P M N A"
_symmetry_group_IT_number 53
_symmetry_cell_setting 'orthorhombic'
loop_
_space_group_symop_operation_xyz
x,y,z
1/2-x,-y,1/2+z
x,-y,-z
1/2-x,y,1/2-z
-x,-y,-z
1/2+x,y,1/2-z
-x,y,z
1/2+x,-y,1/2+z
loop_
_atom_site_type_symbol
_atom_site_label
_atom_site_fract_x
_atom_site_fract_y
_atom_site_fract_z
Si Si1 0.048197 0.998509 0.691348
Si Si2 0.159986 0.455400 0.376750
Si Si3 0.564306 0.499030 0.090180
Si Si4 0.163866 0.260322 0.049713
Si Si5 0.291375 0.845484 0.214918
Si Si6 0.865614 0.127483 0.220156
Si Si7 0.259946 0.823427 0.923006
O O1 0.052121 0.249612 0.638075
O O2 0.000000 0.004588 0.733923
O O3 0.049442 0.749787 0.636463
O O4 0.086819 0.991963 0.759375
O O5 0.116016 0.494020 0.426699
O O6 0.180109 0.719411 0.354887
O O7 0.148907 0.312991 0.292134
O O8 0.196089 0.335517 0.436385
O O9 0.541936 0.500000 0.000000
O O10 0.132728 0.252162 0.130541
O O11 0.213864 0.323639 0.077026
O O12 0.146417 0.500000 0.000000
O O13 0.159611 0.000000 0.000000
O O14 0.250000 0.682635 0.250000
O O15 0.326293 0.924687 0.284992
O O16 0.264710 0.062888 0.168205
O O17 0.257524 0.000000 0.000000
#
# Coordination Sequence:
#
# PCOD8221881 Si02
#       7
#     8   8   8   8   8   8   8
#     4  11  24  44  68  93 120 164 211 258 319 373
#     4  10  24  34  59  85 123 173 212 256 298 367
#     4  11  24  40  62  94 133 167 206 259 309 365
#     4  11  26  41  62  90 123 164 205 260 319 374
#     4  11  21  36  59  86 120 167 211 260 301 365
#     4  10  23  43  59  90 124 158 214 258 313 377
#     4  10  24  35  52  84 123 169 214 256 301 362
#
# _framework density 20.966234
#
# number of rings (size 3 to 8) (size 9 to 14) (size 15 to 20)
#    0.000    1.429    2.857    0.857   10.000    1.714 
#    0.000    0.000    0.000    0.857    0.000    0.000 
#    0.000    0.000    0.000    0.000    0.000    0.000 
#
# Total GULP energy -693755.299665 kJ/mol
# GULP energy per Si atom -12388.487494 kJ/mol
# Density = 2.091851 g / cm^3
# Si number density = 20.966234 Si / 1000 Ang^3
#
#
#
# Elastic Constant Matrix: (Units=GPa)
#
#
# Indices 1 2 3 4 5 6 
#
# 1 152.0226 28.8876 45.4629 0.0000 0.0000 0.0000
# 2 28.8876 103.8929 26.8451 0.0000 0.0000 0.0000
# 3 45.4629 26.8451 102.0111 0.0000 0.0000 0.0000
# 4 0.0000 0.0000 0.0000 25.0950 0.0000 0.0000
# 5 0.0000 0.0000 0.0000 0.0000 5.7215 0.0000
# 6 0.0000 0.0000 0.0000 0.0000 0.0000 53.2026
#
#
#
# Elastic Compliance Matrix: (Units=1/GPa)
#
#
# Indices 1 2 3 4 5 6 
#
# 1 0.007764 -0.001357 -0.003103 0.000000 0.000000 0.000000
# 2 -0.001357 0.010565 -0.002175 0.000000 0.000000 0.000000
# 3 -0.003103 -0.002175 0.011758 0.000000 0.000000 0.000000
# 4 0.000000 0.000000 0.000000 0.039849 0.000000 0.000000
# 5 0.000000 0.000000 0.000000 0.000000 0.174779 0.000000
# 6 0.000000 0.000000 0.000000 0.000000 0.000000 0.018796
#
#
# Mechanical properties :
#
#
# Convention : Reuss Voigt Hill
#
# Bulk Modulus (GPa) = 59.46716 62.25752 60.86234
# Shear Modulus (GPa) = 17.70625 33.91923 25.81274
#
# Velocity S-wave (km/s) = 2.90920 4.02656 3.51259
# Velocity P-wave (km/s) = 6.30155 7.16772 6.74854
#
# Compressibility (1/GPa) = 0.01681600
#
# Stress axis : x y z
#
# Youngs Moduli (GPa) = 128.80341 94.65473 85.04687
#
# Poissons Ratio (x) = 0.12844 0.26390
# Poissons Ratio (y) = 0.17478 0.18502
# Poissons Ratio (z) = 0.39967 0.20592
#
# Static dielectric constant tensor:
#      x y z
#    x 4.261780 0.000000 0.000000 
#    y 0.000000 3.808640 0.000000 
#    z 0.000000 0.000000 3.589020 
# 
# 
# High freq. dielectric constant tensor:
#      x y z
#    x 1.821040 0.000000 0.000000 
#    y 0.000000 1.817920 0.000000 
#    z 0.000000 0.000000 1.807750 
# 
# From -- ./inp_files/25149.got.cif
#   From: 2010.03.12/outbox.cif.g09.slc.cpg/sg53_13_cif.got.tgz:25149.got - 2010.04.16 14:36:59.
