data_PCOD8221338
_publ_section_title
;
Structure prediction by ZEFSAII (Michael W. Deem and Ramdas Pophale) SiO2 
 PCOD8221338
Probable space group: P M N A
;
_chemical_formula_sum "Si O2"
_cell_formula_units_Z 48
_cell_length_a 8.750067
_cell_length_b 14.725022
_cell_length_c 19.324676
_cell_angle_alpha 90.000000
_cell_angle_beta 90.000000
_cell_angle_gamma 90.000000
_cell_volume 2489.886509
_symmetry_space_group_name_H-M "P M N A"
_symmetry_group_IT_number 53
_symmetry_cell_setting 'orthorhombic'
loop_
_space_group_symop_operation_xyz
x,y,z
1/2-x,-y,1/2+z
x,-y,-z
1/2-x,y,1/2-z
-x,-y,-z
1/2+x,y,1/2-z
-x,y,z
1/2+x,-y,1/2+z
loop_
_atom_site_type_symbol
_atom_site_label
_atom_site_fract_x
_atom_site_fract_y
_atom_site_fract_z
Si Si1 0.179776 0.360745 0.177313
Si Si2 0.177179 0.571360 0.178511
Si Si3 0.319635 0.037310 0.425804
Si Si4 0.180923 0.106206 0.674436
Si Si5 0.679318 0.719585 0.089103
Si Si6 0.680243 0.768555 0.934525
O O1 0.250000 0.328499 0.250000
O O2 0.214655 0.466447 0.165005
O O3 0.268694 0.309069 0.117609
O O4 0.000000 0.339121 0.175754
O O5 0.250000 0.605960 0.250000
O O6 0.241976 0.627482 0.114259
O O7 0.000000 0.590039 0.185085
O O8 0.500000 0.027837 0.417759
O O9 0.270456 0.140656 0.416132
O O10 0.263246 0.000000 0.500000
O O11 0.239085 0.981928 0.365340
O O12 0.250000 0.107817 0.750000
O O13 0.237817 0.195697 0.634329
O O14 0.000000 0.102117 0.678946
O O15 0.500000 0.706833 0.096425
O O16 0.728866 0.736052 0.010505
O O17 0.500000 0.786626 0.929401
#
# Coordination Sequence:
#
# PCOD8221338 Si02
#       6
#     8   8   8   8   8   8
#     4  10  22  41  62  88 119 156 201 250 300 353
#     4  10  21  37  60  86 119 159 200 247 299 352
#     4  11  23  40  63  89 118 156 198 243 297 356
#     4  11  23  40  61  89 123 158 200 248 296 352
#     4  10  22  38  59  88 122 159 198 241 296 356
#     4  11  23  40  63  90 120 158 198 244 299 356
#
# _framework density 19.277988000000001
#
# number of rings (size 3 to 8) (size 9 to 14) (size 15 to 20)
#    0.000    1.500    1.667    3.000    0.000    8.000 
#    0.000    6.667    0.000    0.000    0.000    0.000 
#    0.000    0.000    0.000    0.000    0.000    0.000 
#
# Total GULP energy -595520.664323 kJ/mol
# GULP energy per Si atom -12406.680507 kJ/mol
# Density = 1.923411 g / cm^3
# Si number density = 19.277988 Si / 1000 Ang^3
#
#
#
# Elastic Constant Matrix: (Units=GPa)
#
#
# Indices 1 2 3 4 5 6 
#
# 1 58.6239 30.6850 47.2404 0.0000 0.0000 0.0000
# 2 30.6850 92.0831 67.6184 0.0000 0.0000 0.0000
# 3 47.2404 67.6184 163.2003 0.0000 0.0000 0.0000
# 4 0.0000 0.0000 0.0000 33.3686 0.0000 0.0000
# 5 0.0000 0.0000 0.0000 0.0000 33.0878 0.0000
# 6 0.0000 0.0000 0.0000 0.0000 0.0000 36.1436
#
#
#
# Elastic Compliance Matrix: (Units=1/GPa)
#
#
# Indices 1 2 3 4 5 6 
#
# 1 0.023244 -0.004031 -0.005058 0.000000 0.000000 0.000000
# 2 -0.004031 0.016308 -0.005590 0.000000 0.000000 0.000000
# 3 -0.005058 -0.005590 0.009908 0.000000 0.000000 0.000000
# 4 0.000000 0.000000 0.000000 0.029968 0.000000 0.000000
# 5 0.000000 0.000000 0.000000 0.000000 0.030223 0.000000
# 6 0.000000 0.000000 0.000000 0.000000 0.000000 0.027667
#
#
# Mechanical properties :
#
#
# Convention : Reuss Voigt Hill
#
# Bulk Modulus (GPa) = 49.74914 67.22164 58.48539
# Shear Modulus (GPa) = 28.83902 31.74423 30.29162
#
# Velocity S-wave (km/s) = 3.87195 4.06230 3.96827
# Velocity P-wave (km/s) = 6.77138 7.54642 7.16938
#
# Compressibility (1/GPa) = 0.02010085
#
# Stress axis : x y z
#
# Youngs Moduli (GPa) = 43.02229 61.31997 100.93327
#
# Poissons Ratio (x) = 0.24721 0.51051
# Poissons Ratio (y) = 0.17344 0.56420
# Poissons Ratio (z) = 0.21760 0.34277
#
# Static dielectric constant tensor:
#      x y z
#    x 3.573000 0.000000 0.000000 
#    y 0.000000 3.573370 0.000000 
#    z 0.000000 0.000000 3.664600 
# 
# 
# High freq. dielectric constant tensor:
#      x y z
#    x 1.761250 0.000000 0.000000 
#    y 0.000000 1.757670 0.000000 
#    z 0.000000 0.000000 1.758540 
# 
# From -- ./inp_files/26208.got.cif
#   From: 2010.03.12/outbox.cif.g09.slc.cpg/sg53_14_cif.got.tgz:26208.got - 2010.04.16 14:36:59.
