data_PCOD8221234
_publ_section_title
;
Structure prediction by ZEFSAII (Michael W. Deem and Ramdas Pophale) SiO2 
 PCOD8221234
Probable space group: P M N A
;
_chemical_formula_sum "Si O2"
_cell_formula_units_Z 64
_cell_length_a 14.351120
_cell_length_b 22.782208
_cell_length_c 8.962573
_cell_angle_alpha 90.000000
_cell_angle_beta 90.000000
_cell_angle_gamma 90.000000
_cell_volume 2930.315043
_symmetry_space_group_name_H-M "P M N A"
_symmetry_group_IT_number 53
_symmetry_cell_setting 'orthorhombic'
loop_
_space_group_symop_operation_xyz
x,y,z
1/2-x,-y,1/2+z
x,-y,-z
1/2-x,y,1/2-z
-x,-y,-z
1/2+x,y,1/2-z
-x,y,z
1/2+x,-y,1/2+z
loop_
_atom_site_type_symbol
_atom_site_label
_atom_site_fract_x
_atom_site_fract_y
_atom_site_fract_z
Si Si1 0.100225 0.545369 0.316851
Si Si2 0.801475 0.352678 0.544542
Si Si3 0.607351 0.762095 0.108803
Si Si4 0.393245 0.137256 0.658859
Si Si5 0.732820 0.842143 0.922974
Si Si6 0.852400 0.419532 0.279702
Si Si7 0.391766 0.065150 0.946449
Si Si8 0.099898 0.384085 0.963242
O O1 0.183032 0.582438 0.389864
O O2 0.101162 0.476146 0.358100
O O3 0.000000 0.569661 0.373076
O O4 0.108933 0.557921 0.138992
O O5 0.858813 0.304422 0.639146
O O6 0.843989 0.359431 0.377910
O O7 0.689924 0.340791 0.553024
O O8 0.500000 0.763929 0.053482
O O9 0.618434 0.800870 0.256761
O O10 0.679580 0.784885 0.983871
O O11 0.500000 0.128089 0.604722
O O12 0.326473 0.140214 0.514993
O O13 0.364657 0.084220 0.775111
O O14 0.750000 0.830134 0.750000
O O15 0.662725 0.896239 0.934681
O O16 0.750000 0.443517 0.250000
O O17 0.908731 0.404614 0.132815
O O18 0.500000 0.079087 0.966115
O O19 0.366972 0.000000 0.000000
O O20 0.000000 0.351388 0.927766
#
# Coordination Sequence:
#
# PCOD8221234 Si02
#       8
#     8   8   8   8   8   8   8   8
#     4  11  22  35  55  82 109 142 183 228 284 351
#     4  11  23  39  60  84 109 140 186 243 297 349
#     4  10  22  42  62  81 112 155 201 251 309 368
#     4   9  20  40  65  90 122 167 213 256 304 362
#     4  11  23  37  61  93 126 164 208 258 309 359
#     4  10  21  37  56  79 110 143 177 225 288 355
#     4   9  18  36  63  94 130 173 215 254 301 355
#     4  10  22  38  56  79 110 148 182 218 279 360
#
# _framework density 21.840655999999999
#
# number of rings (size 3 to 8) (size 9 to 14) (size 15 to 20)
#    0.000    1.875    0.000    5.250    0.000   11.000 
#    0.000    1.875    0.000    3.375    0.000    0.000 
#    0.000    0.000    0.000    0.000    0.000    0.000 
#
# Total GULP energy -792844.271778 kJ/mol
# GULP energy per Si atom -12388.191747 kJ/mol
# Density = 2.179095 g / cm^3
# Si number density = 21.840656 Si / 1000 Ang^3
#
#
#
# Elastic Constant Matrix: (Units=GPa)
#
#
# Indices 1 2 3 4 5 6 
#
# 1 100.5912 28.8067 34.8222 0.0000 0.0000 0.0000
# 2 28.8067 86.7351 14.0160 0.0000 0.0000 0.0000
# 3 34.8222 14.0160 82.7334 0.0000 0.0000 0.0000
# 4 0.0000 0.0000 0.0000 11.9466 0.0000 0.0000
# 5 0.0000 0.0000 0.0000 0.0000 25.4112 0.0000
# 6 0.0000 0.0000 0.0000 0.0000 0.0000 23.3608
#
#
#
# Elastic Compliance Matrix: (Units=1/GPa)
#
#
# Indices 1 2 3 4 5 6 
#
# 1 0.012545 -0.003406 -0.004703 0.000000 0.000000 0.000000
# 2 -0.003406 0.012779 -0.000731 0.000000 0.000000 0.000000
# 3 -0.004703 -0.000731 0.014190 0.000000 0.000000 0.000000
# 4 0.000000 0.000000 0.000000 0.083706 0.000000 0.000000
# 5 0.000000 0.000000 0.000000 0.000000 0.039353 0.000000
# 6 0.000000 0.000000 0.000000 0.000000 0.000000 0.042807
#
#
# Mechanical properties :
#
#
# Convention : Reuss Voigt Hill
#
# Bulk Modulus (GPa) = 45.80240 47.26107 46.53173
# Shear Modulus (GPa) = 21.70720 24.97136 23.33928
#
# Velocity S-wave (km/s) = 3.15602 3.38500 3.27252
# Velocity P-wave (km/s) = 5.85639 6.07978 5.96913
#
# Compressibility (1/GPa) = 0.02183292
#
# Stress axis : x y z
#
# Youngs Moduli (GPa) = 79.71436 78.25427 70.47041
#
# Poissons Ratio (x) = 0.26657 0.33142
# Poissons Ratio (y) = 0.27154 0.05152
# Poissons Ratio (z) = 0.37489 0.05721
#
# Static dielectric constant tensor:
#      x y z
#    x 4.209410 0.000000 0.000000 
#    y 0.000000 3.772550 0.000000 
#    z 0.000000 0.000000 3.959470 
# 
# 
# High freq. dielectric constant tensor:
#      x y z
#    x 1.883810 0.000000 0.000000 
#    y 0.000000 1.825580 0.000000 
#    z 0.000000 0.000000 1.851030 
# 
# From -- ./inp_files/8944.got.cif
#   From: 2010.03.12/outbox.cif.g09.slc.cpg/sg53_5_cif.got.tgz:8944.got - 2010.04.16 14:36:59.
