data_PCOD8221177
_publ_section_title
;
Structure prediction by ZEFSAII (Michael W. Deem and Ramdas Pophale) SiO2 
 PCOD8221177
Probable space group: P M N A
;
_chemical_formula_sum "Si O2"
_cell_formula_units_Z 48
_cell_length_a 8.774689
_cell_length_b 30.551321
_cell_length_c 9.454605
_cell_angle_alpha 90.000000
_cell_angle_beta 90.000000
_cell_angle_gamma 90.000000
_cell_volume 2534.574817
_symmetry_space_group_name_H-M "P M N A"
_symmetry_group_IT_number 53
_symmetry_cell_setting 'orthorhombic'
loop_
_space_group_symop_operation_xyz
x,y,z
1/2-x,-y,1/2+z
x,-y,-z
1/2-x,y,1/2-z
-x,-y,-z
1/2+x,y,1/2-z
-x,y,z
1/2+x,-y,1/2+z
loop_
_atom_site_type_symbol
_atom_site_label
_atom_site_fract_x
_atom_site_fract_y
_atom_site_fract_z
Si Si1 0.680353 0.713199 0.404996
Si Si2 0.819929 0.960528 0.099774
Si Si3 0.821051 0.365104 0.101089
Si Si4 0.180107 0.462965 0.102546
Si Si5 0.321137 0.211534 0.095100
Si Si6 0.678370 0.870097 0.099783
O O1 0.750000 0.716306 0.250000
O O2 0.500000 0.717927 0.392847
O O3 0.729846 0.667207 0.475743
O O4 0.743457 0.751135 0.503353
O O5 0.750000 0.971985 0.250000
O O6 0.751150 0.915055 0.042268
O O7 0.000000 0.955612 0.111039
O O8 0.769861 0.000000 0.000000
O O9 0.750000 0.350148 0.250000
O O10 0.767111 0.414042 0.057432
O O11 0.000000 0.363211 0.124199
O O12 0.250000 0.475946 0.250000
O O13 0.000000 0.465343 0.111595
O O14 0.246512 0.500000 0.000000
O O15 0.250000 0.210213 0.250000
O O16 0.500000 0.221065 0.106640
O O17 0.286718 0.165832 0.018404
O O18 0.750000 0.855864 0.250000
O O19 0.500000 0.876827 0.124489
#
# Coordination Sequence:
#
# PCOD8221177 Si02
#       6
#     8   8   8   8   8   8
#     4  11  23  38  57  81 110 143 180 223 271 324
#     4  10  21  36  56  82 111 145 183 223 268 318
#     4   9  19  35  54  77 105 139 178 220 267 319
#     4   9  18  33  52  75 105 139 176 219 266 317
#     4  11  24  40  59  84 112 144 182 224 272 324
#     4  10  21  37  58  82 109 143 181 223 270 319
#
# _framework density 18.938086999999999
#
# number of rings (size 3 to 8) (size 9 to 14) (size 15 to 20)
#    0.000    2.000    0.000    4.000    0.000    9.667 
#    0.000    3.333    0.000    0.000    0.000    0.000 
#    0.000    0.000    0.000    0.000    0.000    0.000 
#
# Total GULP energy -595227.092935 kJ/mol
# GULP energy per Si atom -12400.564436 kJ/mol
# Density = 1.889498 g / cm^3
# Si number density = 18.938087 Si / 1000 Ang^3
#
#
#
# Elastic Constant Matrix: (Units=GPa)
#
#
# Indices 1 2 3 4 5 6 
#
# 1 79.0645 62.6369 58.4379 0.0000 0.0000 0.0000
# 2 62.6369 153.1277 109.6573 0.0000 0.0000 0.0000
# 3 58.4379 109.6573 155.9386 0.0000 0.0000 0.0000
# 4 0.0000 0.0000 0.0000 42.8433 0.0000 0.0000
# 5 0.0000 0.0000 0.0000 0.0000 34.8614 0.0000
# 6 0.0000 0.0000 0.0000 0.0000 0.0000 8.3752
#
#
#
# Elastic Compliance Matrix: (Units=1/GPa)
#
#
# Indices 1 2 3 4 5 6 
#
# 1 0.019585 -0.005550 -0.003436 0.000000 0.000000 0.000000
# 2 -0.005550 0.014728 -0.008277 0.000000 0.000000 0.000000
# 3 -0.003436 -0.008277 0.013521 0.000000 0.000000 0.000000
# 4 0.000000 0.000000 0.000000 0.023341 0.000000 0.000000
# 5 0.000000 0.000000 0.000000 0.000000 0.028685 0.000000
# 6 0.000000 0.000000 0.000000 0.000000 0.000000 0.119400
#
#
# Mechanical properties :
#
#
# Convention : Reuss Voigt Hill
#
# Bulk Modulus (GPa) = 75.15036 94.39944 84.77490
# Shear Modulus (GPa) = 19.36311 27.70924 23.53618
#
# Velocity S-wave (km/s) = 3.20104 3.82926 3.52916
# Velocity P-wave (km/s) = 7.30961 8.33700 7.84015
#
# Compressibility (1/GPa) = 0.01330666
#
# Stress axis : x y z
#
# Youngs Moduli (GPa) = 51.05967 67.89732 73.95923
#
# Poissons Ratio (x) = 0.37686 0.25415
# Poissons Ratio (y) = 0.28340 0.61216
# Poissons Ratio (z) = 0.17546 0.56198
#
# Static dielectric constant tensor:
#      x y z
#    x 3.551950 0.000000 0.000000 
#    y 0.000000 3.924920 0.000000 
#    z 0.000000 0.000000 5.064900 
# 
# 
# High freq. dielectric constant tensor:
#      x y z
#    x 1.744380 0.000000 0.000000 
#    y 0.000000 1.752740 0.000000 
#    z 0.000000 0.000000 1.735660 
# 
# From -- ./inp_files/6610.got.cif
#   From: 2010.03.12/outbox.cif.g09.slc.cpg/sg53_4_cif.got.tgz:6610.got - 2010.04.16 14:36:59.
