data_PCOD8221310
_publ_section_title
;
Structure prediction by ZEFSAII (Michael W. Deem and Ramdas Pophale) SiO2 
 PCOD8221310
Probable space group: P M N A
;
_chemical_formula_sum "Si O2"
_cell_formula_units_Z 40
_cell_length_a 14.163630
_cell_length_b 7.547250
_cell_length_c 17.013120
_cell_angle_alpha 90.000000
_cell_angle_beta 90.000000
_cell_angle_gamma 90.000000
_cell_volume 1818.642242
_symmetry_space_group_name_H-M "P M N A"
_symmetry_group_IT_number 53
_symmetry_cell_setting 'orthorhombic'
loop_
_space_group_symop_operation_xyz
x,y,z
1/2-x,-y,1/2+z
x,-y,-z
1/2-x,y,1/2-z
-x,-y,-z
1/2+x,y,1/2-z
-x,y,z
1/2+x,-y,1/2+z
loop_
_atom_site_type_symbol
_atom_site_label
_atom_site_fract_x
_atom_site_fract_y
_atom_site_fract_z
Si Si1 0.887039 0.765133 0.354277
Si Si2 0.609033 0.361434 0.159795
Si Si3 0.103451 0.148413 0.062306
Si Si4 0.291186 0.701985 0.989509
Si Si5 0.890608 0.947322 0.768928
O O1 0.857811 0.564948 0.328777
O O2 0.832067 0.811907 0.436042
O O3 0.000000 0.784264 0.367215
O O4 0.846854 0.897863 0.286567
O O5 0.500000 0.359862 0.138851
O O6 0.657450 0.245555 0.091063
O O7 0.632089 0.250704 0.238164
O O8 0.178729 0.280939 0.023329
O O9 0.145832 0.056529 0.141361
O O10 0.000000 0.240643 0.079233
O O11 0.084264 0.000000 0.000000
O O12 0.319424 0.500000 0.000000
O O13 0.000000 0.990858 0.769005
#
# Coordination Sequence:
#
# PCOD8221310 Si02
#       5
#     8   8   8   8   8
#     4   9  18  35  61  94 125 150 185 236 299 366
#     4   9  18  34  59  92 126 152 182 234 296 363
#     4  10  23  43  60  78 111 157 209 253 287 334
#     4  10  21  37  58  89 122 155 193 236 298 357
#     4   9  19  37  61  86 113 154 198 240 295 343
#
# _framework density 21.994429
#
# number of rings (size 3 to 8) (size 9 to 14) (size 15 to 20)
#    0.000    2.600    0.000    0.600    2.800    3.600 
#    3.600    3.000    0.000    0.000    0.000    0.000 
#    0.000    0.000    0.000    0.000    0.000    0.000 
#
# Total GULP energy -495566.939947 kJ/mol
# GULP energy per Si atom -12389.173499 kJ/mol
# Density = 2.194437 g / cm^3
# Si number density = 21.994429 Si / 1000 Ang^3
#
#
#
# Elastic Constant Matrix: (Units=GPa)
#
#
# Indices 1 2 3 4 5 6 
#
# 1 67.6712 20.8857 43.8717 0.0000 0.0000 0.0000
# 2 20.8857 61.2095 33.1945 0.0000 0.0000 0.0000
# 3 43.8717 33.1945 143.2291 0.0000 0.0000 0.0000
# 4 0.0000 0.0000 0.0000 12.8531 0.0000 0.0000
# 5 0.0000 0.0000 0.0000 0.0000 35.5773 0.0000
# 6 0.0000 0.0000 0.0000 0.0000 0.0000 21.4744
#
#
#
# Elastic Compliance Matrix: (Units=1/GPa)
#
#
# Indices 1 2 3 4 5 6 
#
# 1 0.019199 -0.003845 -0.004990 0.000000 0.000000 0.000000
# 2 -0.003845 0.019456 -0.003331 0.000000 0.000000 0.000000
# 3 -0.004990 -0.003331 0.009282 0.000000 0.000000 0.000000
# 4 0.000000 0.000000 0.000000 0.077802 0.000000 0.000000
# 5 0.000000 0.000000 0.000000 0.000000 0.028108 0.000000
# 6 0.000000 0.000000 0.000000 0.000000 0.000000 0.046567
#
#
# Mechanical properties :
#
#
# Convention : Reuss Voigt Hill
#
# Bulk Modulus (GPa) = 42.36374 52.00151 47.18263
# Shear Modulus (GPa) = 21.49479 25.59147 23.54313
#
# Velocity S-wave (km/s) = 3.12954 3.41478 3.27527
# Velocity P-wave (km/s) = 5.68873 6.26434 5.98346
#
# Compressibility (1/GPa) = 0.02360509
#
# Stress axis : x y z
#
# Youngs Moduli (GPa) = 52.08651 51.39817 107.73298
#
# Poissons Ratio (x) = 0.19763 0.53754
# Poissons Ratio (y) = 0.20028 0.35889
# Poissons Ratio (z) = 0.25989 0.17122
#
# Static dielectric constant tensor:
#      x y z
#    x 4.037730 0.000000 0.000000 
#    y 0.000000 3.874490 0.000000 
#    z 0.000000 0.000000 4.411410 
# 
# 
# High freq. dielectric constant tensor:
#      x y z
#    x 1.860700 0.000000 0.000000 
#    y 0.000000 1.843450 0.000000 
#    z 0.000000 0.000000 1.873330 
# 
# From -- ./inp_files/22386.got.cif
#   From: 2010.03.12/outbox.cif.g09.slc.cpg/sg53_12_cif.got.tgz:22386.got - 2010.04.16 14:36:59.
