data_PCOD8221973
_publ_section_title
;
Structure prediction by ZEFSAII (Michael W. Deem and Ramdas Pophale) SiO2 
 PCOD8221973
Probable space group: P M N A
;
_chemical_formula_sum "Si O2"
_cell_formula_units_Z 32
_cell_length_a 24.789644
_cell_length_b 6.035008
_cell_length_c 9.402156
_cell_angle_alpha 90.000000
_cell_angle_beta 90.000000
_cell_angle_gamma 90.000000
_cell_volume 1406.616129
_symmetry_space_group_name_H-M "P M N A"
_symmetry_group_IT_number 53
_symmetry_cell_setting 'orthorhombic'
loop_
_space_group_symop_operation_xyz
x,y,z
1/2-x,-y,1/2+z
x,-y,-z
1/2-x,y,1/2-z
-x,-y,-z
1/2+x,y,1/2-z
-x,y,z
1/2+x,-y,1/2+z
loop_
_atom_site_type_symbol
_atom_site_label
_atom_site_fract_x
_atom_site_fract_y
_atom_site_fract_z
Si Si1 0.156629 0.599247 0.148936
Si Si2 0.617269 0.000000 0.000000
Si Si3 0.793551 0.317933 0.382883
Si Si4 0.439152 0.361210 0.855892
Si Si5 0.208483 0.000000 0.000000
O O1 0.202014 0.451379 0.231662
O O2 0.102210 0.561597 0.236754
O O3 0.174501 0.853311 0.115169
O O4 0.142463 0.500000 0.000000
O O5 0.652131 0.187403 0.078434
O O6 0.577554 0.891985 0.114868
O O7 0.781058 0.500000 0.500000
O O8 0.743782 0.146350 0.390660
O O9 0.500000 0.374406 0.797029
O O10 0.432536 0.500000 0.000000
#
# Coordination Sequence:
#
# PCOD8221973 Si02
#       5
#     8   4   8   8   4
#     4  12  27  47  67 106 149 188 235 297 360 437
#     4  11  19  44  79 102 133 180 241 305 344 422
#     4  11  24  48  71 101 140 188 248 293 347 428
#     4  11  24  47  78 106 136 186 247 306 359 418
#     4  11  30  44  74 100 148 200 240 289 364 432
#
# _framework density 22.74963
#
# number of rings (size 3 to 8) (size 9 to 14) (size 15 to 20)
#    0.000    0.750    5.000    1.125    3.500    6.500 
#    0.000    0.625    0.000    0.000    0.000    0.000 
#    0.000    0.000    0.000    0.000    0.000    0.000 
#
# Total GULP energy -396591.220933 kJ/mol
# GULP energy per Si atom -12393.475654 kJ/mol
# Density = 2.269785 g / cm^3
# Si number density = 22.749630 Si / 1000 Ang^3
#
#
#
# Elastic Constant Matrix: (Units=GPa)
#
#
# Indices 1 2 3 4 5 6 
#
# 1 162.0529 61.8836 66.9484 0.0000 0.0000 0.0000
# 2 61.8836 135.4395 57.1192 0.0000 0.0000 0.0000
# 3 66.9484 57.1192 157.1322 0.0000 0.0000 0.0000
# 4 0.0000 0.0000 0.0000 53.9514 0.0000 0.0000
# 5 0.0000 0.0000 0.0000 0.0000 56.5002 0.0000
# 6 0.0000 0.0000 0.0000 0.0000 0.0000 -18.7146
#
#
#
# Elastic Compliance Matrix: (Units=1/GPa)
#
#
# Indices 1 2 3 4 5 6 
#
# 1 0.008248 -0.002701 -0.002533 0.000000 0.000000 0.000000
# 2 -0.002701 0.009604 -0.002341 0.000000 0.000000 0.000000
# 3 -0.002533 -0.002341 0.008294 0.000000 0.000000 0.000000
# 4 0.000000 0.000000 0.000000 0.018535 0.000000 0.000000
# 5 0.000000 0.000000 0.000000 0.000000 0.017699 0.000000
# 6 0.000000 0.000000 0.000000 0.000000 0.000000 -0.053434
#
#
# Mechanical properties :
#
#
# Convention : Reuss Voigt Hill
#
# Bulk Modulus (GPa) = 90.91797 91.83634 91.37715
# Shear Modulus (GPa) = 180.10748 36.25897 108.18322
#
# Velocity S-wave (km/s) = 8.90737 3.99661 6.90341
# Velocity P-wave (km/s) = 12.07641 7.85831 10.18805
#
# Compressibility (1/GPa) = 0.01099893
#
# Stress axis : x y z
#
# Youngs Moduli (GPa) = 121.23491 104.11813 120.56925
#
# Poissons Ratio (x) = 0.28119 0.30536
# Poissons Ratio (y) = 0.32742 0.28221
# Poissons Ratio (z) = 0.30704 0.24370
#
# Static dielectric constant tensor:
#      x y z
#    x 4.179360 0.000000 0.000000 
#    y 0.000000 6.414110 0.000000 
#    z 0.000000 0.000000 3.962050 
# 
# 
# High freq. dielectric constant tensor:
#      x y z
#    x 1.895630 0.000000 0.000000 
#    y 0.000000 1.921720 0.000000 
#    z 0.000000 0.000000 1.899600 
# 
# From -- ./inp_files/12713.got.cif
#   From: 2010.03.12/outbox.cif.g09.slc.cpg/sg53_7_cif.got.tgz:12713.got - 2010.04.16 14:36:59.
