data_PCOD8221669
_publ_section_title
;
Structure prediction by ZEFSAII (Michael W. Deem and Ramdas Pophale) SiO2 
 PCOD8221669
Probable space group: P M N A
;
_chemical_formula_sum "Si O2"
_cell_formula_units_Z 64
_cell_length_a 8.858169
_cell_length_b 11.870003
_cell_length_c 30.714501
_cell_angle_alpha 90.000000
_cell_angle_beta 90.000000
_cell_angle_gamma 90.000000
_cell_volume 3229.522052
_symmetry_space_group_name_H-M "P M N A"
_symmetry_group_IT_number 53
_symmetry_cell_setting 'orthorhombic'
loop_
_space_group_symop_operation_xyz
x,y,z
1/2-x,-y,1/2+z
x,-y,-z
1/2-x,y,1/2-z
-x,-y,-z
1/2+x,y,1/2-z
-x,y,z
1/2+x,-y,1/2+z
loop_
_atom_site_type_symbol
_atom_site_label
_atom_site_fract_x
_atom_site_fract_y
_atom_site_fract_z
Si Si1 0.676105 0.507748 0.049027
Si Si2 0.824845 0.250387 0.587887
Si Si3 0.173898 0.047097 0.953174
Si Si4 0.321896 0.505392 0.294801
Si Si5 0.178214 0.635515 0.877266
Si Si6 0.825148 0.106751 0.128355
Si Si7 0.322713 0.755229 0.320566
Si Si8 0.677647 0.022099 0.793055
O O1 0.500000 0.480643 0.049864
O O2 0.713418 0.631198 0.066324
O O3 0.755835 0.415192 0.078667
O O4 0.739775 0.500000 0.000000
O O5 0.717512 0.234232 0.628989
O O6 0.000000 0.241330 0.601552
O O7 0.782990 0.153009 0.554008
O O8 0.205727 0.949741 0.918085
O O9 0.000000 0.086564 0.951410
O O10 0.217544 0.000000 0.000000
O O11 0.250000 0.460741 0.250000
O O12 0.500000 0.493544 0.291105
O O13 0.259561 0.430606 0.334830
O O14 0.271974 0.633964 0.302722
O O15 0.229377 0.764621 0.873949
O O16 0.000000 0.623316 0.879991
O O17 0.727554 0.043986 0.164317
O O18 0.000000 0.098086 0.141765
O O19 0.500000 0.776713 0.314945
O O20 0.231532 0.848556 0.294122
O O21 0.750000 0.965177 0.750000
O O22 0.500000 0.017527 0.789069
#
# Coordination Sequence:
#
# PCOD8221669 Si02
#       8
#     8   8   8   8   8   8   8   8
#     4  10  23  41  60  88 125 162 201 248 301 357
#     4  11  22  37  61  91 122 160 201 250 304 358
#     4  10  22  39  61  90 122 160 202 249 305 359
#     4  10  22  38  59  87 118 152 194 243 295 355
#     4  10  22  41  62  88 119 158 205 249 298 357
#     4  10  22  41  62  86 123 161 202 255 302 356
#     4  11  21  38  62  90 124 156 195 249 303 359
#     4  12  25  41  63  91 123 160 204 248 302 362
#
# _framework density 19.817171999999999
#
# number of rings (size 3 to 8) (size 9 to 14) (size 15 to 20)
#    0.000    1.500    2.500    2.250    1.750    4.500 
#    0.000    1.250    0.000    0.000    0.000    0.000 
#    0.000    0.000    0.000    0.000    0.000    0.000 
#
# Total GULP energy -793948.541059 kJ/mol
# GULP energy per Si atom -12405.445954 kJ/mol
# Density = 1.977207 g / cm^3
# Si number density = 19.817172 Si / 1000 Ang^3
#
#
#
# Elastic Constant Matrix: (Units=GPa)
#
#
# Indices 1 2 3 4 5 6 
#
# 1 69.7245 43.5084 42.0101 0.0000 0.0000 0.0000
# 2 43.5084 117.6604 43.0287 0.0000 0.0000 0.0000
# 3 42.0101 43.0287 144.3943 0.0000 0.0000 0.0000
# 4 0.0000 0.0000 0.0000 -18.7007 0.0000 0.0000
# 5 0.0000 0.0000 0.0000 0.0000 33.3296 0.0000
# 6 0.0000 0.0000 0.0000 0.0000 0.0000 -0.1637
#
#
#
# Elastic Compliance Matrix: (Units=1/GPa)
#
#
# Indices 1 2 3 4 5 6 
#
# 1 0.020686 -0.006115 -0.004196 0.000000 0.000000 0.000000
# 2 -0.006115 0.011346 -0.001602 0.000000 0.000000 0.000000
# 3 -0.004196 -0.001602 0.008624 0.000000 0.000000 0.000000
# 4 0.000000 0.000000 0.000000 -0.053474 0.000000 0.000000
# 5 0.000000 0.000000 0.000000 0.000000 0.030003 0.000000
# 6 0.000000 0.000000 0.000000 0.000000 0.000000 -6.107830
#
#
# Mechanical properties :
#
#
# Convention : Reuss Voigt Hill
#
# Bulk Modulus (GPa) = 59.41834 65.43039 62.42436
# Shear Modulus (GPa) = -0.82492 16.44182 7.80845
#
# Velocity S-wave (km/s) = -0.64589 2.88353 1.98716
# Velocity P-wave (km/s) = 5.43067 6.64643 6.06907
#
# Compressibility (1/GPa) = 0.01682982
#
# Stress axis : x y z
#
# Youngs Moduli (GPa) = 48.34174 88.13684 115.95903
#
# Poissons Ratio (x) = 0.53893 0.48659
# Poissons Ratio (y) = 0.29559 0.18577
# Poissons Ratio (z) = 0.20285 0.14120
#
# Static dielectric constant tensor:
#      x y z
#    x 3.466010 0.000000 0.000000 
#    y 0.000000 3.755660 0.000000 
#    z 0.000000 0.000000 3.643750 
# 
# 
# High freq. dielectric constant tensor:
#      x y z
#    x 1.765440 0.000000 0.000000 
#    y 0.000000 1.776200 0.000000 
#    z 0.000000 0.000000 1.787780 
# 
# From -- ./inp_files/38250.got.cif
#   From: 2010.03.12/outbox.cif.g09.slc.cpg/sg53_20_cif.got.tgz:38250.got - 2010.04.16 14:36:59.
