data_PCOD8221538
_publ_section_title
;
Structure prediction by ZEFSAII (Michael W. Deem and Ramdas Pophale) SiO2 
 PCOD8221538
Probable space group: P M N A
;
_chemical_formula_sum "Si O2"
_cell_formula_units_Z 32
_cell_length_a 12.807211
_cell_length_b 9.908553
_cell_length_c 12.849141
_cell_angle_alpha 90.000000
_cell_angle_beta 90.000000
_cell_angle_gamma 90.000000
_cell_volume 1630.567929
_symmetry_space_group_name_H-M "P M N A"
_symmetry_group_IT_number 53
_symmetry_cell_setting 'orthorhombic'
loop_
_space_group_symop_operation_xyz
x,y,z
1/2-x,-y,1/2+z
x,-y,-z
1/2-x,y,1/2-z
-x,-y,-z
1/2+x,y,1/2-z
-x,y,z
1/2+x,-y,1/2+z
loop_
_atom_site_type_symbol
_atom_site_label
_atom_site_fract_x
_atom_site_fract_y
_atom_site_fract_z
Si Si1 0.250000 0.011756 0.250000
Si Si2 0.274396 0.138925 0.036186
Si Si3 0.750000 0.558751 0.250000
Si Si4 0.876589 0.205353 0.849221
Si Si5 0.387399 0.398608 0.091957
O O1 0.242830 0.114782 0.154980
O O2 0.150917 0.909214 0.237660
O O3 0.353132 0.262021 0.034224
O O4 0.175885 0.167678 0.960225
O O5 0.330678 0.000000 0.000000
O O6 0.665040 0.650081 0.309610
O O7 0.804253 0.456135 0.328396
O O8 0.000000 0.214333 0.865103
O O9 0.500000 0.374570 0.147283
O O10 0.403852 0.500000 0.000000
#
# Coordination Sequence:
#
# PCOD8221538 Si02
#       5
#     4   8   4   8   8
#     4   9  21  36  60  90 128 160 202 258 316 364
#     4  10  21  41  61  92 127 163 205 263 305 376
#     4  11  21  42  64  92 126 166 210 268 306 376
#     4  10  21  39  65  93 125 168 211 259 318 374
#     4  11  23  40  64  91 124 166 206 254 316 374
#
# _framework density 19.625063999999998
#
# number of rings (size 3 to 8) (size 9 to 14) (size 15 to 20)
#    0.000    1.750    2.500    1.500    0.000    6.000 
#    0.000    6.250    0.000    0.000    0.000    0.000 
#    0.000    0.000    0.000    0.000    0.000    0.000 
#
# Total GULP energy -396489.167131 kJ/mol
# GULP energy per Si atom -12390.286473 kJ/mol
# Density = 1.958040 g / cm^3
# Si number density = 19.625064 Si / 1000 Ang^3
#
#
#
# Elastic Constant Matrix: (Units=GPa)
#
#
# Indices 1 2 3 4 5 6 
#
# 1 141.6317 64.5346 42.9913 0.0000 0.0000 0.0000
# 2 64.5346 138.2686 35.5263 0.0000 0.0000 0.0000
# 3 42.9913 35.5263 99.2224 0.0000 0.0000 0.0000
# 4 0.0000 0.0000 0.0000 33.9713 0.0000 0.0000
# 5 0.0000 0.0000 0.0000 0.0000 17.5837 0.0000
# 6 0.0000 0.0000 0.0000 0.0000 0.0000 31.6491
#
#
#
# Elastic Compliance Matrix: (Units=1/GPa)
#
#
# Indices 1 2 3 4 5 6 
#
# 1 0.009637 -0.003772 -0.002825 0.000000 0.000000 0.000000
# 2 -0.003772 0.009441 -0.001746 0.000000 0.000000 0.000000
# 3 -0.002825 -0.001746 0.011928 0.000000 0.000000 0.000000
# 4 0.000000 0.000000 0.000000 0.029437 0.000000 0.000000
# 5 0.000000 0.000000 0.000000 0.000000 0.056871 0.000000
# 6 0.000000 0.000000 0.000000 0.000000 0.000000 0.031596
#
#
# Mechanical properties :
#
#
# Convention : Reuss Voigt Hill
#
# Bulk Modulus (GPa) = 69.83380 73.91412 71.87396
# Shear Modulus (GPa) = 29.34807 32.37885 30.86346
#
# Velocity S-wave (km/s) = 3.87128 4.06627 3.96997
# Velocity P-wave (km/s) = 7.45947 7.73246 7.59719
#
# Compressibility (1/GPa) = 0.01431971
#
# Stress axis : x y z
#
# Youngs Moduli (GPa) = 103.76947 105.91581 83.83955
#
# Poissons Ratio (x) = 0.39951 0.23684
# Poissons Ratio (y) = 0.39142 0.14640
# Poissons Ratio (z) = 0.29314 0.18495
#
# Static dielectric constant tensor:
#      x y z
#    x 3.583020 0.000000 0.000000 
#    y 0.000000 3.901300 0.000000 
#    z 0.000000 0.000000 3.554980 
# 
# 
# High freq. dielectric constant tensor:
#      x y z
#    x 1.741790 0.000000 0.000000 
#    y 0.000000 1.785750 0.000000 
#    z 0.000000 0.000000 1.771310 
# 
# From -- ./inp_files/15455.got.cif
#   From: 2010.03.12/outbox.cif.g09.slc.cpg/sg53_8_cif.got.tgz:15455.got - 2010.04.16 14:36:59.
