data_PCOD8221848
_publ_section_title
;
Structure prediction by ZEFSAII (Michael W. Deem and Ramdas Pophale) SiO2 
 PCOD8221848
Probable space group: P M N A
;
_chemical_formula_sum "Si O2"
_cell_formula_units_Z 32
_cell_length_a 10.019611
_cell_length_b 11.334789
_cell_length_c 13.543838
_cell_angle_alpha 90.000000
_cell_angle_beta 90.000000
_cell_angle_gamma 90.000000
_cell_volume 1538.176073
_symmetry_space_group_name_H-M "P M N A"
_symmetry_group_IT_number 53
_symmetry_cell_setting 'orthorhombic'
loop_
_space_group_symop_operation_xyz
x,y,z
1/2-x,-y,1/2+z
x,-y,-z
1/2-x,y,1/2-z
-x,-y,-z
1/2+x,y,1/2-z
-x,y,z
1/2+x,-y,1/2+z
loop_
_atom_site_type_symbol
_atom_site_label
_atom_site_fract_x
_atom_site_fract_y
_atom_site_fract_z
Si Si1 0.000000 0.376642 0.952839
Si Si2 0.733666 0.308226 0.857706
Si Si3 0.500000 0.826810 0.603302
Si Si4 0.500000 0.512199 0.116435
Si Si5 0.000000 0.759913 0.669314
Si Si6 0.714285 0.873216 0.968865
O O1 0.873929 0.363975 0.883858
O O2 0.000000 0.500000 0.000000
O O3 0.000000 0.295666 0.048015
O O4 0.750000 0.248508 0.750000
O O5 0.629655 0.415306 0.851221
O O6 0.694381 0.208480 0.935461
O O7 0.500000 0.805085 0.719346
O O8 0.633935 0.894576 0.568479
O O9 0.500000 0.382587 0.165953
O O10 0.500000 0.500000 0.000000
O O11 0.868221 0.812337 0.618418
O O12 0.655451 0.000000 0.000000
#
# Coordination Sequence:
#
# PCOD8221848 Si02
#       6
#     4   8   4   4   4   8
#     4  10  23  40  60  92 130 167 210 258 314 387
#     4  11  24  40  64  96 128 171 213 262 323 380
#     4  10  25  42  65  97 128 167 213 262 322 377
#     4  12  23  43  63  94 138 167 205 270 321 381
#     4  12  25  41  67 100 128 170 213 261 325 382
#     4  11  24  46  67  93 130 170 218 268 315 374
#
# _framework density 20.80386
#
# number of rings (size 3 to 8) (size 9 to 14) (size 15 to 20)
#    0.000    1.000    2.500    3.000    7.000    2.000 
#    0.000    0.000    0.000    0.000    0.000    0.000 
#    0.000    0.000    0.000    0.000    0.000    0.000 
#
# Total GULP energy -396803.421230 kJ/mol
# GULP energy per Si atom -12400.106913 kJ/mol
# Density = 2.075651 g / cm^3
# Si number density = 20.803860 Si / 1000 Ang^3
#
#
#
# Elastic Constant Matrix: (Units=GPa)
#
#
# Indices 1 2 3 4 5 6 
#
# 1 133.6503 47.0808 35.7225 0.0000 0.0000 0.0000
# 2 47.0808 130.0454 41.7572 0.0000 0.0000 0.0000
# 3 35.7225 41.7572 168.2296 0.0000 0.0000 0.0000
# 4 0.0000 0.0000 0.0000 10.7964 0.0000 0.0000
# 5 0.0000 0.0000 0.0000 0.0000 -56.2332 0.0000
# 6 0.0000 0.0000 0.0000 0.0000 0.0000 24.9331
#
#
#
# Elastic Compliance Matrix: (Units=1/GPa)
#
#
# Indices 1 2 3 4 5 6 
#
# 1 0.008782 -0.002804 -0.001169 0.000000 0.000000 0.000000
# 2 -0.002804 0.009251 -0.001701 0.000000 0.000000 0.000000
# 3 -0.001169 -0.001701 0.006615 0.000000 0.000000 0.000000
# 4 0.000000 0.000000 0.000000 0.092623 0.000000 0.000000
# 5 0.000000 0.000000 0.000000 0.000000 -0.017783 0.000000
# 6 0.000000 0.000000 0.000000 0.000000 0.000000 0.040107
#
#
# Mechanical properties :
#
#
# Convention : Reuss Voigt Hill
#
# Bulk Modulus (GPa) = 75.18608 75.67183 75.42896
# Shear Modulus (GPa) = 32.17990 16.39026 24.28508
#
# Velocity S-wave (km/s) = 3.93723 2.80991 3.42034
# Velocity P-wave (km/s) = 7.54241 6.85422 7.20654
#
# Compressibility (1/GPa) = 0.01330033
#
# Stress axis : x y z
#
# Youngs Moduli (GPa) = 113.86317 108.09686 151.18046
#
# Poissons Ratio (x) = 0.30313 0.17671
# Poissons Ratio (y) = 0.31930 0.25712
# Poissons Ratio (z) = 0.13309 0.18385
#
# Static dielectric constant tensor:
#      x y z
#    x 4.804470 0.000000 0.000000 
#    y 0.000000 3.760810 0.000000 
#    z 0.000000 0.000000 3.878550 
# 
# 
# High freq. dielectric constant tensor:
#      x y z
#    x 1.833070 0.000000 0.000000 
#    y 0.000000 1.810190 0.000000 
#    z 0.000000 0.000000 1.829950 
# 
# From -- ./inp_files/19669.got.cif
#   From: 2010.03.12/outbox.cif.g09.slc.cpg/sg53_10_cif.got.tgz:19669.got - 2010.04.16 14:36:59.
