data_PCOD8221726
_publ_section_title
;
Structure prediction by ZEFSAII (Michael W. Deem and Ramdas Pophale) SiO2 
 PCOD8221726
Probable space group: P M N A
;
_chemical_formula_sum "Si O2"
_cell_formula_units_Z 48
_cell_length_a 13.898817
_cell_length_b 9.703682
_cell_length_c 16.159146
_cell_angle_alpha 90.000000
_cell_angle_beta 90.000000
_cell_angle_gamma 90.000000
_cell_volume 2179.379179
_symmetry_space_group_name_H-M "P M N A"
_symmetry_group_IT_number 53
_symmetry_cell_setting 'orthorhombic'
loop_
_space_group_symop_operation_xyz
x,y,z
1/2-x,-y,1/2+z
x,-y,-z
1/2-x,y,1/2-z
-x,-y,-z
1/2+x,y,1/2-z
-x,y,z
1/2+x,-y,1/2+z
loop_
_atom_site_type_symbol
_atom_site_label
_atom_site_fract_x
_atom_site_fract_y
_atom_site_fract_z
Si Si1 0.500000 0.149493 0.179211
Si Si2 0.500000 0.179271 0.366199
Si Si3 0.696348 0.714671 0.072072
Si Si4 0.792017 0.525922 0.841014
Si Si5 0.500000 0.663854 0.982651
Si Si6 0.000000 0.517524 0.902415
Si Si7 0.197488 0.816960 0.923314
Si Si8 0.811790 0.021866 0.669096
O O1 0.500000 0.217985 0.269246
O O2 0.584218 0.040012 0.178197
O O3 0.500000 0.275693 0.112242
O O4 0.500000 0.322013 0.411281
O O5 0.404110 0.107700 0.402044
O O6 0.719718 0.559161 0.099808
O O7 0.596239 0.723811 0.023056
O O8 0.686970 0.814901 0.151082
O O9 0.786881 0.764862 0.016579
O O10 0.750000 0.502991 0.750000
O O11 0.784865 0.687131 0.862047
O O12 0.902100 0.468115 0.854310
O O13 0.500000 0.500000 0.000000
O O14 0.000000 0.500000 0.000000
O O15 0.271523 0.939335 0.909199
O O16 0.750000 0.991142 0.750000
#
# Coordination Sequence:
#
# PCOD8221726 Si02
#       8
#     4   4   8   8   4   4   8   8
#     4  12  25  44  69  98 134 177 230 279 347 417
#     4  10  22  39  69 103 123 176 230 289 323 407
#     4  12  26  43  66 101 143 178 226 288 359 411
#     4  11  24  42  68 101 138 184 228 292 348 419
#     4  12  27  43  70 106 141 181 232 292 353 432
#     4  10  22  42  67  98 143 178 226 282 362 411
#     4  11  22  42  69  97 132 178 236 279 338 416
#     4  12  25  45  68  96 135 181 227 282 345 417
#
# _framework density 22.024619999999999
#
# number of rings (size 3 to 8) (size 9 to 14) (size 15 to 20)
#    0.000    0.667    3.333    5.500    2.333    1.333 
#    0.000    5.833    0.000    0.000    0.000    0.000 
#    0.000    0.000    0.000    0.000    0.000    0.000 
#
# Total GULP energy -594688.280975 kJ/mol
# GULP energy per Si atom -12389.339187 kJ/mol
# Density = 2.197449 g / cm^3
# Si number density = 22.024620 Si / 1000 Ang^3
#
#
#
# Elastic Constant Matrix: (Units=GPa)
#
#
# Indices 1 2 3 4 5 6 
#
# 1 146.9461 23.2114 45.9097 0.0000 0.0000 0.0000
# 2 23.2114 75.5594 8.3002 0.0000 0.0000 0.0000
# 3 45.9097 8.3002 96.1626 0.0000 0.0000 0.0000
# 4 0.0000 0.0000 0.0000 34.6670 0.0000 0.0000
# 5 0.0000 0.0000 0.0000 0.0000 33.9661 0.0000
# 6 0.0000 0.0000 0.0000 0.0000 0.0000 167.3341
#
#
#
# Elastic Compliance Matrix: (Units=1/GPa)
#
#
# Indices 1 2 3 4 5 6 
#
# 1 0.008328 -0.002142 -0.003791 0.000000 0.000000 0.000000
# 2 -0.002142 0.013912 -0.000178 0.000000 0.000000 0.000000
# 3 -0.003791 -0.000178 0.012224 0.000000 0.000000 0.000000
# 4 0.000000 0.000000 0.000000 0.028846 0.000000 0.000000
# 5 0.000000 0.000000 0.000000 0.000000 0.029441 0.000000
# 6 0.000000 0.000000 0.000000 0.000000 0.000000 0.005976
#
#
# Mechanical properties :
#
#
# Convention : Reuss Voigt Hill
#
# Bulk Modulus (GPa) = 44.95962 52.61228 48.78595
# Shear Modulus (GPa) = 42.24262 63.27657 52.75959
#
# Velocity S-wave (km/s) = 4.38422 5.36585 4.89968
# Velocity P-wave (km/s) = 6.78868 7.89491 7.36260
#
# Compressibility (1/GPa) = 0.02224218
#
# Stress axis : x y z
#
# Youngs Moduli (GPa) = 120.07744 71.87950 81.80393
#
# Poissons Ratio (x) = 0.15396 0.31012
# Poissons Ratio (y) = 0.25719 0.01458
# Poissons Ratio (z) = 0.45522 0.01281
#
# Static dielectric constant tensor:
#      x y z
#    x -13.289210 0.000000 0.000000 
#    y 0.000000 3.874740 0.000000 
#    z 0.000000 0.000000 4.056270 
# 
# 
# High freq. dielectric constant tensor:
#      x y z
#    x 1.885640 0.000000 0.000000 
#    y 0.000000 1.857110 0.000000 
#    z 0.000000 0.000000 1.867230 
# 
# From -- ./inp_files/28343.got.cif
#   From: 2010.03.12/outbox.cif.g09.slc.cpg/sg53_15_cif.got.tgz:28343.got - 2010.04.16 14:36:59.
