data_PCOD8221592
_publ_section_title
;
Structure prediction by ZEFSAII (Michael W. Deem and Ramdas Pophale) SiO2 
 PCOD8221592
Probable space group: P M N A
;
_chemical_formula_sum "Si O2"
_cell_formula_units_Z 52
_cell_length_a 19.138464
_cell_length_b 21.256781
_cell_length_c 5.862079
_cell_angle_alpha 90.000000
_cell_angle_beta 90.000000
_cell_angle_gamma 90.000000
_cell_volume 2384.823511
_symmetry_space_group_name_H-M "P M N A"
_symmetry_group_IT_number 53
_symmetry_cell_setting 'orthorhombic'
loop_
_space_group_symop_operation_xyz
x,y,z
1/2-x,-y,1/2+z
x,-y,-z
1/2-x,y,1/2-z
-x,-y,-z
1/2+x,y,1/2-z
-x,y,z
1/2+x,-y,1/2+z
loop_
_atom_site_type_symbol
_atom_site_label
_atom_site_fract_x
_atom_site_fract_y
_atom_site_fract_z
Si Si1 0.800004 0.931336 0.556345
Si Si2 0.000000 0.535183 0.247360
Si Si3 0.922040 0.756943 0.521029
Si Si4 0.577035 0.653060 0.326989
Si Si5 0.079072 0.934583 0.869451
Si Si6 0.182117 0.728708 0.892147
Si Si7 0.155856 0.839353 0.192105
O O1 0.750000 0.901451 0.750000
O O2 0.880607 0.940733 0.629940
O O3 0.794057 0.882983 0.347141
O O4 0.767850 0.000000 0.500000
O O5 0.000000 0.500000 0.500000
O O6 0.929702 0.578810 0.236000
O O7 0.000000 0.500000 0.000000
O O8 0.908805 0.688599 0.410059
O O9 0.870086 0.766313 0.729404
O O10 0.907537 0.810864 0.337385
O O11 0.000000 0.764563 0.613763
O O12 0.500000 0.675173 0.425718
O O13 0.640450 0.668285 0.502356
O O14 0.000000 0.914091 0.817890
O O15 0.119649 0.881601 0.004644
O O16 0.082368 0.000000 0.000000
O O17 0.250000 0.705518 0.750000
O O18 0.200911 0.780932 0.084408
#
# Coordination Sequence:
#
# PCOD8221592 Si02
#       7
#     8   4   8   8   8   8   8
#     4  12  27  46  66  87 115 164 214 280 355 432
#     4  10  22  38  74 128 158 196 254 308 352 398
#     4  10  21  40  67  92 132 175 224 281 349 405
#     4   8  20  38  66 105 147 187 237 298 339 409
#     4  11  24  43  66  91 120 157 206 277 362 449
#     4  11  24  41  64  98 136 187 228 288 357 425
#     4  11  25  43  60  93 124 161 224 286 349 434
#
# _framework density 21.804548
#
# number of rings (size 3 to 8) (size 9 to 14) (size 15 to 20)
#    0.462    1.077    1.538    2.308    2.154   10.769 
#    0.000    0.000    0.000    0.000    4.000    0.000 
#    0.000    0.000    0.000    0.000    0.000    0.000 
#
# Total GULP energy -644344.797528 kJ/mol
# GULP energy per Si atom -12391.246106 kJ/mol
# Density = 2.175492 g / cm^3
# Si number density = 21.804548 Si / 1000 Ang^3
#
#
#
# Elastic Constant Matrix: (Units=GPa)
#
#
# Indices 1 2 3 4 5 6 
#
# 1 125.3049 29.1615 56.5033 0.0000 0.0000 0.0000
# 2 29.1615 125.0135 47.3819 0.0000 0.0000 0.0000
# 3 56.5033 47.3819 98.1979 0.0000 0.0000 0.0000
# 4 0.0000 0.0000 0.0000 34.5983 0.0000 0.0000
# 5 0.0000 0.0000 0.0000 0.0000 45.2431 0.0000
# 6 0.0000 0.0000 0.0000 0.0000 0.0000 24.4434
#
#
#
# Elastic Compliance Matrix: (Units=1/GPa)
#
#
# Indices 1 2 3 4 5 6 
#
# 1 0.010781 -0.000200 -0.006107 0.000000 0.000000 0.000000
# 2 -0.000200 0.009793 -0.004610 0.000000 0.000000 0.000000
# 3 -0.006107 -0.004610 0.015922 0.000000 0.000000 0.000000
# 4 0.000000 0.000000 0.000000 0.028903 0.000000 0.000000
# 5 0.000000 0.000000 0.000000 0.000000 0.022103 0.000000
# 6 0.000000 0.000000 0.000000 0.000000 0.000000 0.040911
#
#
# Mechanical properties :
#
#
# Convention : Reuss Voigt Hill
#
# Bulk Modulus (GPa) = 68.20530 68.28995 68.24762
# Shear Modulus (GPa) = 32.23027 35.22161 33.72594
#
# Velocity S-wave (km/s) = 3.84884 4.02348 3.93713
# Velocity P-wave (km/s) = 7.14840 7.27816 7.21357
#
# Compressibility (1/GPa) = 0.01466162
#
# Stress axis : x y z
#
# Youngs Moduli (GPa) = 92.75751 102.11231 62.80729
#
# Poissons Ratio (x) = 0.02045 0.38354
# Poissons Ratio (y) = 0.01858 0.28955
# Poissons Ratio (z) = 0.56644 0.47075
#
# Static dielectric constant tensor:
#      x y z
#    x 4.059160 0.000000 0.000000 
#    y 0.000000 3.817090 0.000000 
#    z 0.000000 0.000000 4.129160 
# 
# 
# High freq. dielectric constant tensor:
#      x y z
#    x 1.855550 0.000000 0.000000 
#    y 0.000000 1.831360 0.000000 
#    z 0.000000 0.000000 1.869000 
# 
# From -- ./inp_files/2985.got.cif
#   From: 2010.03.12/outbox.cif.g09.slc.cpg/sg53_2_cif.got.tgz:2985.got - 2010.04.16 14:36:59.
