data_PCOD8221374
_publ_section_title
;
Structure prediction by ZEFSAII (Michael W. Deem and Ramdas Pophale) SiO2 
 PCOD8221374
Probable space group: P M N A
;
_chemical_formula_sum "Si O2"
_cell_formula_units_Z 48
_cell_length_a 8.789274
_cell_length_b 30.279958
_cell_length_c 9.565161
_cell_angle_alpha 90.000000
_cell_angle_beta 90.000000
_cell_angle_gamma 90.000000
_cell_volume 2545.660925
_symmetry_space_group_name_H-M "P M N A"
_symmetry_group_IT_number 53
_symmetry_cell_setting 'orthorhombic'
loop_
_space_group_symop_operation_xyz
x,y,z
1/2-x,-y,1/2+z
x,-y,-z
1/2-x,y,1/2-z
-x,-y,-z
1/2+x,y,1/2-z
-x,y,z
1/2+x,-y,1/2+z
loop_
_atom_site_type_symbol
_atom_site_label
_atom_site_fract_x
_atom_site_fract_y
_atom_site_fract_z
Si Si1 0.180044 0.779258 0.096607
Si Si2 0.679046 0.459097 0.598194
Si Si3 0.322490 0.037646 0.900512
Si Si4 0.677786 0.865567 0.098512
Si Si5 0.676447 0.711381 0.894653
Si Si6 0.676259 0.391961 0.104165
O O1 0.250000 0.777385 0.250000
O O2 0.238899 0.824576 0.020031
O O3 0.000000 0.779004 0.103600
O O4 0.237168 0.736270 0.017181
O O5 0.723482 0.500000 0.500000
O O6 0.750000 0.466624 0.750000
O O7 0.500000 0.453659 0.615216
O O8 0.745387 0.415208 0.527376
O O9 0.250000 0.033082 0.750000
O O10 0.500000 0.029705 0.879621
O O11 0.293266 0.086201 0.970692
O O12 0.251505 0.000000 0.000000
O O13 0.750000 0.868871 0.250000
O O14 0.500000 0.854619 0.109180
O O15 0.750000 0.726810 0.750000
O O16 0.500000 0.724145 0.894064
O O17 0.702126 0.659715 0.919328
O O18 0.750000 0.407822 0.250000
O O19 0.500000 0.404801 0.109909
#
# Coordination Sequence:
#
# PCOD8221374 Si02
#       6
#     8   8   8   8   8   8
#     4  11  21  34  54  79 106 138 178 222 266 315
#     4  11  24  40  60  86 116 150 187 228 273 321
#     4   9  18  32  50  73 100 131 168 211 259 311
#     4   9  16  29  49  71  99 133 170 214 261 311
#     4  10  21  38  58  82 111 144 180 219 269 323
#     4  10  21  38  61  85 112 146 183 224 269 321
#
# _framework density 18.855613999999999
#
# number of rings (size 3 to 8) (size 9 to 14) (size 15 to 20)
#    0.000    2.000    0.000    5.000    0.000    6.333 
#    0.000    0.833    0.000    2.000    0.000    0.000 
#    0.000    0.000    0.000    0.000    0.000    0.000 
#
# Total GULP energy -595103.718199 kJ/mol
# GULP energy per Si atom -12397.994129 kJ/mol
# Density = 1.881270 g / cm^3
# Si number density = 18.855614 Si / 1000 Ang^3
#
#
#
# Elastic Constant Matrix: (Units=GPa)
#
#
# Indices 1 2 3 4 5 6 
#
# 1 135.5045 65.0812 58.8471 0.0000 0.0000 0.0000
# 2 65.0812 98.5536 62.0010 0.0000 0.0000 0.0000
# 3 58.8471 62.0010 104.9378 0.0000 0.0000 0.0000
# 4 0.0000 0.0000 0.0000 35.5159 0.0000 0.0000
# 5 0.0000 0.0000 0.0000 0.0000 32.3080 0.0000
# 6 0.0000 0.0000 0.0000 0.0000 0.0000 32.4405
#
#
#
# Elastic Compliance Matrix: (Units=1/GPa)
#
#
# Indices 1 2 3 4 5 6 
#
# 1 0.011407 -0.005584 -0.003098 0.000000 0.000000 0.000000
# 2 -0.005584 0.018883 -0.008025 0.000000 0.000000 0.000000
# 3 -0.003098 -0.008025 0.016008 0.000000 0.000000 0.000000
# 4 0.000000 0.000000 0.000000 0.028156 0.000000 0.000000
# 5 0.000000 0.000000 0.000000 0.000000 0.030952 0.000000
# 6 0.000000 0.000000 0.000000 0.000000 0.000000 0.030826
#
#
# Mechanical properties :
#
#
# Convention : Reuss Voigt Hill
#
# Bulk Modulus (GPa) = 77.61390 78.98382 78.29886
# Shear Modulus (GPa) = 28.74532 30.25731 29.50132
#
# Velocity S-wave (km/s) = 3.90872 4.01020 3.95978
# Velocity P-wave (km/s) = 7.84999 7.96379 7.90709
#
# Compressibility (1/GPa) = 0.01288429
#
# Stress axis : x y z
#
# Youngs Moduli (GPa) = 87.66545 52.95728 62.46794
#
# Poissons Ratio (x) = 0.29572 0.19350
# Poissons Ratio (y) = 0.48953 0.50133
# Poissons Ratio (z) = 0.27155 0.42500
#
# Static dielectric constant tensor:
#      x y z
#    x 3.601800 0.000000 0.000000 
#    y 0.000000 4.068370 0.000000 
#    z 0.000000 0.000000 3.255380 
# 
# 
# High freq. dielectric constant tensor:
#      x y z
#    x 1.748270 0.000000 0.000000 
#    y 0.000000 1.750960 0.000000 
#    z 0.000000 0.000000 1.705420 
# 
# From -- ./inp_files/6694.got.cif
#   From: 2010.03.12/outbox.cif.g09.slc.cpg/sg53_4_cif.got.tgz:6694.got - 2010.04.16 14:36:59.
