data_PCOD8221781
_publ_section_title
;
Structure prediction by ZEFSAII (Michael W. Deem and Ramdas Pophale) SiO2 
 PCOD8221781
Probable space group: P M N A
;
_chemical_formula_sum "Si O2"
_cell_formula_units_Z 48
_cell_length_a 14.935973
_cell_length_b 17.192917
_cell_length_c 9.830412
_cell_angle_alpha 90.000000
_cell_angle_beta 90.000000
_cell_angle_gamma 90.000000
_cell_volume 2524.380439
_symmetry_space_group_name_H-M "P M N A"
_symmetry_group_IT_number 53
_symmetry_cell_setting 'orthorhombic'
loop_
_space_group_symop_operation_xyz
x,y,z
1/2-x,-y,1/2+z
x,-y,-z
1/2-x,y,1/2-z
-x,-y,-z
1/2+x,y,1/2-z
-x,y,z
1/2+x,-y,1/2+z
loop_
_atom_site_type_symbol
_atom_site_label
_atom_site_fract_x
_atom_site_fract_y
_atom_site_fract_z
Si Si1 0.250000 0.318745 0.750000
Si Si2 0.753199 0.805531 0.478202
Si Si3 0.103661 0.070531 0.596511
Si Si4 0.750000 0.284803 0.250000
Si Si5 0.397236 0.600500 0.643367
Si Si6 0.102776 0.073974 0.910017
Si Si7 0.398112 0.424088 0.669959
O O1 0.258806 0.267967 0.616881
O O2 0.336776 0.373191 0.768926
O O3 0.841033 0.853118 0.438435
O O4 0.768192 0.773997 0.628014
O O5 0.663517 0.855966 0.462416
O O6 0.122057 0.049919 0.753962
O O7 0.000000 0.089273 0.569439
O O8 0.135983 0.000000 0.500000
O O9 0.663877 0.338474 0.276770
O O10 0.500000 0.626571 0.662758
O O11 0.382268 0.514550 0.704262
O O12 0.372363 0.596622 0.484795
O O13 0.000000 0.100188 0.929093
O O14 0.126782 0.000000 0.000000
O O15 0.500000 0.401025 0.699192
#
# Coordination Sequence:
#
# PCOD8221781 Si02
#       7
#     4   8   8   4   8   8   8
#     4  12  21  38  59  88 120 154 192 240 299 348
#     4  12  25  38  57  87 122 156 187 239 296 349
#     4  10  22  41  63  86 116 153 194 242 293 344
#     4  12  25  38  57  90 124 156 194 240 299 352
#     4   9  19  39  61  85 117 156 201 243 286 348
#     4  10  22  41  64  87 112 152 202 241 282 348
#     4   9  19  37  64  87 112 157 203 240 287 351
#
# _framework density 19.014565999999999
#
# number of rings (size 3 to 8) (size 9 to 14) (size 15 to 20)
#    0.000    1.667    3.333    2.000    2.333    2.667 
#    0.000    0.000    0.000    2.000    0.000    0.000 
#    0.000    0.000    0.000    0.000    0.000    0.000 
#
# Total GULP energy -595305.671077 kJ/mol
# GULP energy per Si atom -12402.201481 kJ/mol
# Density = 1.897129 g / cm^3
# Si number density = 19.014566 Si / 1000 Ang^3
#
#
#
# Elastic Constant Matrix: (Units=GPa)
#
#
# Indices 1 2 3 4 5 6 
#
# 1 110.8801 68.7635 40.9728 0.0000 0.0000 0.0000
# 2 68.7635 108.7800 53.1781 0.0000 0.0000 0.0000
# 3 40.9728 53.1781 106.7670 0.0000 0.0000 0.0000
# 4 0.0000 0.0000 0.0000 40.1987 0.0000 0.0000
# 5 0.0000 0.0000 0.0000 0.0000 27.5076 0.0000
# 6 0.0000 0.0000 0.0000 0.0000 0.0000 19.9430
#
#
#
# Elastic Compliance Matrix: (Units=1/GPa)
#
#
# Indices 1 2 3 4 5 6 
#
# 1 0.014983 -0.008804 -0.001365 0.000000 0.000000 0.000000
# 2 -0.008804 0.017325 -0.005251 0.000000 0.000000 0.000000
# 3 -0.001365 -0.005251 0.012505 0.000000 0.000000 0.000000
# 4 0.000000 0.000000 0.000000 0.024876 0.000000 0.000000
# 5 0.000000 0.000000 0.000000 0.000000 0.036354 0.000000
# 6 0.000000 0.000000 0.000000 0.000000 0.000000 0.050143
#
#
# Mechanical properties :
#
#
# Convention : Reuss Voigt Hill
#
# Bulk Modulus (GPa) = 71.55962 72.47285 72.01624
# Shear Modulus (GPa) = 26.08476 28.43071 27.25774
#
# Velocity S-wave (km/s) = 3.70784 3.87099 3.79029
# Velocity P-wave (km/s) = 7.48643 7.62735 7.55722
#
# Compressibility (1/GPa) = 0.01397436
#
# Stress axis : x y z
#
# Youngs Moduli (GPa) = 66.74232 57.72011 79.96745
#
# Poissons Ratio (x) = 0.50817 0.10914
# Poissons Ratio (y) = 0.58760 0.41987
# Poissons Ratio (z) = 0.09109 0.30306
#
# Static dielectric constant tensor:
#      x y z
#    x 3.548690 0.000000 0.000000 
#    y 0.000000 3.509270 0.000000 
#    z 0.000000 0.000000 3.453620 
# 
# 
# High freq. dielectric constant tensor:
#      x y z
#    x 1.750570 0.000000 0.000000 
#    y 0.000000 1.745900 0.000000 
#    z 0.000000 0.000000 1.731880 
# 
# From -- ./inp_files/10048.got.cif
#   From: 2010.03.12/outbox.cif.g09.slc.cpg/sg53_6_cif.got.tgz:10048.got - 2010.04.16 14:36:59.
