data_PCOD8221577
_publ_section_title
;
Structure prediction by ZEFSAII (Michael W. Deem and Ramdas Pophale) SiO2 
 PCOD8221577
Probable space group: P M N A
;
_chemical_formula_sum "Si O2"
_cell_formula_units_Z 48
_cell_length_a 27.515266
_cell_length_b 8.923617
_cell_length_c 9.003758
_cell_angle_alpha 90.000000
_cell_angle_beta 90.000000
_cell_angle_gamma 90.000000
_cell_volume 2210.743982
_symmetry_space_group_name_H-M "P M N A"
_symmetry_group_IT_number 53
_symmetry_cell_setting 'orthorhombic'
loop_
_space_group_symop_operation_xyz
x,y,z
1/2-x,-y,1/2+z
x,-y,-z
1/2-x,y,1/2-z
-x,-y,-z
1/2+x,y,1/2-z
-x,y,z
1/2+x,-y,1/2+z
loop_
_atom_site_type_symbol
_atom_site_label
_atom_site_fract_x
_atom_site_fract_y
_atom_site_fract_z
Si Si1 0.713115 0.606743 0.129085
Si Si2 0.889625 0.842162 0.568673
Si Si3 0.944900 0.651452 0.782425
Si Si4 0.609133 0.656330 0.208388
Si Si5 0.275489 0.855270 0.910765
Si Si6 0.555001 0.841676 0.436740
O O1 0.750000 0.535271 0.250000
O O2 0.667337 0.656903 0.228137
O O3 0.693069 0.500000 0.000000
O O4 0.740592 0.732896 0.032931
O O5 0.922638 0.801281 0.708625
O O6 0.900926 0.701421 0.461241
O O7 0.833295 0.849835 0.616207
O O8 0.906494 0.000000 0.500000
O O9 0.913835 0.502600 0.752121
O O10 0.000000 0.622285 0.728235
O O11 0.943821 0.698025 0.954109
O O12 0.589571 0.795772 0.302677
O O13 0.250000 0.837936 0.750000
O O14 0.258379 0.000000 0.000000
O O15 0.500000 0.865295 0.379108
O O16 0.574518 0.000000 0.500000
#
# Coordination Sequence:
#
# PCOD8221577 Si02
#       6
#     8   8   8   8   8   8
#     4  11  24  41  61  89 123 162 207 259 317 376
#     4  10  22  39  59  88 125 162 201 251 305 361
#     4  11  23  39  61  89 120 159 206 252 302 365
#     4  11  22  39  61  87 120 158 203 253 308 368
#     4  10  21  40  64  92 127 163 207 258 309 372
#     4  10  22  40  62  91 125 159 200 252 308 372
#
# _framework density 21.712146000000001
#
# number of rings (size 3 to 8) (size 9 to 14) (size 15 to 20)
#    0.000    1.500    0.000    5.500    0.000    6.333 
#    0.000    1.667    0.000    0.000    0.000    0.000 
#    0.000    0.000    0.000    0.000    0.000    0.000 
#
# Total GULP energy -594868.805954 kJ/mol
# GULP energy per Si atom -12393.100124 kJ/mol
# Density = 2.166273 g / cm^3
# Si number density = 21.712146 Si / 1000 Ang^3
#
#
#
# Elastic Constant Matrix: (Units=GPa)
#
#
# Indices 1 2 3 4 5 6 
#
# 1 97.3484 29.8970 67.5947 0.0000 0.0000 0.0000
# 2 29.8970 112.9504 30.8911 0.0000 0.0000 0.0000
# 3 67.5947 30.8911 86.8684 0.0000 0.0000 0.0000
# 4 0.0000 0.0000 0.0000 44.2820 0.0000 0.0000
# 5 0.0000 0.0000 0.0000 0.0000 60.0153 0.0000
# 6 0.0000 0.0000 0.0000 0.0000 0.0000 35.9223
#
#
#
# Elastic Compliance Matrix: (Units=1/GPa)
#
#
# Indices 1 2 3 4 5 6 
#
# 1 0.022515 -0.001294 -0.017060 0.000000 0.000000 0.000000
# 2 -0.001294 0.009882 -0.002507 0.000000 0.000000 0.000000
# 3 -0.017060 -0.002507 0.025678 0.000000 0.000000 0.000000
# 4 0.000000 0.000000 0.000000 0.022583 0.000000 0.000000
# 5 0.000000 0.000000 0.000000 0.000000 0.016662 0.000000
# 6 0.000000 0.000000 0.000000 0.000000 0.000000 0.027838
#
#
# Mechanical properties :
#
#
# Convention : Reuss Voigt Hill
#
# Bulk Modulus (GPa) = 61.14976 61.54810 61.34893
# Shear Modulus (GPa) = 29.01409 39.29619 34.15514
#
# Velocity S-wave (km/s) = 3.65952 4.25887 3.97052
# Velocity P-wave (km/s) = 6.78831 7.25209 7.02403
#
# Compressibility (1/GPa) = 0.01635329
#
# Stress axis : x y z
#
# Youngs Moduli (GPa) = 44.41430 101.19794 38.94413
#
# Poissons Ratio (x) = 0.13094 0.66437
# Poissons Ratio (y) = 0.05747 0.09764
# Poissons Ratio (z) = 0.75769 0.25372
#
# Static dielectric constant tensor:
#      x y z
#    x 3.769160 0.000000 0.000000 
#    y 0.000000 3.311330 0.000000 
#    z 0.000000 0.000000 3.891890 
# 
# 
# High freq. dielectric constant tensor:
#      x y z
#    x 1.842220 0.000000 0.000000 
#    y 0.000000 1.869720 0.000000 
#    z 0.000000 0.000000 1.855010 
# 
# From -- ./inp_files/13051.got.cif
#   From: 2010.03.12/outbox.cif.g09.slc.cpg/sg53_7_cif.got.tgz:13051.got - 2010.04.16 14:36:59.
