data_PCOD8221454
_publ_section_title
;
Structure prediction by ZEFSAII (Michael W. Deem and Ramdas Pophale) SiO2 
 PCOD8221454
Probable space group: P M N A
;
_chemical_formula_sum "Si O2"
_cell_formula_units_Z 56
_cell_length_a 8.523408
_cell_length_b 20.972494
_cell_length_c 15.274591
_cell_angle_alpha 90.000000
_cell_angle_beta 90.000000
_cell_angle_gamma 90.000000
_cell_volume 2730.441944
_symmetry_space_group_name_H-M "P M N A"
_symmetry_group_IT_number 53
_symmetry_cell_setting 'orthorhombic'
loop_
_space_group_symop_operation_xyz
x,y,z
1/2-x,-y,1/2+z
x,-y,-z
1/2-x,y,1/2-z
-x,-y,-z
1/2+x,y,1/2-z
-x,y,z
1/2+x,-y,1/2+z
loop_
_atom_site_type_symbol
_atom_site_label
_atom_site_fract_x
_atom_site_fract_y
_atom_site_fract_z
Si Si1 0.814717 0.054249 0.343783
Si Si2 0.315712 0.916470 0.343164
Si Si3 0.315605 0.286213 0.491144
Si Si4 0.313337 0.645155 0.157062
Si Si5 0.315769 0.627168 0.841370
Si Si6 0.184107 0.490600 0.596142
Si Si7 0.684477 0.150571 0.006707
O O1 0.750000 0.076521 0.250000
O O2 0.755748 0.103417 0.417155
O O3 0.000000 0.052618 0.338220
O O4 0.755222 0.984502 0.370265
O O5 0.250000 0.892881 0.250000
O O6 0.500000 0.923716 0.334918
O O7 0.271433 0.864988 0.416149
O O8 0.500000 0.274797 0.492853
O O9 0.256685 0.307355 0.585884
O O10 0.272641 0.339504 0.420611
O O11 0.228943 0.221434 0.463770
O O12 0.250000 0.668855 0.250000
O O13 0.500000 0.648677 0.153927
O O14 0.247768 0.573375 0.140297
O O15 0.250000 0.654159 0.750000
O O16 0.500000 0.640668 0.849731
O O17 0.276490 0.551903 0.845003
O O18 0.259847 0.500000 0.500000
O O19 0.000000 0.480980 0.584853
O O20 0.500000 0.143874 0.992110
#
# Coordination Sequence:
#
# PCOD8221454 Si02
#       7
#     8   8   8   8   8   8   8
#     4  10  21  38  63  93 125 159 198 245 297 353
#     4  11  22  38  63  94 127 161 199 246 298 354
#     4  12  26  43  61  87 120 160 208 253 302 361
#     4  11  22  40  64  90 122 158 200 249 304 364
#     4  11  22  40  64  90 122 159 201 249 305 362
#     4   9  17  34  62  91 120 156 195 245 305 361
#     4  11  24  42  63  88 121 162 205 250 303 356
#
# _framework density 20.509501
#
# number of rings (size 3 to 8) (size 9 to 14) (size 15 to 20)
#    0.000    1.286    1.429    6.000    0.000    5.143 
#    0.000    7.143    0.000    0.000    0.000    0.000 
#    0.000    0.000    0.000    0.000    0.000    0.000 
#
# Total GULP energy -694691.923729 kJ/mol
# GULP energy per Si atom -12405.212924 kJ/mol
# Density = 2.046282 g / cm^3
# Si number density = 20.509501 Si / 1000 Ang^3
#
#
#
# Elastic Constant Matrix: (Units=GPa)
#
#
# Indices 1 2 3 4 5 6 
#
# 1 64.4304 18.9940 33.7014 0.0000 0.0000 0.0000
# 2 18.9940 63.3381 14.1552 0.0000 0.0000 0.0000
# 3 33.7014 14.1552 108.1710 0.0000 0.0000 0.0000
# 4 0.0000 0.0000 0.0000 16.3732 0.0000 0.0000
# 5 0.0000 0.0000 0.0000 0.0000 30.7155 0.0000
# 6 0.0000 0.0000 0.0000 0.0000 0.0000 26.4837
#
#
#
# Elastic Compliance Matrix: (Units=1/GPa)
#
#
# Indices 1 2 3 4 5 6 
#
# 1 0.019813 -0.004700 -0.005558 0.000000 0.000000 0.000000
# 2 -0.004700 0.017379 -0.000810 0.000000 0.000000 0.000000
# 3 -0.005558 -0.000810 0.011082 0.000000 0.000000 0.000000
# 4 0.000000 0.000000 0.000000 0.061075 0.000000 0.000000
# 5 0.000000 0.000000 0.000000 0.000000 0.032557 0.000000
# 6 0.000000 0.000000 0.000000 0.000000 0.000000 0.037759
#
#
# Mechanical properties :
#
#
# Convention : Reuss Voigt Hill
#
# Bulk Modulus (GPa) = 38.25680 41.07118 39.66399
# Shear Modulus (GPa) = 23.75146 25.98708 24.86927
#
# Velocity S-wave (km/s) = 3.40674 3.56346 3.48598
# Velocity P-wave (km/s) = 5.84535 6.08276 5.96524
#
# Compressibility (1/GPa) = 0.02613914
#
# Stress axis : x y z
#
# Youngs Moduli (GPa) = 50.47140 57.54199 90.23453
#
# Poissons Ratio (x) = 0.27042 0.50152
# Poissons Ratio (y) = 0.23719 0.07309
# Poissons Ratio (z) = 0.28052 0.04661
#
# Static dielectric constant tensor:
#      x y z
#    x 3.626970 0.000000 0.000000 
#    y 0.000000 3.734800 0.000000 
#    z 0.000000 0.000000 3.834430 
# 
# 
# High freq. dielectric constant tensor:
#      x y z
#    x 1.800710 0.000000 0.000000 
#    y 0.000000 1.799320 0.000000 
#    z 0.000000 0.000000 1.814940 
# 
# From -- ./inp_files/20629.got.cif
#   From: 2010.03.12/outbox.cif.g09.slc.cpg/sg53_11_cif.got.tgz:20629.got - 2010.04.16 14:36:59.
