data_PCOD8221486
_publ_section_title
;
Structure prediction by ZEFSAII (Michael W. Deem and Ramdas Pophale) SiO2 
 PCOD8221486
Probable space group: P M N A
;
_chemical_formula_sum "Si O2"
_cell_formula_units_Z 40
_cell_length_a 26.477839
_cell_length_b 8.330115
_cell_length_c 8.709110
_cell_angle_alpha 90.000000
_cell_angle_beta 90.000000
_cell_angle_gamma 90.000000
_cell_volume 1920.911294
_symmetry_space_group_name_H-M "P M N A"
_symmetry_group_IT_number 53
_symmetry_cell_setting 'orthorhombic'
loop_
_space_group_symop_operation_xyz
x,y,z
1/2-x,-y,1/2+z
x,-y,-z
1/2-x,y,1/2-z
-x,-y,-z
1/2+x,y,1/2-z
-x,y,z
1/2+x,-y,1/2+z
loop_
_atom_site_type_symbol
_atom_site_label
_atom_site_fract_x
_atom_site_fract_y
_atom_site_fract_z
Si Si1 0.102682 0.815132 0.222496
Si Si2 0.500000 0.607192 0.719546
Si Si3 0.000000 0.247871 0.901669
Si Si4 0.392910 0.539161 0.825995
Si Si5 0.329827 0.000000 0.500000
Si Si6 0.804488 0.226498 0.261934
Si Si7 0.650556 0.000000 0.000000
O O1 0.108761 0.624829 0.233514
O O2 0.046311 0.852890 0.166564
O O3 0.114067 0.910597 0.379102
O O4 0.138149 0.865836 0.085138
O O5 0.500000 0.743673 0.587577
O O6 0.500000 0.429874 0.653402
O O7 0.448291 0.625378 0.819606
O O8 0.350926 0.650890 0.744896
O O9 0.378133 0.500000 0.000000
O O10 0.298256 0.902693 0.625338
O O11 0.750000 0.316842 0.250000
O O12 0.813403 0.130772 0.420626
#
# Coordination Sequence:
#
# PCOD8221486 Si02
#       7
#     8   4   4   8   4   8   4
#     4  10  21  39  61  89 126 162 208 256 305 374
#     4   9  19  34  62  90 130 163 199 255 314 374
#     4   9  18  34  58  91 122 164 208 252 310 360
#     4  11  21  40  64  96 124 164 212 256 307 365
#     4  10  23  41  62  88 122 167 200 254 321 370
#     4  11  23  42  64  91 122 162 208 257 313 370
#     4  10  21  41  60  84 128 163 204 250 317 378
#
# _framework density 20.823449
#
# number of rings (size 3 to 8) (size 9 to 14) (size 15 to 20)
#    0.000    1.800    2.000    2.100    0.000    3.200 
#    3.600    5.000    0.000    0.000    0.000    0.000 
#    0.000    0.000    0.000    0.000    0.000    0.000 
#
# Total GULP energy -495784.484458 kJ/mol
# GULP energy per Si atom -12394.612111 kJ/mol
# Density = 2.077605 g / cm^3
# Si number density = 20.823449 Si / 1000 Ang^3
#
#
#
# Elastic Constant Matrix: (Units=GPa)
#
#
# Indices 1 2 3 4 5 6 
#
# 1 143.6647 38.4751 19.8823 0.0000 0.0000 0.0000
# 2 38.4751 64.9507 15.2543 0.0000 0.0000 0.0000
# 3 19.8823 15.2543 90.1806 0.0000 0.0000 0.0000
# 4 0.0000 0.0000 0.0000 29.8167 0.0000 0.0000
# 5 0.0000 0.0000 0.0000 0.0000 20.7565 0.0000
# 6 0.0000 0.0000 0.0000 0.0000 0.0000 26.3532
#
#
#
# Elastic Compliance Matrix: (Units=1/GPa)
#
#
# Indices 1 2 3 4 5 6 
#
# 1 0.008367 -0.004710 -0.001048 0.000000 0.000000 0.000000
# 2 -0.004710 0.018685 -0.002122 0.000000 0.000000 0.000000
# 3 -0.001048 -0.002122 0.011679 0.000000 0.000000 0.000000
# 4 0.000000 0.000000 0.000000 0.033538 0.000000 0.000000
# 5 0.000000 0.000000 0.000000 0.000000 0.048178 0.000000
# 6 0.000000 0.000000 0.000000 0.000000 0.000000 0.037946
#
#
# Mechanical properties :
#
#
# Convention : Reuss Voigt Hill
#
# Bulk Modulus (GPa) = 43.53474 49.55771 46.54623
# Shear Modulus (GPa) = 27.50114 30.39757 28.94936
#
# Velocity S-wave (km/s) = 3.63806 3.82485 3.73262
# Velocity P-wave (km/s) = 6.21283 6.58457 6.40140
#
# Compressibility (1/GPa) = 0.02297016
#
# Stress axis : x y z
#
# Youngs Moduli (GPa) = 119.51461 53.51885 85.62476
#
# Poissons Ratio (x) = 0.25209 0.08973
# Poissons Ratio (y) = 0.56296 0.18170
# Poissons Ratio (z) = 0.12525 0.11357
#
# Static dielectric constant tensor:
#      x y z
#    x 3.864410 0.000000 0.000000 
#    y 0.000000 3.648390 0.000000 
#    z 0.000000 0.000000 3.881040 
# 
# 
# High freq. dielectric constant tensor:
#      x y z
#    x 1.815580 0.000000 0.000000 
#    y 0.000000 1.805150 0.000000 
#    z 0.000000 0.000000 1.821340 
# 
# From -- ./inp_files/12381.got.cif
#   From: 2010.03.12/outbox.cif.g09.slc.cpg/sg53_7_cif.got.tgz:12381.got - 2010.04.16 14:36:59.
