data_PCOD8221793
_publ_section_title
;
Structure prediction by ZEFSAII (Michael W. Deem and Ramdas Pophale) SiO2 
 PCOD8221793
Probable space group: P M N A
;
_chemical_formula_sum "Si O2"
_cell_formula_units_Z 40
_cell_length_a 16.284433
_cell_length_b 12.739021
_cell_length_c 8.782727
_cell_angle_alpha 90.000000
_cell_angle_beta 90.000000
_cell_angle_gamma 90.000000
_cell_volume 1821.956814
_symmetry_space_group_name_H-M "P M N A"
_symmetry_group_IT_number 53
_symmetry_cell_setting 'orthorhombic'
loop_
_space_group_symop_operation_xyz
x,y,z
1/2-x,-y,1/2+z
x,-y,-z
1/2-x,y,1/2-z
-x,-y,-z
1/2+x,y,1/2-z
-x,y,z
1/2+x,-y,1/2+z
loop_
_atom_site_type_symbol
_atom_site_label
_atom_site_fract_x
_atom_site_fract_y
_atom_site_fract_z
Si Si1 0.406154 0.880181 0.130555
Si Si2 0.906437 0.289357 0.133951
Si Si3 0.596278 0.489601 0.172686
Si Si4 0.157012 0.096946 0.302668
Si Si5 0.838830 0.695383 0.189831
O O1 0.500000 0.897224 0.079659
O O2 0.401996 0.774805 0.229681
O O3 0.375072 0.979183 0.230143
O O4 0.349924 0.873626 0.980529
O O5 0.880779 0.375928 0.259828
O O6 0.900083 0.175429 0.208177
O O7 0.000000 0.308769 0.079411
O O8 0.845047 0.295411 0.991736
O O9 0.500000 0.511655 0.181195
O O10 0.642468 0.575600 0.271712
O O11 0.628131 0.500000 0.000000
O O12 0.250000 0.109498 0.250000
O O13 0.750000 0.728715 0.250000
#
# Coordination Sequence:
#
# PCOD8221793 Si02
#       5
#     8   8   8   8   8
#     4  11  23  43  66  89 124 170 213 251 309 382
#     4  11  23  41  65  93 126 166 213 259 308 371
#     4  10  22  41  65  91 123 166 213 258 310 378
#     4  11  23  40  64  94 127 161 206 260 313 368
#     4  12  25  40  61  92 128 164 208 266 323 369
#
# _framework density 21.954419000000001
#
# number of rings (size 3 to 8) (size 9 to 14) (size 15 to 20)
#    0.000    1.000    0.000    7.800    0.000    8.000 
#    0.000    2.000    0.000    0.000    0.000    0.000 
#    0.000    0.000    0.000    0.000    0.000    0.000 
#
# Total GULP energy -496269.953780 kJ/mol
# GULP energy per Si atom -12406.748845 kJ/mol
# Density = 2.190445 g / cm^3
# Si number density = 21.954419 Si / 1000 Ang^3
#
#
#
# Elastic Constant Matrix: (Units=GPa)
#
#
# Indices 1 2 3 4 5 6 
#
# 1 88.7348 40.3660 48.4834 0.0000 0.0000 0.0000
# 2 40.3660 112.3886 50.6431 0.0000 0.0000 0.0000
# 3 48.4834 50.6431 140.3571 0.0000 0.0000 0.0000
# 4 0.0000 0.0000 0.0000 40.6889 0.0000 0.0000
# 5 0.0000 0.0000 0.0000 0.0000 28.6402 0.0000
# 6 0.0000 0.0000 0.0000 0.0000 0.0000 12.2248
#
#
#
# Elastic Compliance Matrix: (Units=1/GPa)
#
#
# Indices 1 2 3 4 5 6 
#
# 1 0.015054 -0.003658 -0.003880 0.000000 0.000000 0.000000
# 2 -0.003658 0.011514 -0.002891 0.000000 0.000000 0.000000
# 3 -0.003880 -0.002891 0.009508 0.000000 0.000000 0.000000
# 4 0.000000 0.000000 0.000000 0.024577 0.000000 0.000000
# 5 0.000000 0.000000 0.000000 0.000000 0.034916 0.000000
# 6 0.000000 0.000000 0.000000 0.000000 0.000000 0.081801
#
#
# Mechanical properties :
#
#
# Convention : Reuss Voigt Hill
#
# Bulk Modulus (GPa) = 65.71342 68.94060 67.32701
# Shear Modulus (GPa) = 24.59413 29.77667 27.18540
#
# Velocity S-wave (km/s) = 3.35062 3.68679 3.52272
# Velocity P-wave (km/s) = 6.70564 7.04223 6.87600
#
# Compressibility (1/GPa) = 0.01521759
#
# Stress axis : x y z
#
# Youngs Moduli (GPa) = 66.42875 86.84855 105.17471
#
# Poissons Ratio (x) = 0.31773 0.40807
# Poissons Ratio (y) = 0.24302 0.30404
# Poissons Ratio (z) = 0.25774 0.25106
#
# Static dielectric constant tensor:
#      x y z
#    x 3.789570 0.000000 0.000000 
#    y 0.000000 4.085020 0.000000 
#    z 0.000000 0.000000 3.937620 
# 
# 
# High freq. dielectric constant tensor:
#      x y z
#    x 1.860480 0.000000 0.000000 
#    y 0.000000 1.879830 0.000000 
#    z 0.000000 0.000000 1.863360 
# 
# From -- ./inp_files/8394.got.cif
#   From: 2010.03.12/outbox.cif.g09.slc.cpg/sg53_5_cif.got.tgz:8394.got - 2010.04.16 14:36:59.
