data_PCOD8221926
_publ_section_title
;
Structure prediction by ZEFSAII (Michael W. Deem and Ramdas Pophale) SiO2 
 PCOD8221926
Probable space group: P M N A
;
_chemical_formula_sum "Si O2"
_cell_formula_units_Z 32
_cell_length_a 9.175195
_cell_length_b 12.662788
_cell_length_c 12.593991
_cell_angle_alpha 90.000000
_cell_angle_beta 90.000000
_cell_angle_gamma 90.000000
_cell_volume 1463.214572
_symmetry_space_group_name_H-M "P M N A"
_symmetry_group_IT_number 53
_symmetry_cell_setting 'orthorhombic'
loop_
_space_group_symop_operation_xyz
x,y,z
1/2-x,-y,1/2+z
x,-y,-z
1/2-x,y,1/2-z
-x,-y,-z
1/2+x,y,1/2-z
-x,y,z
1/2+x,-y,1/2+z
loop_
_atom_site_type_symbol
_atom_site_label
_atom_site_fract_x
_atom_site_fract_y
_atom_site_fract_z
Si Si1 0.262757 0.612966 0.031056
Si Si2 0.000000 0.551749 0.303783
Si Si3 0.500000 0.062263 0.659004
Si Si4 0.000000 0.091888 0.362459
Si Si5 0.250461 0.000000 0.000000
Si Si6 0.000000 0.708789 0.123198
Si Si7 0.500000 0.326945 0.132557
O O1 0.358043 0.591797 0.135291
O O2 0.142836 0.703054 0.050196
O O3 0.192965 0.500000 0.000000
O O4 0.357382 0.661680 0.937933
O O5 0.000000 0.424537 0.284680
O O6 0.000000 0.601689 0.189278
O O7 0.354082 0.050475 0.588992
O O8 0.500000 0.185191 0.694615
O O9 0.500000 0.989454 0.763498
O O10 0.143317 0.080149 0.436541
O O11 0.000000 0.210749 0.313714
#
# Coordination Sequence:
#
# PCOD8221926 Si02
#       7
#     8   4   4   4   4   4   4
#     4   9  19  36  57  83 115 151 190 235 293 356
#     4   9  20  35  55  84 118 148 183 234 292 355
#     4  11  25  42  61  93 128 159 207 262 307 362
#     4  11  22  41  70  91 117 168 212 248 311 372
#     4  10  24  44  62  90 124 160 210 262 308 358
#     4  12  21  34  59  88 117 147 190 245 295 349
#     4   9  19  40  61  81 113 155 197 238 291 360
#
# _framework density 21.869655999999999
#
# number of rings (size 3 to 8) (size 9 to 14) (size 15 to 20)
#    0.000    2.000    0.000    4.875    0.000    8.000 
#    0.000   15.000    0.000    0.000    0.000    0.000 
#    0.000    0.000    0.000    0.000    0.000    0.000 
#
# Total GULP energy -396542.727125 kJ/mol
# GULP energy per Si atom -12391.960223 kJ/mol
# Density = 2.181988 g / cm^3
# Si number density = 21.869656 Si / 1000 Ang^3
#
#
#
# Elastic Constant Matrix: (Units=GPa)
#
#
# Indices 1 2 3 4 5 6 
#
# 1 125.7845 48.0236 30.4199 0.0000 0.0000 0.0000
# 2 48.0236 172.6335 46.4201 0.0000 0.0000 0.0000
# 3 30.4199 46.4201 84.6942 0.0000 0.0000 0.0000
# 4 0.0000 0.0000 0.0000 35.2645 0.0000 0.0000
# 5 0.0000 0.0000 0.0000 0.0000 20.0923 0.0000
# 6 0.0000 0.0000 0.0000 0.0000 0.0000 13.9924
#
#
#
# Elastic Compliance Matrix: (Units=1/GPa)
#
#
# Indices 1 2 3 4 5 6 
#
# 1 0.009244 -0.001969 -0.002241 0.000000 0.000000 0.000000
# 2 -0.001969 0.007213 -0.003246 0.000000 0.000000 0.000000
# 3 -0.002241 -0.003246 0.014391 0.000000 0.000000 0.000000
# 4 0.000000 0.000000 0.000000 0.028357 0.000000 0.000000
# 5 0.000000 0.000000 0.000000 0.000000 0.049770 0.000000
# 6 0.000000 0.000000 0.000000 0.000000 0.000000 0.071467
#
#
# Mechanical properties :
#
#
# Convention : Reuss Voigt Hill
#
# Bulk Modulus (GPa) = 62.75110 70.31549 66.53329
# Shear Modulus (GPa) = 24.91685 31.08643 28.00164
#
# Velocity S-wave (km/s) = 3.37906 3.77429 3.58213
# Velocity P-wave (km/s) = 6.63171 7.15651 6.89910
#
# Compressibility (1/GPa) = 0.01593598
#
# Stress axis : x y z
#
# Youngs Moduli (GPa) = 108.18100 138.63388 69.48601
#
# Poissons Ratio (x) = 0.27295 0.15572
# Poissons Ratio (y) = 0.21299 0.22558
# Poissons Ratio (z) = 0.24243 0.45005
#
# Static dielectric constant tensor:
#      x y z
#    x 4.144830 0.000000 0.000000 
#    y 0.000000 3.907440 0.000000 
#    z 0.000000 0.000000 3.656930 
# 
# 
# High freq. dielectric constant tensor:
#      x y z
#    x 1.875740 0.000000 0.000000 
#    y 0.000000 1.858710 0.000000 
#    z 0.000000 0.000000 1.837900 
# 
# From -- ./inp_files/19702.got.cif
#   From: 2010.03.12/outbox.cif.g09.slc.cpg/sg53_10_cif.got.tgz:19702.got - 2010.04.16 14:36:59.
