data_PCOD8221032
_publ_section_title
;
Structure prediction by ZEFSAII (Michael W. Deem and Ramdas Pophale) SiO2 
 PCOD8221032
Probable space group: P M N A
;
_chemical_formula_sum "Si O2"
_cell_formula_units_Z 48
_cell_length_a 16.154635
_cell_length_b 9.243233
_cell_length_c 14.313711
_cell_angle_alpha 90.000000
_cell_angle_beta 90.000000
_cell_angle_gamma 90.000000
_cell_volume 2137.338432
_symmetry_space_group_name_H-M "P M N A"
_symmetry_group_IT_number 53
_symmetry_cell_setting 'orthorhombic'
loop_
_space_group_symop_operation_xyz
x,y,z
1/2-x,-y,1/2+z
x,-y,-z
1/2-x,y,1/2-z
-x,-y,-z
1/2+x,y,1/2-z
-x,y,z
1/2+x,-y,1/2+z
loop_
_atom_site_type_symbol
_atom_site_label
_atom_site_fract_x
_atom_site_fract_y
_atom_site_fract_z
Si Si1 0.155225 0.626596 0.557215
Si Si2 0.091629 0.841879 0.811264
Si Si3 0.500000 0.981304 0.844447
Si Si4 0.905463 0.630550 0.071781
Si Si5 0.654892 0.459078 0.257349
Si Si6 0.706993 0.149114 0.467329
Si Si7 0.500000 0.772093 0.019195
O O1 0.202444 0.500000 0.500000
O O2 0.117684 0.559032 0.652864
O O3 0.220081 0.754225 0.577507
O O4 0.081535 0.675675 0.488920
O O5 0.145327 0.697632 0.802186
O O6 0.142334 0.919833 0.892448
O O7 0.000000 0.796247 0.846350
O O8 0.081932 0.942792 0.718334
O O9 0.500000 0.882133 0.934004
O O10 0.500000 0.146900 0.879724
O O11 0.890079 0.578561 0.178735
O O12 0.000000 0.686422 0.066096
O O13 0.890080 0.500000 0.000000
O O14 0.843165 0.761128 0.046179
O O15 0.750000 0.504054 0.250000
O O16 0.750548 0.000000 0.500000
#
# Coordination Sequence:
#
# PCOD8221032 Si02
#       7
#     8   8   4   8   8   8   4
#     4  12  26  46  70 101 142 185 242 299 359 416
#     4  10  20  40  67  98 136 183 236 276 346 432
#     4   9  22  40  71 102 133 185 249 279 351 429
#     4  11  23  42  72 103 138 180 234 295 352 425
#     4  12  21  39  71  99 134 186 239 288 346 421
#     4  12  26  44  69 104 143 189 228 298 371 431
#     4  11  23  44  72  95 140 190 235 309 345 425
#
# _framework density 22.457837999999999
#
# number of rings (size 3 to 8) (size 9 to 14) (size 15 to 20)
#    0.500    0.333    5.000    2.750    3.500    1.333 
#    3.000    0.000    3.667    0.000    0.000    0.000 
#    0.000    0.000    0.000    0.000    0.000    0.000 
#
# Total GULP energy -594792.590754 kJ/mol
# GULP energy per Si atom -12391.512307 kJ/mol
# Density = 2.240672 g / cm^3
# Si number density = 22.457838 Si / 1000 Ang^3
#
#
#
# Elastic Constant Matrix: (Units=GPa)
#
#
# Indices 1 2 3 4 5 6 
#
# 1 96.8196 28.4937 30.3333 0.0000 0.0000 0.0000
# 2 28.4937 90.6048 52.4539 0.0000 0.0000 0.0000
# 3 30.3333 52.4539 112.1575 0.0000 0.0000 0.0000
# 4 0.0000 0.0000 0.0000 35.5246 0.0000 0.0000
# 5 0.0000 0.0000 0.0000 0.0000 31.2666 0.0000
# 6 0.0000 0.0000 0.0000 0.0000 0.0000 22.2181
#
#
#
# Elastic Compliance Matrix: (Units=1/GPa)
#
#
# Indices 1 2 3 4 5 6 
#
# 1 0.011693 -0.002532 -0.001978 0.000000 0.000000 0.000000
# 2 -0.002532 0.015683 -0.006650 0.000000 0.000000 0.000000
# 3 -0.001978 -0.006650 0.012561 0.000000 0.000000 0.000000
# 4 0.000000 0.000000 0.000000 0.028150 0.000000 0.000000
# 5 0.000000 0.000000 0.000000 0.000000 0.031983 0.000000
# 6 0.000000 0.000000 0.000000 0.000000 0.000000 0.045008
#
#
# Mechanical properties :
#
#
# Convention : Reuss Voigt Hill
#
# Bulk Modulus (GPa) = 56.76310 58.01597 57.38953
# Shear Modulus (GPa) = 28.85649 30.35527 29.60588
#
# Velocity S-wave (km/s) = 3.58846 3.68048 3.63476
# Velocity P-wave (km/s) = 6.51918 6.62952 6.57458
#
# Compressibility (1/GPa) = 0.01761708
#
# Stress axis : x y z
#
# Youngs Moduli (GPa) = 85.51783 63.76320 79.61109
#
# Poissons Ratio (x) = 0.16145 0.15750
# Poissons Ratio (y) = 0.21654 0.52940
# Poissons Ratio (z) = 0.16918 0.42401
#
# Static dielectric constant tensor:
#      x y z
#    x 3.880370 0.000000 0.000000 
#    y 0.000000 3.873450 0.000000 
#    z 0.000000 0.000000 4.372990 
# 
# 
# High freq. dielectric constant tensor:
#      x y z
#    x 1.882080 0.000000 0.000000 
#    y 0.000000 1.865280 0.000000 
#    z 0.000000 0.000000 1.888700 
# 
# From -- ./inp_files/23696.got.cif
#   From: 2010.03.12/outbox.cif.g09.slc.cpg/sg53_12_cif.got.tgz:23696.got - 2010.04.16 14:36:59.
