data_PCOD8221692
_publ_section_title
;
Structure prediction by ZEFSAII (Michael W. Deem and Ramdas Pophale) SiO2 
 PCOD8221692
Probable space group: P M N A
;
_chemical_formula_sum "Si O2"
_cell_formula_units_Z 48
_cell_length_a 14.133267
_cell_length_b 19.114647
_cell_length_c 9.052325
_cell_angle_alpha 90.000000
_cell_angle_beta 90.000000
_cell_angle_gamma 90.000000
_cell_volume 2445.507412
_symmetry_space_group_name_H-M "P M N A"
_symmetry_group_IT_number 53
_symmetry_cell_setting 'orthorhombic'
loop_
_space_group_symop_operation_xyz
x,y,z
1/2-x,-y,1/2+z
x,-y,-z
1/2-x,y,1/2-z
-x,-y,-z
1/2+x,y,1/2-z
-x,y,z
1/2+x,-y,1/2+z
loop_
_atom_site_type_symbol
_atom_site_label
_atom_site_fract_x
_atom_site_fract_y
_atom_site_fract_z
Si Si1 0.307391 0.438157 0.106821
Si Si2 0.000000 0.392283 0.923448
Si Si3 0.255320 0.813920 0.578440
Si Si4 0.606084 0.065453 0.416133
Si Si5 0.208122 0.673528 0.088209
Si Si6 0.500000 0.536575 0.740804
Si Si7 0.106857 0.930312 0.573418
O O1 0.250000 0.455733 0.250000
O O2 0.416064 0.437825 0.153850
O O3 0.281098 0.500000 0.000000
O O4 0.271286 0.368057 0.030117
O O5 0.903854 0.346440 0.908864
O O6 0.000000 0.453275 0.797268
O O7 0.000000 0.423181 0.087016
O O8 0.250000 0.788376 0.750000
O O9 0.344196 0.862515 0.547531
O O10 0.273286 0.752099 0.463854
O O11 0.162622 0.859024 0.535894
O O12 0.500000 0.074340 0.474155
O O13 0.613035 0.051042 0.244026
O O14 0.654311 0.000000 0.500000
O O15 0.250000 0.661263 0.250000
O O16 0.000000 0.917067 0.519037
O O17 0.150345 0.000000 0.500000
#
# Coordination Sequence:
#
# PCOD8221692 Si02
#       7
#     8   4   8   8   8   4   8
#     4  12  23  41  68  99 129 169 213 264 317 383
#     4  11  24  46  68 100 129 168 213 272 327 384
#     4  10  22  39  58  88 125 168 212 257 326 382
#     4   9  18  33  57  86 114 156 208 259 315 382
#     4  12  27  45  65  94 133 173 215 269 327 392
#     4  11  23  42  72 100 128 164 216 264 326 383
#     4   9  18  35  58  87 122 160 208 266 317 376
#
# _framework density 19.627828000000001
#
# number of rings (size 3 to 8) (size 9 to 14) (size 15 to 20)
#    0.000    1.500    1.667    3.750    1.167    2.000 
#    3.000    0.000    0.000    0.000    0.000    0.000 
#    0.000    0.000    0.000    0.000    0.000    0.000 
#
# Total GULP energy -594927.099469 kJ/mol
# GULP energy per Si atom -12394.314572 kJ/mol
# Density = 1.958315 g / cm^3
# Si number density = 19.627828 Si / 1000 Ang^3
#
#
#
# Elastic Constant Matrix: (Units=GPa)
#
#
# Indices 1 2 3 4 5 6 
#
# 1 133.6341 77.6571 59.0389 0.0000 0.0000 0.0000
# 2 77.6571 96.1941 45.6689 0.0000 0.0000 0.0000
# 3 59.0389 45.6689 93.6345 0.0000 0.0000 0.0000
# 4 0.0000 0.0000 0.0000 48.6375 0.0000 0.0000
# 5 0.0000 0.0000 0.0000 0.0000 33.7604 0.0000
# 6 0.0000 0.0000 0.0000 0.0000 0.0000 32.9707
#
#
#
# Elastic Compliance Matrix: (Units=1/GPa)
#
#
# Indices 1 2 3 4 5 6 
#
# 1 0.015598 -0.010310 -0.004806 0.000000 0.000000 0.000000
# 2 -0.010310 0.020344 -0.003421 0.000000 0.000000 0.000000
# 3 -0.004806 -0.003421 0.015379 0.000000 0.000000 0.000000
# 4 0.000000 0.000000 0.000000 0.020560 0.000000 0.000000
# 5 0.000000 0.000000 0.000000 0.000000 0.029620 0.000000
# 6 0.000000 0.000000 0.000000 0.000000 0.000000 0.030330
#
#
# Mechanical properties :
#
#
# Convention : Reuss Voigt Hill
#
# Bulk Modulus (GPa) = 70.20168 76.46583 73.33375
# Shear Modulus (GPa) = 28.79269 32.48025 30.63647
#
# Velocity S-wave (km/s) = 3.83421 4.07234 3.95507
# Velocity P-wave (km/s) = 7.44618 7.82013 7.63544
#
# Compressibility (1/GPa) = 0.01424467
#
# Stress axis : x y z
#
# Youngs Moduli (GPa) = 64.11061 49.15569 65.02416
#
# Poissons Ratio (x) = 0.50682 0.31252
# Poissons Ratio (y) = 0.66101 0.22246
# Poissons Ratio (z) = 0.30813 0.16817
#
# Static dielectric constant tensor:
#      x y z
#    x 4.202200 0.000000 0.000000 
#    y 0.000000 3.609420 0.000000 
#    z 0.000000 0.000000 3.643320 
# 
# 
# High freq. dielectric constant tensor:
#      x y z
#    x 1.781230 0.000000 0.000000 
#    y 0.000000 1.761680 0.000000 
#    z 0.000000 0.000000 1.769850 
# 
# From -- ./inp_files/8722.got.cif
#   From: 2010.03.12/outbox.cif.g09.slc.cpg/sg53_5_cif.got.tgz:8722.got - 2010.04.16 14:36:59.
