data_PCOD8221219
_publ_section_title
;
Structure prediction by ZEFSAII (Michael W. Deem and Ramdas Pophale) SiO2 
 PCOD8221219
Probable space group: P M N A
;
_chemical_formula_sum "Si O2"
_cell_formula_units_Z 64
_cell_length_a 8.672599
_cell_length_b 17.473241
_cell_length_c 19.945722
_cell_angle_alpha 90.000000
_cell_angle_beta 90.000000
_cell_angle_gamma 90.000000
_cell_volume 3022.543047
_symmetry_space_group_name_H-M "P M N A"
_symmetry_group_IT_number 53
_symmetry_cell_setting 'orthorhombic'
loop_
_space_group_symop_operation_xyz
x,y,z
1/2-x,-y,1/2+z
x,-y,-z
1/2-x,y,1/2-z
-x,-y,-z
1/2+x,y,1/2-z
-x,y,z
1/2+x,-y,1/2+z
loop_
_atom_site_type_symbol
_atom_site_label
_atom_site_fract_x
_atom_site_fract_y
_atom_site_fract_z
Si Si1 0.177435 0.074911 0.376805
Si Si2 0.318156 0.234805 0.818312
Si Si3 0.827041 0.075371 0.849210
Si Si4 0.172043 0.883108 0.999267
Si Si5 0.680762 0.780537 0.680701
Si Si6 0.182075 0.382384 0.322135
Si Si7 0.181982 0.282073 0.955376
Si Si8 0.818636 0.426120 0.042749
O O1 0.207083 0.065619 0.456458
O O2 0.280764 0.151175 0.369014
O O3 0.000000 0.088162 0.358677
O O4 0.239478 0.004150 0.332135
O O5 0.250000 0.271764 0.750000
O O6 0.500000 0.238942 0.816446
O O7 0.266190 0.146279 0.819658
O O8 0.259424 0.283235 0.881942
O O9 0.832916 0.079263 0.928507
O O10 0.000000 0.074966 0.818906
O O11 0.228023 0.794905 0.005339
O O12 0.000000 0.886915 0.967771
O O13 0.750000 0.810212 0.750000
O O14 0.500000 0.764006 0.685181
O O15 0.763635 0.702760 0.659010
O O16 0.250000 0.409086 0.250000
O O17 0.238163 0.434230 0.384398
O O18 0.000000 0.386092 0.315910
O O19 0.000000 0.285333 0.942718
O O20 0.240196 0.352825 0.000412
O O21 0.000000 0.420350 0.055429
O O22 0.772813 0.500000 0.000000
#
# Coordination Sequence:
#
# PCOD8221219 Si02
#       8
#     8   8   8   8   8   8   8   8
#     4  12  23  33  49  77 110 144 186 235 289 347
#     4  11  22  38  60  84 111 147 196 249 303 361
#     4  10  21  37  54  74 104 143 187 236 294 351
#     4   9  18  33  53  75 103 142 185 231 285 345
#     4  11  22  38  57  78 107 143 187 234 283 338
#     4  11  22  39  64  92 124 162 205 248 293 350
#     4   9  19  37  60  86 117 153 194 241 294 352
#     4  10  21  39  65  97 132 166 199 240 294 353
#
# _framework density 21.174222
#
# number of rings (size 3 to 8) (size 9 to 14) (size 15 to 20)
#    0.000    1.625    0.000    7.500    0.000    6.250 
#    0.000    3.125    0.000    0.000    0.000    0.000 
#    0.000    0.000    0.000    0.000    0.000    0.000 
#
# Total GULP energy -793488.263557 kJ/mol
# GULP energy per Si atom -12398.254118 kJ/mol
# Density = 2.112603 g / cm^3
# Si number density = 21.174222 Si / 1000 Ang^3
#
#
#
# Elastic Constant Matrix: (Units=GPa)
#
#
# Indices 1 2 3 4 5 6 
#
# 1 129.8241 30.3498 52.2204 0.0000 0.0000 0.0000
# 2 30.3498 82.1856 38.6280 0.0000 0.0000 0.0000
# 3 52.2204 38.6280 115.2319 0.0000 0.0000 0.0000
# 4 0.0000 0.0000 0.0000 11.8107 0.0000 0.0000
# 5 0.0000 0.0000 0.0000 0.0000 36.9000 0.0000
# 6 0.0000 0.0000 0.0000 0.0000 0.0000 22.6463
#
#
#
# Elastic Compliance Matrix: (Units=1/GPa)
#
#
# Indices 1 2 3 4 5 6 
#
# 1 0.009636 -0.001788 -0.003768 0.000000 0.000000 0.000000
# 2 -0.001788 0.014775 -0.004143 0.000000 0.000000 0.000000
# 3 -0.003768 -0.004143 0.011774 0.000000 0.000000 0.000000
# 4 0.000000 0.000000 0.000000 0.084669 0.000000 0.000000
# 5 0.000000 0.000000 0.000000 0.000000 0.027100 0.000000
# 6 0.000000 0.000000 0.000000 0.000000 0.000000 0.044157
#
#
# Mechanical properties :
#
#
# Convention : Reuss Voigt Hill
#
# Bulk Modulus (GPa) = 59.56172 63.29312 61.42742
# Shear Modulus (GPa) = 23.03038 28.00761 25.51900
#
# Velocity S-wave (km/s) = 3.30155 3.64087 3.47535
# Velocity P-wave (km/s) = 6.53636 6.90153 6.72143
#
# Compressibility (1/GPa) = 0.01678931
#
# Stress axis : x y z
#
# Youngs Moduli (GPa) = 103.77611 67.68262 84.93101
#
# Poissons Ratio (x) = 0.12099 0.31999
# Poissons Ratio (y) = 0.18552 0.35184
# Poissons Ratio (z) = 0.39099 0.28039
#
# Static dielectric constant tensor:
#      x y z
#    x 3.765680 0.000000 0.000000 
#    y 0.000000 3.722890 0.000000 
#    z 0.000000 0.000000 4.012130 
# 
# 
# High freq. dielectric constant tensor:
#      x y z
#    x 1.827120 0.000000 0.000000 
#    y 0.000000 1.807110 0.000000 
#    z 0.000000 0.000000 1.842990 
# 
# From -- ./inp_files/31189.got.cif
#   From: 2010.03.12/outbox.cif.g09.slc.cpg/sg53_16_cif.got.tgz:31189.got - 2010.04.16 14:36:59.
