data_PCOD8221022
_publ_section_title
;
Structure prediction by ZEFSAII (Michael W. Deem and Ramdas Pophale) SiO2 
 PCOD8221022
Probable space group: P M N A
;
_chemical_formula_sum "Si O2"
_cell_formula_units_Z 64
_cell_length_a 8.903220
_cell_length_b 14.889787
_cell_length_c 23.541553
_cell_angle_alpha 90.000000
_cell_angle_beta 90.000000
_cell_angle_gamma 90.000000
_cell_volume 3120.834220
_symmetry_space_group_name_H-M "P M N A"
_symmetry_group_IT_number 53
_symmetry_cell_setting 'orthorhombic'
loop_
_space_group_symop_operation_xyz
x,y,z
1/2-x,-y,1/2+z
x,-y,-z
1/2-x,y,1/2-z
-x,-y,-z
1/2+x,y,1/2-z
-x,y,z
1/2+x,-y,1/2+z
loop_
_atom_site_type_symbol
_atom_site_label
_atom_site_fract_x
_atom_site_fract_y
_atom_site_fract_z
Si Si1 0.322854 0.141780 0.603861
Si Si2 0.324993 0.680014 0.121096
Si Si3 0.163599 0.101412 0.018320
Si Si4 0.177906 0.353938 0.114561
Si Si5 0.673363 0.210018 0.190725
Si Si6 0.325064 0.605047 0.999603
Si Si7 0.677352 0.493346 0.810724
Si Si8 0.669806 0.040924 0.122730
O O1 0.500000 0.138996 0.609076
O O2 0.259545 0.227797 0.637198
O O3 0.271859 0.151762 0.537610
O O4 0.264505 0.049373 0.631697
O O5 0.500000 0.700650 0.120563
O O6 0.284286 0.607470 0.169284
O O7 0.272366 0.643985 0.059925
O O8 0.278254 0.104329 0.070369
O O9 0.000000 0.141272 0.036545
O O10 0.138111 0.000000 0.000000
O O11 0.235859 0.263265 0.143100
O O12 0.225227 0.347779 0.048665
O O13 0.255644 0.439496 0.143163
O O14 0.000000 0.362228 0.120410
O O15 0.750000 0.232242 0.250000
O O16 0.500000 0.241639 0.192018
O O17 0.684323 0.103369 0.178271
O O18 0.500000 0.623929 0.987434
O O19 0.291173 0.500000 0.000000
O O20 0.750000 0.512357 0.750000
O O21 0.500000 0.509481 0.807233
O O22 0.500000 0.011488 0.110879
#
# Coordination Sequence:
#
# PCOD8221022 Si02
#       8
#     8   8   8   8   8   8   8   8
#     4  10  21  36  57  86 122 158 197 245 297 355
#     4  10  22  39  62  89 125 166 205 250 304 364
#     4   8  16  31  50  77 112 148 184 231 287 342
#     4  12  25  40  63  94 126 163 202 250 306 371
#     4  11  25  44  64  89 120 159 207 260 312 371
#     4  10  20  40  64  90 126 167 205 251 310 368
#     4  11  23  43  66  90 120 160 205 255 306 358
#     4  10  21  37  59  85 113 150 199 247 298 359
#
# _framework density 20.507338000000001
#
# number of rings (size 3 to 8) (size 9 to 14) (size 15 to 20)
#    0.000    1.750    1.250    3.750    1.750    6.500 
#    0.000    0.625    0.000    0.000    0.000    0.000 
#    0.000    0.000    0.000    0.000    0.000    0.000 
#
# Total GULP energy -793670.565957 kJ/mol
# GULP energy per Si atom -12401.102593 kJ/mol
# Density = 2.046066 g / cm^3
# Si number density = 20.507338 Si / 1000 Ang^3
#
#
#
# Elastic Constant Matrix: (Units=GPa)
#
#
# Indices 1 2 3 4 5 6 
#
# 1 100.0320 34.3358 28.9731 0.0000 0.0000 0.0000
# 2 34.3358 84.9138 6.3673 0.0000 0.0000 0.0000
# 3 28.9731 6.3673 63.4100 0.0000 0.0000 0.0000
# 4 0.0000 0.0000 0.0000 32.3936 0.0000 0.0000
# 5 0.0000 0.0000 0.0000 0.0000 30.6493 0.0000
# 6 0.0000 0.0000 0.0000 0.0000 0.0000 61.3366
#
#
#
# Elastic Compliance Matrix: (Units=1/GPa)
#
#
# Indices 1 2 3 4 5 6 
#
# 1 0.013320 -0.004967 -0.005587 0.000000 0.000000 0.000000
# 2 -0.004967 0.013718 0.000892 0.000000 0.000000 0.000000
# 3 -0.005587 0.000892 0.018234 0.000000 0.000000 0.000000
# 4 0.000000 0.000000 0.000000 0.030870 0.000000 0.000000
# 5 0.000000 0.000000 0.000000 0.000000 0.032627 0.000000
# 6 0.000000 0.000000 0.000000 0.000000 0.000000 0.016303
#
#
# Mechanical properties :
#
#
# Convention : Reuss Voigt Hill
#
# Bulk Modulus (GPa) = 38.53984 43.07868 40.80926
# Shear Modulus (GPa) = 32.66968 36.78787 34.72878
#
# Velocity S-wave (km/s) = 3.99566 4.24003 4.11966
# Velocity P-wave (km/s) = 6.33412 6.70988 6.52471
#
# Compressibility (1/GPa) = 0.02594718
#
# Stress axis : x y z
#
# Youngs Moduli (GPa) = 75.07466 72.89547 54.84331
#
# Poissons Ratio (x) = 0.36208 0.30643
# Poissons Ratio (y) = 0.37291 -0.04892
# Poissons Ratio (z) = 0.41947 -0.06503
#
# Static dielectric constant tensor:
#      x y z
#    x 3.691620 0.000000 0.000000 
#    y 0.000000 3.726100 0.000000 
#    z 0.000000 0.000000 3.476900 
# 
# 
# High freq. dielectric constant tensor:
#      x y z
#    x 1.805110 0.000000 0.000000 
#    y 0.000000 1.807900 0.000000 
#    z 0.000000 0.000000 1.786050 
# 
# From -- ./inp_files/34316.got.cif
#   From: 2010.03.12/outbox.cif.g09.slc.cpg/sg53_18_cif.got.tgz:34316.got - 2010.04.16 14:36:59.
