data_PCOD8221683
_publ_section_title
;
Structure prediction by ZEFSAII (Michael W. Deem and Ramdas Pophale) SiO2 
 PCOD8221683
Probable space group: P M N A
;
_chemical_formula_sum "Si O2"
_cell_formula_units_Z 60
_cell_length_a 29.127463
_cell_length_b 12.038121
_cell_length_c 8.156302
_cell_angle_alpha 90.000000
_cell_angle_beta 90.000000
_cell_angle_gamma 90.000000
_cell_volume 2859.925114
_symmetry_space_group_name_H-M "P M N A"
_symmetry_group_IT_number 53
_symmetry_cell_setting 'orthorhombic'
loop_
_space_group_symop_operation_xyz
x,y,z
1/2-x,-y,1/2+z
x,-y,-z
1/2-x,y,1/2-z
-x,-y,-z
1/2+x,y,1/2-z
-x,y,z
1/2+x,-y,1/2+z
loop_
_atom_site_type_symbol
_atom_site_label
_atom_site_fract_x
_atom_site_fract_y
_atom_site_fract_z
Si Si1 0.656935 0.527776 0.181521
Si Si2 0.867483 0.770063 0.389995
Si Si3 0.773437 0.733997 0.913743
Si Si4 0.368851 0.705393 0.747541
Si Si5 0.552194 0.907400 0.260881
Si Si6 0.719033 0.096258 0.884318
Si Si7 0.218651 0.500000 0.000000
Si Si8 0.551723 0.147493 0.360636
O O1 0.629965 0.644885 0.181179
O O2 0.622603 0.425596 0.220856
O O3 0.692496 0.530063 0.330783
O O4 0.679049 0.500000 0.000000
O O5 0.856806 0.768381 0.583803
O O6 0.914722 0.833932 0.352817
O O7 0.824471 0.836381 0.312438
O O8 0.750000 0.775402 0.750000
O O9 0.828552 0.726912 0.886279
O O10 0.758107 0.820536 0.048846
O O11 0.752907 0.612098 0.962590
O O12 0.416468 0.749455 0.680221
O O13 0.500000 0.890260 0.197674
O O14 0.556547 0.871985 0.447607
O O15 0.565702 0.037994 0.255494
O O16 0.750000 0.033023 0.750000
O O17 0.699694 0.000000 0.000000
O O18 0.500000 0.180920 0.315368
#
# Coordination Sequence:
#
# PCOD8221683 Si02
#       8
#     8   8   8   8   8   8   4   8
#     4   9  21  40  60  95 127 159 211 266 309 382
#     4  11  23  40  64  87 126 166 203 254 322 366
#     4  11  23  43  60  92 128 162 214 263 302 380
#     4  10  22  39  64  88 125 162 203 263 310 363
#     4   9  21  39  62  93 124 158 206 258 306 378
#     4  12  28  43  61  88 128 168 212 258 314 378
#     4  10  22  38  68  88 115 174 217 256 320 362
#     4   9  20  40  63  91 123 159 207 255 312 377
#
# _framework density 20.979571
#
# number of rings (size 3 to 8) (size 9 to 14) (size 15 to 20)
#    0.000    1.867    1.333    2.000    7.467    3.200 
#    0.000    2.000    0.000    4.000    0.000    0.000 
#    0.000    0.000    0.000    0.000    0.000    0.000 
#
# Total GULP energy -743527.275542 kJ/mol
# GULP energy per Si atom -12392.121259 kJ/mol
# Density = 2.093182 g / cm^3
# Si number density = 20.979571 Si / 1000 Ang^3
#
#
#
# Elastic Constant Matrix: (Units=GPa)
#
#
# Indices 1 2 3 4 5 6 
#
# 1 105.1043 62.1683 20.3086 0.0000 0.0000 0.0000
# 2 62.1683 119.9026 14.3751 0.0000 0.0000 0.0000
# 3 20.3086 14.3751 43.6979 0.0000 0.0000 0.0000
# 4 0.0000 0.0000 0.0000 29.9013 0.0000 0.0000
# 5 0.0000 0.0000 0.0000 0.0000 27.1293 0.0000
# 6 0.0000 0.0000 0.0000 0.0000 0.0000 26.7479
#
#
#
# Elastic Compliance Matrix: (Units=1/GPa)
#
#
# Indices 1 2 3 4 5 6 
#
# 1 0.014507 -0.006989 -0.004443 0.000000 0.000000 0.000000
# 2 -0.006989 0.012050 -0.000716 0.000000 0.000000 0.000000
# 3 -0.004443 -0.000716 0.025185 0.000000 0.000000 0.000000
# 4 0.000000 0.000000 0.000000 0.033443 0.000000 0.000000
# 5 0.000000 0.000000 0.000000 0.000000 0.036860 0.000000
# 6 0.000000 0.000000 0.000000 0.000000 0.000000 0.037386
#
#
# Mechanical properties :
#
#
# Convention : Reuss Voigt Hill
#
# Bulk Modulus (GPa) = 36.43546 51.37876 43.90711
# Shear Modulus (GPa) = 25.92355 28.21256 27.06806
#
# Velocity S-wave (km/s) = 3.51900 3.67108 3.59585
# Velocity P-wave (km/s) = 5.82375 6.52014 6.18175
#
# Compressibility (1/GPa) = 0.02744579
#
# Stress axis : x y z
#
# Youngs Moduli (GPa) = 68.93351 82.99019 39.70670
#
# Poissons Ratio (x) = 0.58001 0.17641
# Poissons Ratio (y) = 0.48177 0.02842
# Poissons Ratio (z) = 0.30626 0.05940
#
# Static dielectric constant tensor:
#      x y z
#    x 3.602310 0.000000 0.000000 
#    y 0.000000 4.025020 0.000000 
#    z 0.000000 0.000000 3.988360 
# 
# 
# High freq. dielectric constant tensor:
#      x y z
#    x 1.794590 0.000000 0.000000 
#    y 0.000000 1.831480 0.000000 
#    z 0.000000 0.000000 1.830890 
# 
# From -- ./inp_files/13215.got.cif
#   From: 2010.03.12/outbox.cif.g09.slc.cpg/sg53_7_cif.got.tgz:13215.got - 2010.04.16 14:36:59.
