data_PCOD8221790
_publ_section_title
;
Structure prediction by ZEFSAII (Michael W. Deem and Ramdas Pophale) SiO2 
 PCOD8221790
Probable space group: P M N A
;
_chemical_formula_sum "Si O2"
_cell_formula_units_Z 40
_cell_length_a 8.429171
_cell_length_b 9.114421
_cell_length_c 25.270778
_cell_angle_alpha 90.000000
_cell_angle_beta 90.000000
_cell_angle_gamma 90.000000
_cell_volume 1941.478394
_symmetry_space_group_name_H-M "P M N A"
_symmetry_group_IT_number 53
_symmetry_cell_setting 'orthorhombic'
loop_
_space_group_symop_operation_xyz
x,y,z
1/2-x,-y,1/2+z
x,-y,-z
1/2-x,y,1/2-z
-x,-y,-z
1/2+x,y,1/2-z
-x,y,z
1/2+x,-y,1/2+z
loop_
_atom_site_type_symbol
_atom_site_label
_atom_site_fract_x
_atom_site_fract_y
_atom_site_fract_z
Si Si1 0.315528 0.650496 0.806140
Si Si2 0.315993 0.147930 0.901263
Si Si3 0.681382 0.832111 0.602516
Si Si4 0.313556 0.663192 0.308244
Si Si5 0.315459 0.330755 0.003994
O O1 0.250000 0.707242 0.750000
O O2 0.500000 0.612874 0.800377
O O3 0.290066 0.776296 0.849337
O O4 0.225648 0.503492 0.824710
O O5 0.500000 0.106253 0.902578
O O6 0.275040 0.225012 0.846432
O O7 0.270286 0.256460 0.948686
O O8 0.216150 0.001180 0.908775
O O9 0.500000 0.812456 0.619449
O O10 0.712508 0.740623 0.549839
O O11 0.250000 0.696347 0.250000
O O12 0.500000 0.690396 0.311493
O O13 0.500000 0.309953 0.017984
O O14 0.268897 0.500000 0.000000
#
# Coordination Sequence:
#
# PCOD8221790 Si02
#       5
#     8   8   8   8   8
#     4  11  22  40  64  90 121 158 202 248 299 357
#     4  11  23  40  62  89 123 162 203 247 300 359
#     4  12  25  40  60  89 124 160 201 250 304 358
#     4  11  22  39  63  92 124 159 202 248 298 354
#     4  10  22  41  65  90 118 156 201 248 301 361
#
# _framework density 20.602857
#
# number of rings (size 3 to 8) (size 9 to 14) (size 15 to 20)
#    0.000    1.000    0.000    9.000    0.000    6.800 
#    0.000    4.000    0.000    0.000    0.000    0.000 
#    0.000    0.000    0.000    0.000    0.000    0.000 
#
# Total GULP energy -496344.401415 kJ/mol
# GULP energy per Si atom -12408.610035 kJ/mol
# Density = 2.055596 g / cm^3
# Si number density = 20.602857 Si / 1000 Ang^3
#
#
#
# Elastic Constant Matrix: (Units=GPa)
#
#
# Indices 1 2 3 4 5 6 
#
# 1 64.6935 10.5893 34.8269 0.0000 0.0000 0.0000
# 2 10.5893 123.6806 64.4862 0.0000 0.0000 0.0000
# 3 34.8269 64.4862 111.5829 0.0000 0.0000 0.0000
# 4 0.0000 0.0000 0.0000 -104.3636 0.0000 0.0000
# 5 0.0000 0.0000 0.0000 0.0000 34.5924 0.0000
# 6 0.0000 0.0000 0.0000 0.0000 0.0000 10.1293
#
#
#
# Elastic Compliance Matrix: (Units=1/GPa)
#
#
# Indices 1 2 3 4 5 6 
#
# 1 0.018950 0.002092 -0.007123 0.000000 0.000000 0.000000
# 2 0.002092 0.011803 -0.007474 0.000000 0.000000 0.000000
# 3 -0.007123 -0.007474 0.015505 0.000000 0.000000 0.000000
# 4 0.000000 0.000000 0.000000 -0.009582 0.000000 0.000000
# 5 0.000000 0.000000 0.000000 0.000000 0.028908 0.000000
# 6 0.000000 0.000000 0.000000 0.000000 0.000000 0.098724
#
#
# Mechanical properties :
#
#
# Convention : Reuss Voigt Hill
#
# Bulk Modulus (GPa) = 47.06758 57.75132 52.40945
# Shear Modulus (GPa) = 25.45805 0.74193 13.09999
#
# Velocity S-wave (km/s) = 3.51900 0.60074 2.52431
# Velocity P-wave (km/s) = 6.27742 5.34535 5.83004
#
# Compressibility (1/GPa) = 0.02124605
#
# Stress axis : x y z
#
# Youngs Moduli (GPa) = 52.77070 84.72235 64.49625
#
# Poissons Ratio (x) = -0.17721 0.45943
# Poissons Ratio (y) = -0.11038 0.48206
# Poissons Ratio (z) = 0.37591 0.63323
#
# Static dielectric constant tensor:
#      x y z
#    x 3.743040 0.000000 0.000000 
#    y 0.000000 3.786150 0.000000 
#    z 0.000000 0.000000 3.450770 
# 
# 
# High freq. dielectric constant tensor:
#      x y z
#    x 1.815290 0.000000 0.000000 
#    y 0.000000 1.809660 0.000000 
#    z 0.000000 0.000000 1.818440 
# 
# From -- ./inp_files/33621.got.cif
#   From: 2010.03.12/outbox.cif.g09.slc.cpg/sg53_17_cif.got.tgz:33621.got - 2010.04.16 14:36:59.
