data_PCOD8221895
_publ_section_title
;
Structure prediction by ZEFSAII (Michael W. Deem and Ramdas Pophale) SiO2 
 PCOD8221895
Probable space group: P M N A
;
_chemical_formula_sum "Si O2"
_cell_formula_units_Z 32
_cell_length_a 12.469934
_cell_length_b 5.002390
_cell_length_c 25.034174
_cell_angle_alpha 90.000000
_cell_angle_beta 90.000000
_cell_angle_gamma 90.000000
_cell_volume 1561.618585
_symmetry_space_group_name_H-M "P M N A"
_symmetry_group_IT_number 53
_symmetry_cell_setting 'orthorhombic'
loop_
_space_group_symop_operation_xyz
x,y,z
1/2-x,-y,1/2+z
x,-y,-z
1/2-x,y,1/2-z
-x,-y,-z
1/2+x,y,1/2-z
-x,y,z
1/2+x,-y,1/2+z
loop_
_atom_site_type_symbol
_atom_site_label
_atom_site_fract_x
_atom_site_fract_y
_atom_site_fract_z
Si Si1 0.878791 0.746367 0.037062
Si Si2 0.000000 0.560011 0.330097
Si Si3 0.796636 0.803401 0.804251
Si Si4 0.770696 0.307652 0.635753
Si Si5 0.500000 0.947145 0.754544
O O1 0.785119 0.778415 0.080759
O O2 0.000000 0.718580 0.061602
O O3 0.849405 0.500000 0.000000
O O4 0.873119 0.000000 0.000000
O O5 0.894628 0.592348 0.367760
O O6 0.000000 0.269989 0.302163
O O7 0.000000 0.763255 0.280894
O O8 0.750000 0.679896 0.750000
O O9 0.802761 0.553305 0.844105
O O10 0.908653 0.928420 0.789552
O O11 0.724482 0.046983 0.826460
#
# Coordination Sequence:
#
# PCOD8221895 Si02
#       5
#     8   4   8   8   4
#     4  10  23  44  65  87 116 150 197 259 311 350
#     4  12  22  40  58  87 126 165 198 240 296 348
#     4  12  23  39  58  91 127 164 203 237 291 358
#     4  12  24  40  63  90 121 163 203 244 300 359
#     4  12  24  36  58  85 130 165 200 246 286 344
#
# _framework density 20.49156
#
# number of rings (size 3 to 8) (size 9 to 14) (size 15 to 20)
#    0.000    0.500    5.000    3.750    3.500    0.000 
#    0.000    1.250    0.000    0.000    0.000    0.000 
#    0.000    0.000    0.000    0.000    0.000    0.000 
#
# Total GULP energy -396652.933202 kJ/mol
# GULP energy per Si atom -12395.404163 kJ/mol
# Density = 2.044492 g / cm^3
# Si number density = 20.491560 Si / 1000 Ang^3
#
#
#
# Elastic Constant Matrix: (Units=GPa)
#
#
# Indices 1 2 3 4 5 6 
#
# 1 103.4359 -4.2937 44.6197 0.0000 0.0000 0.0000
# 2 -4.2937 98.9611 14.4324 0.0000 0.0000 0.0000
# 3 44.6197 14.4324 70.0131 0.0000 0.0000 0.0000
# 4 0.0000 0.0000 0.0000 20.1854 0.0000 0.0000
# 5 0.0000 0.0000 0.0000 0.0000 39.3147 0.0000
# 6 0.0000 0.0000 0.0000 0.0000 0.0000 28.5215
#
#
#
# Elastic Compliance Matrix: (Units=1/GPa)
#
#
# Indices 1 2 3 4 5 6 
#
# 1 0.013679 0.001923 -0.009114 0.000000 0.000000 0.000000
# 2 0.001923 0.010688 -0.003429 0.000000 0.000000 0.000000
# 3 -0.009114 -0.003429 0.020798 0.000000 0.000000 0.000000
# 4 0.000000 0.000000 0.000000 0.049541 0.000000 0.000000
# 5 0.000000 0.000000 0.000000 0.000000 0.025436 0.000000
# 6 0.000000 0.000000 0.000000 0.000000 0.000000 0.035061
#
#
# Mechanical properties :
#
#
# Convention : Reuss Voigt Hill
#
# Bulk Modulus (GPa) = 41.79594 42.43631 42.11613
# Shear Modulus (GPa) = 27.11211 32.11443 29.61327
#
# Velocity S-wave (km/s) = 3.64137 3.96309 3.80563
# Velocity P-wave (km/s) = 6.17417 6.45721 6.31727
#
# Compressibility (1/GPa) = 0.02392577
#
# Stress axis : x y z
#
# Youngs Moduli (GPa) = 73.10332 93.55905 48.08078
#
# Poissons Ratio (x) = -0.17989 0.43822
# Poissons Ratio (y) = -0.14056 0.16485
# Poissons Ratio (z) = 0.66628 0.32078
#
# Static dielectric constant tensor:
#      x y z
#    x 2.729920 0.000000 0.000000 
#    y 0.000000 3.797040 0.000000 
#    z 0.000000 0.000000 3.448470 
# 
# 
# High freq. dielectric constant tensor:
#      x y z
#    x 1.810690 0.000000 0.000000 
#    y 0.000000 1.825440 0.000000 
#    z 0.000000 0.000000 1.770680 
# 
# From -- ./inp_files/31577.got.cif
#   From: 2010.03.12/outbox.cif.g09.slc.cpg/sg53_16_cif.got.tgz:31577.got - 2010.04.16 14:36:59.
