data_PCOD8221047
_publ_section_title
;
Structure prediction by ZEFSAII (Michael W. Deem and Ramdas Pophale) SiO2 
 PCOD8221047
Probable space group: P M N A
;
_chemical_formula_sum "Si O2"
_cell_formula_units_Z 56
_cell_length_a 7.723128
_cell_length_b 15.456449
_cell_length_c 26.548045
_cell_angle_alpha 90.000000
_cell_angle_beta 90.000000
_cell_angle_gamma 90.000000
_cell_volume 3169.096787
_symmetry_space_group_name_H-M "P M N A"
_symmetry_group_IT_number 53
_symmetry_cell_setting 'orthorhombic'
loop_
_space_group_symop_operation_xyz
x,y,z
1/2-x,-y,1/2+z
x,-y,-z
1/2-x,y,1/2-z
-x,-y,-z
1/2+x,y,1/2-z
-x,y,z
1/2+x,-y,1/2+z
loop_
_atom_site_type_symbol
_atom_site_label
_atom_site_fract_x
_atom_site_fract_y
_atom_site_fract_z
Si Si1 0.203384 0.326607 0.807660
Si Si2 0.500000 0.105323 0.057235
Si Si3 0.702729 0.485671 0.307669
Si Si4 0.697391 0.847588 0.624702
Si Si5 0.500000 0.098488 0.939463
Si Si6 0.305507 0.302487 0.191673
Si Si7 0.799844 0.999267 0.807066
Si Si8 0.293629 0.837218 0.369549
O O1 0.250000 0.305295 0.750000
O O2 0.272621 0.420757 0.827402
O O3 0.270489 0.253552 0.845912
O O4 0.000000 0.328805 0.810159
O O5 0.672980 0.153967 0.077226
O O6 0.500000 0.003825 0.071411
O O7 0.500000 0.118991 0.997945
O O8 0.750000 0.485901 0.250000
O O9 0.500000 0.475572 0.316497
O O10 0.791854 0.400366 0.331021
O O11 0.500000 0.866208 0.606239
O O12 0.691116 0.758882 0.656424
O O13 0.781060 0.922434 0.659925
O O14 0.323862 0.141836 0.917867
O O15 0.250000 0.298437 0.250000
O O16 0.500000 0.269243 0.187407
O O17 0.750000 0.988284 0.750000
O O18 0.743990 0.092711 0.827088
O O19 0.000000 0.985749 0.813068
O O20 0.500000 0.838700 0.383143
#
# Coordination Sequence:
#
# PCOD8221047 Si02
#       8
#     8   4   8   8   4   8   8   8
#     4   9  18  30  48  75 111 150 185 221 263 320
#     4  11  24  42  60  83 103 139 191 234 282 329
#     4   9  16  28  44  69 106 148 189 221 257 309
#     4  11  22  38  55  79 110 140 179 227 274 328
#     4  11  24  40  64  79 103 145 183 238 284 319
#     4  11  20  31  49  77 113 151 187 222 262 323
#     4  10  21  31  49  75 108 147 175 207 259 316
#     4  10  21  37  52  80 111 139 183 224 270 330
#
# _framework density 17.670649999999998
#
# number of rings (size 3 to 8) (size 9 to 14) (size 15 to 20)
#    0.000    1.857    2.143    3.429    3.000    2.286 
#    0.000    1.429    0.000    0.000    0.000    2.000 
#    0.000    4.571    0.000    0.000    0.000    0.000 
#
# Total GULP energy -693925.525094 kJ/mol
# GULP energy per Si atom -12391.527234 kJ/mol
# Density = 1.763043 g / cm^3
# Si number density = 17.670650 Si / 1000 Ang^3
#
#
#
# Elastic Constant Matrix: (Units=GPa)
#
#
# Indices 1 2 3 4 5 6 
#
# 1 76.9659 27.2106 35.5261 0.0000 0.0000 0.0000
# 2 27.2106 112.5513 38.1187 0.0000 0.0000 0.0000
# 3 35.5261 38.1187 83.8036 0.0000 0.0000 0.0000
# 4 0.0000 0.0000 0.0000 15.6316 0.0000 0.0000
# 5 0.0000 0.0000 0.0000 0.0000 24.8679 0.0000
# 6 0.0000 0.0000 0.0000 0.0000 0.0000 9.7714
#
#
#
# Elastic Compliance Matrix: (Units=1/GPa)
#
#
# Indices 1 2 3 4 5 6 
#
# 1 0.016495 -0.001915 -0.006122 0.000000 0.000000 0.000000
# 2 -0.001915 0.010725 -0.004067 0.000000 0.000000 0.000000
# 3 -0.006122 -0.004067 0.016378 0.000000 0.000000 0.000000
# 4 0.000000 0.000000 0.000000 0.063973 0.000000 0.000000
# 5 0.000000 0.000000 0.000000 0.000000 0.040212 0.000000
# 6 0.000000 0.000000 0.000000 0.000000 0.000000 0.102339
#
#
# Mechanical properties :
#
#
# Convention : Reuss Voigt Hill
#
# Bulk Modulus (GPa) = 51.56854 52.78128 52.17491
# Shear Modulus (GPa) = 17.80669 21.55188 19.67929
#
# Velocity S-wave (km/s) = 3.17787 3.49613 3.34079
# Velocity P-wave (km/s) = 6.53542 6.79938 6.66870
#
# Compressibility (1/GPa) = 0.01939167
#
# Stress axis : x y z
#
# Youngs Moduli (GPa) = 60.62290 93.23990 61.05892
#
# Poissons Ratio (x) = 0.17852 0.37380
# Poissons Ratio (y) = 0.11607 0.24831
# Poissons Ratio (z) = 0.37113 0.37918
#
# Static dielectric constant tensor:
#      x y z
#    x 3.488370 0.000000 0.000000 
#    y 0.000000 4.193840 0.000000 
#    z 0.000000 0.000000 2.817150 
# 
# 
# High freq. dielectric constant tensor:
#      x y z
#    x 1.695200 0.000000 0.000000 
#    y 0.000000 1.698110 0.000000 
#    z 0.000000 0.000000 1.628520 
# 
# From -- ./inp_files/30916.got.cif
#   From: 2010.03.12/outbox.cif.g09.slc.cpg/sg53_16_cif.got.tgz:30916.got - 2010.04.16 14:36:59.
