data_PCOD8221198
_publ_section_title
;
Structure prediction by ZEFSAII (Michael W. Deem and Ramdas Pophale) SiO2 
 PCOD8221198
Probable space group: P M N A
;
_chemical_formula_sum "Si O2"
_cell_formula_units_Z 56
_cell_length_a 13.576935
_cell_length_b 15.033757
_cell_length_c 12.013906
_cell_angle_alpha 90.000000
_cell_angle_beta 90.000000
_cell_angle_gamma 90.000000
_cell_volume 2452.186485
_symmetry_space_group_name_H-M "P M N A"
_symmetry_group_IT_number 53
_symmetry_cell_setting 'orthorhombic'
loop_
_space_group_symop_operation_xyz
x,y,z
1/2-x,-y,1/2+z
x,-y,-z
1/2-x,y,1/2-z
-x,-y,-z
1/2+x,y,1/2-z
-x,y,z
1/2+x,-y,1/2+z
loop_
_atom_site_type_symbol
_atom_site_label
_atom_site_fract_x
_atom_site_fract_y
_atom_site_fract_z
Si Si1 0.610550 0.238576 0.683667
Si Si2 0.244592 0.352457 0.971105
Si Si3 0.383229 0.907916 0.146219
Si Si4 0.114597 0.899829 0.602420
Si Si5 0.892265 0.417714 0.691264
Si Si6 0.114650 0.289061 0.340325
Si Si7 0.886669 0.576585 0.847566
O O1 0.500000 0.219586 0.633860
O O2 0.687571 0.270764 0.589511
O O3 0.655848 0.154002 0.751668
O O4 0.601061 0.316186 0.773301
O O5 0.301963 0.423624 0.893685
O O6 0.327988 0.312543 0.048869
O O7 0.167256 0.413255 0.035898
O O8 0.500000 0.896436 0.151886
O O9 0.346303 0.010432 0.162812
O O10 0.342708 0.881456 0.022581
O O11 0.134281 0.815681 0.683203
O O12 0.000000 0.916104 0.582970
O O13 0.865633 0.479810 0.796118
O O14 0.000000 0.447703 0.642770
O O15 0.152085 0.346497 0.236186
O O16 0.000000 0.308658 0.363734
O O17 0.000000 0.590958 0.874683
#
# Coordination Sequence:
#
# PCOD8221198 Si02
#       7
#     8   8   8   8   8   8   8
#     4  10  21  36  57  89 126 160 199 249 302 359
#     4  12  23  38  63  89 120 163 203 251 312 367
#     4   8  14  28  53  85 116 150 196 245 296 355
#     4   8  14  28  55  85 113 151 196 243 297 354
#     4  10  23  42  62  87 118 153 198 249 298 356
#     4  10  21  37  59  88 120 156 203 255 303 362
#     4  10  24  44  62  85 119 159 204 250 301 368
#
# _framework density 22.836762
#
# number of rings (size 3 to 8) (size 9 to 14) (size 15 to 20)
#    0.000    2.286    0.000    3.429    0.000    6.857 
#    0.000    4.286    0.000   15.429    0.000    5.000 
#    0.000    2.286    0.000    6.286    0.000    0.571 
#
# Total GULP energy -693947.200443 kJ/mol
# GULP energy per Si atom -12391.914294 kJ/mol
# Density = 2.278478 g / cm^3
# Si number density = 22.836762 Si / 1000 Ang^3
#
#
#
# Elastic Constant Matrix: (Units=GPa)
#
#
# Indices 1 2 3 4 5 6 
#
# 1 98.1382 28.0566 57.8132 0.0000 0.0000 0.0000
# 2 28.0566 105.3265 37.7359 0.0000 0.0000 0.0000
# 3 57.8132 37.7359 106.8618 0.0000 0.0000 0.0000
# 4 0.0000 0.0000 0.0000 35.1518 0.0000 0.0000
# 5 0.0000 0.0000 0.0000 0.0000 38.3472 0.0000
# 6 0.0000 0.0000 0.0000 0.0000 0.0000 -6.4287
#
#
#
# Elastic Compliance Matrix: (Units=1/GPa)
#
#
# Indices 1 2 3 4 5 6 
#
# 1 0.015100 -0.001254 -0.007726 0.000000 0.000000 0.000000
# 2 -0.001254 0.010974 -0.003197 0.000000 0.000000 0.000000
# 3 -0.007726 -0.003197 0.014667 0.000000 0.000000 0.000000
# 4 0.000000 0.000000 0.000000 0.028448 0.000000 0.000000
# 5 0.000000 0.000000 0.000000 0.000000 0.026078 0.000000
# 6 0.000000 0.000000 0.000000 0.000000 0.000000 -0.155553
#
#
# Mechanical properties :
#
#
# Convention : Reuss Voigt Hill
#
# Bulk Modulus (GPa) = 61.02726 61.94865 61.48795
# Shear Modulus (GPa) = -164.08906 25.86212 -69.11347
#
# Velocity S-wave (km/s) = -8.48581 3.36888 -5.50725
# Velocity P-wave (km/s) = 8.32050 6.50524 3.66829
#
# Compressibility (1/GPa) = 0.01638612
#
# Stress axis : x y z
#
# Youngs Moduli (GPa) = 66.22614 91.12763 68.18188
#
# Poissons Ratio (x) = 0.11429 0.52679
# Poissons Ratio (y) = 0.08306 0.21795
# Poissons Ratio (z) = 0.51168 0.29130
#
# Static dielectric constant tensor:
#      x y z
#    x 4.210860 0.000000 0.000000 
#    y 0.000000 4.365790 0.000000 
#    z 0.000000 0.000000 3.947290 
# 
# 
# High freq. dielectric constant tensor:
#      x y z
#    x 1.902710 0.000000 0.000000 
#    y 0.000000 1.905770 0.000000 
#    z 0.000000 0.000000 1.873990 
# 
# From -- ./inp_files/16034.got.cif
#   From: 2010.03.12/outbox.cif.g09.slc.cpg/sg53_9_cif.got.tgz:16034.got - 2010.04.16 14:36:59.
