data_PCOD8221339
_publ_section_title
;
Structure prediction by ZEFSAII (Michael W. Deem and Ramdas Pophale) SiO2 
 PCOD8221339
Probable space group: P M N A
;
_chemical_formula_sum "Si O2"
_cell_formula_units_Z 48
_cell_length_a 17.602806
_cell_length_b 12.012422
_cell_length_c 11.331701
_cell_angle_alpha 90.000000
_cell_angle_beta 90.000000
_cell_angle_gamma 90.000000
_cell_volume 2396.114625
_symmetry_space_group_name_H-M "P M N A"
_symmetry_group_IT_number 53
_symmetry_cell_setting 'orthorhombic'
loop_
_space_group_symop_operation_xyz
x,y,z
1/2-x,-y,1/2+z
x,-y,-z
1/2-x,y,1/2-z
-x,-y,-z
1/2+x,y,1/2-z
-x,y,z
1/2+x,-y,1/2+z
loop_
_atom_site_type_symbol
_atom_site_label
_atom_site_fract_x
_atom_site_fract_y
_atom_site_fract_z
Si Si1 0.312353 0.616086 0.550987
Si Si2 0.659939 0.268088 0.059872
Si Si3 0.414496 0.661618 0.331538
Si Si4 0.414135 0.047609 0.130141
Si Si5 0.587839 0.566335 0.774456
Si Si6 0.165912 0.164763 0.696763
O O1 0.277075 0.500000 0.500000
O O2 0.248037 0.705918 0.581731
O O3 0.365967 0.655172 0.447944
O O4 0.361103 0.613391 0.669308
O O5 0.626785 0.167196 0.138436
O O6 0.613274 0.379307 0.100094
O O7 0.653712 0.231412 0.924675
O O8 0.500000 0.652961 0.374857
O O9 0.397957 0.567055 0.231271
O O10 0.397073 0.781412 0.279604
O O11 0.500000 0.055379 0.183937
O O12 0.357125 0.964369 0.197369
O O13 0.421752 0.000000 0.000000
O O14 0.500000 0.595187 0.752401
O O15 0.250000 0.180213 0.750000
#
# Coordination Sequence:
#
# PCOD8221339 Si02
#       6
#     8   8   8   8   8   8
#     4  10  21  37  60  86 122 163 202 247 304 363
#     4  11  22  37  61  89 122 154 198 257 305 363
#     4  10  21  38  60  87 122 163 205 247 300 363
#     4   9  20  39  60  82 113 155 197 245 304 359
#     4  10  22  37  58  88 122 161 203 247 300 363
#     4  11  22  37  60  90 123 157 203 253 304 364
#
# _framework density 20.032430000000002
#
# number of rings (size 3 to 8) (size 9 to 14) (size 15 to 20)
#    0.000    1.833    1.667    2.000    2.333    5.333 
#    0.000    1.667    0.000    0.000    0.000    4.667 
#    0.000    0.000    0.000    0.000    0.000    0.000 
#
# Total GULP energy -594647.490018 kJ/mol
# GULP energy per Si atom -12388.489375 kJ/mol
# Density = 1.998684 g / cm^3
# Si number density = 20.032430 Si / 1000 Ang^3
#
#
#
# Elastic Constant Matrix: (Units=GPa)
#
#
# Indices 1 2 3 4 5 6 
#
# 1 140.7023 59.6162 36.9978 0.0000 0.0000 0.0000
# 2 59.6162 88.1197 31.7373 0.0000 0.0000 0.0000
# 3 36.9978 31.7373 43.2842 0.0000 0.0000 0.0000
# 4 0.0000 0.0000 0.0000 31.4121 0.0000 0.0000
# 5 0.0000 0.0000 0.0000 0.0000 28.5381 0.0000
# 6 0.0000 0.0000 0.0000 0.0000 0.0000 36.6641
#
#
#
# Elastic Compliance Matrix: (Units=1/GPa)
#
#
# Indices 1 2 3 4 5 6 
#
# 1 0.010776 -0.005398 -0.005252 0.000000 0.000000 0.000000
# 2 -0.005398 0.018125 -0.008675 0.000000 0.000000 0.000000
# 3 -0.005252 -0.008675 0.033954 0.000000 0.000000 0.000000
# 4 0.000000 0.000000 0.000000 0.031835 0.000000 0.000000
# 5 0.000000 0.000000 0.000000 0.000000 0.035041 0.000000
# 6 0.000000 0.000000 0.000000 0.000000 0.000000 0.027275
#
#
# Mechanical properties :
#
#
# Convention : Reuss Voigt Hill
#
# Bulk Modulus (GPa) = 41.31896 58.75653 50.03775
# Shear Modulus (GPa) = 24.54296 28.90652 26.72474
#
# Velocity S-wave (km/s) = 3.50403 3.80279 3.65646
# Velocity P-wave (km/s) = 6.08619 6.97682 6.54667
#
# Compressibility (1/GPa) = 0.02420196
#
# Stress axis : x y z
#
# Youngs Moduli (GPa) = 92.80189 55.17245 29.45187
#
# Poissons Ratio (x) = 0.29784 0.15469
# Poissons Ratio (y) = 0.50098 0.25551
# Poissons Ratio (z) = 0.48743 0.47864
#
# Static dielectric constant tensor:
#      x y z
#    x 3.742030 0.000000 0.000000 
#    y 0.000000 3.822200 0.000000 
#    z 0.000000 0.000000 5.539740 
# 
# 
# High freq. dielectric constant tensor:
#      x y z
#    x 1.795810 0.000000 0.000000 
#    y 0.000000 1.780980 0.000000 
#    z 0.000000 0.000000 1.763300 
# 
# From -- ./inp_files/16931.got.cif
#   From: 2010.03.12/outbox.cif.g09.slc.cpg/sg53_9_cif.got.tgz:16931.got - 2010.04.16 14:36:59.
