data_PCOD8221992
_publ_section_title
;
Structure prediction by ZEFSAII (Michael W. Deem and Ramdas Pophale) SiO2 
 PCOD8221992
Probable space group: P M N A
;
_chemical_formula_sum "Si O2"
_cell_formula_units_Z 32
_cell_length_a 10.872227
_cell_length_b 11.310783
_cell_length_c 12.744654
_cell_angle_alpha 90.000000
_cell_angle_beta 90.000000
_cell_angle_gamma 90.000000
_cell_volume 1567.253438
_symmetry_space_group_name_H-M "P M N A"
_symmetry_group_IT_number 53
_symmetry_cell_setting 'orthorhombic'
loop_
_space_group_symop_operation_xyz
x,y,z
1/2-x,-y,1/2+z
x,-y,-z
1/2-x,y,1/2-z
-x,-y,-z
1/2+x,y,1/2-z
-x,y,z
1/2+x,-y,1/2+z
loop_
_atom_site_type_symbol
_atom_site_label
_atom_site_fract_x
_atom_site_fract_y
_atom_site_fract_z
Si Si1 0.500000 0.470593 0.120803
Si Si2 0.699405 0.275120 0.137039
Si Si3 0.500000 0.866875 0.961994
Si Si4 0.000000 0.736067 0.324644
Si Si5 0.138733 0.368778 0.958844
Si Si6 0.750000 0.708255 0.250000
O O1 0.620718 0.395147 0.147439
O O2 0.500000 0.592172 0.187906
O O3 0.500000 0.500000 0.000000
O O4 0.750000 0.243434 0.250000
O O5 0.620166 0.160134 0.106087
O O6 0.806612 0.286672 0.050477
O O7 0.500000 0.771902 0.055238
O O8 0.500000 0.000000 0.000000
O O9 0.125497 0.785441 0.270117
O O10 0.225590 0.367671 0.855532
O O11 0.000000 0.325193 0.931816
O O12 0.135561 0.500000 0.000000
#
# Coordination Sequence:
#
# PCOD8221992 Si02
#       6
#     4   8   4   4   8   4
#     4  11  20  38  63  92 132 182 211 255 335 426
#     4  11  24  40  66  99 136 174 219 280 346 415
#     4  11  25  50  69  88 125 187 248 288 336 404
#     4  12  23  39  65  96 132 173 227 269 343 413
#     4  11  24  36  58  97 140 176 208 259 333 423
#     4  12  22  40  60  90 130 174 220 268 328 404
#
# _framework density 20.417885999999999
#
# number of rings (size 3 to 8) (size 9 to 14) (size 15 to 20)
#    0.000    0.750    6.250    2.250   10.500    0.000 
#    2.250    0.000    0.000    0.750    0.000    0.000 
#    0.000    0.000    0.000    0.000    0.000    0.000 
#
# Total GULP energy -396739.021247 kJ/mol
# GULP energy per Si atom -12398.094414 kJ/mol
# Density = 2.037141 g / cm^3
# Si number density = 20.417886 Si / 1000 Ang^3
#
#
#
# Elastic Constant Matrix: (Units=GPa)
#
#
# Indices 1 2 3 4 5 6 
#
# 1 170.0852 34.3291 71.2208 0.0000 0.0000 0.0000
# 2 34.3291 86.7930 30.1359 0.0000 0.0000 0.0000
# 3 71.2208 30.1359 155.6141 0.0000 0.0000 0.0000
# 4 0.0000 0.0000 0.0000 15.3514 0.0000 0.0000
# 5 0.0000 0.0000 0.0000 0.0000 50.7337 0.0000
# 6 0.0000 0.0000 0.0000 0.0000 0.0000 12.3547
#
#
#
# Elastic Compliance Matrix: (Units=1/GPa)
#
#
# Indices 1 2 3 4 5 6 
#
# 1 0.007560 -0.001918 -0.003089 0.000000 0.000000 0.000000
# 2 -0.001918 0.012839 -0.001609 0.000000 0.000000 0.000000
# 3 -0.003089 -0.001609 0.008151 0.000000 0.000000 0.000000
# 4 0.000000 0.000000 0.000000 0.065141 0.000000 0.000000
# 5 0.000000 0.000000 0.000000 0.000000 0.019711 0.000000
# 6 0.000000 0.000000 0.000000 0.000000 0.000000 0.080941
#
#
# Mechanical properties :
#
#
# Convention : Reuss Voigt Hill
#
# Bulk Modulus (GPa) = 65.27440 75.98488 70.62964
# Shear Modulus (GPa) = 23.50969 34.14173 28.82571
#
# Velocity S-wave (km/s) = 3.39695 4.09363 3.76145
# Velocity P-wave (km/s) = 6.88653 7.72265 7.31655
#
# Compressibility (1/GPa) = 0.01531994
#
# Stress axis : x y z
#
# Youngs Moduli (GPa) = 132.27958 77.88939 122.68091
#
# Poissons Ratio (x) = 0.14937 0.37890
# Poissons Ratio (y) = 0.25367 0.19735
# Poissons Ratio (z) = 0.40855 0.12530
#
# Static dielectric constant tensor:
#      x y z
#    x 4.414880 0.000000 0.000000 
#    y 0.000000 3.143390 0.000000 
#    z 0.000000 0.000000 3.795960 
# 
# 
# High freq. dielectric constant tensor:
#      x y z
#    x 1.827660 0.000000 0.000000 
#    y 0.000000 1.724490 0.000000 
#    z 0.000000 0.000000 1.814910 
# 
# From -- ./inp_files/14632.got.cif
#   From: 2010.03.12/outbox.cif.g09.slc.cpg/sg53_8_cif.got.tgz:14632.got - 2010.04.16 14:36:59.
