data_PCOD8221413
_publ_section_title
;
Structure prediction by ZEFSAII (Michael W. Deem and Ramdas Pophale) SiO2 
 PCOD8221413
Probable space group: P M N A
;
_chemical_formula_sum "Si O2"
_cell_formula_units_Z 64
_cell_length_a 8.866573
_cell_length_b 19.484876
_cell_length_c 18.610238
_cell_angle_alpha 90.000000
_cell_angle_beta 90.000000
_cell_angle_gamma 90.000000
_cell_volume 3215.180562
_symmetry_space_group_name_H-M "P M N A"
_symmetry_group_IT_number 53
_symmetry_cell_setting 'orthorhombic'
loop_
_space_group_symop_operation_xyz
x,y,z
1/2-x,-y,1/2+z
x,-y,-z
1/2-x,y,1/2-z
-x,-y,-z
1/2+x,y,1/2-z
-x,y,z
1/2+x,-y,1/2+z
loop_
_atom_site_type_symbol
_atom_site_label
_atom_site_fract_x
_atom_site_fract_y
_atom_site_fract_z
Si Si1 0.678412 0.152976 0.412343
Si Si2 0.678581 0.881365 0.172219
Si Si3 0.325595 0.718909 0.675601
Si Si4 0.177950 0.012068 0.419529
Si Si5 0.675746 0.585924 0.583855
Si Si6 0.678216 0.783524 0.437653
Si Si7 0.172909 0.637778 0.448678
Si Si8 0.326606 0.532377 0.174540
O O1 0.500000 0.147717 0.408068
O O2 0.739632 0.210470 0.357249
O O3 0.728957 0.172942 0.492851
O O4 0.750110 0.081276 0.388305
O O5 0.750000 0.884300 0.250000
O O6 0.500000 0.876382 0.178344
O O7 0.730974 0.949297 0.129878
O O8 0.738776 0.814368 0.131473
O O9 0.250000 0.699272 0.750000
O O10 0.500000 0.727125 0.691692
O O11 0.294772 0.659975 0.618138
O O12 0.000000 0.020717 0.419238
O O13 0.239081 0.000000 0.500000
O O14 0.500000 0.571682 0.570282
O O15 0.763125 0.584829 0.508111
O O16 0.740185 0.529348 0.636810
O O17 0.500000 0.786405 0.426111
O O18 0.725716 0.705250 0.447781
O O19 0.185621 0.601318 0.371910
O O20 0.000000 0.656400 0.466646
O O21 0.250000 0.548907 0.250000
O O22 0.500000 0.510594 0.185949
#
# Coordination Sequence:
#
# PCOD8221413 Si02
#       8
#     8   8   8   8   8   8   8   8
#     4  10  21  38  60  87 121 157 200 249 300 364
#     4  11  24  42  63  91 127 163 207 257 312 372
#     4  10  22  39  57  87 123 157 198 242 295 359
#     4  10  21  38  61  89 119 155 202 251 299 360
#     4  11  22  40  65  92 125 163 207 256 309 369
#     4  11  22  40  65  92 123 161 207 257 311 370
#     4  11  24  41  64  93 126 162 209 261 310 371
#     4  11  25  43  62  90 125 163 207 255 311 373
#
# _framework density 19.905570000000001
#
# number of rings (size 3 to 8) (size 9 to 14) (size 15 to 20)
#    0.000    1.375    2.500    2.625    0.000    8.750 
#    0.000    3.750    0.000    0.000    0.000    0.000 
#    0.000    0.000    0.000    0.000    0.000    0.000 
#
# Total GULP energy -793985.466902 kJ/mol
# GULP energy per Si atom -12406.022920 kJ/mol
# Density = 1.986026 g / cm^3
# Si number density = 19.905570 Si / 1000 Ang^3
#
#
#
# Elastic Constant Matrix: (Units=GPa)
#
#
# Indices 1 2 3 4 5 6 
#
# 1 71.7385 31.7875 46.6008 0.0000 0.0000 0.0000
# 2 31.7875 64.4963 13.8634 0.0000 0.0000 0.0000
# 3 46.6008 13.8634 118.6791 0.0000 0.0000 0.0000
# 4 0.0000 0.0000 0.0000 58.9547 0.0000 0.0000
# 5 0.0000 0.0000 0.0000 0.0000 32.8763 0.0000
# 6 0.0000 0.0000 0.0000 0.0000 0.0000 34.1585
#
#
#
# Elastic Compliance Matrix: (Units=1/GPa)
#
#
# Indices 1 2 3 4 5 6 
#
# 1 0.023583 -0.009881 -0.008106 0.000000 0.000000 0.000000
# 2 -0.009881 0.020044 0.001538 0.000000 0.000000 0.000000
# 3 -0.008106 0.001538 0.011429 0.000000 0.000000 0.000000
# 4 0.000000 0.000000 0.000000 0.016962 0.000000 0.000000
# 5 0.000000 0.000000 0.000000 0.000000 0.030417 0.000000
# 6 0.000000 0.000000 0.000000 0.000000 0.000000 0.029275
#
#
# Mechanical properties :
#
#
# Convention : Reuss Voigt Hill
#
# Bulk Modulus (GPa) = 45.12712 48.82414 46.97563
# Shear Modulus (GPa) = 29.07064 36.04204 32.55634
#
# Velocity S-wave (km/s) = 3.82570 4.25979 4.04857
# Velocity P-wave (km/s) = 6.49880 6.98395 6.74574
#
# Compressibility (1/GPa) = 0.02215962
#
# Stress axis : x y z
#
# Youngs Moduli (GPa) = 42.40270 49.89039 87.49419
#
# Poissons Ratio (x) = 0.49296 0.70924
# Poissons Ratio (y) = 0.41898 -0.13460
# Poissons Ratio (z) = 0.34372 -0.07675
#
# Static dielectric constant tensor:
#      x y z
#    x 3.635420 0.000000 0.000000 
#    y 0.000000 3.668160 0.000000 
#    z 0.000000 0.000000 3.689630 
# 
# 
# High freq. dielectric constant tensor:
#      x y z
#    x 1.780450 0.000000 0.000000 
#    y 0.000000 1.785780 0.000000 
#    z 0.000000 0.000000 1.781040 
# 
# From -- ./inp_files/27018.got.cif
#   From: 2010.03.12/outbox.cif.g09.slc.cpg/sg53_14_cif.got.tgz:27018.got - 2010.04.16 14:36:59.
