data_PCOD8221078
_publ_section_title
;
Structure prediction by ZEFSAII (Michael W. Deem and Ramdas Pophale) SiO2 
 PCOD8221078
Probable space group: P M N A
;
_chemical_formula_sum "Si O2"
_cell_formula_units_Z 40
_cell_length_a 9.594684
_cell_length_b 25.107225
_cell_length_c 9.555113
_cell_angle_alpha 90.000000
_cell_angle_beta 90.000000
_cell_angle_gamma 90.000000
_cell_volume 2301.787450
_symmetry_space_group_name_H-M "P M N A"
_symmetry_group_IT_number 53
_symmetry_cell_setting 'orthorhombic'
loop_
_space_group_symop_operation_xyz
x,y,z
1/2-x,-y,1/2+z
x,-y,-z
1/2-x,y,1/2-z
-x,-y,-z
1/2+x,y,1/2-z
-x,y,z
1/2+x,-y,1/2+z
loop_
_atom_site_type_symbol
_atom_site_label
_atom_site_fract_x
_atom_site_fract_y
_atom_site_fract_z
Si Si1 0.160028 0.838262 0.384510
Si Si2 0.338729 0.634480 0.885306
Si Si3 0.338971 0.756434 0.881649
Si Si4 0.660583 0.958328 0.114479
Si Si5 0.663024 0.547180 0.106452
O O1 0.250000 0.826635 0.250000
O O2 0.210371 0.795535 0.496856
O O3 0.184302 0.898207 0.441522
O O4 0.000000 0.829244 0.343657
O O5 0.250000 0.616270 0.750000
O O6 0.500000 0.624921 0.845857
O O7 0.307545 0.695613 0.924598
O O8 0.298288 0.601278 0.023602
O O9 0.250000 0.773924 0.750000
O O10 0.500000 0.764720 0.844298
O O11 0.750000 0.969761 0.250000
O O12 0.500000 0.968251 0.152982
O O13 0.713328 0.000000 0.000000
O O14 0.750000 0.543315 0.250000
O O15 0.500000 0.544939 0.146505
O O16 0.702845 0.500000 0.000000
#
# Coordination Sequence:
#
# PCOD8221078 Si02
#       5
#     8   8   8   8   8
#     4   9  18  32  48  67  93 123 154 190 231 275
#     4   9  18  33  51  71  96 125 157 193 232 275
#     4   9  18  32  49  70  96 124 155 192 232 274
#     4   9  18  32  48  67  92 121 153 190 232 276
#     4  10  21  35  51  73  99 126 158 195 234 277
#
# _framework density 17.377800000000001
#
# number of rings (size 3 to 8) (size 9 to 14) (size 15 to 20)
#    0.000    2.800    0.000    0.600    0.000    4.000 
#    0.000    0.000    0.000    0.000    0.000    0.000 
#    0.000    0.000    0.000    0.000    0.000    0.000 
#
# Total GULP energy -495977.943100 kJ/mol
# GULP energy per Si atom -12399.448577 kJ/mol
# Density = 1.733825 g / cm^3
# Si number density = 17.377800 Si / 1000 Ang^3
#
#
#
# Elastic Constant Matrix: (Units=GPa)
#
#
# Indices 1 2 3 4 5 6 
#
# 1 60.6469 52.6752 69.7817 0.0000 0.0000 0.0000
# 2 52.6752 116.3832 95.5566 0.0000 0.0000 0.0000
# 3 69.7817 95.5566 145.9336 0.0000 0.0000 0.0000
# 4 0.0000 0.0000 0.0000 36.4638 0.0000 0.0000
# 5 0.0000 0.0000 0.0000 0.0000 37.2125 0.0000
# 6 0.0000 0.0000 0.0000 0.0000 0.0000 23.6090
#
#
#
# Elastic Compliance Matrix: (Units=1/GPa)
#
#
# Indices 1 2 3 4 5 6 
#
# 1 0.037917 -0.004920 -0.014910 0.000000 0.000000 0.000000
# 2 -0.004920 0.019221 -0.010233 0.000000 0.000000 0.000000
# 3 -0.014910 -0.010233 0.020683 0.000000 0.000000 0.000000
# 4 0.000000 0.000000 0.000000 0.027424 0.000000 0.000000
# 5 0.000000 0.000000 0.000000 0.000000 0.026873 0.000000
# 6 0.000000 0.000000 0.000000 0.000000 0.000000 0.042357
#
#
# Mechanical properties :
#
#
# Convention : Reuss Voigt Hill
#
# Bulk Modulus (GPa) = 56.51177 84.33229 70.42203
# Shear Modulus (GPa) = 20.79007 26.45373 23.62190
#
# Velocity S-wave (km/s) = 3.46259 3.90586 3.69089
# Velocity P-wave (km/s) = 6.96966 8.30513 7.66653
#
# Compressibility (1/GPa) = 0.01769543
#
# Stress axis : x y z
#
# Youngs Moduli (GPa) = 26.37308 52.02585 48.34985
#
# Poissons Ratio (x) = 0.25596 0.72088
# Poissons Ratio (y) = 0.12975 0.49478
# Poissons Ratio (z) = 0.39321 0.53240
#
# Static dielectric constant tensor:
#      x y z
#    x 3.230670 0.000000 0.000000 
#    y 0.000000 3.469700 0.000000 
#    z 0.000000 0.000000 3.189550 
# 
# 
# High freq. dielectric constant tensor:
#      x y z
#    x 1.669980 0.000000 0.000000 
#    y 0.000000 1.684940 0.000000 
#    z 0.000000 0.000000 1.660890 
# 
# From -- ./inp_files/762.got.cif
#   From: 2010.03.12/outbox.cif.g09.slc.cpg/sg53_1_cif.got.tgz:762.got - 2010.04.16 14:36:59.
