data_PCOD8221315
_publ_section_title
;
Structure prediction by ZEFSAII (Michael W. Deem and Ramdas Pophale) SiO2 
 PCOD8221315
Probable space group: P M N A
;
_chemical_formula_sum "Si O2"
_cell_formula_units_Z 56
_cell_length_a 8.741546
_cell_length_b 21.016275
_cell_length_c 14.852105
_cell_angle_alpha 90.000000
_cell_angle_beta 90.000000
_cell_angle_gamma 90.000000
_cell_volume 2728.550529
_symmetry_space_group_name_H-M "P M N A"
_symmetry_group_IT_number 53
_symmetry_cell_setting 'orthorhombic'
loop_
_space_group_symop_operation_xyz
x,y,z
1/2-x,-y,1/2+z
x,-y,-z
1/2-x,y,1/2-z
-x,-y,-z
1/2+x,y,1/2-z
-x,y,z
1/2+x,-y,1/2+z
loop_
_atom_site_type_symbol
_atom_site_label
_atom_site_fract_x
_atom_site_fract_y
_atom_site_fract_z
Si Si1 0.680827 0.780372 0.482243
Si Si2 0.678636 0.982951 0.847536
Si Si3 0.819456 0.351429 0.518451
Si Si4 0.322157 0.552559 0.344453
Si Si5 0.819283 0.108319 0.849208
Si Si6 0.178260 0.595588 0.844509
Si Si7 0.320621 0.158168 0.151415
O O1 0.500000 0.776164 0.488409
O O2 0.747849 0.714180 0.445532
O O3 0.734961 0.833953 0.412090
O O4 0.745739 0.793184 0.581863
O O5 0.750000 0.982558 0.750000
O O6 0.500000 0.997318 0.842856
O O7 0.758734 0.042829 0.897364
O O8 0.711269 0.913115 0.888328
O O9 0.761185 0.409718 0.577458
O O10 0.766228 0.362371 0.416794
O O11 0.000000 0.347306 0.523902
O O12 0.250000 0.573100 0.250000
O O13 0.500000 0.569953 0.343595
O O14 0.294392 0.478597 0.364355
O O15 0.750000 0.118147 0.750000
O O16 0.000000 0.105212 0.841006
O O17 0.250000 0.615330 0.750000
O O18 0.000000 0.612714 0.846006
O O19 0.250000 0.168064 0.250000
O O20 0.500000 0.171468 0.159003
#
# Coordination Sequence:
#
# PCOD8221315 Si02
#       7
#     8   8   8   8   8   8   8
#     4  11  25  42  58  81 114 154 199 241 285 343
#     4   9  17  31  55  84 113 144 182 231 287 345
#     4  12  25  40  60  86 119 158 198 241 288 343
#     4  10  21  39  64  93 123 155 192 237 288 340
#     4  10  21  37  59  84 112 147 188 237 289 342
#     4  10  21  39  64  93 123 154 192 238 287 341
#     4  10  21  38  60  86 115 149 189 236 290 345
#
# _framework density 20.523716
#
# number of rings (size 3 to 8) (size 9 to 14) (size 15 to 20)
#    0.000    1.714    0.000    5.143    0.000    9.143 
#    0.000    7.143    0.000    0.000    0.000    0.000 
#    0.000    0.000    0.000    0.000    0.000    0.000 
#
# Total GULP energy -694452.672866 kJ/mol
# GULP energy per Si atom -12400.940587 kJ/mol
# Density = 2.047700 g / cm^3
# Si number density = 20.523716 Si / 1000 Ang^3
#
#
#
# Elastic Constant Matrix: (Units=GPa)
#
#
# Indices 1 2 3 4 5 6 
#
# 1 103.3976 22.9696 21.5331 0.0000 0.0000 0.0000
# 2 22.9696 53.3525 10.3427 0.0000 0.0000 0.0000
# 3 21.5331 10.3427 58.6880 0.0000 0.0000 0.0000
# 4 0.0000 0.0000 0.0000 27.0016 0.0000 0.0000
# 5 0.0000 0.0000 0.0000 0.0000 29.7247 0.0000
# 6 0.0000 0.0000 0.0000 0.0000 0.0000 36.4220
#
#
#
# Elastic Compliance Matrix: (Units=1/GPa)
#
#
# Indices 1 2 3 4 5 6 
#
# 1 0.011317 -0.004211 -0.003410 0.000000 0.000000 0.000000
# 2 -0.004211 0.020973 -0.002151 0.000000 0.000000 0.000000
# 3 -0.003410 -0.002151 0.018670 0.000000 0.000000 0.000000
# 4 0.000000 0.000000 0.000000 0.037035 0.000000 0.000000
# 5 0.000000 0.000000 0.000000 0.000000 0.033642 0.000000
# 6 0.000000 0.000000 0.000000 0.000000 0.000000 0.027456
#
#
# Mechanical properties :
#
#
# Convention : Reuss Voigt Hill
#
# Bulk Modulus (GPa) = 31.83184 36.12542 33.97863
# Shear Modulus (GPa) = 27.91592 29.33586 28.62589
#
# Velocity S-wave (km/s) = 3.69206 3.78479 3.73872
# Velocity P-wave (km/s) = 5.80677 6.06132 5.93541
#
# Compressibility (1/GPa) = 0.03141509
#
# Stress axis : x y z
#
# Youngs Moduli (GPa) = 88.36186 47.67970 53.56314
#
# Poissons Ratio (x) = 0.20079 0.18266
# Poissons Ratio (y) = 0.37211 0.11522
# Poissons Ratio (z) = 0.30133 0.10256
#
# Static dielectric constant tensor:
#      x y z
#    x 3.835670 0.000000 0.000000 
#    y 0.000000 4.127160 0.000000 
#    z 0.000000 0.000000 3.626330 
# 
# 
# High freq. dielectric constant tensor:
#      x y z
#    x 1.817560 0.000000 0.000000 
#    y 0.000000 1.810930 0.000000 
#    z 0.000000 0.000000 1.794920 
# 
# From -- ./inp_files/20490.got.cif
#   From: 2010.03.12/outbox.cif.g09.slc.cpg/sg53_11_cif.got.tgz:20490.got - 2010.04.16 14:36:59.
