data_PCOD8221940
_publ_section_title
;
Structure prediction by ZEFSAII (Michael W. Deem and Ramdas Pophale) SiO2 
 PCOD8221940
Probable space group: P M N A
;
_chemical_formula_sum "Si O2"
_cell_formula_units_Z 20
_cell_length_a 27.965884
_cell_length_b 5.193104
_cell_length_c 5.306699
_cell_angle_alpha 90.000000
_cell_angle_beta 90.000000
_cell_angle_gamma 90.000000
_cell_volume 770.690538
_symmetry_space_group_name_H-M "P M N A"
_symmetry_group_IT_number 53
_symmetry_cell_setting 'orthorhombic'
loop_
_space_group_symop_operation_xyz
x,y,z
1/2-x,-y,1/2+z
x,-y,-z
1/2-x,y,1/2-z
-x,-y,-z
1/2+x,y,1/2-z
-x,y,z
1/2+x,-y,1/2+z
loop_
_atom_site_type_symbol
_atom_site_label
_atom_site_fract_x
_atom_site_fract_y
_atom_site_fract_z
Si Si1 0.603152 0.760874 0.841108
Si Si2 0.250000 0.671591 0.250000
Si Si3 0.673100 0.000000 0.500000
Si Si4 0.000000 0.663659 0.751041
O O1 0.549057 0.825957 0.746392
O O2 0.639891 0.766332 0.607512
O O3 0.606399 0.500000 0.000000
O O4 0.621140 0.000000 0.000000
O O5 0.240590 0.500000 0.500000
O O6 0.295032 0.859899 0.288450
O O7 0.000000 0.500000 0.500000
O O8 0.000000 0.500000 0.000000
#
# Coordination Sequence:
#
# PCOD8221940 Si02
#       4
#     8   4   4   4
#     4  11  29  51  84 123 168 218 277 339 414 500
#     4  12  32  56  84 116 170 216 282 358 434 502
#     4  12  32  51  84 124 162 223 286 350 432 500
#     4  10  25  51  79 123 172 220 268 337 409 496
#
# _framework density 25.950751
#
# number of rings (size 3 to 8) (size 9 to 14) (size 15 to 20)
#    0.000    0.800    0.000    1.800   25.200    0.800 
#    0.000    0.000    0.000    0.000    0.000    0.000 
#    0.000    0.000    0.000    0.000    0.000    0.000 
#
# Total GULP energy -247925.353930 kJ/mol
# GULP energy per Si atom -12396.267696 kJ/mol
# Density = 2.589169 g / cm^3
# Si number density = 25.950751 Si / 1000 Ang^3
#
#
#
# Elastic Constant Matrix: (Units=GPa)
#
#
# Indices 1 2 3 4 5 6 
#
# 1 234.8208 66.6174 72.4346 0.0000 0.0000 0.0000
# 2 66.6174 142.1861 55.6661 0.0000 0.0000 0.0000
# 3 72.4346 55.6661 156.1615 0.0000 0.0000 0.0000
# 4 0.0000 0.0000 0.0000 50.7308 0.0000 0.0000
# 5 0.0000 0.0000 0.0000 0.0000 35.0065 0.0000
# 6 0.0000 0.0000 0.0000 0.0000 0.0000 35.1432
#
#
#
# Elastic Compliance Matrix: (Units=1/GPa)
#
#
# Indices 1 2 3 4 5 6 
#
# 1 0.005330 -0.001777 -0.001839 0.000000 0.000000 0.000000
# 2 -0.001777 0.008766 -0.002301 0.000000 0.000000 0.000000
# 3 -0.001839 -0.002301 0.008077 0.000000 0.000000 0.000000
# 4 0.000000 0.000000 0.000000 0.019712 0.000000 0.000000
# 5 0.000000 0.000000 0.000000 0.000000 0.028566 0.000000
# 6 0.000000 0.000000 0.000000 0.000000 0.000000 0.028455
#
#
# Mechanical properties :
#
#
# Convention : Reuss Voigt Hill
#
# Bulk Modulus (GPa) = 96.71365 102.51161 99.61263
# Shear Modulus (GPa) = 43.78832 46.73947 45.26389
#
# Velocity S-wave (km/s) = 4.11221 4.24852 4.18092
# Velocity P-wave (km/s) = 7.73925 7.97839 7.85973
#
# Compressibility (1/GPa) = 0.01033980
#
# Stress axis : x y z
#
# Youngs Moduli (GPa) = 187.61812 114.07166 123.81527
#
# Poissons Ratio (x) = 0.20275 0.22766
# Poissons Ratio (y) = 0.33346 0.28484
# Poissons Ratio (z) = 0.34498 0.26242
#
# Static dielectric constant tensor:
#      x y z
#    x 5.469430 0.000000 0.000000 
#    y 0.000000 4.155260 0.000000 
#    z 0.000000 0.000000 4.826990 
# 
# 
# High freq. dielectric constant tensor:
#      x y z
#    x 2.070430 0.000000 0.000000 
#    y 0.000000 2.026000 0.000000 
#    z 0.000000 0.000000 2.049220 
# 
# From -- ./inp_files/3985.got.cif
#   From: 2010.03.12/outbox.cif.g09.slc.cpg/sg53_2_cif.got.tgz:3985.got - 2010.04.16 14:36:59.
