data_PCOD8221637
_publ_section_title
;
Structure prediction by ZEFSAII (Michael W. Deem and Ramdas Pophale) SiO2 
 PCOD8221637
Probable space group: P M N A
;
_chemical_formula_sum "Si O2"
_cell_formula_units_Z 48
_cell_length_a 15.268998
_cell_length_b 15.496795
_cell_length_c 9.651203
_cell_angle_alpha 90.000000
_cell_angle_beta 90.000000
_cell_angle_gamma 90.000000
_cell_volume 2283.672787
_symmetry_space_group_name_H-M "P M N A"
_symmetry_group_IT_number 53
_symmetry_cell_setting 'orthorhombic'
loop_
_space_group_symop_operation_xyz
x,y,z
1/2-x,-y,1/2+z
x,-y,-z
1/2-x,y,1/2-z
-x,-y,-z
1/2+x,y,1/2-z
-x,y,z
1/2+x,-y,1/2+z
loop_
_atom_site_type_symbol
_atom_site_label
_atom_site_fract_x
_atom_site_fract_y
_atom_site_fract_z
Si Si1 0.854196 0.327585 0.760347
Si Si2 0.242652 0.915635 0.086213
Si Si3 0.147683 0.308181 0.276653
Si Si4 0.161749 0.494655 0.336450
Si Si5 0.097593 0.776539 0.999850
Si Si6 0.401526 0.197339 0.965072
O O1 0.750000 0.321549 0.750000
O O2 0.892245 0.419368 0.706710
O O3 0.897046 0.247894 0.679176
O O4 0.884028 0.312736 0.918304
O O5 0.250000 0.934801 0.250000
O O6 0.337314 0.884287 0.033796
O O7 0.167953 0.846534 0.049781
O O8 0.217371 0.000000 0.000000
O O9 0.250000 0.312669 0.250000
O O10 0.111280 0.406667 0.292700
O O11 0.102081 0.250575 0.160278
O O12 0.129587 0.264155 0.421059
O O13 0.181867 0.500000 0.500000
O O14 0.250000 0.499751 0.250000
O O15 0.000000 0.813165 0.027033
O O16 0.500000 0.163662 0.991098
#
# Coordination Sequence:
#
# PCOD8221637 Si02
#       6
#     8   8   8   8   8   8
#     4  11  20  41  68  96 134 184 228 270 329 390
#     4  12  28  49  74 102 133 171 214 276 343 408
#     4  11  22  41  67  99 140 181 227 280 327 386
#     4  10  22  35  62  99 136 182 234 281 326 379
#     4  12  25  45  71 100 136 179 223 273 335 404
#     4  12  23  43  71  99 133 178 222 268 329 402
#
# _framework density 21.018772999999999
#
# number of rings (size 3 to 8) (size 9 to 14) (size 15 to 20)
#    0.000    0.667    6.667    1.000    9.333    0.667 
#    0.000    5.000    0.000    0.000    0.000    0.000 
#    0.000    0.000    0.000    0.000    0.000    0.000 
#
# Total GULP energy -595086.066942 kJ/mol
# GULP energy per Si atom -12397.626395 kJ/mol
# Density = 2.097093 g / cm^3
# Si number density = 21.018773 Si / 1000 Ang^3
#
#
#
# Elastic Constant Matrix: (Units=GPa)
#
#
# Indices 1 2 3 4 5 6 
#
# 1 119.3608 35.5791 16.8886 0.0000 0.0000 0.0000
# 2 35.5791 117.7893 52.2659 0.0000 0.0000 0.0000
# 3 16.8886 52.2659 80.5527 0.0000 0.0000 0.0000
# 4 0.0000 0.0000 0.0000 39.5110 0.0000 0.0000
# 5 0.0000 0.0000 0.0000 0.0000 23.7621 0.0000
# 6 0.0000 0.0000 0.0000 0.0000 0.0000 1.0886
#
#
#
# Elastic Compliance Matrix: (Units=1/GPa)
#
#
# Indices 1 2 3 4 5 6 
#
# 1 0.009209 -0.002703 -0.000177 0.000000 0.000000 0.000000
# 2 -0.002703 0.012716 -0.007684 0.000000 0.000000 0.000000
# 3 -0.000177 -0.007684 0.017437 0.000000 0.000000 0.000000
# 4 0.000000 0.000000 0.000000 0.025309 0.000000 0.000000
# 5 0.000000 0.000000 0.000000 0.000000 0.042084 0.000000
# 6 0.000000 0.000000 0.000000 0.000000 0.000000 0.918592
#
#
# Mechanical properties :
#
#
# Convention : Reuss Voigt Hill
#
# Bulk Modulus (GPa) = 54.84277 58.57446 56.70861
# Shear Modulus (GPa) = 4.75036 27.07029 15.91033
#
# Velocity S-wave (km/s) = 1.50498 3.59264 2.75427
# Velocity P-wave (km/s) = 5.40082 6.71845 6.09535
#
# Compressibility (1/GPa) = 0.01823394
#
# Stress axis : x y z
#
# Youngs Moduli (GPa) = 108.59276 78.64306 57.34989
#
# Poissons Ratio (x) = 0.21258 0.01014
# Poissons Ratio (y) = 0.29354 0.44066
# Poissons Ratio (z) = 0.01920 0.60427
#
# Static dielectric constant tensor:
#      x y z
#    x 3.841130 0.000000 0.000000 
#    y 0.000000 4.055030 0.000000 
#    z 0.000000 0.000000 3.917840 
# 
# 
# High freq. dielectric constant tensor:
#      x y z
#    x 1.812070 0.000000 0.000000 
#    y 0.000000 1.816610 0.000000 
#    z 0.000000 0.000000 1.841750 
# 
# From -- ./inp_files/8676.got.cif
#   From: 2010.03.12/outbox.cif.g09.slc.cpg/sg53_5_cif.got.tgz:8676.got - 2010.04.16 14:36:59.
