data_PCOD8221987
_publ_section_title
;
Structure prediction by ZEFSAII (Michael W. Deem and Ramdas Pophale) SiO2 
 PCOD8221987
Probable space group: P M N A
;
_chemical_formula_sum "Si O2"
_cell_formula_units_Z 64
_cell_length_a 8.620469
_cell_length_b 15.446424
_cell_length_c 23.994596
_cell_angle_alpha 90.000000
_cell_angle_beta 90.000000
_cell_angle_gamma 90.000000
_cell_volume 3195.010490
_symmetry_space_group_name_H-M "P M N A"
_symmetry_group_IT_number 53
_symmetry_cell_setting 'orthorhombic'
loop_
_space_group_symop_operation_xyz
x,y,z
1/2-x,-y,1/2+z
x,-y,-z
1/2-x,y,1/2-z
-x,-y,-z
1/2+x,y,1/2-z
-x,y,z
1/2+x,-y,1/2+z
loop_
_atom_site_type_symbol
_atom_site_label
_atom_site_fract_x
_atom_site_fract_y
_atom_site_fract_z
Si Si1 0.816259 0.658013 0.501113
Si Si2 0.821133 0.904201 0.113774
Si Si3 0.818311 0.244468 0.310461
Si Si4 0.684567 0.755484 0.188584
Si Si5 0.182383 0.856259 0.501214
Si Si6 0.815276 0.595976 0.618945
Si Si7 0.684345 0.595261 0.116050
Si Si8 0.823328 0.901120 0.884766
O O1 0.764338 0.757088 0.498970
O O2 0.748348 0.614772 0.557104
O O3 0.749120 0.610560 0.446278
O O4 0.000000 0.650176 0.501212
O O5 0.747649 0.840390 0.158634
O O6 0.000000 0.879772 0.103028
O O7 0.805744 0.001217 0.138225
O O8 0.727014 0.900844 0.056426
O O9 0.750000 0.229417 0.250000
O O10 0.749321 0.332609 0.337947
O O11 0.783354 0.162538 0.349133
O O12 0.000000 0.253404 0.304386
O O13 0.750000 0.752056 0.250000
O O14 0.500000 0.759324 0.189178
O O15 0.746862 0.669473 0.157207
O O16 0.272767 0.902464 0.550973
O O17 0.000000 0.866000 0.511540
O O18 0.761014 0.499661 0.637237
O O19 0.000000 0.602743 0.617121
O O20 0.500000 0.600158 0.114054
O O21 0.000000 0.869262 0.879650
#
# Coordination Sequence:
#
# PCOD8221987 Si02
#       8
#     8   8   8   8   8   8   8   8
#     4   9  15  28  53  87 119 148 185 231 284 340
#     4  11  24  41  61  87 119 156 196 241 296 352
#     4  11  23  40  61  86 116 154 201 247 296 349
#     4  11  23  40  61  86 116 154 201 247 296 349
#     4  11  20  35  61  93 123 156 195 236 289 350
#     4   9  17  31  55  87 120 153 191 237 289 347
#     4   9  17  31  55  87 120 153 191 237 289 347
#     4  11  24  41  61  87 119 156 196 241 296 352
#
# _framework density 20.031231999999999
#
# number of rings (size 3 to 8) (size 9 to 14) (size 15 to 20)
#    0.000    1.750    2.500    2.625    0.000    6.000 
#    0.000    0.000    0.000    2.250    0.000    1.750 
#    0.000    0.000    0.000    0.000    0.000    0.000 
#
# Total GULP energy -793627.454484 kJ/mol
# GULP energy per Si atom -12400.428976 kJ/mol
# Density = 1.998564 g / cm^3
# Si number density = 20.031232 Si / 1000 Ang^3
#
#
#
# Elastic Constant Matrix: (Units=GPa)
#
#
# Indices 1 2 3 4 5 6 
#
# 1 39.4828 27.1902 8.7504 0.0000 0.0000 0.0000
# 2 27.1902 134.4940 47.0801 0.0000 0.0000 0.0000
# 3 8.7504 47.0801 114.4842 0.0000 0.0000 0.0000
# 4 0.0000 0.0000 0.0000 10.7142 0.0000 0.0000
# 5 0.0000 0.0000 0.0000 0.0000 21.7721 0.0000
# 6 0.0000 0.0000 0.0000 0.0000 0.0000 14.5300
#
#
#
# Elastic Compliance Matrix: (Units=1/GPa)
#
#
# Indices 1 2 3 4 5 6 
#
# 1 0.029429 -0.006030 0.000230 0.000000 0.000000 0.000000
# 2 -0.006030 0.009921 -0.003619 0.000000 0.000000 0.000000
# 3 0.000230 -0.003619 0.010206 0.000000 0.000000 0.000000
# 4 0.000000 0.000000 0.000000 0.093334 0.000000 0.000000
# 5 0.000000 0.000000 0.000000 0.000000 0.045930 0.000000
# 6 0.000000 0.000000 0.000000 0.000000 0.000000 0.068823
#
#
# Mechanical properties :
#
#
# Convention : Reuss Voigt Hill
#
# Bulk Modulus (GPa) = 32.55393 50.50026 41.52709
# Shear Modulus (GPa) = 17.43856 23.09928 20.26892
#
# Velocity S-wave (km/s) = 2.95374 3.39951 3.18443
# Velocity P-wave (km/s) = 5.28390 6.37765 5.85637
#
# Compressibility (1/GPa) = 0.03071826
#
# Stress axis : x y z
#
# Youngs Moduli (GPa) = 33.97986 100.79366 97.98630
#
# Poissons Ratio (x) = 0.60781 -0.02259
# Poissons Ratio (y) = 0.20491 0.35462
# Poissons Ratio (z) = -0.00783 0.36478
#
# Static dielectric constant tensor:
#      x y z
#    x 3.337720 0.000000 0.000000 
#    y 0.000000 3.932950 0.000000 
#    z 0.000000 0.000000 3.699810 
# 
# 
# High freq. dielectric constant tensor:
#      x y z
#    x 1.749810 0.000000 0.000000 
#    y 0.000000 1.799130 0.000000 
#    z 0.000000 0.000000 1.780810 
# 
# From -- ./inp_files/34145.got.cif
#   From: 2010.03.12/outbox.cif.g09.slc.cpg/sg53_18_cif.got.tgz:34145.got - 2010.04.16 14:36:59.
