data_PCOD8221953
_publ_section_title
;
Structure prediction by ZEFSAII (Michael W. Deem and Ramdas Pophale) SiO2 
 PCOD8221953
Probable space group: P M N A
;
_chemical_formula_sum "Si O2"
_cell_formula_units_Z 48
_cell_length_a 19.511607
_cell_length_b 8.769015
_cell_length_c 17.304262
_cell_angle_alpha 90.000000
_cell_angle_beta 90.000000
_cell_angle_gamma 90.000000
_cell_volume 2960.717256
_symmetry_space_group_name_H-M "P M N A"
_symmetry_group_IT_number 53
_symmetry_cell_setting 'orthorhombic'
loop_
_space_group_symop_operation_xyz
x,y,z
1/2-x,-y,1/2+z
x,-y,-z
1/2-x,y,1/2-z
-x,-y,-z
1/2+x,y,1/2-z
-x,y,z
1/2+x,-y,1/2+z
loop_
_atom_site_type_symbol
_atom_site_label
_atom_site_fract_x
_atom_site_fract_y
_atom_site_fract_z
Si Si1 0.420378 0.328646 0.376489
Si Si2 0.922695 0.665379 0.173685
Si Si3 0.323552 0.183708 0.780820
Si Si4 0.764037 0.922833 0.426918
Si Si5 0.809928 0.120666 0.198496
Si Si6 0.123059 0.169757 0.972725
O O1 0.500000 0.293704 0.357723
O O2 0.402199 0.504877 0.363869
O O3 0.371693 0.234160 0.319163
O O4 0.404248 0.291045 0.465332
O O5 0.879089 0.695161 0.251736
O O6 0.912028 0.796699 0.109728
O O7 0.000000 0.665589 0.202707
O O8 0.250000 0.238087 0.750000
O O9 0.318357 0.170709 0.874510
O O10 0.342064 0.017573 0.747736
O O11 0.705018 0.812151 0.461288
O O12 0.803103 0.000000 0.500000
O O13 0.723756 0.054559 0.379524
O O14 0.750000 0.200921 0.250000
O O15 0.102043 0.000000 0.000000
#
# Coordination Sequence:
#
# PCOD8221953 Si02
#       6
#     8   8   8   8   8   8
#     4  11  22  32  45  72 107 137 162 198 246 302
#     4  11  22  33  45  70 106 136 166 202 244 301
#     4   9  17  32  52  71  93 130 172 205 246 295
#     4   9  15  30  54  73  94 123 165 214 251 284
#     4   9  17  32  49  70  95 128 168 206 241 290
#     4  11  18  32  50  70  97 136 164 198 244 298
#
# _framework density 16.212288000000001
#
# number of rings (size 3 to 8) (size 9 to 14) (size 15 to 20)
#    0.000    2.333    6.667    1.000    0.000    5.333 
#    0.000    0.000    0.000    0.500    0.000    0.000 
#    0.000   10.667    0.000    0.000    0.000    0.000 
#
# Total GULP energy -594885.213999 kJ/mol
# GULP energy per Si atom -12393.441958 kJ/mol
# Density = 1.617539 g / cm^3
# Si number density = 16.212288 Si / 1000 Ang^3
#
#
#
# Elastic Constant Matrix: (Units=GPa)
#
#
# Indices 1 2 3 4 5 6 
#
# 1 82.0835 43.3696 49.2432 0.0000 0.0000 0.0000
# 2 43.3696 67.0710 34.3257 0.0000 0.0000 0.0000
# 3 49.2432 34.3257 95.7985 0.0000 0.0000 0.0000
# 4 0.0000 0.0000 0.0000 25.8356 0.0000 0.0000
# 5 0.0000 0.0000 0.0000 0.0000 25.6274 0.0000
# 6 0.0000 0.0000 0.0000 0.0000 0.0000 21.9361
#
#
#
# Elastic Compliance Matrix: (Units=1/GPa)
#
#
# Indices 1 2 3 4 5 6 
#
# 1 0.022377 -0.010510 -0.007737 0.000000 0.000000 0.000000
# 2 -0.010510 0.023194 -0.002908 0.000000 0.000000 0.000000
# 3 -0.007737 -0.002908 0.015457 0.000000 0.000000 0.000000
# 4 0.000000 0.000000 0.000000 0.038706 0.000000 0.000000
# 5 0.000000 0.000000 0.000000 0.000000 0.039021 0.000000
# 6 0.000000 0.000000 0.000000 0.000000 0.000000 0.045587
#
#
# Mechanical properties :
#
#
# Convention : Reuss Voigt Hill
#
# Bulk Modulus (GPa) = 53.42221 55.42556 54.42388
# Shear Modulus (GPa) = 21.46918 22.54745 22.00831
#
# Velocity S-wave (km/s) = 3.64298 3.73334 3.68843
# Velocity P-wave (km/s) = 7.12168 7.26948 7.19596
#
# Compressibility (1/GPa) = 0.01871881
#
# Stress axis : x y z
#
# Youngs Moduli (GPa) = 44.68844 43.11463 64.69372
#
# Poissons Ratio (x) = 0.45314 0.50051
# Poissons Ratio (y) = 0.46968 0.18814
# Poissons Ratio (z) = 0.34574 0.12539
#
# Static dielectric constant tensor:
#      x y z
#    x 2.960550 0.000000 0.000000 
#    y 0.000000 2.939550 0.000000 
#    z 0.000000 0.000000 3.229920 
# 
# 
# High freq. dielectric constant tensor:
#      x y z
#    x 1.600210 0.000000 0.000000 
#    y 0.000000 1.605400 0.000000 
#    z 0.000000 0.000000 1.621630 
# 
# From -- ./inp_files/29272.got.cif
#   From: 2010.03.12/outbox.cif.g09.slc.cpg/sg53_15_cif.got.tgz:29272.got - 2010.04.16 14:36:59.
