data_PCOD8221050
_publ_section_title
;
Structure prediction by ZEFSAII (Michael W. Deem and Ramdas Pophale) SiO2 
 PCOD8221050
Probable space group: P M N A
;
_chemical_formula_sum "Si O2"
_cell_formula_units_Z 64
_cell_length_a 13.879422
_cell_length_b 14.079853
_cell_length_c 19.199082
_cell_angle_alpha 90.000000
_cell_angle_beta 90.000000
_cell_angle_gamma 90.000000
_cell_volume 3751.888857
_symmetry_space_group_name_H-M "P M N A"
_symmetry_group_IT_number 53
_symmetry_cell_setting 'orthorhombic'
loop_
_space_group_symop_operation_xyz
x,y,z
1/2-x,-y,1/2+z
x,-y,-z
1/2-x,y,1/2-z
-x,-y,-z
1/2+x,y,1/2-z
-x,y,z
1/2+x,-y,1/2+z
loop_
_atom_site_type_symbol
_atom_site_label
_atom_site_fract_x
_atom_site_fract_y
_atom_site_fract_z
Si Si1 0.607230 0.748660 0.627969
Si Si2 0.390175 0.448258 0.428666
Si Si3 0.114229 0.779100 0.480183
Si Si4 0.386209 0.572852 0.058457
Si Si5 0.798095 0.850715 0.621534
Si Si6 0.275763 0.480755 0.174516
Si Si7 0.389178 0.703258 0.785620
Si Si8 0.607147 0.031505 0.920444
O O1 0.500000 0.793377 0.622735
O O2 0.621082 0.666984 0.568905
O O3 0.683049 0.834086 0.619806
O O4 0.620418 0.696649 0.702522
O O5 0.359808 0.500000 0.500000
O O6 0.500000 0.474896 0.409437
O O7 0.322144 0.487285 0.368680
O O8 0.154871 0.677591 0.456670
O O9 0.157446 0.800200 0.554974
O O10 0.143541 0.858830 0.422155
O O11 0.000000 0.779399 0.489004
O O12 0.500000 0.573246 0.055682
O O13 0.354413 0.545255 0.136009
O O14 0.345045 0.500000 0.000000
O O15 0.848567 0.804925 0.689235
O O16 0.819575 0.963905 0.622246
O O17 0.250000 0.523018 0.250000
O O18 0.320974 0.375522 0.179588
O O19 0.500000 0.689081 0.809350
O O20 0.500000 0.022954 0.887290
O O21 0.602385 0.000000 0.000000
#
# Coordination Sequence:
#
# PCOD8221050 Si02
#       8
#     8   8   8   8   8   8   8   8
#     4  10  21  34  46  68 104 138 173 217 262 310
#     4  10  21  36  50  65  95 141 187 218 247 302
#     4   9  18  32  49  74 105 133 161 205 256 308
#     4  10  21  33  49  76 107 133 163 205 260 312
#     4  11  17  28  50  75  97 129 164 203 253 310
#     4  12  21  32  49  72  99 137 170 209 256 311
#     4  11  20  31  47  73 107 134 161 205 269 329
#     4   8  15  28  47  72  99 125 158 195 244 311
#
# _framework density 17.058074999999999
#
# number of rings (size 3 to 8) (size 9 to 14) (size 15 to 20)
#    0.000    1.875    2.500    3.750    1.750    1.500 
#    0.000    0.000    0.000    4.875    0.000    0.000 
#    0.000    0.000    0.000    0.000    0.000    0.000 
#
# Total GULP energy -793358.234662 kJ/mol
# GULP energy per Si atom -12396.222417 kJ/mol
# Density = 1.701925 g / cm^3
# Si number density = 17.058075 Si / 1000 Ang^3
#
#
#
# Elastic Constant Matrix: (Units=GPa)
#
#
# Indices 1 2 3 4 5 6 
#
# 1 77.1122 39.7226 29.6075 0.0000 0.0000 0.0000
# 2 39.7226 119.0141 40.1650 0.0000 0.0000 0.0000
# 3 29.6075 40.1650 73.9543 0.0000 0.0000 0.0000
# 4 0.0000 0.0000 0.0000 23.3765 0.0000 0.0000
# 5 0.0000 0.0000 0.0000 0.0000 26.8746 0.0000
# 6 0.0000 0.0000 0.0000 0.0000 0.0000 22.8048
#
#
#
# Elastic Compliance Matrix: (Units=1/GPa)
#
#
# Indices 1 2 3 4 5 6 
#
# 1 0.016804 -0.004087 -0.004508 0.000000 0.000000 0.000000
# 2 -0.004087 0.011282 -0.004491 0.000000 0.000000 0.000000
# 3 -0.004508 -0.004491 0.017766 0.000000 0.000000 0.000000
# 4 0.000000 0.000000 0.000000 0.042778 0.000000 0.000000
# 5 0.000000 0.000000 0.000000 0.000000 0.037210 0.000000
# 6 0.000000 0.000000 0.000000 0.000000 0.000000 0.043850
#
#
# Mechanical properties :
#
#
# Convention : Reuss Voigt Hill
#
# Bulk Modulus (GPa) = 50.81329 54.34121 52.57725
# Shear Modulus (GPa) = 24.70075 25.31687 25.00881
#
# Velocity S-wave (km/s) = 3.80944 3.85666 3.83312
# Velocity P-wave (km/s) = 7.01443 7.19427 7.10492
#
# Compressibility (1/GPa) = 0.01967989
#
# Stress axis : x y z
#
# Youngs Moduli (GPa) = 59.50814 88.63475 56.28842
#
# Poissons Ratio (x) = 0.36229 0.25373
# Poissons Ratio (y) = 0.24324 0.25279
# Poissons Ratio (z) = 0.26825 0.39806
#
# Static dielectric constant tensor:
#      x y z
#    x 3.335280 0.000000 0.000000 
#    y 0.000000 3.472470 0.000000 
#    z 0.000000 0.000000 3.087430 
# 
# 
# High freq. dielectric constant tensor:
#      x y z
#    x 1.666670 0.000000 0.000000 
#    y 0.000000 1.635960 0.000000 
#    z 0.000000 0.000000 1.634760 
# 
# From -- ./inp_files/28616.got.cif
#   From: 2010.03.12/outbox.cif.g09.slc.cpg/sg53_15_cif.got.tgz:28616.got - 2010.04.16 14:36:59.
