data_PCOD8221109
_publ_section_title
;
Structure prediction by ZEFSAII (Michael W. Deem and Ramdas Pophale) SiO2 
 PCOD8221109
Probable space group: P M N A
;
_chemical_formula_sum "Si O2"
_cell_formula_units_Z 64
_cell_length_a 17.198935
_cell_length_b 9.853692
_cell_length_c 18.418422
_cell_angle_alpha 90.000000
_cell_angle_beta 90.000000
_cell_angle_gamma 90.000000
_cell_volume 3121.425383
_symmetry_space_group_name_H-M "P M N A"
_symmetry_group_IT_number 53
_symmetry_cell_setting 'orthorhombic'
loop_
_space_group_symop_operation_xyz
x,y,z
1/2-x,-y,1/2+z
x,-y,-z
1/2-x,y,1/2-z
-x,-y,-z
1/2+x,y,1/2-z
-x,y,z
1/2+x,-y,1/2+z
loop_
_atom_site_type_symbol
_atom_site_label
_atom_site_fract_x
_atom_site_fract_y
_atom_site_fract_z
Si Si1 0.635029 0.121543 0.546034
Si Si2 0.091086 0.978091 0.197759
Si Si3 0.913008 0.635078 0.545829
Si Si4 0.310539 0.142300 0.967961
Si Si5 0.092033 0.506136 0.696210
Si Si6 0.907708 0.718980 0.815004
Si Si7 0.912674 0.632597 0.968303
Si Si8 0.672872 0.784706 0.199932
O O1 0.636930 0.087623 0.630531
O O2 0.719918 0.152577 0.513461
O O3 0.584667 0.255263 0.531465
O O4 0.596400 0.000000 0.500000
O O5 0.109454 0.887789 0.267531
O O6 0.000000 0.974892 0.180468
O O7 0.121589 0.132133 0.210224
O O8 0.912900 0.500000 0.500000
O O9 0.854556 0.740807 0.510875
O O10 0.885890 0.595003 0.626239
O O11 0.000000 0.698367 0.546902
O O12 0.317099 0.160194 0.881425
O O13 0.343330 0.000000 0.000000
O O14 0.120828 0.599028 0.762772
O O15 0.139594 0.367056 0.698643
O O16 0.000000 0.473211 0.698198
O O17 0.872434 0.687831 0.894860
O O18 0.000000 0.723753 0.815890
O O19 0.000000 0.589062 0.947361
O O20 0.868320 0.500000 0.000000
O O21 0.750000 0.789431 0.250000
#
# Coordination Sequence:
#
# PCOD8221109 Si02
#       8
#     8   8   8   8   8   8   8   8
#     4  11  22  41  62  88 125 172 212 256 310 374
#     4  11  23  39  66  94 124 170 213 259 318 378
#     4  10  21  42  70  94 121 163 211 266 323 384
#     4  11  26  44  64  93 130 169 213 263 319 377
#     4  10  22  43  69  95 127 164 213 269 327 387
#     4   9  20  38  59  91 126 159 207 264 314 373
#     4  10  21  35  57  90 126 163 211 262 307 365
#     4  12  25  44  62  93 132 168 211 262 320 389
#
# _framework density 20.503454000000001
#
# number of rings (size 3 to 8) (size 9 to 14) (size 15 to 20)
#    0.000    1.500    3.750    0.750    3.500    1.750 
#    2.250    0.625    0.000    0.000    0.000    0.000 
#    0.000    0.000    0.000    0.000    0.000    0.000 
#
# Total GULP energy -793459.044549 kJ/mol
# GULP energy per Si atom -12397.797571 kJ/mol
# Density = 2.045679 g / cm^3
# Si number density = 20.503454 Si / 1000 Ang^3
#
#
#
# Elastic Constant Matrix: (Units=GPa)
#
#
# Indices 1 2 3 4 5 6 
#
# 1 56.1757 39.9625 22.9662 0.0000 0.0000 0.0000
# 2 39.9625 152.5994 77.1555 0.0000 0.0000 0.0000
# 3 22.9662 77.1555 130.4925 0.0000 0.0000 0.0000
# 4 0.0000 0.0000 0.0000 42.3442 0.0000 0.0000
# 5 0.0000 0.0000 0.0000 0.0000 21.4669 0.0000
# 6 0.0000 0.0000 0.0000 0.0000 0.0000 26.0207
#
#
#
# Elastic Compliance Matrix: (Units=1/GPa)
#
#
# Indices 1 2 3 4 5 6 
#
# 1 0.021917 -0.005405 -0.000661 0.000000 0.000000 0.000000
# 2 -0.005405 0.010681 -0.005364 0.000000 0.000000 0.000000
# 3 -0.000661 -0.005364 0.010951 0.000000 0.000000 0.000000
# 4 0.000000 0.000000 0.000000 0.023616 0.000000 0.000000
# 5 0.000000 0.000000 0.000000 0.000000 0.046583 0.000000
# 6 0.000000 0.000000 0.000000 0.000000 0.000000 0.038431
#
#
# Mechanical properties :
#
#
# Convention : Reuss Voigt Hill
#
# Bulk Modulus (GPa) = 48.33756 68.82623 58.58189
# Shear Modulus (GPa) = 27.48234 31.24527 29.36380
#
# Velocity S-wave (km/s) = 3.66509 3.90795 3.78847
# Velocity P-wave (km/s) = 6.44492 7.34873 6.91161
#
# Compressibility (1/GPa) = 0.02068785
#
# Stress axis : x y z
#
# Youngs Moduli (GPa) = 45.62709 93.62825 91.31527
#
# Poissons Ratio (x) = 0.50607 0.06040
# Poissons Ratio (y) = 0.24662 0.48979
# Poissons Ratio (z) = 0.03018 0.50220
#
# Static dielectric constant tensor:
#      x y z
#    x 3.480250 0.000000 0.000000 
#    y 0.000000 3.809380 0.000000 
#    z 0.000000 0.000000 3.899700 
# 
# 
# High freq. dielectric constant tensor:
#      x y z
#    x 1.777160 0.000000 0.000000 
#    y 0.000000 1.815460 0.000000 
#    z 0.000000 0.000000 1.812120 
# 
# From -- ./inp_files/29396.got.cif
#   From: 2010.03.12/outbox.cif.g09.slc.cpg/sg53_15_cif.got.tgz:29396.got - 2010.04.16 14:36:59.
