data_PCOD8221657
_publ_section_title
;
Structure prediction by ZEFSAII (Michael W. Deem and Ramdas Pophale) SiO2 
 PCOD8221657
Probable space group: P M N A
;
_chemical_formula_sum "Si O2"
_cell_formula_units_Z 64
_cell_length_a 9.626552
_cell_length_b 16.209010
_cell_length_c 21.560960
_cell_angle_alpha 90.000000
_cell_angle_beta 90.000000
_cell_angle_gamma 90.000000
_cell_volume 3364.304877
_symmetry_space_group_name_H-M "P M N A"
_symmetry_group_IT_number 53
_symmetry_cell_setting 'orthorhombic'
loop_
_space_group_symop_operation_xyz
x,y,z
1/2-x,-y,1/2+z
x,-y,-z
1/2-x,y,1/2-z
-x,-y,-z
1/2+x,y,1/2-z
-x,y,z
1/2+x,-y,1/2+z
loop_
_atom_site_type_symbol
_atom_site_label
_atom_site_fract_x
_atom_site_fract_y
_atom_site_fract_z
Si Si1 0.655861 0.794794 0.304309
Si Si2 0.345228 0.702187 0.428591
Si Si3 0.658270 0.962654 0.365225
Si Si4 0.658332 0.260486 0.192851
Si Si5 0.336434 0.455033 0.936578
Si Si6 0.662077 0.891798 0.890812
Si Si7 0.836911 0.550393 0.688483
Si Si8 0.156193 0.126548 0.992508
O O1 0.750000 0.759759 0.250000
O O2 0.500000 0.804104 0.279691
O O3 0.663833 0.726897 0.357199
O O4 0.710563 0.884061 0.326350
O O5 0.500000 0.668740 0.443450
O O6 0.232151 0.633712 0.441799
O O7 0.311577 0.781529 0.469689
O O8 0.500000 0.986059 0.347806
O O9 0.666526 0.939744 0.437702
O O10 0.759898 0.038905 0.349415
O O11 0.750000 0.230830 0.250000
O O12 0.500000 0.253698 0.214750
O O13 0.688678 0.199438 0.135960
O O14 0.694108 0.353863 0.172914
O O15 0.500000 0.442636 0.934450
O O16 0.287706 0.501687 0.873429
O O17 0.291336 0.500000 0.000000
O O18 0.500000 0.913565 0.893863
O O19 0.727108 0.896090 0.958543
O O20 0.750000 0.522964 0.750000
O O21 0.000000 0.535412 0.702193
O O22 0.000000 0.122677 0.021078
#
# Coordination Sequence:
#
# PCOD8221657 Si02
#       8
#     8   8   8   8   8   8   8   8
#     4   9  19  36  57  79 106 144 183 223 271 321
#     4   9  20  38  56  79 110 141 179 223 264 320
#     4   9  19  36  53  72 105 144 180 219 265 319
#     4   9  20  37  54  74 103 137 175 219 262 312
#     4  10  22  37  58  86 116 148 181 224 284 340
#     4  11  22  32  51  81 107 135 175 225 273 315
#     4   9  19  38  59  79 107 146 187 223 269 330
#     4   9  19  36  55  74 102 143 182 214 261 322
#
# _framework density 19.023244999999999
#
# number of rings (size 3 to 8) (size 9 to 14) (size 15 to 20)
#    0.000    2.625    0.000    2.250    1.750    6.250 
#    0.000    7.500    0.000    0.000    0.000    0.000 
#    0.000    0.000    0.000    0.000    0.000    0.000 
#
# Total GULP energy -793478.696362 kJ/mol
# GULP energy per Si atom -12398.104631 kJ/mol
# Density = 1.897995 g / cm^3
# Si number density = 19.023245 Si / 1000 Ang^3
#
#
#
# Elastic Constant Matrix: (Units=GPa)
#
#
# Indices 1 2 3 4 5 6 
#
# 1 66.3992 36.2033 31.5592 0.0000 0.0000 0.0000
# 2 36.2033 79.9922 17.7075 0.0000 0.0000 0.0000
# 3 31.5592 17.7075 66.7810 0.0000 0.0000 0.0000
# 4 0.0000 0.0000 0.0000 8.9968 0.0000 0.0000
# 5 0.0000 0.0000 0.0000 0.0000 24.2115 0.0000
# 6 0.0000 0.0000 0.0000 0.0000 0.0000 93.3096
#
#
#
# Elastic Compliance Matrix: (Units=1/GPa)
#
#
# Indices 1 2 3 4 5 6 
#
# 1 0.024275 -0.008974 -0.009092 0.000000 0.000000 0.000000
# 2 -0.008974 0.016598 -0.000160 0.000000 0.000000 0.000000
# 3 -0.009092 -0.000160 0.019314 0.000000 0.000000 0.000000
# 4 0.000000 0.000000 0.000000 0.111150 0.000000 0.000000
# 5 0.000000 0.000000 0.000000 0.000000 0.041303 0.000000
# 6 0.000000 0.000000 0.000000 0.000000 0.000000 0.010717
#
#
# Mechanical properties :
#
#
# Convention : Reuss Voigt Hill
#
# Bulk Modulus (GPa) = 42.13387 42.67916 42.40651
# Shear Modulus (GPa) = 18.67620 33.81707 26.24663
#
# Velocity S-wave (km/s) = 3.13670 4.22082 3.71848
# Velocity P-wave (km/s) = 5.94266 6.79983 6.38564
#
# Compressibility (1/GPa) = 0.02373387
#
# Stress axis : x y z
#
# Youngs Moduli (GPa) = 41.19511 60.24795 51.77691
#
# Poissons Ratio (x) = 0.54065 0.47077
# Poissons Ratio (y) = 0.36967 0.00830
# Poissons Ratio (z) = 0.37456 0.00966
#
# Static dielectric constant tensor:
#      x y z
#    x 3.452390 0.000000 0.000000 
#    y 0.000000 3.501580 0.000000 
#    z 0.000000 0.000000 3.405090 
# 
# 
# High freq. dielectric constant tensor:
#      x y z
#    x 1.736360 0.000000 0.000000 
#    y 0.000000 1.743480 0.000000 
#    z 0.000000 0.000000 1.730820 
# 
# From -- ./inp_files/31139.got.cif
#   From: 2010.03.12/outbox.cif.g09.slc.cpg/sg53_16_cif.got.tgz:31139.got - 2010.04.16 14:36:59.
