data_PCOD8221831
_publ_section_title
;
Structure prediction by ZEFSAII (Michael W. Deem and Ramdas Pophale) SiO2 
 PCOD8221831
Probable space group: P M N A
;
_chemical_formula_sum "Si O2"
_cell_formula_units_Z 40
_cell_length_a 13.684968
_cell_length_b 15.259985
_cell_length_c 9.511532
_cell_angle_alpha 90.000000
_cell_angle_beta 90.000000
_cell_angle_gamma 90.000000
_cell_volume 1986.316116
_symmetry_space_group_name_H-M "P M N A"
_symmetry_group_IT_number 53
_symmetry_cell_setting 'orthorhombic'
loop_
_space_group_symop_operation_xyz
x,y,z
1/2-x,-y,1/2+z
x,-y,-z
1/2-x,y,1/2-z
-x,-y,-z
1/2+x,y,1/2-z
-x,y,z
1/2+x,-y,1/2+z
loop_
_atom_site_type_symbol
_atom_site_label
_atom_site_fract_x
_atom_site_fract_y
_atom_site_fract_z
Si Si1 0.750000 0.343046 0.750000
Si Si2 0.201177 0.765950 0.504471
Si Si3 0.500000 0.970522 0.242005
Si Si4 0.694608 0.072775 0.605142
Si Si5 0.250000 0.635956 0.750000
Si Si6 0.000000 0.864001 0.545714
Si Si7 0.607204 0.510365 0.336387
O O1 0.811703 0.284106 0.642128
O O2 0.831276 0.401861 0.822184
O O3 0.287256 0.837256 0.479705
O O4 0.240057 0.697127 0.616025
O O5 0.098229 0.806332 0.555633
O O6 0.585315 0.949556 0.351447
O O7 0.500000 0.069367 0.179165
O O8 0.500000 0.908520 0.106689
O O9 0.750000 0.073027 0.750000
O O10 0.737864 0.000000 0.500000
O O11 0.344344 0.573912 0.736957
O O12 0.596259 0.500000 0.500000
O O13 0.500000 0.520931 0.266934
#
# Coordination Sequence:
#
# PCOD8221831 Si02
#       7
#     4   8   4   8   4   4   8
#     4  11  22  44  67 100 128 176 219 270 330 401
#     4  12  25  44  66  99 134 173 221 279 328 390
#     4  11  23  46  64  98 129 178 232 265 333 403
#     4  12  25  44  68  95 133 179 221 273 335 389
#     4  11  26  44  65 102 132 170 223 272 336 397
#     4  11  24  42  70  97 135 173 224 281 326 393
#     4  10  22  44  69  95 133 175 213 268 333 402
#
# _framework density 20.137781
#
# number of rings (size 3 to 8) (size 9 to 14) (size 15 to 20)
#    0.000    0.800    5.000    1.500    7.000    0.000 
#    3.600    1.000    0.000    0.000    0.000    0.000 
#    0.000    0.000    0.000    0.000    0.000    0.000 
#
# Total GULP energy -495826.309240 kJ/mol
# GULP energy per Si atom -12395.657731 kJ/mol
# Density = 2.009195 g / cm^3
# Si number density = 20.137781 Si / 1000 Ang^3
#
#
#
# Elastic Constant Matrix: (Units=GPa)
#
#
# Indices 1 2 3 4 5 6 
#
# 1 130.2351 49.8549 12.5288 0.0000 0.0000 0.0000
# 2 49.8549 122.3037 29.8638 0.0000 0.0000 0.0000
# 3 12.5288 29.8638 57.1673 0.0000 0.0000 0.0000
# 4 0.0000 0.0000 0.0000 53.8460 0.0000 0.0000
# 5 0.0000 0.0000 0.0000 0.0000 -468.6849 0.0000
# 6 0.0000 0.0000 0.0000 0.0000 0.0000 40.2983
#
#
#
# Elastic Compliance Matrix: (Units=1/GPa)
#
#
# Indices 1 2 3 4 5 6 
#
# 1 0.009098 -0.003693 -0.000065 0.000000 0.000000 0.000000
# 2 -0.003693 0.010871 -0.004869 0.000000 0.000000 0.000000
# 3 -0.000065 -0.004869 0.020050 0.000000 0.000000 0.000000
# 4 0.000000 0.000000 0.000000 0.018571 0.000000 0.000000
# 5 0.000000 0.000000 0.000000 0.000000 -0.002134 0.000000
# 6 0.000000 0.000000 0.000000 0.000000 0.000000 0.024815
#
#
# Mechanical properties :
#
#
# Convention : Reuss Voigt Hill
#
# Bulk Modulus (GPa) = 43.92686 54.91124 49.41905
# Shear Modulus (GPa) = 47.11862 -60.41088 -6.64613
#
# Velocity S-wave (km/s) = 4.84241 -5.48306 -1.81865
# Velocity P-wave (km/s) = 7.28874 3.57187 4.49263
#
# Compressibility (1/GPa) = 0.02276511
#
# Stress axis : x y z
#
# Youngs Moduli (GPa) = 109.91012 91.99009 49.87412
#
# Poissons Ratio (x) = 0.33971 0.00323
# Poissons Ratio (y) = 0.40589 0.24286
# Poissons Ratio (z) = 0.00713 0.44794
#
# Static dielectric constant tensor:
#      x y z
#    x -2.623580 0.000000 0.000000 
#    y 0.000000 3.926560 0.000000 
#    z 0.000000 0.000000 3.310870 
# 
# 
# High freq. dielectric constant tensor:
#      x y z
#    x 1.789220 0.000000 0.000000 
#    y 0.000000 1.799730 0.000000 
#    z 0.000000 0.000000 1.795440 
# 
# From -- ./inp_files/8502.got.cif
#   From: 2010.03.12/outbox.cif.g09.slc.cpg/sg53_5_cif.got.tgz:8502.got - 2010.04.16 14:36:59.
