data_PCOD8221810
_publ_section_title
;
Structure prediction by ZEFSAII (Michael W. Deem and Ramdas Pophale) SiO2 
 PCOD8221810
Probable space group: P M N A
;
_chemical_formula_sum "Si O2"
_cell_formula_units_Z 40
_cell_length_a 14.958917
_cell_length_b 14.575949
_cell_length_c 8.827581
_cell_angle_alpha 90.000000
_cell_angle_beta 90.000000
_cell_angle_gamma 90.000000
_cell_volume 1924.769392
_symmetry_space_group_name_H-M "P M N A"
_symmetry_group_IT_number 53
_symmetry_cell_setting 'orthorhombic'
loop_
_space_group_symop_operation_xyz
x,y,z
1/2-x,-y,1/2+z
x,-y,-z
1/2-x,y,1/2-z
-x,-y,-z
1/2+x,y,1/2-z
-x,y,z
1/2+x,-y,1/2+z
loop_
_atom_site_type_symbol
_atom_site_label
_atom_site_fract_x
_atom_site_fract_y
_atom_site_fract_z
Si Si1 0.330559 0.921665 0.624856
Si Si2 0.597535 0.916051 0.919759
Si Si3 0.103881 0.728678 0.931744
Si Si4 0.396198 0.713143 0.919640
Si Si5 0.756461 0.598581 0.072108
O O1 0.250000 0.919968 0.750000
O O2 0.413963 0.935428 0.739252
O O3 0.345658 0.825355 0.540328
O O4 0.322209 0.000000 0.500000
O O5 0.500000 0.913015 0.994285
O O6 0.641179 0.816634 0.952828
O O7 0.652570 0.000000 0.000000
O O8 0.112725 0.695165 0.758920
O O9 0.000000 0.734910 0.980946
O O10 0.154861 0.656273 0.035922
O O11 0.500000 0.702079 0.969221
O O12 0.334887 0.643080 0.009922
O O13 0.750000 0.588064 0.250000
O O14 0.768425 0.500000 0.000000
#
# Coordination Sequence:
#
# PCOD8221810 Si02
#       5
#     8   8   8   8   8
#     4  11  22  35  56  87 125 165 207 250 301 360
#     4   9  18  34  56  82 117 159 200 243 292 352
#     4  10  22  42  66  89 121 165 212 262 312 367
#     4   9  19  39  65  91 123 164 206 253 311 371
#     4  12  26  43  65  91 122 157 200 259 320 384
#
# _framework density 20.78171
#
# number of rings (size 3 to 8) (size 9 to 14) (size 15 to 20)
#    0.000    1.800    0.000    6.600    0.000    5.600 
#    0.000    2.000    0.000    0.000    0.000    0.000 
#    0.000    0.000    0.000    0.000    0.000    0.000 
#
# Total GULP energy -495527.439784 kJ/mol
# GULP energy per Si atom -12388.185995 kJ/mol
# Density = 2.073441 g / cm^3
# Si number density = 20.781710 Si / 1000 Ang^3
#
#
#
# Elastic Constant Matrix: (Units=GPa)
#
#
# Indices 1 2 3 4 5 6 
#
# 1 114.5165 62.2695 42.2068 0.0000 0.0000 0.0000
# 2 62.2695 175.1139 82.1124 0.0000 0.0000 0.0000
# 3 42.2068 82.1124 106.6315 0.0000 0.0000 0.0000
# 4 0.0000 0.0000 0.0000 41.4850 0.0000 0.0000
# 5 0.0000 0.0000 0.0000 0.0000 24.3092 0.0000
# 6 0.0000 0.0000 0.0000 0.0000 0.0000 16.4160
#
#
#
# Elastic Compliance Matrix: (Units=1/GPa)
#
#
# Indices 1 2 3 4 5 6 
#
# 1 0.011125 -0.002960 -0.002124 0.000000 0.000000 0.000000
# 2 -0.002960 0.009725 -0.006318 0.000000 0.000000 0.000000
# 3 -0.002124 -0.006318 0.015084 0.000000 0.000000 0.000000
# 4 0.000000 0.000000 0.000000 0.024105 0.000000 0.000000
# 5 0.000000 0.000000 0.000000 0.000000 0.041137 0.000000
# 6 0.000000 0.000000 0.000000 0.000000 0.000000 0.060916
#
#
# Mechanical properties :
#
#
# Convention : Reuss Voigt Hill
#
# Bulk Modulus (GPa) = 76.15684 85.49326 80.82505
# Shear Modulus (GPa) = 26.41704 30.42027 28.41865
#
# Velocity S-wave (km/s) = 3.56921 3.83011 3.70196
# Velocity P-wave (km/s) = 7.32880 7.79665 7.56634
#
# Compressibility (1/GPa) = 0.01313080
#
# Stress axis : x y z
#
# Youngs Moduli (GPa) = 89.89012 102.82294 66.29647
#
# Poissons Ratio (x) = 0.30434 0.14082
# Poissons Ratio (y) = 0.26606 0.41883
# Poissons Ratio (z) = 0.19093 0.64959
#
# Static dielectric constant tensor:
#      x y z
#    x 4.223360 0.000000 0.000000 
#    y 0.000000 3.935660 0.000000 
#    z 0.000000 0.000000 4.074590 
# 
# 
# High freq. dielectric constant tensor:
#      x y z
#    x 1.832520 0.000000 0.000000 
#    y 0.000000 1.815250 0.000000 
#    z 0.000000 0.000000 1.795750 
# 
# From -- ./inp_files/8402.got.cif
#   From: 2010.03.12/outbox.cif.g09.slc.cpg/sg53_5_cif.got.tgz:8402.got - 2010.04.16 14:36:59.
