data_PCOD8221879
_publ_section_title
;
Structure prediction by ZEFSAII (Michael W. Deem and Ramdas Pophale) SiO2 
 PCOD8221879
Probable space group: P M N A
;
_chemical_formula_sum "Si O2"
_cell_formula_units_Z 20
_cell_length_a 9.549498
_cell_length_b 7.957797
_cell_length_c 11.930897
_cell_angle_alpha 90.000000
_cell_angle_beta 90.000000
_cell_angle_gamma 90.000000
_cell_volume 906.664256
_symmetry_space_group_name_H-M "P M N A"
_symmetry_group_IT_number 53
_symmetry_cell_setting 'orthorhombic'
loop_
_space_group_symop_operation_xyz
x,y,z
1/2-x,-y,1/2+z
x,-y,-z
1/2-x,y,1/2-z
-x,-y,-z
1/2+x,y,1/2-z
-x,y,z
1/2+x,-y,1/2+z
loop_
_atom_site_type_symbol
_atom_site_label
_atom_site_fract_x
_atom_site_fract_y
_atom_site_fract_z
Si Si1 0.158912 0.189025 0.971170
Si Si2 0.250000 0.661300 0.250000
Si Si3 0.343291 0.661336 0.847215
O O1 0.263620 0.313740 0.035559
O O2 0.000000 0.225112 0.010459
O O3 0.169692 0.220072 0.837993
O O4 0.203684 0.000000 0.000000
O O5 0.144705 0.537908 0.318654
O O6 0.250000 0.752881 0.750000
O O7 0.500000 0.737687 0.852447
#
# Coordination Sequence:
#
# PCOD8221879 Si02
#       3
#     8   4   8
#     4  11  25  44  67  98 135 174 215 268 328 387
#     4  10  24  40  68  96 130 174 220 272 314 390
#     4  10  23  42  67  96 128 170 219 269 323 384
#
# _framework density 22.058881
#
# number of rings (size 3 to 8) (size 9 to 14) (size 15 to 20)
#    1.200    0.400    0.000    3.600    2.800    7.200 
#    0.000    0.000    0.000    0.000    0.000    0.000 
#    0.000    0.000    0.000    0.000    0.000    0.000 
#
# Total GULP energy -247865.003250 kJ/mol
# GULP energy per Si atom -12393.250163 kJ/mol
# Density = 2.200867 g / cm^3
# Si number density = 22.058881 Si / 1000 Ang^3
#
#
#
# Elastic Constant Matrix: (Units=GPa)
#
#
# Indices 1 2 3 4 5 6 
#
# 1 160.1511 35.9903 60.3245 0.0000 0.0000 0.0000
# 2 35.9903 99.9005 63.1643 0.0000 0.0000 0.0000
# 3 60.3245 63.1643 143.0864 0.0000 0.0000 0.0000
# 4 0.0000 0.0000 0.0000 39.2055 0.0000 0.0000
# 5 0.0000 0.0000 0.0000 0.0000 33.7676 0.0000
# 6 0.0000 0.0000 0.0000 0.0000 0.0000 14.9027
#
#
#
# Elastic Compliance Matrix: (Units=1/GPa)
#
#
# Indices 1 2 3 4 5 6 
#
# 1 0.007491 -0.000974 -0.002728 0.000000 0.000000 0.000000
# 2 -0.000974 0.014012 -0.005775 0.000000 0.000000 0.000000
# 3 -0.002728 -0.005775 0.010688 0.000000 0.000000 0.000000
# 4 0.000000 0.000000 0.000000 0.025507 0.000000 0.000000
# 5 0.000000 0.000000 0.000000 0.000000 0.029614 0.000000
# 6 0.000000 0.000000 0.000000 0.000000 0.000000 0.067102
#
#
# Mechanical properties :
#
#
# Convention : Reuss Voigt Hill
#
# Bulk Modulus (GPa) = 75.54421 80.23291 77.88856
# Shear Modulus (GPa) = 28.12471 33.81910 30.97191
#
# Velocity S-wave (km/s) = 3.57456 3.91977 3.75114
# Velocity P-wave (km/s) = 7.16643 7.54567 7.35849
#
# Compressibility (1/GPa) = 0.01323728
#
# Stress axis : x y z
#
# Youngs Moduli (GPa) = 133.50193 71.36677 93.55993
#
# Poissons Ratio (x) = 0.06948 0.25525
# Poissons Ratio (y) = 0.12998 0.54032
# Poissons Ratio (z) = 0.36422 0.41215
#
# Static dielectric constant tensor:
#      x y z
#    x 3.687460 0.000000 0.000000 
#    y 0.000000 3.573190 0.000000 
#    z 0.000000 0.000000 3.923020 
# 
# 
# High freq. dielectric constant tensor:
#      x y z
#    x 1.858460 0.000000 0.000000 
#    y 0.000000 1.838530 0.000000 
#    z 0.000000 0.000000 1.876620 
# 
# From -- ./inp_files/13513.got.cif
#   From: 2010.03.12/outbox.cif.g09.slc.cpg/sg53_7_cif.got.tgz:13513.got - 2010.04.16 14:36:59.
