data_PCOD8221027
_publ_section_title
;
Structure prediction by ZEFSAII (Michael W. Deem and Ramdas Pophale) SiO2 
 PCOD8221027
Probable space group: P M N A
;
_chemical_formula_sum "Si O2"
_cell_formula_units_Z 40
_cell_length_a 22.758923
_cell_length_b 9.247435
_cell_length_c 9.566399
_cell_angle_alpha 90.000000
_cell_angle_beta 90.000000
_cell_angle_gamma 90.000000
_cell_volume 2013.360224
_symmetry_space_group_name_H-M "P M N A"
_symmetry_group_IT_number 53
_symmetry_cell_setting 'orthorhombic'
loop_
_space_group_symop_operation_xyz
x,y,z
1/2-x,-y,1/2+z
x,-y,-z
1/2-x,y,1/2-z
-x,-y,-z
1/2+x,y,1/2-z
-x,y,z
1/2+x,-y,1/2+z
loop_
_atom_site_type_symbol
_atom_site_label
_atom_site_fract_x
_atom_site_fract_y
_atom_site_fract_z
Si Si1 0.623586 0.671830 0.012861
Si Si2 0.316594 0.186412 0.747120
Si Si3 0.314828 0.143347 0.208598
Si Si4 0.610297 0.160713 0.476022
Si Si5 0.000000 0.649877 0.923118
Si Si6 0.000000 0.647278 0.586510
O O1 0.671450 0.761271 0.926505
O O2 0.559135 0.728794 0.963690
O O3 0.630094 0.500000 0.000000
O O4 0.637408 0.710196 0.173061
O O5 0.250000 0.247514 0.750000
O O6 0.338476 0.187372 0.588370
O O7 0.317556 0.028413 0.819681
O O8 0.250000 0.190612 0.250000
O O9 0.361154 0.184901 0.326255
O O10 0.556565 0.269401 0.483210
O O11 0.585005 0.000000 0.500000
O O12 0.000000 0.630303 0.754716
O O13 0.000000 0.500000 0.000000
O O14 0.000000 0.500000 0.500000
#
# Coordination Sequence:
#
# PCOD8221027 Si02
#       6
#     8   8   8   8   4   4
#     4  11  23  39  62  88 128 160 202 254 301 365
#     4  10  22  40  64  93 124 160 205 244 306 370
#     4  10  20  40  65  89 122 165 200 252 308 361
#     4  10  22  39  63  92 124 156 205 258 298 360
#     4  12  25  41  67  88 120 166 208 252 309 365
#     4  10  24  43  60  87 125 163 202 249 309 358
#
# _framework density 19.867284000000001
#
# number of rings (size 3 to 8) (size 9 to 14) (size 15 to 20)
#    0.000    1.600    2.000    2.100    5.600    4.000 
#    0.000    5.000    0.000    0.000    0.000    0.000 
#    0.000    0.000    0.000    0.000    0.000    0.000 
#
# Total GULP energy -495947.089676 kJ/mol
# GULP energy per Si atom -12398.677242 kJ/mol
# Density = 1.982207 g / cm^3
# Si number density = 19.867284 Si / 1000 Ang^3
#
#
#
# Elastic Constant Matrix: (Units=GPa)
#
#
# Indices 1 2 3 4 5 6 
#
# 1 131.7202 43.8296 19.4026 0.0000 0.0000 0.0000
# 2 43.8296 74.6024 24.5191 0.0000 0.0000 0.0000
# 3 19.4026 24.5191 71.2118 0.0000 0.0000 0.0000
# 4 0.0000 0.0000 0.0000 36.8966 0.0000 0.0000
# 5 0.0000 0.0000 0.0000 0.0000 27.2133 0.0000
# 6 0.0000 0.0000 0.0000 0.0000 0.0000 54.0767
#
#
#
# Elastic Compliance Matrix: (Units=1/GPa)
#
#
# Indices 1 2 3 4 5 6 
#
# 1 0.009472 -0.005319 -0.000750 0.000000 0.000000 0.000000
# 2 -0.005319 0.018101 -0.004783 0.000000 0.000000 0.000000
# 3 -0.000750 -0.004783 0.015894 0.000000 0.000000 0.000000
# 4 0.000000 0.000000 0.000000 0.027103 0.000000 0.000000
# 5 0.000000 0.000000 0.000000 0.000000 0.036747 0.000000
# 6 0.000000 0.000000 0.000000 0.000000 0.000000 0.018492
#
#
# Mechanical properties :
#
#
# Convention : Reuss Voigt Hill
#
# Bulk Modulus (GPa) = 45.94715 50.33745 48.14230
# Shear Modulus (GPa) = 32.30677 36.28952 34.29815
#
# Velocity S-wave (km/s) = 4.03690 4.27851 4.15946
# Velocity P-wave (km/s) = 6.70120 7.05687 6.88133
#
# Compressibility (1/GPa) = 0.02176414
#
# Stress axis : x y z
#
# Youngs Moduli (GPa) = 105.57446 55.24497 62.91766
#
# Poissons Ratio (x) = 0.29382 0.04716
# Poissons Ratio (y) = 0.56150 0.30096
# Poissons Ratio (z) = 0.07913 0.26426
#
# Static dielectric constant tensor:
#      x y z
#    x 3.946660 0.000000 0.000000 
#    y 0.000000 3.483520 0.000000 
#    z 0.000000 0.000000 3.645420 
# 
# 
# High freq. dielectric constant tensor:
#      x y z
#    x 1.789540 0.000000 0.000000 
#    y 0.000000 1.758590 0.000000 
#    z 0.000000 0.000000 1.785710 
# 
# From -- ./inp_files/11628.got.cif
#   From: 2010.03.12/outbox.cif.g09.slc.cpg/sg53_6_cif.got.tgz:11628.got - 2010.04.16 14:36:59.
