data_PCOD8221101
_publ_section_title
;
Structure prediction by ZEFSAII (Michael W. Deem and Ramdas Pophale) SiO2 
 PCOD8221101
Probable space group: P M N A
;
_chemical_formula_sum "Si O2"
_cell_formula_units_Z 40
_cell_length_a 13.867508
_cell_length_b 12.779334
_cell_length_c 11.483499
_cell_angle_alpha 90.000000
_cell_angle_beta 90.000000
_cell_angle_gamma 90.000000
_cell_volume 2035.077173
_symmetry_space_group_name_H-M "P M N A"
_symmetry_group_IT_number 53
_symmetry_cell_setting 'orthorhombic'
loop_
_space_group_symop_operation_xyz
x,y,z
1/2-x,-y,1/2+z
x,-y,-z
1/2-x,y,1/2-z
-x,-y,-z
1/2+x,y,1/2-z
-x,y,z
1/2+x,-y,1/2+z
loop_
_atom_site_type_symbol
_atom_site_label
_atom_site_fract_x
_atom_site_fract_y
_atom_site_fract_z
Si Si1 0.725185 0.679572 0.430686
Si Si2 0.609668 0.610101 0.647558
Si Si3 0.741196 0.110713 0.057786
Si Si4 0.387815 0.396997 0.775634
Si Si5 0.109063 0.836047 0.758391
O O1 0.681461 0.613267 0.537871
O O2 0.742546 0.800425 0.461375
O O3 0.647495 0.681387 0.325839
O O4 0.825647 0.625131 0.391810
O O5 0.500000 0.601523 0.599995
O O6 0.634900 0.513901 0.731248
O O7 0.623353 0.712292 0.726024
O O8 0.832701 0.102039 0.142973
O O9 0.645418 0.137719 0.129904
O O10 0.724369 0.000000 0.000000
O O11 0.500000 0.379081 0.804302
O O12 0.000000 0.872842 0.770951
#
# Coordination Sequence:
#
# PCOD8221101 Si02
#       5
#     8   8   8   8   8
#     4  10  21  35  56  79 108 147 182 218 268 322
#     4   9  18  36  59  80 107 145 183 216 258 323
#     4  10  22  39  57  80 109 141 183 232 273 312
#     4  10  21  35  55  86 117 141 173 220 271 325
#     4   9  20  38  59  81 106 142 186 223 262 322
#
# _framework density 19.655276000000001
#
# number of rings (size 3 to 8) (size 9 to 14) (size 15 to 20)
#    0.000    2.400    0.000    1.200    0.000   15.200 
#    0.000    2.000    0.000   14.400    0.000    0.000 
#    0.000    0.000    0.000    0.000    0.000    0.000 
#
# Total GULP energy -496075.413212 kJ/mol
# GULP energy per Si atom -12401.885330 kJ/mol
# Density = 1.961054 g / cm^3
# Si number density = 19.655276 Si / 1000 Ang^3
#
#
#
# Elastic Constant Matrix: (Units=GPa)
#
#
# Indices 1 2 3 4 5 6 
#
# 1 149.0624 49.6480 64.7941 0.0000 0.0000 0.0000
# 2 49.6480 103.5093 73.9731 0.0000 0.0000 0.0000
# 3 64.7941 73.9731 103.3099 0.0000 0.0000 0.0000
# 4 0.0000 0.0000 0.0000 26.2276 0.0000 0.0000
# 5 0.0000 0.0000 0.0000 0.0000 33.3901 0.0000
# 6 0.0000 0.0000 0.0000 0.0000 0.0000 22.6476
#
#
#
# Elastic Compliance Matrix: (Units=1/GPa)
#
#
# Indices 1 2 3 4 5 6 
#
# 1 0.009241 -0.000595 -0.005370 0.000000 0.000000 0.000000
# 2 -0.000595 0.019824 -0.013821 0.000000 0.000000 0.000000
# 3 -0.005370 -0.013821 0.022944 0.000000 0.000000 0.000000
# 4 0.000000 0.000000 0.000000 0.038128 0.000000 0.000000
# 5 0.000000 0.000000 0.000000 0.000000 0.029949 0.000000
# 6 0.000000 0.000000 0.000000 0.000000 0.000000 0.044155
#
#
# Mechanical properties :
#
#
# Convention : Reuss Voigt Hill
#
# Bulk Modulus (GPa) = 80.40760 81.41242 80.91001
# Shear Modulus (GPa) = 24.04339 27.61749 25.83044
#
# Velocity S-wave (km/s) = 3.50130 3.75252 3.62909
# Velocity P-wave (km/s) = 7.57253 7.76436 7.66904
#
# Compressibility (1/GPa) = 0.01243664
#
# Stress axis : x y z
#
# Youngs Moduli (GPa) = 108.21536 50.44470 43.58454
#
# Poissons Ratio (x) = 0.03001 0.23404
# Poissons Ratio (y) = 0.06437 0.60240
# Poissons Ratio (z) = 0.58109 0.69721
#
# Static dielectric constant tensor:
#      x y z
#    x 3.773950 0.000000 0.000000 
#    y 0.000000 3.417480 0.000000 
#    z 0.000000 0.000000 3.551280 
# 
# 
# High freq. dielectric constant tensor:
#      x y z
#    x 1.776010 0.000000 0.000000 
#    y 0.000000 1.753890 0.000000 
#    z 0.000000 0.000000 1.762050 
# 
# From -- ./inp_files/15743.got.cif
#   From: 2010.03.12/outbox.cif.g09.slc.cpg/sg53_8_cif.got.tgz:15743.got - 2010.04.16 14:36:59.
