data_PCOD8221772
_publ_section_title
;
Structure prediction by ZEFSAII (Michael W. Deem and Ramdas Pophale) SiO2 
 PCOD8221772
Probable space group: P M N A
;
_chemical_formula_sum "Si O2"
_cell_formula_units_Z 44
_cell_length_a 16.350128
_cell_length_b 8.767601
_cell_length_c 13.547225
_cell_angle_alpha 90.000000
_cell_angle_beta 90.000000
_cell_angle_gamma 90.000000
_cell_volume 1942.013651
_symmetry_space_group_name_H-M "P M N A"
_symmetry_group_IT_number 53
_symmetry_cell_setting 'orthorhombic'
loop_
_space_group_symop_operation_xyz
x,y,z
1/2-x,-y,1/2+z
x,-y,-z
1/2-x,y,1/2-z
-x,-y,-z
1/2+x,y,1/2-z
-x,y,z
1/2+x,-y,1/2+z
loop_
_atom_site_type_symbol
_atom_site_label
_atom_site_fract_x
_atom_site_fract_y
_atom_site_fract_z
Si Si1 0.171257 0.500000 0.000000
Si Si2 0.590504 0.865795 0.796471
Si Si3 0.405556 0.294397 0.661871
Si Si4 0.349811 0.983544 0.602033
Si Si5 0.211169 0.236214 0.444979
Si Si6 0.408267 0.790606 0.127041
O O1 0.115804 0.566223 0.089295
O O2 0.226089 0.374691 0.053482
O O3 0.500000 0.801255 0.811812
O O4 0.608500 0.869531 0.679463
O O5 0.650835 0.748728 0.851210
O O6 0.600066 0.034795 0.839410
O O7 0.500000 0.244111 0.644297
O O8 0.394167 0.324818 0.779578
O O9 0.342436 0.155979 0.641332
O O10 0.260494 0.920597 0.571902
O O11 0.401965 0.000000 0.500000
O O12 0.158399 0.241406 0.544425
O O13 0.500000 0.765209 0.084226
#
# Coordination Sequence:
#
# PCOD8221772 Si02
#       6
#     4   8   8   8   8   8
#     4  12  27  44  61 100 142 190 214 282 345 420
#     4  10  22  40  68 101 134 171 225 291 343 396
#     4  10  23  46  70  99 135 180 233 281 340 412
#     4  11  21  41  69  99 128 172 224 292 333 394
#     4  12  24  42  65 101 140 173 226 279 346 410
#     4   9  20  41  73 100 129 176 230 284 340 404
#
# _framework density 22.656896
#
# number of rings (size 3 to 8) (size 9 to 14) (size 15 to 20)
#    0.000    1.455    1.818    4.636    0.000    5.091 
#    6.545    1.818    0.000    0.000    0.000    0.000 
#    0.000    0.000    0.000    0.000    0.000    0.000 
#
# Total GULP energy -545225.198655 kJ/mol
# GULP energy per Si atom -12391.481788 kJ/mol
# Density = 2.260533 g / cm^3
# Si number density = 22.656896 Si / 1000 Ang^3
#
#
#
# Elastic Constant Matrix: (Units=GPa)
#
#
# Indices 1 2 3 4 5 6 
#
# 1 119.5535 57.1661 71.3792 0.0000 0.0000 0.0000
# 2 57.1661 56.8572 39.9453 0.0000 0.0000 0.0000
# 3 71.3792 39.9453 161.0742 0.0000 0.0000 0.0000
# 4 0.0000 0.0000 0.0000 30.0985 0.0000 0.0000
# 5 0.0000 0.0000 0.0000 0.0000 38.0576 0.0000
# 6 0.0000 0.0000 0.0000 0.0000 0.0000 24.3914
#
#
#
# Elastic Compliance Matrix: (Units=1/GPa)
#
#
# Indices 1 2 3 4 5 6 
#
# 1 0.018265 -0.015352 -0.004287 0.000000 0.000000 0.000000
# 2 -0.015352 0.034203 -0.001679 0.000000 0.000000 0.000000
# 3 -0.004287 -0.001679 0.008524 0.000000 0.000000 0.000000
# 4 0.000000 0.000000 0.000000 0.033224 0.000000 0.000000
# 5 0.000000 0.000000 0.000000 0.000000 0.026276 0.000000
# 6 0.000000 0.000000 0.000000 0.000000 0.000000 0.040998
#
#
# Mechanical properties :
#
#
# Convention : Reuss Voigt Hill
#
# Bulk Modulus (GPa) = 54.47667 74.94068 64.70867
# Shear Modulus (GPa) = 23.78181 29.77578 26.77879
#
# Velocity S-wave (km/s) = 3.24334 3.62913 3.44165
# Velocity P-wave (km/s) = 6.17431 7.12102 6.66449
#
# Compressibility (1/GPa) = 0.01835648
#
# Stress axis : x y z
#
# Youngs Moduli (GPa) = 54.75048 29.23713 117.31226
#
# Poissons Ratio (x) = 0.44886 0.50287
# Poissons Ratio (y) = 0.84055 0.19695
# Poissons Ratio (z) = 0.23470 0.04908
#
# Static dielectric constant tensor:
#      x y z
#    x 4.143670 0.000000 0.000000 
#    y 0.000000 3.707340 0.000000 
#    z 0.000000 0.000000 4.550800 
# 
# 
# High freq. dielectric constant tensor:
#      x y z
#    x 1.899100 0.000000 0.000000 
#    y 0.000000 1.850460 0.000000 
#    z 0.000000 0.000000 1.914820 
# 
# From -- ./inp_files/23521.got.cif
#   From: 2010.03.12/outbox.cif.g09.slc.cpg/sg53_12_cif.got.tgz:23521.got - 2010.04.16 14:36:59.
