data_PCOD8221409
_publ_section_title
;
Structure prediction by ZEFSAII (Michael W. Deem and Ramdas Pophale) SiO2 
 PCOD8221409
Probable space group: P M N A
;
_chemical_formula_sum "Si O2"
_cell_formula_units_Z 32
_cell_length_a 16.621585
_cell_length_b 18.006314
_cell_length_c 5.023369
_cell_angle_alpha 90.000000
_cell_angle_beta 90.000000
_cell_angle_gamma 90.000000
_cell_volume 1503.461583
_symmetry_space_group_name_H-M "P M N A"
_symmetry_group_IT_number 53
_symmetry_cell_setting 'orthorhombic'
loop_
_space_group_symop_operation_xyz
x,y,z
1/2-x,-y,1/2+z
x,-y,-z
1/2-x,y,1/2-z
-x,-y,-z
1/2+x,y,1/2-z
-x,y,z
1/2+x,-y,1/2+z
loop_
_atom_site_type_symbol
_atom_site_label
_atom_site_fract_x
_atom_site_fract_y
_atom_site_fract_z
Si Si1 0.408457 0.281182 0.655333
Si Si2 0.659359 0.796187 0.825775
Si Si3 0.589727 0.950902 0.743506
Si Si4 0.194557 0.583759 0.002941
O O1 0.500000 0.289113 0.750193
O O2 0.402231 0.227521 0.403807
O O3 0.379321 0.360820 0.544535
O O4 0.358250 0.245795 0.897780
O O5 0.750000 0.774450 0.750000
O O6 0.648795 0.884703 0.834275
O O7 0.500000 0.922041 0.662510
O O8 0.626091 0.000000 0.500000
O O9 0.581706 0.000000 0.000000
O O10 0.250000 0.595740 0.250000
O O11 0.159704 0.500000 0.000000
O O12 0.250000 0.602616 0.750000
#
# Coordination Sequence:
#
# PCOD8221409 Si02
#       4
#     8   8   8   8
#     4  12  24  40  63  91 125 162 205 254 305 364
#     4  12  25  41  63  91 124 161 205 254 305 364
#     4  10  21  38  60  86 119 157 197 246 305 364
#     4  10  21  39  63  90 123 163 205 251 307 368
#
# _framework density 21.284217000000002
#
# number of rings (size 3 to 8) (size 9 to 14) (size 15 to 20)
#    0.000    1.000    0.000    8.250    0.000    3.500 
#    0.000    0.000    0.000    7.500    0.000    0.000 
#    0.000    0.000    0.000    0.000    0.000    0.000 
#
# Total GULP energy -396742.041447 kJ/mol
# GULP energy per Si atom -12398.188795 kJ/mol
# Density = 2.123577 g / cm^3
# Si number density = 21.284217 Si / 1000 Ang^3
#
#
#
# Elastic Constant Matrix: (Units=GPa)
#
#
# Indices 1 2 3 4 5 6 
#
# 1 82.2999 51.8145 18.6466 0.0000 0.0000 0.0000
# 2 51.8145 131.5120 47.6807 0.0000 0.0000 0.0000
# 3 18.6466 47.6807 143.2274 0.0000 0.0000 0.0000
# 4 0.0000 0.0000 0.0000 40.3581 0.0000 0.0000
# 5 0.0000 0.0000 0.0000 0.0000 30.3110 0.0000
# 6 0.0000 0.0000 0.0000 0.0000 0.0000 5.9352
#
#
#
# Elastic Compliance Matrix: (Units=1/GPa)
#
#
# Indices 1 2 3 4 5 6 
#
# 1 0.016159 -0.006373 0.000018 0.000000 0.000000 0.000000
# 2 -0.006373 0.011161 -0.002886 0.000000 0.000000 0.000000
# 3 0.000018 -0.002886 0.007940 0.000000 0.000000 0.000000
# 4 0.000000 0.000000 0.000000 0.024778 0.000000 0.000000
# 5 0.000000 0.000000 0.000000 0.000000 0.032991 0.000000
# 6 0.000000 0.000000 0.000000 0.000000 0.000000 0.168486
#
#
# Mechanical properties :
#
#
# Convention : Reuss Voigt Hill
#
# Bulk Modulus (GPa) = 59.60055 65.92479 62.76267
# Shear Modulus (GPa) = 17.50760 31.24736 24.37748
#
# Velocity S-wave (km/s) = 2.87115 3.83574 3.38795
# Velocity P-wave (km/s) = 6.24935 7.11744 6.69747
#
# Compressibility (1/GPa) = 0.01677837
#
# Stress axis : x y z
#
# Youngs Moduli (GPa) = 61.88535 89.59750 125.94010
#
# Poissons Ratio (x) = 0.57100 -0.00225
# Poissons Ratio (y) = 0.39439 0.36344
# Poissons Ratio (z) = -0.00110 0.25856
#
# Static dielectric constant tensor:
#      x y z
#    x 3.629630 0.000000 0.000000 
#    y 0.000000 3.527180 0.000000 
#    z 0.000000 0.000000 3.932170 
# 
# 
# High freq. dielectric constant tensor:
#      x y z
#    x 1.816080 0.000000 0.000000 
#    y 0.000000 1.848900 0.000000 
#    z 0.000000 0.000000 1.854770 
# 
# From -- ./inp_files/1181.got.cif
#   From: 2010.03.12/outbox.cif.g09.slc.cpg/sg53_1_cif.got.tgz:1181.got - 2010.04.16 14:36:59.
