data_PCOD8221072
_publ_section_title
;
Structure prediction by ZEFSAII (Michael W. Deem and Ramdas Pophale) SiO2 
 PCOD8221072
Probable space group: P M N A
;
_chemical_formula_sum "Si O2"
_cell_formula_units_Z 40
_cell_length_a 9.497034
_cell_length_b 26.354383
_cell_length_c 9.030251
_cell_angle_alpha 90.000000
_cell_angle_beta 90.000000
_cell_angle_gamma 90.000000
_cell_volume 2260.167719
_symmetry_space_group_name_H-M "P M N A"
_symmetry_group_IT_number 53
_symmetry_cell_setting 'orthorhombic'
loop_
_space_group_symop_operation_xyz
x,y,z
1/2-x,-y,1/2+z
x,-y,-z
1/2-x,y,1/2-z
-x,-y,-z
1/2+x,y,1/2-z
-x,y,z
1/2+x,-y,1/2+z
loop_
_atom_site_type_symbol
_atom_site_label
_atom_site_fract_x
_atom_site_fract_y
_atom_site_fract_z
Si Si1 0.340699 0.154226 0.393999
Si Si2 0.663958 0.547348 0.599589
Si Si3 0.835899 0.735663 0.901580
Si Si4 0.664314 0.643289 0.399081
Si Si5 0.836362 0.954853 0.899451
O O1 0.250000 0.152630 0.250000
O O2 0.500000 0.155046 0.337842
O O3 0.309360 0.208038 0.475503
O O4 0.314359 0.100706 0.480974
O O5 0.711232 0.500000 0.500000
O O6 0.750000 0.546839 0.750000
O O7 0.500000 0.543952 0.640340
O O8 0.700137 0.598177 0.510999
O O9 0.750000 0.728651 0.750000
O O10 0.000000 0.726835 0.863551
O O11 0.785462 0.695330 0.023180
O O12 0.750000 0.635064 0.250000
O O13 0.500000 0.644422 0.358386
O O14 0.750000 0.956255 0.750000
O O15 0.000000 0.964292 0.863200
O O16 0.776436 0.000000 0.000000
#
# Coordination Sequence:
#
# PCOD8221072 Si02
#       5
#     8   8   8   8   8
#     4   8  14  26  44  64  87 115 148 187 228 271
#     4  10  21  36  54  77 102 128 161 198 235 277
#     4   9  17  30  49  71  92 117 153 194 233 275
#     4  10  21  35  50  71  99 129 160 193 231 277
#     4   9  17  29  45  65  89 118 151 187 229 275
#
# _framework density 17.697800999999998
#
# number of rings (size 3 to 8) (size 9 to 14) (size 15 to 20)
#    0.000    2.800    0.000    1.200    0.000    2.400 
#    0.000    1.000    0.000    0.000    0.000    0.000 
#    0.000    0.000    0.000    0.000    0.000    0.000 
#
# Total GULP energy -495531.320133 kJ/mol
# GULP energy per Si atom -12388.283003 kJ/mol
# Density = 1.765752 g / cm^3
# Si number density = 17.697801 Si / 1000 Ang^3
#
#
#
# Elastic Constant Matrix: (Units=GPa)
#
#
# Indices 1 2 3 4 5 6 
#
# 1 47.3427 42.2612 46.7060 0.0000 0.0000 0.0000
# 2 42.2612 182.9194 70.5541 0.0000 0.0000 0.0000
# 3 46.7060 70.5541 101.6734 0.0000 0.0000 0.0000
# 4 0.0000 0.0000 0.0000 26.4391 0.0000 0.0000
# 5 0.0000 0.0000 0.0000 0.0000 29.4324 0.0000
# 6 0.0000 0.0000 0.0000 0.0000 0.0000 152.3190
#
#
#
# Elastic Compliance Matrix: (Units=1/GPa)
#
#
# Indices 1 2 3 4 5 6 
#
# 1 0.039741 -0.002922 -0.016228 0.000000 0.000000 0.000000
# 2 -0.002922 0.007680 -0.003987 0.000000 0.000000 0.000000
# 3 -0.016228 -0.003987 0.020057 0.000000 0.000000 0.000000
# 4 0.000000 0.000000 0.000000 0.037823 0.000000 0.000000
# 5 0.000000 0.000000 0.000000 0.000000 0.033976 0.000000
# 6 0.000000 0.000000 0.000000 0.000000 0.000000 0.006565
#
#
# Mechanical properties :
#
#
# Convention : Reuss Voigt Hill
#
# Bulk Modulus (GPa) = 47.16279 72.33092 59.74686
# Shear Modulus (GPa) = 25.10244 53.13237 39.11741
#
# Velocity S-wave (km/s) = 3.77024 5.48518 4.70648
# Velocity P-wave (km/s) = 6.75720 9.00416 7.96036
#
# Compressibility (1/GPa) = 0.02120316
#
# Stress axis : x y z
#
# Youngs Moduli (GPa) = 25.16292 130.21153 49.85857
#
# Poissons Ratio (x) = 0.38052 0.80911
# Poissons Ratio (y) = 0.07353 0.19878
# Poissons Ratio (z) = 0.40835 0.51913
#
# Static dielectric constant tensor:
#      x y z
#    x 3.646210 0.000000 0.000000 
#    y 0.000000 4.245960 0.000000 
#    z 0.000000 0.000000 4.030940 
# 
# 
# High freq. dielectric constant tensor:
#      x y z
#    x 1.683720 0.000000 0.000000 
#    y 0.000000 1.721400 0.000000 
#    z 0.000000 0.000000 1.640660 
# 
# From -- ./inp_files/746.got.cif
#   From: 2010.03.12/outbox.cif.g09.slc.cpg/sg53_1_cif.got.tgz:746.got - 2010.04.16 14:36:59.
