data_PCOD8221766
_publ_section_title
;
Structure prediction by ZEFSAII (Michael W. Deem and Ramdas Pophale) SiO2 
 PCOD8221766
Probable space group: P M N A
;
_chemical_formula_sum "Si O2"
_cell_formula_units_Z 40
_cell_length_a 22.778810
_cell_length_b 6.745101
_cell_length_c 11.405060
_cell_angle_alpha 90.000000
_cell_angle_beta 90.000000
_cell_angle_gamma 90.000000
_cell_volume 1752.334710
_symmetry_space_group_name_H-M "P M N A"
_symmetry_group_IT_number 53
_symmetry_cell_setting 'orthorhombic'
loop_
_space_group_symop_operation_xyz
x,y,z
1/2-x,-y,1/2+z
x,-y,-z
1/2-x,y,1/2-z
-x,-y,-z
1/2+x,y,1/2-z
-x,y,z
1/2+x,-y,1/2+z
loop_
_atom_site_type_symbol
_atom_site_label
_atom_site_fract_x
_atom_site_fract_y
_atom_site_fract_z
Si Si1 0.835464 0.852418 0.643733
Si Si2 0.116895 0.500000 0.500000
Si Si3 0.202780 0.138548 0.101964
Si Si4 0.934649 0.853781 0.361143
Si Si5 0.565158 0.817551 0.413489
Si Si6 0.653000 0.500000 0.500000
O O1 0.844078 0.633250 0.589183
O O2 0.838439 0.877421 0.784014
O O3 0.770102 0.927788 0.614572
O O4 0.885708 0.993646 0.589204
O O5 0.077732 0.364451 0.586253
O O6 0.198197 0.371288 0.075662
O O7 0.175107 0.000000 0.000000
O O8 0.932446 0.872383 0.222014
O O9 0.000000 0.917938 0.402523
O O10 0.500000 0.739107 0.445598
O O11 0.611859 0.642180 0.424609
O O12 0.580209 0.000000 0.500000
#
# Coordination Sequence:
#
# PCOD8221766 Si02
#       6
#     8   4   8   8   8   4
#     4  11  25  44  66  94 131 172 216 270 325 383
#     4  12  24  42  64  94 130 170 218 266 320 388
#     4  11  24  42  66  96 130 172 220 268 321 384
#     4  11  24  42  65  93 128 170 216 269 326 387
#     4  10  22  40  64  97 134 171 215 268 327 389
#     4  12  20  36  64  94 129 170 215 266 320 382
#
# _framework density 22.826687
#
# number of rings (size 3 to 8) (size 9 to 14) (size 15 to 20)
#    0.000    1.000    0.000    7.200    0.000    2.400 
#    0.000    9.000    0.000    0.000    0.000    0.000 
#    0.000    0.000    0.000    0.000    0.000    0.000 
#
# Total GULP energy -495567.537109 kJ/mol
# GULP energy per Si atom -12389.188428 kJ/mol
# Density = 2.277473 g / cm^3
# Si number density = 22.826687 Si / 1000 Ang^3
#
#
#
# Elastic Constant Matrix: (Units=GPa)
#
#
# Indices 1 2 3 4 5 6 
#
# 1 153.3080 51.9130 24.9788 0.0000 0.0000 0.0000
# 2 51.9130 134.3556 59.3974 0.0000 0.0000 0.0000
# 3 24.9788 59.3974 168.8560 0.0000 0.0000 0.0000
# 4 0.0000 0.0000 0.0000 45.9583 0.0000 0.0000
# 5 0.0000 0.0000 0.0000 0.0000 21.8039 0.0000
# 6 0.0000 0.0000 0.0000 0.0000 0.0000 42.0281
#
#
#
# Elastic Compliance Matrix: (Units=1/GPa)
#
#
# Indices 1 2 3 4 5 6 
#
# 1 0.007506 -0.002853 -0.000107 0.000000 0.000000 0.000000
# 2 -0.002853 0.009898 -0.003060 0.000000 0.000000 0.000000
# 3 -0.000107 -0.003060 0.007014 0.000000 0.000000 0.000000
# 4 0.000000 0.000000 0.000000 0.021759 0.000000 0.000000
# 5 0.000000 0.000000 0.000000 0.000000 0.045863 0.000000
# 6 0.000000 0.000000 0.000000 0.000000 0.000000 0.023794
#
#
# Mechanical properties :
#
#
# Convention : Reuss Voigt Hill
#
# Bulk Modulus (GPa) = 80.77923 81.01089 80.89506
# Shear Modulus (GPa) = 37.87873 43.30676 40.59274
#
# Velocity S-wave (km/s) = 4.07800 4.36041 4.22157
# Velocity P-wave (km/s) = 7.59199 7.80497 7.69922
#
# Compressibility (1/GPa) = 0.01237942
#
# Stress axis : x y z
#
# Youngs Moduli (GPa) = 133.22072 101.03042 142.56607
#
# Poissons Ratio (x) = 0.28825 0.01522
# Poissons Ratio (y) = 0.38010 0.43621
# Poissons Ratio (z) = 0.01423 0.30912
#
# Static dielectric constant tensor:
#      x y z
#    x 4.297260 0.000000 0.000000 
#    y 0.000000 3.924420 0.000000 
#    z 0.000000 0.000000 4.540780 
# 
# 
# High freq. dielectric constant tensor:
#      x y z
#    x 1.923360 0.000000 0.000000 
#    y 0.000000 1.885710 0.000000 
#    z 0.000000 0.000000 1.924140 
# 
# From -- ./inp_files/18626.got.cif
#   From: 2010.03.12/outbox.cif.g09.slc.cpg/sg53_10_cif.got.tgz:18626.got - 2010.04.16 14:36:59.
