data_PCOD8221332
_publ_section_title
;
Structure prediction by ZEFSAII (Michael W. Deem and Ramdas Pophale) SiO2 
 PCOD8221332
Probable space group: P M N A
;
_chemical_formula_sum "Si O2"
_cell_formula_units_Z 56
_cell_length_a 8.736223
_cell_length_b 14.109253
_cell_length_c 22.103767
_cell_angle_alpha 90.000000
_cell_angle_beta 90.000000
_cell_angle_gamma 90.000000
_cell_volume 2724.545257
_symmetry_space_group_name_H-M "P M N A"
_symmetry_group_IT_number 53
_symmetry_cell_setting 'orthorhombic'
loop_
_space_group_symop_operation_xyz
x,y,z
1/2-x,-y,1/2+z
x,-y,-z
1/2-x,y,1/2-z
-x,-y,-z
1/2+x,y,1/2-z
-x,y,z
1/2+x,-y,1/2+z
loop_
_atom_site_type_symbol
_atom_site_label
_atom_site_fract_x
_atom_site_fract_y
_atom_site_fract_z
Si Si1 0.317372 0.960770 0.684640
Si Si2 0.182333 0.623923 0.315553
Si Si3 0.176272 0.748235 0.810012
Si Si4 0.180322 0.746277 0.081415
Si Si5 0.318550 0.052187 0.937077
Si Si6 0.327549 0.578465 0.866280
Si Si7 0.663073 0.600834 0.521103
O O1 0.250000 0.997048 0.750000
O O2 0.500000 0.972872 0.687006
O O3 0.260757 0.852596 0.674107
O O4 0.255073 0.013385 0.625219
O O5 0.250000 0.641271 0.250000
O O6 0.251435 0.707990 0.355793
O O7 0.235109 0.519041 0.337419
O O8 0.000000 0.631069 0.315920
O O9 0.250000 0.706569 0.750000
O O10 0.217511 0.668670 0.857673
O O11 0.000000 0.758184 0.799052
O O12 0.264715 0.840038 0.058351
O O13 0.000000 0.765111 0.089375
O O14 0.220765 0.668027 0.032070
O O15 0.500000 0.044783 0.930607
O O16 0.265772 0.000000 0.000000
O O17 0.500000 0.598135 0.844919
O O18 0.311057 0.577467 0.937962
O O19 0.608793 0.500000 0.500000
O O20 0.500000 0.642997 0.548703
#
# Coordination Sequence:
#
# PCOD8221332 Si02
#       7
#     8   8   8   8   8   8   8
#     4  10  22  42  68  96 127 167 215 268 326 391
#     4  11  24  41  62  91 127 167 212 260 310 367
#     4  10  21  37  59  89 125 163 205 253 305 366
#     4  11  24  43  67  93 124 163 208 258 313 375
#     4  11  26  46  68  97 132 168 211 268 327 386
#     4  11  23  36  58  90 126 168 208 253 305 363
#     4  10  21  39  62  89 122 161 202 247 302 364
#
# _framework density 20.553888000000001
#
# number of rings (size 3 to 8) (size 9 to 14) (size 15 to 20)
#    0.000    1.429    1.429    3.000    2.000    7.714 
#    0.000    2.857    0.000    0.000    0.000    0.000 
#    0.000    0.000    0.000    0.000    0.000    0.000 
#
# Total GULP energy -693748.668154 kJ/mol
# GULP energy per Si atom -12388.369074 kJ/mol
# Density = 2.050711 g / cm^3
# Si number density = 20.553888 Si / 1000 Ang^3
#
#
#
# Elastic Constant Matrix: (Units=GPa)
#
#
# Indices 1 2 3 4 5 6 
#
# 1 72.5243 33.6366 41.9094 0.0000 0.0000 0.0000
# 2 33.6366 117.5608 64.4441 0.0000 0.0000 0.0000
# 3 41.9094 64.4441 135.4415 0.0000 0.0000 0.0000
# 4 0.0000 0.0000 0.0000 24.4045 0.0000 0.0000
# 5 0.0000 0.0000 0.0000 0.0000 39.4157 0.0000
# 6 0.0000 0.0000 0.0000 0.0000 0.0000 35.3911
#
#
#
# Elastic Compliance Matrix: (Units=1/GPa)
#
#
# Indices 1 2 3 4 5 6 
#
# 1 0.017422 -0.002746 -0.004084 0.000000 0.000000 0.000000
# 2 -0.002746 0.011941 -0.004832 0.000000 0.000000 0.000000
# 3 -0.004084 -0.004832 0.010946 0.000000 0.000000 0.000000
# 4 0.000000 0.000000 0.000000 0.040976 0.000000 0.000000
# 5 0.000000 0.000000 0.000000 0.000000 0.025371 0.000000
# 6 0.000000 0.000000 0.000000 0.000000 0.000000 0.028256
#
#
# Mechanical properties :
#
#
# Convention : Reuss Voigt Hill
#
# Bulk Modulus (GPa) = 58.87623 67.27850 63.07737
# Shear Modulus (GPa) = 30.50697 32.21135 31.35916
#
# Velocity S-wave (km/s) = 3.85677 3.96304 3.91026
# Velocity P-wave (km/s) = 6.96706 7.33108 7.15138
#
# Compressibility (1/GPa) = 0.01698478
#
# Stress axis : x y z
#
# Youngs Moduli (GPa) = 57.39778 83.74826 91.35695
#
# Poissons Ratio (x) = 0.22996 0.37314
# Poissons Ratio (y) = 0.15761 0.44141
# Poissons Ratio (z) = 0.23444 0.40465
#
# Static dielectric constant tensor:
#      x y z
#    x 4.044830 0.000000 0.000000 
#    y 0.000000 3.806710 0.000000 
#    z 0.000000 0.000000 3.729220 
# 
# 
# High freq. dielectric constant tensor:
#      x y z
#    x 1.814020 0.000000 0.000000 
#    y 0.000000 1.806530 0.000000 
#    z 0.000000 0.000000 1.809150 
# 
# From -- ./inp_files/30803.got.cif
#   From: 2010.03.12/outbox.cif.g09.slc.cpg/sg53_16_cif.got.tgz:30803.got - 2010.04.16 14:36:59.
