data_PCOD8221426
_publ_section_title
;
Structure prediction by ZEFSAII (Michael W. Deem and Ramdas Pophale) SiO2 
 PCOD8221426
Probable space group: P M N A
;
_chemical_formula_sum "Si O2"
_cell_formula_units_Z 48
_cell_length_a 7.820199
_cell_length_b 9.834417
_cell_length_c 30.646581
_cell_angle_alpha 90.000000
_cell_angle_beta 90.000000
_cell_angle_gamma 90.000000
_cell_volume 2356.939608
_symmetry_space_group_name_H-M "P M N A"
_symmetry_group_IT_number 53
_symmetry_cell_setting 'orthorhombic'
loop_
_space_group_symop_operation_xyz
x,y,z
1/2-x,-y,1/2+z
x,-y,-z
1/2-x,y,1/2-z
-x,-y,-z
1/2+x,y,1/2-z
-x,y,z
1/2+x,-y,1/2+z
loop_
_atom_site_type_symbol
_atom_site_label
_atom_site_fract_x
_atom_site_fract_y
_atom_site_fract_z
Si Si1 0.191205 0.469818 0.701484
Si Si2 0.306866 0.027660 0.134681
Si Si3 0.802334 0.091871 0.541694
Si Si4 0.690605 0.176772 0.703647
Si Si5 0.000000 0.298511 0.967759
Si Si6 0.298593 0.662380 0.872633
Si Si7 0.000000 0.592117 0.935530
O O1 0.250000 0.503714 0.750000
O O2 0.202597 0.310014 0.690325
O O3 0.279895 0.562091 0.664462
O O4 0.000000 0.519905 0.698411
O O5 0.500000 0.986327 0.145646
O O6 0.265060 0.998887 0.084246
O O7 0.191965 0.937354 0.166617
O O8 0.273212 0.184820 0.144711
O O9 0.673769 0.217835 0.542889
O O10 0.000000 0.143122 0.540565
O O11 0.760552 0.000000 0.500000
O O12 0.750000 0.114501 0.750000
O O13 0.500000 0.232130 0.709605
O O14 0.000000 0.429040 0.936596
O O15 0.000000 0.341015 0.017479
O O16 0.500000 0.637238 0.885197
O O17 0.176894 0.641418 0.913995
#
# Coordination Sequence:
#
# PCOD8221426 Si02
#       7
#     8   8   8   8   4   8   4
#     4  10  21  38  61  88 120 162 205 252 307 370
#     4  10  22  40  62  91 124 161 209 258 315 373
#     4  10  22  40  66  94 127 168 211 264 320 383
#     4  11  23  38  61  91 125 162 206 262 312 372
#     4  11  25  42  62  96 125 166 215 270 315 378
#     4  10  24  42  63  90 126 168 207 258 312 380
#     4  11  26  42  64  90 130 167 212 265 318 376
#
# _framework density 20.365392
#
# number of rings (size 3 to 8) (size 9 to 14) (size 15 to 20)
#    0.000    1.667    0.000    4.250    7.000    3.333 
#    0.000    3.333    0.000    0.000    0.000    0.000 
#    0.000    0.000    0.000    0.000    0.000    0.000 
#
# Total GULP energy -595160.010208 kJ/mol
# GULP energy per Si atom -12399.166879 kJ/mol
# Density = 2.031904 g / cm^3
# Si number density = 20.365392 Si / 1000 Ang^3
#
#
#
# Elastic Constant Matrix: (Units=GPa)
#
#
# Indices 1 2 3 4 5 6 
#
# 1 90.7212 33.3276 22.1760 0.0000 0.0000 0.0000
# 2 33.3276 107.1535 47.0281 0.0000 0.0000 0.0000
# 3 22.1760 47.0281 103.1849 0.0000 0.0000 0.0000
# 4 0.0000 0.0000 0.0000 34.8940 0.0000 0.0000
# 5 0.0000 0.0000 0.0000 0.0000 26.6973 0.0000
# 6 0.0000 0.0000 0.0000 0.0000 0.0000 23.8218
#
#
#
# Elastic Compliance Matrix: (Units=1/GPa)
#
#
# Indices 1 2 3 4 5 6 
#
# 1 0.012553 -0.003400 -0.001148 0.000000 0.000000 0.000000
# 2 -0.003400 0.012587 -0.005006 0.000000 0.000000 0.000000
# 3 -0.001148 -0.005006 0.012220 0.000000 0.000000 0.000000
# 4 0.000000 0.000000 0.000000 0.028658 0.000000 0.000000
# 5 0.000000 0.000000 0.000000 0.000000 0.037457 0.000000
# 6 0.000000 0.000000 0.000000 0.000000 0.000000 0.041978
#
#
# Mechanical properties :
#
#
# Convention : Reuss Voigt Hill
#
# Bulk Modulus (GPa) = 54.79259 56.23590 55.51424
# Shear Modulus (GPa) = 29.30063 30.31782 29.80922
#
# Velocity S-wave (km/s) = 3.79720 3.86254 3.83001
# Velocity P-wave (km/s) = 6.79618 6.89679 6.84667
#
# Compressibility (1/GPa) = 0.01825064
#
# Stress axis : x y z
#
# Youngs Moduli (GPa) = 79.66501 79.44670 81.83578
#
# Poissons Ratio (x) = 0.27015 0.09394
# Poissons Ratio (y) = 0.27089 0.40967
# Poissons Ratio (z) = 0.09145 0.39771
#
# Static dielectric constant tensor:
#      x y z
#    x 3.832490 0.000000 0.000000 
#    y 0.000000 3.611560 0.000000 
#    z 0.000000 0.000000 4.791040 
# 
# 
# High freq. dielectric constant tensor:
#      x y z
#    x 1.806110 0.000000 0.000000 
#    y 0.000000 1.793350 0.000000 
#    z 0.000000 0.000000 1.802110 
# 
# From -- ./inp_files/37838.got.cif
#   From: 2010.03.12/outbox.cif.g09.slc.cpg/sg53_19_cif.got.tgz:37838.got - 2010.04.16 14:36:59.
