data_PCOD8221550
_publ_section_title
;
Structure prediction by ZEFSAII (Michael W. Deem and Ramdas Pophale) SiO2 
 PCOD8221550
Probable space group: P M N A
;
_chemical_formula_sum "Si O2"
_cell_formula_units_Z 32
_cell_length_a 30.704401
_cell_length_b 8.703218
_cell_length_c 5.491869
_cell_angle_alpha 90.000000
_cell_angle_beta 90.000000
_cell_angle_gamma 90.000000
_cell_volume 1467.576202
_symmetry_space_group_name_H-M "P M N A"
_symmetry_group_IT_number 53
_symmetry_cell_setting 'orthorhombic'
loop_
_space_group_symop_operation_xyz
x,y,z
1/2-x,-y,1/2+z
x,-y,-z
1/2-x,y,1/2-z
-x,-y,-z
1/2+x,y,1/2-z
-x,y,z
1/2+x,-y,1/2+z
loop_
_atom_site_type_symbol
_atom_site_label
_atom_site_fract_x
_atom_site_fract_y
_atom_site_fract_z
Si Si1 0.000000 0.595130 0.745466
Si Si2 0.592363 0.739498 0.785554
Si Si3 0.223371 0.000000 0.500000
Si Si4 0.350646 0.500000 0.500000
Si Si5 0.837750 0.755356 0.329841
Si Si6 0.625742 0.000000 0.500000
O O1 0.000000 0.500000 0.500000
O O2 0.041908 0.701689 0.721515
O O3 0.000000 0.500000 0.000000
O O4 0.618218 0.628959 0.606144
O O5 0.595495 0.915731 0.697771
O O6 0.614782 0.723593 0.050271
O O7 0.195632 0.838290 0.517608
O O8 0.250000 0.994366 0.250000
O O9 0.322187 0.591117 0.292000
O O10 0.841534 0.880362 0.119553
#
# Coordination Sequence:
#
# PCOD8221550 Si02
#       6
#     4   8   4   4   8   4
#     4  12  26  43  63 103 145 191 248 299 349 412
#     4  11  22  41  68  99 140 191 235 294 351 415
#     4  12  27  46  78 106 138 183 231 296 362 441
#     4  10  22  37  74  96 136 186 230 284 348 421
#     4  11  22  44  70 105 135 185 233 286 361 434
#     4  10  21  39  70  97 136 182 239 286 346 430
#
# _framework density 21.804659999999998
#
# number of rings (size 3 to 8) (size 9 to 14) (size 15 to 20)
#    0.000    1.000    3.750    3.000    7.000    0.500 
#    0.000    2.500    5.500    0.000    0.000    0.000 
#    0.000    0.000    0.000    0.000    0.000    0.000 
#
# Total GULP energy -396448.464880 kJ/mol
# GULP energy per Si atom -12389.014528 kJ/mol
# Density = 2.175503 g / cm^3
# Si number density = 21.804660 Si / 1000 Ang^3
#
#
#
# Elastic Constant Matrix: (Units=GPa)
#
#
# Indices 1 2 3 4 5 6 
#
# 1 94.2505 30.4158 30.8802 0.0000 0.0000 0.0000
# 2 30.4158 117.7471 37.8629 0.0000 0.0000 0.0000
# 3 30.8802 37.8629 116.7737 0.0000 0.0000 0.0000
# 4 0.0000 0.0000 0.0000 57.6594 0.0000 0.0000
# 5 0.0000 0.0000 0.0000 0.0000 28.3096 0.0000
# 6 0.0000 0.0000 0.0000 0.0000 0.0000 22.1072
#
#
#
# Elastic Compliance Matrix: (Units=1/GPa)
#
#
# Indices 1 2 3 4 5 6 
#
# 1 0.012175 -0.002355 -0.002456 0.000000 0.000000 0.000000
# 2 -0.002355 0.009937 -0.002599 0.000000 0.000000 0.000000
# 3 -0.002456 -0.002599 0.010056 0.000000 0.000000 0.000000
# 4 0.000000 0.000000 0.000000 0.017343 0.000000 0.000000
# 5 0.000000 0.000000 0.000000 0.000000 0.035324 0.000000
# 6 0.000000 0.000000 0.000000 0.000000 0.000000 0.045234
#
#
# Mechanical properties :
#
#
# Convention : Reuss Voigt Hill
#
# Bulk Modulus (GPa) = 57.64694 58.56544 58.10619
# Shear Modulus (GPa) = 33.18483 36.92274 35.05378
#
# Velocity S-wave (km/s) = 3.90540 4.11949 4.01387
# Velocity P-wave (km/s) = 6.84336 7.03877 6.94175
#
# Compressibility (1/GPa) = 0.01734697
#
# Stress axis : x y z
#
# Youngs Moduli (GPa) = 82.13742 100.63453 99.44536
#
# Poissons Ratio (x) = 0.23701 0.24423
# Poissons Ratio (y) = 0.19345 0.25847
# Poissons Ratio (z) = 0.20172 0.26156
#
# Static dielectric constant tensor:
#      x y z
#    x 3.302230 0.000000 0.000000 
#    y 0.000000 4.383950 0.000000 
#    z 0.000000 0.000000 4.209250 
# 
# 
# High freq. dielectric constant tensor:
#      x y z
#    x 1.821070 0.000000 0.000000 
#    y 0.000000 1.871330 0.000000 
#    z 0.000000 0.000000 1.878220 
# 
# From -- ./inp_files/5081.got.cif
#   From: 2010.03.12/outbox.cif.g09.slc.cpg/sg53_3_cif.got.tgz:5081.got - 2010.04.16 14:36:59.
