data_PCOD8221318
_publ_section_title
;
Structure prediction by ZEFSAII (Michael W. Deem and Ramdas Pophale) SiO2 
 PCOD8221318
Probable space group: P M N A
;
_chemical_formula_sum "Si O2"
_cell_formula_units_Z 56
_cell_length_a 20.717439
_cell_length_b 8.932014
_cell_length_c 15.553704
_cell_angle_alpha 90.000000
_cell_angle_beta 90.000000
_cell_angle_gamma 90.000000
_cell_volume 2878.188898
_symmetry_space_group_name_H-M "P M N A"
_symmetry_group_IT_number 53
_symmetry_cell_setting 'orthorhombic'
loop_
_space_group_symop_operation_xyz
x,y,z
1/2-x,-y,1/2+z
x,-y,-z
1/2-x,y,1/2-z
-x,-y,-z
1/2+x,y,1/2-z
-x,y,z
1/2+x,-y,1/2+z
loop_
_atom_site_type_symbol
_atom_site_label
_atom_site_fract_x
_atom_site_fract_y
_atom_site_fract_z
Si Si1 0.927989 0.694736 0.688550
Si Si2 0.352484 0.088622 0.076345
Si Si3 0.663985 0.800988 0.177832
Si Si4 0.687406 0.663215 0.689931
Si Si5 0.572291 0.411837 0.918330
Si Si6 0.286855 0.166319 0.478320
Si Si7 0.304797 0.681867 0.349320
O O1 0.903984 0.791068 0.607425
O O2 0.877638 0.715159 0.764257
O O3 0.929201 0.521921 0.662777
O O4 0.000000 0.747580 0.716019
O O5 0.291163 0.168988 0.030265
O O6 0.330145 0.977257 0.154499
O O7 0.388299 0.000000 0.000000
O O8 0.611670 0.732346 0.112448
O O9 0.729714 0.711645 0.165497
O O10 0.650503 0.775156 0.280447
O O11 0.750000 0.687540 0.750000
O O12 0.686775 0.776432 0.611344
O O13 0.682127 0.493698 0.658581
O O14 0.500000 0.359696 0.943650
O O15 0.603547 0.500000 0.000000
O O16 0.317407 0.269851 0.552782
O O17 0.311013 0.000000 0.500000
#
# Coordination Sequence:
#
# PCOD8221318 Si02
#       7
#     8   8   8   8   8   8   8
#     4  11  24  41  62  91 128 169 211 255 309 379
#     4  11  22  37  57  93 127 169 197 252 315 377
#     4  11  21  35  59  86 127 155 204 248 313 365
#     4  12  22  39  66  92 121 162 212 260 319 366
#     4  10  21  37  59  85 120 163 204 249 298 367
#     4  11  24  38  60  93 125 157 204 263 318 369
#     4  11  22  38  58  92 118 160 200 263 305 365
#
# _framework density 19.456679999999999
#
# number of rings (size 3 to 8) (size 9 to 14) (size 15 to 20)
#    0.000    1.000    7.143    1.286    2.000    0.857 
#    0.000    0.000    0.000    3.000    0.000    0.000 
#    0.000    0.000    0.000    0.000    0.000    0.000 
#
# Total GULP energy -694132.987239 kJ/mol
# GULP energy per Si atom -12395.231915 kJ/mol
# Density = 1.941240 g / cm^3
# Si number density = 19.456680 Si / 1000 Ang^3
#
#
#
# Elastic Constant Matrix: (Units=GPa)
#
#
# Indices 1 2 3 4 5 6 
#
# 1 71.5634 17.7365 27.6166 0.0000 0.0000 0.0000
# 2 17.7365 66.8255 27.8936 0.0000 0.0000 0.0000
# 3 27.6166 27.8936 119.6590 0.0000 0.0000 0.0000
# 4 0.0000 0.0000 0.0000 41.9387 0.0000 0.0000
# 5 0.0000 0.0000 0.0000 0.0000 27.7101 0.0000
# 6 0.0000 0.0000 0.0000 0.0000 0.0000 13.0752
#
#
#
# Elastic Compliance Matrix: (Units=1/GPa)
#
#
# Indices 1 2 3 4 5 6 
#
# 1 0.015855 -0.002970 -0.002967 0.000000 0.000000 0.000000
# 2 -0.002970 0.017134 -0.003309 0.000000 0.000000 0.000000
# 3 -0.002967 -0.003309 0.009813 0.000000 0.000000 0.000000
# 4 0.000000 0.000000 0.000000 0.023844 0.000000 0.000000
# 5 0.000000 0.000000 0.000000 0.000000 0.036088 0.000000
# 6 0.000000 0.000000 0.000000 0.000000 0.000000 0.076481
#
#
# Mechanical properties :
#
#
# Convention : Reuss Voigt Hill
#
# Bulk Modulus (GPa) = 41.13372 44.94901 43.04136
# Shear Modulus (GPa) = 24.29447 28.86488 26.57967
#
# Velocity S-wave (km/s) = 3.53745 3.85586 3.70008
# Velocity P-wave (km/s) = 6.15401 6.55559 6.35797
#
# Compressibility (1/GPa) = 0.02431096
#
# Stress axis : x y z
#
# Youngs Moduli (GPa) = 63.07337 58.36493 101.90469
#
# Poissons Ratio (x) = 0.17332 0.30234
# Poissons Ratio (y) = 0.18730 0.33716
# Poissons Ratio (z) = 0.18713 0.19311
#
# Static dielectric constant tensor:
#      x y z
#    x 3.342130 0.000000 0.000000 
#    y 0.000000 3.630190 0.000000 
#    z 0.000000 0.000000 4.251690 
# 
# 
# High freq. dielectric constant tensor:
#      x y z
#    x 1.713960 0.000000 0.000000 
#    y 0.000000 1.765380 0.000000 
#    z 0.000000 0.000000 1.767830 
# 
# From -- ./inp_files/24315.got.cif
#   From: 2010.03.12/outbox.cif.g09.slc.cpg/sg53_13_cif.got.tgz:24315.got - 2010.04.16 14:36:59.
