data_PCOD8221966
_publ_section_title
;
Structure prediction by ZEFSAII (Michael W. Deem and Ramdas Pophale) SiO2 
 PCOD8221966
Probable space group: P M N A
;
_chemical_formula_sum "Si O2"
_cell_formula_units_Z 40
_cell_length_a 18.440498
_cell_length_b 9.929005
_cell_length_c 11.812752
_cell_angle_alpha 90.000000
_cell_angle_beta 90.000000
_cell_angle_gamma 90.000000
_cell_volume 2162.865240
_symmetry_space_group_name_H-M "P M N A"
_symmetry_group_IT_number 53
_symmetry_cell_setting 'orthorhombic'
loop_
_space_group_symop_operation_xyz
x,y,z
1/2-x,-y,1/2+z
x,-y,-z
1/2-x,y,1/2-z
-x,-y,-z
1/2+x,y,1/2-z
-x,y,z
1/2+x,-y,1/2+z
loop_
_atom_site_type_symbol
_atom_site_label
_atom_site_fract_x
_atom_site_fract_y
_atom_site_fract_z
Si Si1 0.000000 0.887750 0.593014
Si Si2 0.712506 0.635149 0.430000
Si Si3 0.855721 0.293383 0.699782
Si Si4 0.147438 0.029949 0.309450
Si Si5 0.786764 0.888810 0.920458
Si Si6 0.500000 0.361623 0.932348
O O1 0.069250 0.907778 0.670898
O O2 0.000000 0.745021 0.533073
O O3 0.000000 0.000000 0.500000
O O4 0.700824 0.500000 0.500000
O O5 0.654402 0.651190 0.327821
O O6 0.792904 0.646754 0.379233
O O7 0.700004 0.745391 0.525527
O O8 0.931020 0.345880 0.649485
O O9 0.851823 0.131439 0.702001
O O10 0.173829 0.104908 0.198243
O O11 0.201183 0.075711 0.409358
O O12 0.823670 0.000000 0.000000
O O13 0.500000 0.500000 0.000000
#
# Coordination Sequence:
#
# PCOD8221966 Si02
#       6
#     4   8   8   8   8   4
#     4  12  22  38  62  87 114 147 199 239 283 337
#     4  11  23  37  61  87 120 154 191 242 287 345
#     4  11  21  40  60  86 118 153 196 237 294 342
#     4  11  21  35  63  90 114 152 198 242 280 342
#     4  11  19  36  60  85 114 154 196 232 288 335
#     4  12  26  40  62  86 120 155 184 239 298 350
#
# _framework density 18.493984999999999
#
# number of rings (size 3 to 8) (size 9 to 14) (size 15 to 20)
#    0.000    0.800    6.000    3.600    0.000    4.800 
#    0.000    2.000    0.000    0.000    0.000    0.000 
#    0.000    0.000    0.000    0.000    0.000    0.000 
#
# Total GULP energy -495957.005406 kJ/mol
# GULP energy per Si atom -12398.925135 kJ/mol
# Density = 1.845189 g / cm^3
# Si number density = 18.493985 Si / 1000 Ang^3
#
#
#
# Elastic Constant Matrix: (Units=GPa)
#
#
# Indices 1 2 3 4 5 6 
#
# 1 131.2338 43.5124 57.2199 0.0000 0.0000 0.0000
# 2 43.5124 167.1667 77.2722 0.0000 0.0000 0.0000
# 3 57.2199 77.2722 124.9348 0.0000 0.0000 0.0000
# 4 0.0000 0.0000 0.0000 41.3630 0.0000 0.0000
# 5 0.0000 0.0000 0.0000 0.0000 17.8949 0.0000
# 6 0.0000 0.0000 0.0000 0.0000 0.0000 -18.5357
#
#
#
# Elastic Compliance Matrix: (Units=1/GPa)
#
#
# Indices 1 2 3 4 5 6 
#
# 1 0.009572 -0.000651 -0.003981 0.000000 0.000000 0.000000
# 2 -0.000651 0.008421 -0.004910 0.000000 0.000000 0.000000
# 3 -0.003981 -0.004910 0.012865 0.000000 0.000000 0.000000
# 4 0.000000 0.000000 0.000000 0.024176 0.000000 0.000000
# 5 0.000000 0.000000 0.000000 0.000000 0.055882 0.000000
# 6 0.000000 0.000000 0.000000 0.000000 0.000000 -0.053950
#
#
# Mechanical properties :
#
#
# Convention : Reuss Voigt Hill
#
# Bulk Modulus (GPa) = 84.94470 86.59379 85.76924
# Shear Modulus (GPa) = 62.51953 24.49984 43.50968
#
# Velocity S-wave (km/s) = 5.82054 3.64365 4.85566
# Velocity P-wave (km/s) = 9.54999 8.03903 8.82690
#
# Compressibility (1/GPa) = 0.01177237
#
# Stress axis : x y z
#
# Youngs Moduli (GPa) = 104.47464 118.74579 77.73318
#
# Poissons Ratio (x) = 0.07733 0.30946
# Poissons Ratio (y) = 0.06804 0.38170
# Poissons Ratio (z) = 0.41592 0.58308
#
# Static dielectric constant tensor:
#      x y z
#    x 3.524580 0.000000 0.000000 
#    y 0.000000 3.293680 0.000000 
#    z 0.000000 0.000000 3.593720 
# 
# 
# High freq. dielectric constant tensor:
#      x y z
#    x 1.707900 0.000000 0.000000 
#    y 0.000000 1.720830 0.000000 
#    z 0.000000 0.000000 1.736190 
# 
# From -- ./inp_files/16733.got.cif
#   From: 2010.03.12/outbox.cif.g09.slc.cpg/sg53_9_cif.got.tgz:16733.got - 2010.04.16 14:36:59.
