data_PCOD8221743
_publ_section_title
;
Structure prediction by ZEFSAII (Michael W. Deem and Ramdas Pophale) SiO2 
 PCOD8221743
Probable space group: P M N A
;
_chemical_formula_sum "Si O2"
_cell_formula_units_Z 44
_cell_length_a 17.366999
_cell_length_b 8.645179
_cell_length_c 14.503557
_cell_angle_alpha 90.000000
_cell_angle_beta 90.000000
_cell_angle_gamma 90.000000
_cell_volume 2177.575869
_symmetry_space_group_name_H-M "P M N A"
_symmetry_group_IT_number 53
_symmetry_cell_setting 'orthorhombic'
loop_
_space_group_symop_operation_xyz
x,y,z
1/2-x,-y,1/2+z
x,-y,-z
1/2-x,y,1/2-z
-x,-y,-z
1/2+x,y,1/2-z
-x,y,z
1/2+x,-y,1/2+z
loop_
_atom_site_type_symbol
_atom_site_label
_atom_site_fract_x
_atom_site_fract_y
_atom_site_fract_z
Si Si1 0.085084 0.988400 0.856076
Si Si2 0.819717 0.000000 0.500000
Si Si3 0.087299 0.356673 0.101387
Si Si4 0.328729 0.397618 0.720588
Si Si5 0.188267 0.209654 0.955870
Si Si6 0.410077 0.851865 0.167012
O O1 0.138052 0.055973 0.936631
O O2 0.104818 0.044978 0.755266
O O3 0.000000 0.041478 0.884961
O O4 0.093991 0.805732 0.847482
O O5 0.764776 0.846985 0.511358
O O6 0.872966 0.955071 0.414012
O O7 0.111515 0.485564 0.174775
O O8 0.000000 0.391982 0.069156
O O9 0.142204 0.344082 0.011373
O O10 0.250000 0.485678 0.750000
O O11 0.295634 0.276292 0.645434
O O12 0.370169 0.313420 0.808196
O O13 0.500000 0.823343 0.144265
#
# Coordination Sequence:
#
# PCOD8221743 Si02
#       6
#     8   4   8   8   8   8
#     4   9  19  36  59  85 117 153 197 248 296 353
#     4  12  21  36  63  88 116 154 208 258 293 348
#     4  11  22  37  60  90 124 160 196 239 305 371
#     4  11  23  39  57  86 125 161 198 247 304 363
#     4  11  21  37  59  90 119 155 200 251 299 355
#     4  10  22  40  62  85 114 156 205 253 302 354
#
# _framework density 20.205954999999999
#
# number of rings (size 3 to 8) (size 9 to 14) (size 15 to 20)
#    0.000    1.455    3.636    1.909    0.000    5.818 
#    0.000    0.000    0.000    0.000    0.000    6.364 
#    0.000    0.000    0.000    0.000    0.000    0.000 
#
# Total GULP energy -545094.067756 kJ/mol
# GULP energy per Si atom -12388.501540 kJ/mol
# Density = 2.015996 g / cm^3
# Si number density = 20.205955 Si / 1000 Ang^3
#
#
#
# Elastic Constant Matrix: (Units=GPa)
#
#
# Indices 1 2 3 4 5 6 
#
# 1 125.0949 27.0142 41.6693 0.0000 0.0000 0.0000
# 2 27.0142 72.8514 19.4765 0.0000 0.0000 0.0000
# 3 41.6693 19.4765 58.5700 0.0000 0.0000 0.0000
# 4 0.0000 0.0000 0.0000 30.9315 0.0000 0.0000
# 5 0.0000 0.0000 0.0000 0.0000 31.2777 0.0000
# 6 0.0000 0.0000 0.0000 0.0000 0.0000 28.4966
#
#
#
# Elastic Compliance Matrix: (Units=1/GPa)
#
#
# Indices 1 2 3 4 5 6 
#
# 1 0.010771 -0.002135 -0.006953 0.000000 0.000000 0.000000
# 2 -0.002135 0.015489 -0.003632 0.000000 0.000000 0.000000
# 3 -0.006953 -0.003632 0.023228 0.000000 0.000000 0.000000
# 4 0.000000 0.000000 0.000000 0.032329 0.000000 0.000000
# 5 0.000000 0.000000 0.000000 0.000000 0.031972 0.000000
# 6 0.000000 0.000000 0.000000 0.000000 0.000000 0.035092
#
#
# Mechanical properties :
#
#
# Convention : Reuss Voigt Hill
#
# Bulk Modulus (GPa) = 41.58253 48.09293 44.83773
# Shear Modulus (GPa) = 27.42174 29.36491 28.39332
#
# Velocity S-wave (km/s) = 3.68790 3.81633 3.75266
# Velocity P-wave (km/s) = 6.22560 6.57816 6.40431
#
# Compressibility (1/GPa) = 0.02404856
#
# Stress axis : x y z
#
# Youngs Moduli (GPa) = 92.84124 64.56100 43.05171
#
# Poissons Ratio (x) = 0.13785 0.29934
# Poissons Ratio (y) = 0.19823 0.15635
# Poissons Ratio (z) = 0.64552 0.23446
#
# Static dielectric constant tensor:
#      x y z
#    x 3.870940 0.000000 0.000000 
#    y 0.000000 3.658350 0.000000 
#    z 0.000000 0.000000 3.760270 
# 
# 
# High freq. dielectric constant tensor:
#      x y z
#    x 1.797490 0.000000 0.000000 
#    y 0.000000 1.781950 0.000000 
#    z 0.000000 0.000000 1.782230 
# 
# From -- ./inp_files/23507.got.cif
#   From: 2010.03.12/outbox.cif.g09.slc.cpg/sg53_12_cif.got.tgz:23507.got - 2010.04.16 14:36:59.
