data_PCOD8221021
_publ_section_title
;
Structure prediction by ZEFSAII (Michael W. Deem and Ramdas Pophale) SiO2 
 PCOD8221021
Probable space group: P M N A
;
_chemical_formula_sum "Si O2"
_cell_formula_units_Z 36
_cell_length_a 14.428441
_cell_length_b 8.132530
_cell_length_c 15.543179
_cell_angle_alpha 90.000000
_cell_angle_beta 90.000000
_cell_angle_gamma 90.000000
_cell_volume 1823.832416
_symmetry_space_group_name_H-M "P M N A"
_symmetry_group_IT_number 53
_symmetry_cell_setting 'orthorhombic'
loop_
_space_group_symop_operation_xyz
x,y,z
1/2-x,-y,1/2+z
x,-y,-z
1/2-x,y,1/2-z
-x,-y,-z
1/2+x,y,1/2-z
-x,y,z
1/2+x,-y,1/2+z
loop_
_atom_site_type_symbol
_atom_site_label
_atom_site_fract_x
_atom_site_fract_y
_atom_site_fract_z
Si Si1 0.500000 0.854970 0.930487
Si Si2 0.000000 0.878226 0.081813
Si Si3 0.664210 0.623297 0.425210
Si Si4 0.198192 0.809308 0.522256
Si Si5 0.181297 0.316417 0.174816
Si Si6 0.500000 0.131306 0.270628
O O1 0.404998 0.751508 0.947329
O O2 0.500000 0.915735 0.831034
O O3 0.500000 0.000000 0.000000
O O4 0.908488 0.769186 0.081004
O O5 0.000000 0.966371 0.173914
O O6 0.000000 0.000000 0.000000
O O7 0.631314 0.500000 0.500000
O O8 0.767335 0.700305 0.441174
O O9 0.669839 0.512783 0.339437
O O10 0.277819 0.777256 0.592310
O O11 0.196342 0.000000 0.500000
O O12 0.250000 0.279869 0.250000
O O13 0.085289 0.241631 0.202596
#
# Coordination Sequence:
#
# PCOD8221021 Si02
#       6
#     4   4   8   8   8   4
#     4  10  22  41  61  87 123 168 220 256 299 362
#     4  12  22  39  65 101 126 154 205 268 323 373
#     4  10  21  38  61  91 124 162 196 250 321 378
#     4  10  20  40  64  89 119 164 213 258 306 368
#     4  11  22  40  61  89 127 162 200 254 316 377
#     4  12  23  40  68  93 124 167 209 262 318 363
#
# _framework density 19.738657
#
# number of rings (size 3 to 8) (size 9 to 14) (size 15 to 20)
#    0.000    1.333    2.222    5.667    0.000    0.000 
#    8.000    6.111    0.000    0.000    0.000    0.000 
#    0.000    0.000    0.000    0.000    0.000    0.000 
#
# Total GULP energy -446202.316270 kJ/mol
# GULP energy per Si atom -12394.508785 kJ/mol
# Density = 1.969373 g / cm^3
# Si number density = 19.738657 Si / 1000 Ang^3
#
#
#
# Elastic Constant Matrix: (Units=GPa)
#
#
# Indices 1 2 3 4 5 6 
#
# 1 175.8676 64.0696 58.7105 0.0000 0.0000 0.0000
# 2 64.0696 114.5555 46.4208 0.0000 0.0000 0.0000
# 3 58.7105 46.4208 83.6639 0.0000 0.0000 0.0000
# 4 0.0000 0.0000 0.0000 24.0081 0.0000 0.0000
# 5 0.0000 0.0000 0.0000 0.0000 11.5679 0.0000
# 6 0.0000 0.0000 0.0000 0.0000 0.0000 24.8939
#
#
#
# Elastic Compliance Matrix: (Units=1/GPa)
#
#
# Indices 1 2 3 4 5 6 
#
# 1 0.008097 -0.002872 -0.004089 0.000000 0.000000 0.000000
# 2 -0.002872 0.012280 -0.004798 0.000000 0.000000 0.000000
# 3 -0.004089 -0.004798 0.017484 0.000000 0.000000 0.000000
# 4 0.000000 0.000000 0.000000 0.041653 0.000000 0.000000
# 5 0.000000 0.000000 0.000000 0.000000 0.086446 0.000000
# 6 0.000000 0.000000 0.000000 0.000000 0.000000 0.040170
#
#
# Mechanical properties :
#
#
# Convention : Reuss Voigt Hill
#
# Bulk Modulus (GPa) = 69.71701 79.16542 74.44121
# Shear Modulus (GPa) = 21.32842 25.75308 23.54075
#
# Velocity S-wave (km/s) = 3.29072 3.61599 3.45718
# Velocity P-wave (km/s) = 7.05940 7.59129 7.33017
#
# Compressibility (1/GPa) = 0.01434370
#
# Stress axis : x y z
#
# Youngs Moduli (GPa) = 123.49802 81.43365 57.19482
#
# Poissons Ratio (x) = 0.23387 0.23386
# Poissons Ratio (y) = 0.35467 0.27443
# Poissons Ratio (z) = 0.50495 0.39073
#
# Static dielectric constant tensor:
#      x y z
#    x 4.084850 0.000000 0.000000 
#    y 0.000000 3.739570 0.000000 
#    z 0.000000 0.000000 4.147180 
# 
# 
# High freq. dielectric constant tensor:
#      x y z
#    x 1.790450 0.000000 0.000000 
#    y 0.000000 1.763390 0.000000 
#    z 0.000000 0.000000 1.763230 
# 
# From -- ./inp_files/22353.got.cif
#   From: 2010.03.12/outbox.cif.g09.slc.cpg/sg53_12_cif.got.tgz:22353.got - 2010.04.16 14:36:59.
