data_PCOD8221451
_publ_section_title
;
Structure prediction by ZEFSAII (Michael W. Deem and Ramdas Pophale) SiO2 
 PCOD8221451
Probable space group: P M N A
;
_chemical_formula_sum "Si O2"
_cell_formula_units_Z 40
_cell_length_a 13.330369
_cell_length_b 6.168677
_cell_length_c 22.200465
_cell_angle_alpha 90.000000
_cell_angle_beta 90.000000
_cell_angle_gamma 90.000000
_cell_volume 1825.560680
_symmetry_space_group_name_H-M "P M N A"
_symmetry_group_IT_number 53
_symmetry_cell_setting 'orthorhombic'
loop_
_space_group_symop_operation_xyz
x,y,z
1/2-x,-y,1/2+z
x,-y,-z
1/2-x,y,1/2-z
-x,-y,-z
1/2+x,y,1/2-z
-x,y,z
1/2+x,-y,1/2+z
loop_
_atom_site_type_symbol
_atom_site_label
_atom_site_fract_x
_atom_site_fract_y
_atom_site_fract_z
Si Si1 0.886467 0.508279 0.779067
Si Si2 0.236223 0.156991 0.150182
Si Si3 0.293739 0.533824 0.066822
Si Si4 0.884286 0.785879 0.329924
Si Si5 0.112496 0.782307 0.105403
O O1 0.816381 0.709371 0.796361
O O2 0.848110 0.402054 0.716424
O O3 0.881572 0.321532 0.828673
O O4 0.000000 0.594388 0.771556
O O5 0.291283 0.306668 0.101391
O O6 0.319037 0.001437 0.180633
O O7 0.151866 0.026569 0.112673
O O8 0.366617 0.697987 0.102602
O O9 0.182890 0.641526 0.061314
O O10 0.337325 0.500000 0.000000
O O11 0.000000 0.845173 0.319067
O O12 0.000000 0.784075 0.078978
#
# Coordination Sequence:
#
# PCOD8221451 Si02
#       5
#     8   8   8   8   8
#     4   9  19  37  60  89 121 148 183 237 300 364
#     4  10  21  38  63  86 115 157 196 239 298 356
#     4  10  23  40  57  83 120 161 207 254 297 343
#     4  10  23  40  60  89 120 155 202 247 294 355
#     4   9  19  35  58  89 119 150 193 243 300 366
#
# _framework density 21.911078
#
# number of rings (size 3 to 8) (size 9 to 14) (size 15 to 20)
#    0.000    2.400    0.000    0.600    0.000   16.000 
#    0.000    6.000    0.000    6.000    0.000    0.000 
#    0.000    0.000    0.000    0.000    0.000    0.000 
#
# Total GULP energy -496115.193741 kJ/mol
# GULP energy per Si atom -12402.879844 kJ/mol
# Density = 2.186121 g / cm^3
# Si number density = 21.911078 Si / 1000 Ang^3
#
#
#
# Elastic Constant Matrix: (Units=GPa)
#
#
# Indices 1 2 3 4 5 6 
#
# 1 79.5625 59.6330 26.9583 0.0000 0.0000 0.0000
# 2 59.6330 136.0637 42.7090 0.0000 0.0000 0.0000
# 3 26.9583 42.7090 105.7325 0.0000 0.0000 0.0000
# 4 0.0000 0.0000 0.0000 20.2820 0.0000 0.0000
# 5 0.0000 0.0000 0.0000 0.0000 23.2474 0.0000
# 6 0.0000 0.0000 0.0000 0.0000 0.0000 29.6926
#
#
#
# Elastic Compliance Matrix: (Units=1/GPa)
#
#
# Indices 1 2 3 4 5 6 
#
# 1 0.018978 -0.007786 -0.001694 0.000000 0.000000 0.000000
# 2 -0.007786 0.011611 -0.002705 0.000000 0.000000 0.000000
# 3 -0.001694 -0.002705 0.010982 0.000000 0.000000 0.000000
# 4 0.000000 0.000000 0.000000 0.049305 0.000000 0.000000
# 5 0.000000 0.000000 0.000000 0.000000 0.043016 0.000000
# 6 0.000000 0.000000 0.000000 0.000000 0.000000 0.033678
#
#
# Mechanical properties :
#
#
# Convention : Reuss Voigt Hill
#
# Bulk Modulus (GPa) = 58.13225 64.43990 61.28608
# Shear Modulus (GPa) = 25.29417 27.44827 26.37122
#
# Velocity S-wave (km/s) = 3.40133 3.54321 3.47299
# Velocity P-wave (km/s) = 6.48182 6.79799 6.64179
#
# Compressibility (1/GPa) = 0.01720216
#
# Stress axis : x y z
#
# Youngs Moduli (GPa) = 52.69155 86.12573 91.05571
#
# Poissons Ratio (x) = 0.67058 0.15423
# Poissons Ratio (y) = 0.41026 0.24629
# Poissons Ratio (z) = 0.08925 0.23296
#
# Static dielectric constant tensor:
#      x y z
#    x 4.113350 0.000000 0.000000 
#    y 0.000000 3.960320 0.000000 
#    z 0.000000 0.000000 3.601060 
# 
# 
# High freq. dielectric constant tensor:
#      x y z
#    x 1.865070 0.000000 0.000000 
#    y 0.000000 1.867330 0.000000 
#    z 0.000000 0.000000 1.838260 
# 
# From -- ./inp_files/35137.got.cif
#   From: 2010.03.12/outbox.cif.g09.slc.cpg/sg53_18_cif.got.tgz:35137.got - 2010.04.16 14:36:59.
