data_PCOD8221460
_publ_section_title
;
Structure prediction by ZEFSAII (Michael W. Deem and Ramdas Pophale) SiO2 
 PCOD8221460
Probable space group: P M N A
;
_chemical_formula_sum "Si O2"
_cell_formula_units_Z 64
_cell_length_a 13.786169
_cell_length_b 9.338111
_cell_length_c 24.195993
_cell_angle_alpha 90.000000
_cell_angle_beta 90.000000
_cell_angle_gamma 90.000000
_cell_volume 3114.914140
_symmetry_space_group_name_H-M "P M N A"
_symmetry_group_IT_number 53
_symmetry_cell_setting 'orthorhombic'
loop_
_space_group_symop_operation_xyz
x,y,z
1/2-x,-y,1/2+z
x,-y,-z
1/2-x,y,1/2-z
-x,-y,-z
1/2+x,y,1/2-z
-x,y,z
1/2+x,-y,1/2+z
loop_
_atom_site_type_symbol
_atom_site_label
_atom_site_fract_x
_atom_site_fract_y
_atom_site_fract_z
Si Si1 0.888715 0.867737 0.938282
Si Si2 0.204328 0.283084 0.157437
Si Si3 0.108208 0.431099 0.864563
Si Si4 0.685474 0.821176 0.302796
Si Si5 0.107292 0.105433 0.240222
Si Si6 0.799456 0.347116 0.977139
Si Si7 0.231916 0.095566 0.582400
Si Si8 0.889886 0.871388 0.633995
O O1 0.873810 0.810755 0.876414
O O2 0.000000 0.912619 0.948425
O O3 0.823331 0.011047 0.945423
O O4 0.860422 0.731888 0.975826
O O5 0.186193 0.450490 0.152958
O O6 0.185907 0.223856 0.219675
O O7 0.312756 0.259431 0.132364
O O8 0.114687 0.309056 0.818061
O O9 0.129619 0.371826 0.925531
O O10 0.000000 0.495110 0.864214
O O11 0.750000 0.779915 0.250000
O O12 0.752246 0.852754 0.355409
O O13 0.619048 0.957758 0.292001
O O14 0.123063 0.066050 0.304452
O O15 0.000000 0.168685 0.231255
O O16 0.714245 0.236360 0.956401
O O17 0.758438 0.500000 0.000000
O O18 0.139058 0.989532 0.587267
O O19 0.000000 0.819114 0.622313
#
# Coordination Sequence:
#
# PCOD8221460 Si02
#       8
#     8   8   8   8   8   8   8   8
#     4  11  21  35  57  88 123 157 197 244 298 365
#     4  11  21  36  57  87 121 160 199 245 295 358
#     4  11  24  38  56  88 130 168 198 237 298 367
#     4  11  20  36  55  83 124 162 200 241 286 345
#     4  11  19  33  61  89 119 153 193 243 302 360
#     4  11  23  38  58  87 123 166 196 238 296 373
#     4  10  22  37  59  86 118 156 199 248 301 354
#     4  10  21  38  64  89 112 151 204 258 307 350
#
# _framework density 20.546310999999999
#
# number of rings (size 3 to 8) (size 9 to 14) (size 15 to 20)
#    0.000    1.250    5.000    2.625    0.000    4.500 
#    0.000    0.000    0.000   10.125    0.000    0.000 
#    0.000    0.000    0.000    0.000    0.000    0.000 
#
# Total GULP energy -793142.775953 kJ/mol
# GULP energy per Si atom -12392.855874 kJ/mol
# Density = 2.049955 g / cm^3
# Si number density = 20.546311 Si / 1000 Ang^3
#
#
#
# Elastic Constant Matrix: (Units=GPa)
#
#
# Indices 1 2 3 4 5 6 
#
# 1 112.3174 39.0550 27.3087 0.0000 0.0000 0.0000
# 2 39.0550 115.1844 33.5611 0.0000 0.0000 0.0000
# 3 27.3087 33.5611 76.2263 0.0000 0.0000 0.0000
# 4 0.0000 0.0000 0.0000 26.5988 0.0000 0.0000
# 5 0.0000 0.0000 0.0000 0.0000 14.0998 0.0000
# 6 0.0000 0.0000 0.0000 0.0000 0.0000 21.2289
#
#
#
# Elastic Compliance Matrix: (Units=1/GPa)
#
#
# Indices 1 2 3 4 5 6 
#
# 1 0.010498 -0.002826 -0.002517 0.000000 0.000000 0.000000
# 2 -0.002826 0.010720 -0.003707 0.000000 0.000000 0.000000
# 3 -0.002517 -0.003707 0.015653 0.000000 0.000000 0.000000
# 4 0.000000 0.000000 0.000000 0.037596 0.000000 0.000000
# 5 0.000000 0.000000 0.000000 0.000000 0.070923 0.000000
# 6 0.000000 0.000000 0.000000 0.000000 0.000000 0.047106
#
#
# Mechanical properties :
#
#
# Convention : Reuss Voigt Hill
#
# Bulk Modulus (GPa) = 53.27542 55.95309 54.61425
# Shear Modulus (GPa) = 23.05712 25.97238 24.51475
#
# Velocity S-wave (km/s) = 3.35356 3.55926 3.45794
# Velocity P-wave (km/s) = 6.40163 6.64702 6.52548
#
# Compressibility (1/GPa) = 0.01877038
#
# Stress axis : x y z
#
# Youngs Moduli (GPa) = 95.25657 93.28162 63.88653
#
# Poissons Ratio (x) = 0.26363 0.16078
# Poissons Ratio (y) = 0.26922 0.23685
# Poissons Ratio (z) = 0.23973 0.34583
#
# Static dielectric constant tensor:
#      x y z
#    x 3.512680 0.000000 0.000000 
#    y 0.000000 3.766070 0.000000 
#    z 0.000000 0.000000 4.063030 
# 
# 
# High freq. dielectric constant tensor:
#      x y z
#    x 1.768200 0.000000 0.000000 
#    y 0.000000 1.797500 0.000000 
#    z 0.000000 0.000000 1.817910 
# 
# From -- ./inp_files/35336.got.cif
#   From: 2010.03.12/outbox.cif.g09.slc.cpg/sg53_18_cif.got.tgz:35336.got - 2010.04.16 14:36:59.
