data_PCOD8221277
_publ_section_title
;
Structure prediction by ZEFSAII (Michael W. Deem and Ramdas Pophale) SiO2 
 PCOD8221277
Probable space group: P M N A
;
_chemical_formula_sum "Si O2"
_cell_formula_units_Z 56
_cell_length_a 22.203945
_cell_length_b 6.098440
_cell_length_c 21.401005
_cell_angle_alpha 90.000000
_cell_angle_beta 90.000000
_cell_angle_gamma 90.000000
_cell_volume 2897.897810
_symmetry_space_group_name_H-M "P M N A"
_symmetry_group_IT_number 53
_symmetry_cell_setting 'orthorhombic'
loop_
_space_group_symop_operation_xyz
x,y,z
1/2-x,-y,1/2+z
x,-y,-z
1/2-x,y,1/2-z
-x,-y,-z
1/2+x,y,1/2-z
-x,y,z
1/2+x,-y,1/2+z
loop_
_atom_site_type_symbol
_atom_site_label
_atom_site_fract_x
_atom_site_fract_y
_atom_site_fract_z
Si Si1 0.766840 0.313443 0.156478
Si Si2 0.828327 0.671444 0.332789
Si Si3 0.732814 0.068942 0.932463
Si Si4 0.658785 0.387507 0.566187
Si Si5 0.853338 0.955384 0.759785
Si Si6 0.431502 0.269453 0.662089
Si Si7 0.431492 0.574508 0.779060
O O1 0.717004 0.475412 0.186168
O O2 0.813997 0.446535 0.115861
O O3 0.801189 0.196940 0.212933
O O4 0.733661 0.140267 0.112159
O O5 0.813240 0.752904 0.402928
O O6 0.896784 0.583760 0.327972
O O7 0.819532 0.870861 0.284397
O O8 0.799136 0.173637 0.940245
O O9 0.707517 0.000000 0.000000
O O10 0.649865 0.500000 0.500000
O O11 0.592962 0.328256 0.593180
O O12 0.901190 0.813453 0.720183
O O13 0.889734 0.071944 0.814824
O O14 0.500000 0.187581 0.655810
O O15 0.427179 0.474445 0.709377
O O16 0.500000 0.594122 0.802112
#
# Coordination Sequence:
#
# PCOD8221277 Si02
#       7
#     8   8   8   8   8   8   8
#     4  11  22  38  57  87 122 155 196 248 304 355
#     4  10  25  37  57  95 117 150 199 250 298 365
#     4  11  22  39  61  84 119 162 194 244 306 363
#     4  11  21  37  58  83 118 161 210 249 294 347
#     4  11  21  39  60  85 121 158 198 245 308 361
#     4  10  21  37  57  86 119 161 212 251 287 342
#     4  10  21  39  60  83 120 159 194 244 300 359
#
# _framework density 19.324355000000001
#
# number of rings (size 3 to 8) (size 9 to 14) (size 15 to 20)
#    0.000    1.429    4.286    1.286    0.000    4.286 
#    0.000    0.000    0.000    1.714    0.000    4.000 
#    0.000    0.000    0.000    0.000    0.000    0.000 
#
# Total GULP energy -694506.641880 kJ/mol
# GULP energy per Si atom -12401.904319 kJ/mol
# Density = 1.928037 g / cm^3
# Si number density = 19.324355 Si / 1000 Ang^3
#
#
#
# Elastic Constant Matrix: (Units=GPa)
#
#
# Indices 1 2 3 4 5 6 
#
# 1 123.2245 53.7644 72.1766 0.0000 0.0000 0.0000
# 2 53.7644 111.8003 43.7051 0.0000 0.0000 0.0000
# 3 72.1766 43.7051 87.1280 0.0000 0.0000 0.0000
# 4 0.0000 0.0000 0.0000 36.9944 0.0000 0.0000
# 5 0.0000 0.0000 0.0000 0.0000 20.0011 0.0000
# 6 0.0000 0.0000 0.0000 0.0000 0.0000 11.1963
#
#
#
# Elastic Compliance Matrix: (Units=1/GPa)
#
#
# Indices 1 2 3 4 5 6 
#
# 1 0.016666 -0.003256 -0.012173 0.000000 0.000000 0.000000
# 2 -0.003256 0.011762 -0.003203 0.000000 0.000000 0.000000
# 3 -0.012173 -0.003203 0.023168 0.000000 0.000000 0.000000
# 4 0.000000 0.000000 0.000000 0.027031 0.000000 0.000000
# 5 0.000000 0.000000 0.000000 0.000000 0.049997 0.000000
# 6 0.000000 0.000000 0.000000 0.000000 0.000000 0.089315
#
#
# Mechanical properties :
#
#
# Convention : Reuss Voigt Hill
#
# Bulk Modulus (GPa) = 69.77005 73.49390 71.63197
# Shear Modulus (GPa) = 19.23221 23.80546 21.51883
#
# Velocity S-wave (km/s) = 3.15815 3.51364 3.34063
# Velocity P-wave (km/s) = 7.03432 7.38750 7.21307
#
# Compressibility (1/GPa) = 0.01433280
#
# Stress axis : x y z
#
# Youngs Moduli (GPa) = 60.00304 85.01633 43.16321
#
# Poissons Ratio (x) = 0.27681 0.52541
# Poissons Ratio (y) = 0.19537 0.13825
# Poissons Ratio (z) = 0.73040 0.27231
#
# Static dielectric constant tensor:
#      x y z
#    x 3.525100 0.000000 0.000000 
#    y 0.000000 3.855810 0.000000 
#    z 0.000000 0.000000 3.527600 
# 
# 
# High freq. dielectric constant tensor:
#      x y z
#    x 1.740790 0.000000 0.000000 
#    y 0.000000 1.771480 0.000000 
#    z 0.000000 0.000000 1.732260 
# 
# From -- ./inp_files/33179.got.cif
#   From: 2010.03.12/outbox.cif.g09.slc.cpg/sg53_17_cif.got.tgz:33179.got - 2010.04.16 14:36:59.
