data_PCOD8221192
_publ_section_title
;
Structure prediction by ZEFSAII (Michael W. Deem and Ramdas Pophale) SiO2 
 PCOD8221192
Probable space group: P M N A
;
_chemical_formula_sum "Si O2"
_cell_formula_units_Z 36
_cell_length_a 17.325492
_cell_length_b 5.406113
_cell_length_c 19.200259
_cell_angle_alpha 90.000000
_cell_angle_beta 90.000000
_cell_angle_gamma 90.000000
_cell_volume 1798.364755
_symmetry_space_group_name_H-M "P M N A"
_symmetry_group_IT_number 53
_symmetry_cell_setting 'orthorhombic'
loop_
_space_group_symop_operation_xyz
x,y,z
1/2-x,-y,1/2+z
x,-y,-z
1/2-x,y,1/2-z
-x,-y,-z
1/2+x,y,1/2-z
-x,y,z
1/2+x,-y,1/2+z
loop_
_atom_site_type_symbol
_atom_site_label
_atom_site_fract_x
_atom_site_fract_y
_atom_site_fract_z
Si Si1 0.674577 0.905241 0.296860
Si Si2 0.412151 0.597104 0.743278
Si Si3 0.141944 0.500000 0.500000
Si Si4 0.584375 0.820912 0.886996
Si Si5 0.225702 0.121922 0.575260
O O1 0.750000 0.921689 0.250000
O O2 0.628628 0.656017 0.279062
O O3 0.697848 0.886557 0.378346
O O4 0.625072 0.154397 0.288968
O O5 0.500000 0.585015 0.716695
O O6 0.407876 0.614318 0.827009
O O7 0.087710 0.703432 0.535651
O O8 0.198461 0.400573 0.560675
O O9 0.500000 0.952540 0.880050
O O10 0.655022 0.008297 0.879771
O O11 0.241239 0.000000 0.500000
#
# Coordination Sequence:
#
# PCOD8221192 Si02
#       5
#     8   8   4   8   8
#     4  12  23  41  69  95 128 168 218 266 322 375
#     4  11  25  42  66  95 131 168 215 268 323 378
#     4  10  21  36  56  88 127 170 212 244 317 378
#     4  10  21  37  56  90 131 170 207 251 312 390
#     4  10  23  38  60  91 125 166 213 262 321 378
#
# _framework density 20.018184999999999
#
# number of rings (size 3 to 8) (size 9 to 14) (size 15 to 20)
#    0.000    1.333    2.222    3.000    6.222    4.889 
#    0.000    0.000    0.000    4.000    0.000    0.000 
#    0.000    0.000    0.000    0.000    0.000    0.000 
#
# Total GULP energy -446175.893036 kJ/mol
# GULP energy per Si atom -12393.774807 kJ/mol
# Density = 1.997262 g / cm^3
# Si number density = 20.018185 Si / 1000 Ang^3
#
#
#
# Elastic Constant Matrix: (Units=GPa)
#
#
# Indices 1 2 3 4 5 6 
#
# 1 122.0568 51.7433 47.8149 0.0000 0.0000 0.0000
# 2 51.7433 109.4633 15.3201 0.0000 0.0000 0.0000
# 3 47.8149 15.3201 81.2972 0.0000 0.0000 0.0000
# 4 0.0000 0.0000 0.0000 26.9581 0.0000 0.0000
# 5 0.0000 0.0000 0.0000 0.0000 29.4810 0.0000
# 6 0.0000 0.0000 0.0000 0.0000 0.0000 34.5080
#
#
#
# Elastic Compliance Matrix: (Units=1/GPa)
#
#
# Indices 1 2 3 4 5 6 
#
# 1 0.013021 -0.005221 -0.006674 0.000000 0.000000 0.000000
# 2 -0.005221 0.011476 0.000908 0.000000 0.000000 0.000000
# 3 -0.006674 0.000908 0.016055 0.000000 0.000000 0.000000
# 4 0.000000 0.000000 0.000000 0.037095 0.000000 0.000000
# 5 0.000000 0.000000 0.000000 0.000000 0.033920 0.000000
# 6 0.000000 0.000000 0.000000 0.000000 0.000000 0.028979
#
#
# Mechanical properties :
#
#
# Convention : Reuss Voigt Hill
#
# Bulk Modulus (GPa) = 53.82808 60.28601 57.05704
# Shear Modulus (GPa) = 29.63623 31.38536 30.51080
#
# Velocity S-wave (km/s) = 3.85186 3.96389 3.90828
# Velocity P-wave (km/s) = 6.83596 7.15059 6.99504
#
# Compressibility (1/GPa) = 0.01857766
#
# Stress axis : x y z
#
# Youngs Moduli (GPa) = 76.80035 87.13627 62.28608
#
# Poissons Ratio (x) = 0.45492 0.41572
# Poissons Ratio (y) = 0.40096 -0.05655
# Poissons Ratio (z) = 0.51259 -0.07912
#
# Static dielectric constant tensor:
#      x y z
#    x 3.712370 0.000000 0.000000 
#    y 0.000000 3.673610 0.000000 
#    z 0.000000 0.000000 3.776350 
# 
# 
# High freq. dielectric constant tensor:
#      x y z
#    x 1.770780 0.000000 0.000000 
#    y 0.000000 1.785520 0.000000 
#    z 0.000000 0.000000 1.780990 
# 
# From -- ./inp_files/32140.got.cif
#   From: 2010.03.12/outbox.cif.g09.slc.cpg/sg53_17_cif.got.tgz:32140.got - 2010.04.16 14:36:59.
