data_PCOD8221135
_publ_section_title
;
Structure prediction by ZEFSAII (Michael W. Deem and Ramdas Pophale) SiO2 
 PCOD8221135
Probable space group: P M N A
;
_chemical_formula_sum "Si O2"
_cell_formula_units_Z 48
_cell_length_a 8.943880
_cell_length_b 18.927798
_cell_length_c 14.100719
_cell_angle_alpha 90.000000
_cell_angle_beta 90.000000
_cell_angle_gamma 90.000000
_cell_volume 2387.081869
_symmetry_space_group_name_H-M "P M N A"
_symmetry_group_IT_number 53
_symmetry_cell_setting 'orthorhombic'
loop_
_space_group_symop_operation_xyz
x,y,z
1/2-x,-y,1/2+z
x,-y,-z
1/2-x,y,1/2-z
-x,-y,-z
1/2+x,y,1/2-z
-x,y,z
1/2+x,-y,1/2+z
loop_
_atom_site_type_symbol
_atom_site_label
_atom_site_fract_x
_atom_site_fract_y
_atom_site_fract_z
Si Si1 0.325159 0.479490 0.851800
Si Si2 0.824027 0.109480 0.465741
Si Si3 0.823299 0.384889 0.147337
Si Si4 0.324820 0.973990 0.150174
Si Si5 0.674133 0.676503 0.148926
Si Si6 0.175487 0.746912 0.980703
O O1 0.250000 0.477619 0.750000
O O2 0.500000 0.496435 0.843878
O O3 0.245301 0.545127 0.906201
O O4 0.298699 0.401873 0.896610
O O5 0.777669 0.083535 0.571124
O O6 0.733936 0.179630 0.438183
O O7 0.000000 0.124398 0.461395
O O8 0.777374 0.051157 0.387950
O O9 0.750000 0.376831 0.250000
O O10 0.778241 0.315403 0.090036
O O11 0.000000 0.393868 0.156190
O O12 0.250000 0.955888 0.250000
O O13 0.500000 0.971462 0.165997
O O14 0.750000 0.683823 0.250000
O O15 0.500000 0.692155 0.161388
O O16 0.745450 0.734621 0.081116
O O17 0.000000 0.750180 0.996766
#
# Coordination Sequence:
#
# PCOD8221135 Si02
#       6
#     8   8   8   8   8   8
#     4   9  17  31  53  78 103 136 182 232 280 329
#     4   9  20  39  58  80 114 148 178 217 266 322
#     4  10  21  36  54  77 107 144 186 232 280 329
#     4   9  19  37  62  88 111 141 179 217 264 320
#     4  10  21  37  57  80 108 144 185 231 281 331
#     4  11  24  38  54  81 114 148 186 226 272 326
#
# _framework density 20.108233999999999
#
# number of rings (size 3 to 8) (size 9 to 14) (size 15 to 20)
#    0.000    2.333    0.000    4.000    0.000    8.000 
#    0.000   10.000    0.000    0.000    0.000    0.000 
#    0.000    0.000    0.000    0.000    0.000    0.000 
#
# Total GULP energy -595040.776860 kJ/mol
# GULP energy per Si atom -12396.682851 kJ/mol
# Density = 2.006247 g / cm^3
# Si number density = 20.108234 Si / 1000 Ang^3
#
#
#
# Elastic Constant Matrix: (Units=GPa)
#
#
# Indices 1 2 3 4 5 6 
#
# 1 70.6432 22.1895 6.3100 0.0000 0.0000 0.0000
# 2 22.1895 78.6789 -9.6007 0.0000 0.0000 0.0000
# 3 6.3100 -9.6007 40.0317 0.0000 0.0000 0.0000
# 4 0.0000 0.0000 0.0000 24.1183 0.0000 0.0000
# 5 0.0000 0.0000 0.0000 0.0000 18.9329 0.0000
# 6 0.0000 0.0000 0.0000 0.0000 0.0000 36.4116
#
#
#
# Elastic Compliance Matrix: (Units=1/GPa)
#
#
# Indices 1 2 3 4 5 6 
#
# 1 0.016053 -0.004982 -0.003725 0.000000 0.000000 0.000000
# 2 -0.004982 0.014639 0.004296 0.000000 0.000000 0.000000
# 3 -0.003725 0.004296 0.026598 0.000000 0.000000 0.000000
# 4 0.000000 0.000000 0.000000 0.041462 0.000000 0.000000
# 5 0.000000 0.000000 0.000000 0.000000 0.052818 0.000000
# 6 0.000000 0.000000 0.000000 0.000000 0.000000 0.027464
#
#
# Mechanical properties :
#
#
# Convention : Reuss Voigt Hill
#
# Bulk Modulus (GPa) = 20.63214 25.23904 22.93559
# Shear Modulus (GPa) = 24.50829 27.25621 25.88225
#
# Velocity S-wave (km/s) = 3.49495 3.68567 3.59158
# Velocity P-wave (km/s) = 5.15451 5.53995 5.35071
#
# Compressibility (1/GPa) = 0.04846807
#
# Stress axis : x y z
#
# Youngs Moduli (GPa) = 62.29259 68.30983 37.59718
#
# Poissons Ratio (x) = 0.34032 0.14006
# Poissons Ratio (y) = 0.31034 -0.16152
# Poissons Ratio (z) = 0.23205 -0.29347
#
# Static dielectric constant tensor:
#      x y z
#    x 3.598680 0.000000 0.000000 
#    y 0.000000 4.052460 0.000000 
#    z 0.000000 0.000000 3.106530 
# 
# 
# High freq. dielectric constant tensor:
#      x y z
#    x 1.787960 0.000000 0.000000 
#    y 0.000000 1.794190 0.000000 
#    z 0.000000 0.000000 1.771460 
# 
# From -- ./inp_files/20241.got.cif
#   From: 2010.03.12/outbox.cif.g09.slc.cpg/sg53_11_cif.got.tgz:20241.got - 2010.04.16 14:36:59.
