data_PCOD8221285
_publ_section_title
;
Structure prediction by ZEFSAII (Michael W. Deem and Ramdas Pophale) SiO2 
 PCOD8221285
Probable space group: P M N A
;
_chemical_formula_sum "Si O2"
_cell_formula_units_Z 40
_cell_length_a 9.045998
_cell_length_b 14.886650
_cell_length_c 15.011498
_cell_angle_alpha 90.000000
_cell_angle_beta 90.000000
_cell_angle_gamma 90.000000
_cell_volume 2021.517466
_symmetry_space_group_name_H-M "P M N A"
_symmetry_group_IT_number 53
_symmetry_cell_setting 'orthorhombic'
loop_
_space_group_symop_operation_xyz
x,y,z
1/2-x,-y,1/2+z
x,-y,-z
1/2-x,y,1/2-z
-x,-y,-z
1/2+x,y,1/2-z
-x,y,z
1/2+x,-y,1/2+z
loop_
_atom_site_type_symbol
_atom_site_label
_atom_site_fract_x
_atom_site_fract_y
_atom_site_fract_z
Si Si1 0.171657 0.587743 0.155179
Si Si2 0.671892 0.213951 0.655484
Si Si3 0.171678 0.223363 0.343669
Si Si4 0.327554 0.578013 0.845155
Si Si5 0.327954 0.104806 0.993701
O O1 0.250000 0.592595 0.250000
O O2 0.195190 0.686301 0.112126
O O3 0.250254 0.505156 0.100472
O O4 0.000000 0.564912 0.166028
O O5 0.750000 0.204066 0.750000
O O6 0.500000 0.194342 0.670449
O O7 0.737482 0.140989 0.589461
O O8 0.250000 0.206431 0.250000
O O9 0.201119 0.322970 0.385796
O O10 0.229228 0.151564 0.415593
O O11 0.000000 0.210277 0.323758
O O12 0.250000 0.579780 0.750000
O O13 0.500000 0.557106 0.836550
O O14 0.500000 0.126478 0.978655
O O15 0.296214 0.000000 0.000000
#
# Coordination Sequence:
#
# PCOD8221285 Si02
#       5
#     8   8   8   8   8
#     4   9  16  27  46  74 106 139 175 213 257 310
#     4  10  21  37  58  83 111 145 182 222 270 323
#     4   9  19  35  55  80 109 142 179 220 269 323
#     4   9  15  25  45  73 104 138 174 211 256 311
#     4  10  22  40  59  80 108 141 181 231 280 325
#
# _framework density 19.787115
#
# number of rings (size 3 to 8) (size 9 to 14) (size 15 to 20)
#    0.000    2.600    0.000    3.000    0.000    5.200 
#    0.000    3.000    0.000    6.000    0.000    0.000 
#    0.000    0.000    0.000    0.000    0.000    0.000 
#
# Total GULP energy -495614.885529 kJ/mol
# GULP energy per Si atom -12390.372138 kJ/mol
# Density = 1.974208 g / cm^3
# Si number density = 19.787115 Si / 1000 Ang^3
#
#
#
# Elastic Constant Matrix: (Units=GPa)
#
#
# Indices 1 2 3 4 5 6 
#
# 1 117.4257 75.7235 49.0511 0.0000 0.0000 0.0000
# 2 75.7235 157.0502 64.6632 0.0000 0.0000 0.0000
# 3 49.0511 64.6632 85.5812 0.0000 0.0000 0.0000
# 4 0.0000 0.0000 0.0000 -185.3000 0.0000 0.0000
# 5 0.0000 0.0000 0.0000 0.0000 21.3325 0.0000
# 6 0.0000 0.0000 0.0000 0.0000 0.0000 34.9553
#
#
#
# Elastic Compliance Matrix: (Units=1/GPa)
#
#
# Indices 1 2 3 4 5 6 
#
# 1 0.013246 -0.004733 -0.004015 0.000000 0.000000 0.000000
# 2 -0.004733 0.010934 -0.005549 0.000000 0.000000 0.000000
# 3 -0.004015 -0.005549 0.018179 0.000000 0.000000 0.000000
# 4 0.000000 0.000000 0.000000 -0.005397 0.000000 0.000000
# 5 0.000000 0.000000 0.000000 0.000000 0.046877 0.000000
# 6 0.000000 0.000000 0.000000 0.000000 0.000000 0.028608
#
#
# Mechanical properties :
#
#
# Convention : Reuss Voigt Hill
#
# Bulk Modulus (GPa) = 72.65470 82.10364 77.37917
# Shear Modulus (GPa) = 34.33365 -14.42785 9.95290
#
# Velocity S-wave (km/s) = 4.17003 -2.70321 2.24520
# Velocity P-wave (km/s) = 7.74490 5.64273 6.77584
#
# Compressibility (1/GPa) = 0.01376374
#
# Stress axis : x y z
#
# Youngs Moduli (GPa) = 75.49649 91.45623 55.00907
#
# Poissons Ratio (x) = 0.43288 0.22089
# Poissons Ratio (y) = 0.35734 0.30523
# Poissons Ratio (z) = 0.30315 0.50747
#
# Static dielectric constant tensor:
#      x y z
#    x 3.712780 0.000000 0.000000 
#    y 0.000000 4.649280 0.000000 
#    z 0.000000 0.000000 3.154290 
# 
# 
# High freq. dielectric constant tensor:
#      x y z
#    x 1.777130 0.000000 0.000000 
#    y 0.000000 1.790300 0.000000 
#    z 0.000000 0.000000 1.731650 
# 
# From -- ./inp_files/19842.got.cif
#   From: 2010.03.12/outbox.cif.g09.slc.cpg/sg53_10_cif.got.tgz:19842.got - 2010.04.16 14:36:59.
