data_PCOD8221167
_publ_section_title
;
Structure prediction by ZEFSAII (Michael W. Deem and Ramdas Pophale) SiO2 
 PCOD8221167
Probable space group: P M N A
;
_chemical_formula_sum "Si O2"
_cell_formula_units_Z 64
_cell_length_a 8.652141
_cell_length_b 16.060207
_cell_length_c 23.710138
_cell_angle_alpha 90.000000
_cell_angle_beta 90.000000
_cell_angle_gamma 90.000000
_cell_volume 3294.646386
_symmetry_space_group_name_H-M "P M N A"
_symmetry_group_IT_number 53
_symmetry_cell_setting 'orthorhombic'
loop_
_space_group_symop_operation_xyz
x,y,z
1/2-x,-y,1/2+z
x,-y,-z
1/2-x,y,1/2-z
-x,-y,-z
1/2+x,y,1/2-z
-x,y,z
1/2+x,-y,1/2+z
loop_
_atom_site_type_symbol
_atom_site_label
_atom_site_fract_x
_atom_site_fract_y
_atom_site_fract_z
Si Si1 0.316293 0.399474 0.686238
Si Si2 0.321359 0.108673 0.307780
Si Si3 0.820033 0.301506 0.192494
Si Si4 0.184977 0.301889 0.584071
Si Si5 0.317195 0.953694 0.920535
Si Si6 0.316997 0.127983 0.967735
Si Si7 0.322425 0.559317 0.873650
Si Si8 0.833710 0.409521 0.013312
O O1 0.250000 0.393140 0.750000
O O2 0.500000 0.390478 0.689470
O O3 0.248777 0.325164 0.646522
O O4 0.276717 0.487980 0.657323
O O5 0.250000 0.074023 0.250000
O O6 0.500000 0.089459 0.305807
O O7 0.283574 0.205140 0.315545
O O8 0.248221 0.061568 0.359475
O O9 0.750000 0.335529 0.250000
O O10 0.723668 0.349464 0.146448
O O11 0.000000 0.322544 0.188974
O O12 0.246629 0.211040 0.563100
O O13 0.249889 0.367536 0.539571
O O14 0.000000 0.306336 0.585645
O O15 0.500000 0.953327 0.918381
O O16 0.256626 0.045715 0.936155
O O17 0.262657 0.883797 0.966615
O O18 0.500000 0.132355 0.966171
O O19 0.500000 0.536941 0.862756
O O20 0.292679 0.575130 0.938883
O O21 0.000000 0.363428 0.028994
O O22 0.892417 0.500000 0.000000
#
# Coordination Sequence:
#
# PCOD8221167 Si02
#       8
#     8   8   8   8   8   8   8   8
#     4  12  25  43  63  85 114 154 197 245 297 346
#     4  10  21  36  55  83 116 154 194 237 287 344
#     4  10  21  37  54  78 115 152 191 236 281 336
#     4  11  22  39  62  91 120 152 196 242 289 349
#     4   9  17  36  62  87 117 153 190 232 285 348
#     4   8  18  36  61  90 118 150 189 235 290 348
#     4  12  24  38  59  85 113 151 196 240 286 342
#     4  11  23  39  58  83 118 156 190 234 285 339
#
# _framework density 19.425453000000001
#
# number of rings (size 3 to 8) (size 9 to 14) (size 15 to 20)
#    0.000    1.625    1.250    4.875    1.750    2.000 
#    0.000    3.750    0.000    0.000    0.000    0.000 
#    0.000    0.000    0.000    0.000    0.000    0.000 
#
# Total GULP energy -792980.632061 kJ/mol
# GULP energy per Si atom -12390.322376 kJ/mol
# Density = 1.938124 g / cm^3
# Si number density = 19.425453 Si / 1000 Ang^3
#
#
#
# Elastic Constant Matrix: (Units=GPa)
#
#
# Indices 1 2 3 4 5 6 
#
# 1 91.1069 28.4736 42.7997 0.0000 0.0000 0.0000
# 2 28.4736 86.7765 66.3338 0.0000 0.0000 0.0000
# 3 42.7997 66.3338 161.6951 0.0000 0.0000 0.0000
# 4 0.0000 0.0000 0.0000 22.1686 0.0000 0.0000
# 5 0.0000 0.0000 0.0000 0.0000 42.3095 0.0000
# 6 0.0000 0.0000 0.0000 0.0000 0.0000 22.6350
#
#
#
# Elastic Compliance Matrix: (Units=1/GPa)
#
#
# Indices 1 2 3 4 5 6 
#
# 1 0.012857 -0.002356 -0.002437 0.000000 0.000000 0.000000
# 2 -0.002356 0.017221 -0.006441 0.000000 0.000000 0.000000
# 3 -0.002437 -0.006441 0.009472 0.000000 0.000000 0.000000
# 4 0.000000 0.000000 0.000000 0.045109 0.000000 0.000000
# 5 0.000000 0.000000 0.000000 0.000000 0.023635 0.000000
# 6 0.000000 0.000000 0.000000 0.000000 0.000000 0.044179
#
#
# Mechanical properties :
#
#
# Convention : Reuss Voigt Hill
#
# Bulk Modulus (GPa) = 58.54084 68.31029 63.42557
# Shear Modulus (GPa) = 27.68026 30.88739 29.28383
#
# Velocity S-wave (km/s) = 3.77894 3.99187 3.88686
# Velocity P-wave (km/s) = 7.01727 7.51587 7.27085
#
# Compressibility (1/GPa) = 0.01708209
#
# Stress axis : x y z
#
# Youngs Moduli (GPa) = 77.77780 58.07026 105.57716
#
# Poissons Ratio (x) = 0.13682 0.25725
# Poissons Ratio (y) = 0.18326 0.68001
# Poissons Ratio (z) = 0.18951 0.37402
#
# Static dielectric constant tensor:
#      x y z
#    x 3.189380 0.000000 0.000000 
#    y 0.000000 3.648640 0.000000 
#    z 0.000000 0.000000 3.658620 
# 
# 
# High freq. dielectric constant tensor:
#      x y z
#    x 1.759490 0.000000 0.000000 
#    y 0.000000 1.744350 0.000000 
#    z 0.000000 0.000000 1.766180 
# 
# From -- ./inp_files/34135.got.cif
#   From: 2010.03.12/outbox.cif.g09.slc.cpg/sg53_18_cif.got.tgz:34135.got - 2010.04.16 14:36:59.
