data_PCOD8221857
_publ_section_title
;
Structure prediction by ZEFSAII (Michael W. Deem and Ramdas Pophale) SiO2 
 PCOD8221857
Probable space group: P M N A
;
_chemical_formula_sum "Si O2"
_cell_formula_units_Z 56
_cell_length_a 16.666281
_cell_length_b 22.488206
_cell_length_c 7.748393
_cell_angle_alpha 90.000000
_cell_angle_beta 90.000000
_cell_angle_gamma 90.000000
_cell_volume 2904.057098
_symmetry_space_group_name_H-M "P M N A"
_symmetry_group_IT_number 53
_symmetry_cell_setting 'orthorhombic'
loop_
_space_group_symop_operation_xyz
x,y,z
1/2-x,-y,1/2+z
x,-y,-z
1/2-x,y,1/2-z
-x,-y,-z
1/2+x,y,1/2-z
-x,y,z
1/2+x,-y,1/2+z
loop_
_atom_site_type_symbol
_atom_site_label
_atom_site_fract_x
_atom_site_fract_y
_atom_site_fract_z
Si Si1 0.593737 0.356874 0.010100
Si Si2 0.843506 0.438987 0.790756
Si Si3 0.094595 0.569035 0.840812
Si Si4 0.769156 0.847529 0.937061
Si Si5 0.820298 0.749293 0.354993
Si Si6 0.316775 0.053787 0.888451
Si Si7 0.407420 0.848939 0.328335
O O1 0.500000 0.343870 0.015046
O O2 0.612383 0.397600 0.845999
O O3 0.640014 0.294606 0.992888
O O4 0.621715 0.386398 0.189407
O O5 0.750000 0.443655 0.750000
O O6 0.883385 0.503462 0.776589
O O7 0.857739 0.413596 0.984424
O O8 0.000000 0.572475 0.877683
O O9 0.750000 0.822313 0.750000
O O10 0.731473 0.801964 0.068518
O O11 0.727730 0.910749 0.960051
O O12 0.862995 0.853655 0.986078
O O13 0.750000 0.713072 0.250000
O O14 0.890365 0.782896 0.248642
O O15 0.250000 0.032031 0.750000
O O16 0.382067 0.096268 0.796680
O O17 0.356676 0.000000 0.000000
O O18 0.500000 0.855366 0.368248
#
# Coordination Sequence:
#
# PCOD8221857 Si02
#       7
#     8   8   8   8   8   8   8
#     4  11  22  38  60  83 113 150 187 231 288 341
#     4  11  23  38  60  85 114 147 186 232 284 343
#     4  10  23  41  60  84 116 148 186 232 286 349
#     4   9  18  35  56  78 107 149 191 229 273 334
#     4   9  19  38  56  81 110 146 190 231 281 337
#     4   9  17  30  54  81 110 149 193 230 275 331
#     4   9  18  34  56  81 115 150 184 233 289 335
#
# _framework density 19.283367999999999
#
# number of rings (size 3 to 8) (size 9 to 14) (size 15 to 20)
#    0.000    2.286    0.000    5.143    4.000    1.429 
#    7.714    3.571    0.000   14.571    0.000    0.000 
#    0.000    0.000    0.000    0.000    0.000    0.000 
#
# Total GULP energy -694006.914025 kJ/mol
# GULP energy per Si atom -12392.980608 kJ/mol
# Density = 1.923948 g / cm^3
# Si number density = 19.283368 Si / 1000 Ang^3
#
#
#
# Elastic Constant Matrix: (Units=GPa)
#
#
# Indices 1 2 3 4 5 6 
#
# 1 108.3834 32.9079 45.4448 0.0000 0.0000 0.0000
# 2 32.9079 78.7313 40.5455 0.0000 0.0000 0.0000
# 3 45.4448 40.5455 108.9583 0.0000 0.0000 0.0000
# 4 0.0000 0.0000 0.0000 24.8682 0.0000 0.0000
# 5 0.0000 0.0000 0.0000 0.0000 26.0832 0.0000
# 6 0.0000 0.0000 0.0000 0.0000 0.0000 2.8300
#
#
#
# Elastic Compliance Matrix: (Units=1/GPa)
#
#
# Indices 1 2 3 4 5 6 
#
# 1 0.011708 -0.002943 -0.003788 0.000000 0.000000 0.000000
# 2 -0.002943 0.016452 -0.004895 0.000000 0.000000 0.000000
# 3 -0.003788 -0.004895 0.012579 0.000000 0.000000 0.000000
# 4 0.000000 0.000000 0.000000 0.040212 0.000000 0.000000
# 5 0.000000 0.000000 0.000000 0.000000 0.038339 0.000000
# 6 0.000000 0.000000 0.000000 0.000000 0.000000 0.353354
#
#
# Mechanical properties :
#
#
# Convention : Reuss Voigt Hill
#
# Bulk Modulus (GPa) = 57.18197 59.31882 58.25040
# Shear Modulus (GPa) = 9.96559 22.56794 16.26676
#
# Velocity S-wave (km/s) = 2.27578 3.42472 2.90757
# Velocity P-wave (km/s) = 6.05173 6.81665 6.44555
#
# Compressibility (1/GPa) = 0.01748803
#
# Stress axis : x y z
#
# Youngs Moduli (GPa) = 85.40818 60.78200 79.49577
#
# Poissons Ratio (x) = 0.17888 0.30115
# Poissons Ratio (y) = 0.25135 0.38911
# Poissons Ratio (z) = 0.32355 0.29751
#
# Static dielectric constant tensor:
#      x y z
#    x 3.533300 0.000000 0.000000 
#    y 0.000000 3.480390 0.000000 
#    z 0.000000 0.000000 2.091970 
# 
# 
# High freq. dielectric constant tensor:
#      x y z
#    x 1.745390 0.000000 0.000000 
#    y 0.000000 1.748480 0.000000 
#    z 0.000000 0.000000 1.749480 
# 
# From -- ./inp_files/8827.got.cif
#   From: 2010.03.12/outbox.cif.g09.slc.cpg/sg53_5_cif.got.tgz:8827.got - 2010.04.16 14:36:59.
