data_PCOD8221337
_publ_section_title
;
Structure prediction by ZEFSAII (Michael W. Deem and Ramdas Pophale) SiO2 
 PCOD8221337
Probable space group: P M N A
;
_chemical_formula_sum "Si O2"
_cell_formula_units_Z 32
_cell_length_a 10.489484
_cell_length_b 7.314030
_cell_length_c 17.925517
_cell_angle_alpha 90.000000
_cell_angle_beta 90.000000
_cell_angle_gamma 90.000000
_cell_volume 1375.252846
_symmetry_space_group_name_H-M "P M N A"
_symmetry_group_IT_number 53
_symmetry_cell_setting 'orthorhombic'
loop_
_space_group_symop_operation_xyz
x,y,z
1/2-x,-y,1/2+z
x,-y,-z
1/2-x,y,1/2-z
-x,-y,-z
1/2+x,y,1/2-z
-x,y,z
1/2+x,-y,1/2+z
loop_
_atom_site_type_symbol
_atom_site_label
_atom_site_fract_x
_atom_site_fract_y
_atom_site_fract_z
Si Si1 0.143817 0.782170 0.932770
Si Si2 0.637604 0.309986 0.959928
Si Si3 0.714099 0.444911 0.669335
Si Si4 0.638297 0.057049 0.693714
O O1 0.153057 0.599469 0.882536
O O2 0.173006 0.960652 0.884112
O O3 0.000000 0.787353 0.966132
O O4 0.244954 0.794024 0.000169
O O5 0.500000 0.205050 0.964905
O O6 0.665730 0.350552 0.872802
O O7 0.620879 0.500000 0.000000
O O8 0.750000 0.531508 0.750000
O O9 0.620307 0.274622 0.683504
O O10 0.750000 0.003431 0.750000
O O11 0.500000 0.982424 0.721843
#
# Coordination Sequence:
#
# PCOD8221337 Si02
#       4
#     8   8   8   8
#     4  10  21  38  60  84 113 151 191 233 282 334
#     4   9  20  38  59  85 116 150 190 234 281 337
#     4  10  21  37  60  86 114 148 187 234 285 336
#     4  10  22  38  57  86 118 149 191 237 281 336
#
# _framework density 23.268450000000001
#
# number of rings (size 3 to 8) (size 9 to 14) (size 15 to 20)
#    0.000    2.250    0.000    1.500    0.000   12.500 
#    0.000    8.750    0.000    0.000    0.000    0.000 
#    0.000    0.000    0.000    0.000    0.000    0.000 
#
# Total GULP energy -396468.636152 kJ/mol
# GULP energy per Si atom -12389.644880 kJ/mol
# Density = 2.321549 g / cm^3
# Si number density = 23.268450 Si / 1000 Ang^3
#
#
#
# Elastic Constant Matrix: (Units=GPa)
#
#
# Indices 1 2 3 4 5 6 
#
# 1 178.0028 1.4707 74.9923 0.0000 0.0000 0.0000
# 2 1.4707 54.5587 8.4738 0.0000 0.0000 0.0000
# 3 74.9923 8.4738 127.7541 0.0000 0.0000 0.0000
# 4 0.0000 0.0000 0.0000 31.2115 0.0000 0.0000
# 5 0.0000 0.0000 0.0000 0.0000 369.2718 0.0000
# 6 0.0000 0.0000 0.0000 0.0000 0.0000 -3.7589
#
#
#
# Elastic Compliance Matrix: (Units=1/GPa)
#
#
# Indices 1 2 3 4 5 6 
#
# 1 0.007476 0.000485 -0.004421 0.000000 0.000000 0.000000
# 2 0.000485 0.018551 -0.001515 0.000000 0.000000 0.000000
# 3 -0.004421 -0.001515 0.010523 0.000000 0.000000 0.000000
# 4 0.000000 0.000000 0.000000 0.032039 0.000000 0.000000
# 5 0.000000 0.000000 0.000000 0.000000 0.002708 0.000000
# 6 0.000000 0.000000 0.000000 0.000000 0.000000 -0.266036
#
#
# Mechanical properties :
#
#
# Convention : Reuss Voigt Hill
#
# Bulk Modulus (GPa) = 38.98842 58.90992 48.94917
# Shear Modulus (GPa) = -28.52478 97.70346 34.58934
#
# Velocity S-wave (km/s) = -3.50508 6.48697 3.85974
# Velocity P-wave (km/s) = 0.64147 9.02664 6.39890
#
# Compressibility (1/GPa) = 0.02564864
#
# Stress axis : x y z
#
# Youngs Moduli (GPa) = 133.75455 53.90507 95.02899
#
# Poissons Ratio (x) = -0.02615 0.42011
# Poissons Ratio (y) = -0.06488 0.14399
# Poissons Ratio (z) = 0.59131 0.08168
#
# Static dielectric constant tensor:
#      x y z
#    x 4.500710 0.000000 0.000000 
#    y 0.000000 4.100330 0.000000 
#    z 0.000000 0.000000 4.200710 
# 
# 
# High freq. dielectric constant tensor:
#      x y z
#    x 1.922580 0.000000 0.000000 
#    y 0.000000 1.912530 0.000000 
#    z 0.000000 0.000000 1.917340 
# 
# From -- ./inp_files/21361.got.cif
#   From: 2010.03.12/outbox.cif.g09.slc.cpg/sg53_11_cif.got.tgz:21361.got - 2010.04.16 14:36:59.
