data_PCOD8221996
_publ_section_title
;
Structure prediction by ZEFSAII (Michael W. Deem and Ramdas Pophale) SiO2 
 PCOD8221996
Probable space group: P M N A
;
_chemical_formula_sum "Si O2"
_cell_formula_units_Z 56
_cell_length_a 18.348323
_cell_length_b 8.890430
_cell_length_c 20.223377
_cell_angle_alpha 90.000000
_cell_angle_beta 90.000000
_cell_angle_gamma 90.000000
_cell_volume 3298.927882
_symmetry_space_group_name_H-M "P M N A"
_symmetry_group_IT_number 53
_symmetry_cell_setting 'orthorhombic'
loop_
_space_group_symop_operation_xyz
x,y,z
1/2-x,-y,1/2+z
x,-y,-z
1/2-x,y,1/2-z
-x,-y,-z
1/2+x,y,1/2-z
-x,y,z
1/2+x,-y,1/2+z
loop_
_atom_site_type_symbol
_atom_site_label
_atom_site_fract_x
_atom_site_fract_y
_atom_site_fract_z
Si Si1 0.142932 0.180759 0.630555
Si Si2 0.917887 0.321958 0.758865
Si Si3 0.845388 0.828766 0.620980
Si Si4 0.415748 0.673756 0.001078
Si Si5 0.784237 0.677566 0.822046
Si Si6 0.917474 0.672334 0.745008
Si Si7 0.278195 0.654445 0.324639
O O1 0.100697 0.213137 0.698280
O O2 0.098497 0.262543 0.573510
O O3 0.227087 0.237495 0.631830
O O4 0.141680 0.004626 0.618734
O O5 0.907698 0.493625 0.733952
O O6 0.862497 0.288598 0.820086
O O7 0.000000 0.291524 0.783606
O O8 0.866344 0.762697 0.550468
O O9 0.759145 0.797294 0.633296
O O10 0.894122 0.752471 0.677494
O O11 0.500000 0.696156 0.982050
O O12 0.393677 0.500000 0.000000
O O13 0.750000 0.670528 0.750000
O O14 0.868720 0.723772 0.808604
O O15 0.776735 0.513139 0.855753
O O16 0.000000 0.716554 0.761888
O O17 0.250000 0.651539 0.250000
#
# Coordination Sequence:
#
# PCOD8221996 Si02
#       7
#     8   8   8   8   8   8   8
#     4  11  21  31  45  67  95 123 152 188 228 270
#     4   9  17  30  48  69  93 122 155 189 225 266
#     4  11  21  31  45  67  95 123 152 188 228 270
#     4  11  23  37  51  65  86 121 160 191 221 264
#     4   8  15  29  47  65  88 120 155 187 221 266
#     4   9  17  30  48  69  93 122 155 189 225 266
#     4   8  15  29  47  65  88 120 155 187 221 266
#
# _framework density 16.975211000000002
#
# number of rings (size 3 to 8) (size 9 to 14) (size 15 to 20)
#    0.000    2.429    0.000    5.571    0.000   10.286 
#    0.000    0.000    0.000    0.000    0.000    1.000 
#    0.000    8.000    0.000    0.000    0.000    0.000 
#
# Total GULP energy -694149.838355 kJ/mol
# GULP energy per Si atom -12395.532828 kJ/mol
# Density = 1.693657 g / cm^3
# Si number density = 16.975211 Si / 1000 Ang^3
#
#
#
# Elastic Constant Matrix: (Units=GPa)
#
#
# Indices 1 2 3 4 5 6 
#
# 1 107.6761 19.8357 10.2153 0.0000 0.0000 0.0000
# 2 19.8357 83.5231 15.6194 0.0000 0.0000 0.0000
# 3 10.2153 15.6194 25.7356 0.0000 0.0000 0.0000
# 4 0.0000 0.0000 0.0000 10.4068 0.0000 0.0000
# 5 0.0000 0.0000 0.0000 0.0000 23.4921 0.0000
# 6 0.0000 0.0000 0.0000 0.0000 0.0000 10.1011
#
#
#
# Elastic Compliance Matrix: (Units=1/GPa)
#
#
# Indices 1 2 3 4 5 6 
#
# 1 0.009890 -0.001821 -0.002820 0.000000 0.000000 0.000000
# 2 -0.001821 0.013841 -0.007677 0.000000 0.000000 0.000000
# 3 -0.002820 -0.007677 0.044636 0.000000 0.000000 0.000000
# 4 0.000000 0.000000 0.000000 0.096091 0.000000 0.000000
# 5 0.000000 0.000000 0.000000 0.000000 0.042567 0.000000
# 6 0.000000 0.000000 0.000000 0.000000 0.000000 0.099000
#
#
# Mechanical properties :
#
#
# Convention : Reuss Voigt Hill
#
# Bulk Modulus (GPa) = 22.86827 34.25286 28.56056
# Shear Modulus (GPa) = 14.48272 20.21763 17.35018
#
# Velocity S-wave (km/s) = 2.92407 3.45484 3.20048
# Velocity P-wave (km/s) = 4.99010 6.01137 5.52438
#
# Compressibility (1/GPa) = 0.04372872
#
# Stress axis : x y z
#
# Youngs Moduli (GPa) = 101.11009 72.24900 22.40358
#
# Poissons Ratio (x) = 0.13159 0.06319
# Poissons Ratio (y) = 0.18416 0.17200
# Poissons Ratio (z) = 0.28516 0.55468
#
# Static dielectric constant tensor:
#      x y z
#    x 3.878220 0.000000 0.000000 
#    y 0.000000 3.140090 0.000000 
#    z 0.000000 0.000000 2.830900 
# 
# 
# High freq. dielectric constant tensor:
#      x y z
#    x 1.665660 0.000000 0.000000 
#    y 0.000000 1.652490 0.000000 
#    z 0.000000 0.000000 1.604630 
# 
# From -- ./inp_files/29329.got.cif
#   From: 2010.03.12/outbox.cif.g09.slc.cpg/sg53_15_cif.got.tgz:29329.got - 2010.04.16 14:36:59.
