data_PCOD8221878
_publ_section_title
;
Structure prediction by ZEFSAII (Michael W. Deem and Ramdas Pophale) SiO2 
 PCOD8221878
Probable space group: P M N A
;
_chemical_formula_sum "Si O2"
_cell_formula_units_Z 48
_cell_length_a 13.331501
_cell_length_b 9.196816
_cell_length_c 19.027963
_cell_angle_alpha 90.000000
_cell_angle_beta 90.000000
_cell_angle_gamma 90.000000
_cell_volume 2332.968342
_symmetry_space_group_name_H-M "P M N A"
_symmetry_group_IT_number 53
_symmetry_cell_setting 'orthorhombic'
loop_
_space_group_symop_operation_xyz
x,y,z
1/2-x,-y,1/2+z
x,-y,-z
1/2-x,y,1/2-z
-x,-y,-z
1/2+x,y,1/2-z
-x,y,z
1/2+x,-y,1/2+z
loop_
_atom_site_type_symbol
_atom_site_label
_atom_site_fract_x
_atom_site_fract_y
_atom_site_fract_z
Si Si1 0.885581 0.493083 0.211057
Si Si2 0.116422 0.825295 0.178262
Si Si3 0.278462 0.901973 0.068365
Si Si4 0.117222 0.960614 0.696194
Si Si5 0.887155 0.668454 0.514158
Si Si6 0.802968 0.664039 0.666183
O O1 0.857242 0.659701 0.197187
O O2 0.813563 0.385603 0.166311
O O3 0.867233 0.461584 0.294108
O O4 0.000000 0.459782 0.189685
O O5 0.174448 0.876027 0.108757
O O6 0.149015 0.924430 0.244020
O O7 0.000000 0.843934 0.160987
O O8 0.359350 0.975266 0.119383
O O9 0.322829 0.746865 0.045479
O O10 0.258414 0.000000 0.000000
O O11 0.000000 0.923745 0.700173
O O12 0.180264 0.813579 0.709141
O O13 0.885815 0.500000 0.500000
O O14 0.838218 0.697100 0.588787
O O15 0.000000 0.730622 0.514234
#
# Coordination Sequence:
#
# PCOD8221878 Si02
#       6
#     8   8   8   8   8   8
#     4  10  23  42  66  95 128 170 221 274 324 385
#     4  10  25  46  68  95 129 175 232 279 327 394
#     4  12  25  41  66  96 132 179 215 271 337 403
#     4  11  24  42  67  98 132 171 222 279 334 393
#     4  11  24  40  61  93 133 170 213 265 329 398
#     4  11  23  39  63  97 130 170 209 270 330 396
#
# _framework density 20.574648
#
# number of rings (size 3 to 8) (size 9 to 14) (size 15 to 20)
#    0.000    1.167    1.667    3.500   11.667    1.000 
#    0.000    0.833    0.000    3.000    0.000    0.000 
#    0.000    0.000    0.000    0.000    0.000    0.000 
#
# Total GULP energy -595242.319374 kJ/mol
# GULP energy per Si atom -12400.881654 kJ/mol
# Density = 2.052782 g / cm^3
# Si number density = 20.574648 Si / 1000 Ang^3
#
#
#
# Elastic Constant Matrix: (Units=GPa)
#
#
# Indices 1 2 3 4 5 6 
#
# 1 121.7727 83.8294 59.8125 0.0000 0.0000 0.0000
# 2 83.8294 124.8229 54.9431 0.0000 0.0000 0.0000
# 3 59.8125 54.9431 132.2490 0.0000 0.0000 0.0000
# 4 0.0000 0.0000 0.0000 38.0899 0.0000 0.0000
# 5 0.0000 0.0000 0.0000 0.0000 31.3820 0.0000
# 6 0.0000 0.0000 0.0000 0.0000 0.0000 32.4404
#
#
#
# Elastic Compliance Matrix: (Units=1/GPa)
#
#
# Indices 1 2 3 4 5 6 
#
# 1 0.016497 -0.009540 -0.003498 0.000000 0.000000 0.000000
# 2 -0.009540 0.015321 -0.002050 0.000000 0.000000 0.000000
# 3 -0.003498 -0.002050 0.009995 0.000000 0.000000 0.000000
# 4 0.000000 0.000000 0.000000 0.026254 0.000000 0.000000
# 5 0.000000 0.000000 0.000000 0.000000 0.031865 0.000000
# 6 0.000000 0.000000 0.000000 0.000000 0.000000 0.030826
#
#
# Mechanical properties :
#
#
# Convention : Reuss Voigt Hill
#
# Bulk Modulus (GPa) = 85.93210 86.22384 86.07797
# Shear Modulus (GPa) = 30.33728 32.39977 31.36853
#
# Velocity S-wave (km/s) = 3.84409 3.97261 3.90887
# Velocity P-wave (km/s) = 7.84598 7.93983 7.89304
#
# Compressibility (1/GPa) = 0.01163709
#
# Stress axis : x y z
#
# Youngs Moduli (GPa) = 60.61552 65.27135 100.04592
#
# Poissons Ratio (x) = 0.62267 0.34996
# Poissons Ratio (y) = 0.57826 0.20514
# Poissons Ratio (z) = 0.21203 0.13384
#
# Static dielectric constant tensor:
#      x y z
#    x 3.778860 0.000000 0.000000 
#    y 0.000000 3.999220 0.000000 
#    z 0.000000 0.000000 3.933430 
# 
# 
# High freq. dielectric constant tensor:
#      x y z
#    x 1.813180 0.000000 0.000000 
#    y 0.000000 1.822960 0.000000 
#    z 0.000000 0.000000 1.797510 
# 
# From -- ./inp_files/28291.got.cif
#   From: 2010.03.12/outbox.cif.g09.slc.cpg/sg53_15_cif.got.tgz:28291.got - 2010.04.16 14:36:59.
