data_PCOD8221927
_publ_section_title
;
Structure prediction by ZEFSAII (Michael W. Deem and Ramdas Pophale) SiO2 
 PCOD8221927
Probable space group: P M N A
;
_chemical_formula_sum "Si O2"
_cell_formula_units_Z 64
_cell_length_a 18.118511
_cell_length_b 15.220372
_cell_length_c 11.642907
_cell_angle_alpha 90.000000
_cell_angle_beta 90.000000
_cell_angle_gamma 90.000000
_cell_volume 3210.770023
_symmetry_space_group_name_H-M "P M N A"
_symmetry_group_IT_number 53
_symmetry_cell_setting 'orthorhombic'
loop_
_space_group_symop_operation_xyz
x,y,z
1/2-x,-y,1/2+z
x,-y,-z
1/2-x,y,1/2-z
-x,-y,-z
1/2+x,y,1/2-z
-x,y,z
1/2+x,-y,1/2+z
loop_
_atom_site_type_symbol
_atom_site_label
_atom_site_fract_x
_atom_site_fract_y
_atom_site_fract_z
Si Si1 0.836780 0.239815 0.421770
Si Si2 0.414124 0.639074 0.515493
Si Si3 0.162735 0.901927 0.755005
Si Si4 0.170462 0.192624 0.017099
Si Si5 0.085395 0.572838 0.229300
Si Si6 0.333236 0.903960 0.288741
Si Si7 0.586886 0.249751 0.841315
Si Si8 0.664711 0.597786 0.751485
O O1 0.863021 0.150090 0.358640
O O2 0.752068 0.233528 0.463678
O O3 0.891388 0.253654 0.526288
O O4 0.849343 0.320839 0.335366
O O5 0.500000 0.642247 0.551346
O O6 0.386399 0.733938 0.471613
O O7 0.403071 0.571104 0.409506
O O8 0.364130 0.616843 0.624034
O O9 0.250000 0.908605 0.750000
O O10 0.138199 0.846532 0.865483
O O11 0.130667 0.000553 0.762560
O O12 0.168733 0.114779 0.924462
O O13 0.118483 0.662690 0.280738
O O14 0.124546 0.491172 0.292331
O O15 0.000000 0.565409 0.260013
O O16 0.250000 0.898478 0.250000
O O17 0.380174 0.835163 0.218079
O O18 0.500000 0.244776 0.828015
O O19 0.750000 0.575431 0.750000
#
# Coordination Sequence:
#
# PCOD8221927 Si02
#       8
#     8   8   8   8   8   8   8   8
#     4  11  22  41  62  89 133 165 205 257 308 376
#     4  11  22  40  67  92 122 165 207 260 324 375
#     4   9  20  37  61  95 126 159 204 257 313 376
#     4  11  19  38  66  93 124 158 210 260 312 366
#     4  10  24  44  63  88 123 164 214 262 316 381
#     4  11  21  37  67  94 121 164 209 257 313 369
#     4  11  25  43  62  88 126 172 210 254 313 380
#     4  12  23  40  65  96 124 160 205 264 314 366
#
# _framework density 19.932912999999999
#
# number of rings (size 3 to 8) (size 9 to 14) (size 15 to 20)
#    0.000    1.250    5.000    1.500    0.000    4.500 
#    2.250    3.125    0.000    1.500    0.000    0.000 
#    0.000    0.000    0.000    0.000    0.000    0.000 
#
# Total GULP energy -793579.036856 kJ/mol
# GULP energy per Si atom -12399.672451 kJ/mol
# Density = 1.988754 g / cm^3
# Si number density = 19.932913 Si / 1000 Ang^3
#
#
#
# Elastic Constant Matrix: (Units=GPa)
#
#
# Indices 1 2 3 4 5 6 
#
# 1 64.0429 39.2274 25.1619 0.0000 0.0000 0.0000
# 2 39.2274 138.8050 35.8454 0.0000 0.0000 0.0000
# 3 25.1619 35.8454 93.9614 0.0000 0.0000 0.0000
# 4 0.0000 0.0000 0.0000 29.7887 0.0000 0.0000
# 5 0.0000 0.0000 0.0000 0.0000 29.9087 0.0000
# 6 0.0000 0.0000 0.0000 0.0000 0.0000 12.9632
#
#
#
# Elastic Compliance Matrix: (Units=1/GPa)
#
#
# Indices 1 2 3 4 5 6 
#
# 1 0.019885 -0.004708 -0.003529 0.000000 0.000000 0.000000
# 2 -0.004708 0.009107 -0.002213 0.000000 0.000000 0.000000
# 3 -0.003529 -0.002213 0.012432 0.000000 0.000000 0.000000
# 4 0.000000 0.000000 0.000000 0.033570 0.000000 0.000000
# 5 0.000000 0.000000 0.000000 0.000000 0.033435 0.000000
# 6 0.000000 0.000000 0.000000 0.000000 0.000000 0.077142
#
#
# Mechanical properties :
#
#
# Convention : Reuss Voigt Hill
#
# Bulk Modulus (GPa) = 48.72652 55.25320 51.98986
# Shear Modulus (GPa) = 23.43991 27.63708 25.53850
#
# Velocity S-wave (km/s) = 3.43292 3.72762 3.58330
# Velocity P-wave (km/s) = 6.34126 6.80490 6.57716
#
# Compressibility (1/GPa) = 0.02052270
#
# Stress axis : x y z
#
# Youngs Moduli (GPa) = 50.28940 109.81157 80.43780
#
# Poissons Ratio (x) = 0.51703 0.28385
# Poissons Ratio (y) = 0.23678 0.17803
# Poissons Ratio (z) = 0.17746 0.24304
#
# Static dielectric constant tensor:
#      x y z
#    x 3.489020 0.000000 0.000000 
#    y 0.000000 4.122600 0.000000 
#    z 0.000000 0.000000 3.728870 
# 
# 
# High freq. dielectric constant tensor:
#      x y z
#    x 1.755300 0.000000 0.000000 
#    y 0.000000 1.795200 0.000000 
#    z 0.000000 0.000000 1.784740 
# 
# From -- ./inp_files/17094.got.cif
#   From: 2010.03.12/outbox.cif.g09.slc.cpg/sg53_9_cif.got.tgz:17094.got - 2010.04.16 14:36:59.
