data_PCOD8221869
_publ_section_title
;
Structure prediction by ZEFSAII (Michael W. Deem and Ramdas Pophale) SiO2 
 PCOD8221869
Probable space group: P M N A
;
_chemical_formula_sum "Si O2"
_cell_formula_units_Z 48
_cell_length_a 16.923236
_cell_length_b 15.508657
_cell_length_c 8.599667
_cell_angle_alpha 90.000000
_cell_angle_beta 90.000000
_cell_angle_gamma 90.000000
_cell_volume 2257.039899
_symmetry_space_group_name_H-M "P M N A"
_symmetry_group_IT_number 53
_symmetry_cell_setting 'orthorhombic'
loop_
_space_group_symop_operation_xyz
x,y,z
1/2-x,-y,1/2+z
x,-y,-z
1/2-x,y,1/2-z
-x,-y,-z
1/2+x,y,1/2-z
-x,y,z
1/2+x,-y,1/2+z
loop_
_atom_site_type_symbol
_atom_site_label
_atom_site_fract_x
_atom_site_fract_y
_atom_site_fract_z
Si Si1 0.091182 0.658594 0.328869
Si Si2 0.337868 0.176186 0.683224
Si Si3 0.838112 0.001092 0.684283
Si Si4 0.407728 0.331518 0.174489
Si Si5 0.408480 0.157835 0.354672
Si Si6 0.165257 0.496223 0.182743
O O1 0.120360 0.734403 0.218784
O O2 0.129007 0.664592 0.500804
O O3 0.105200 0.566304 0.251173
O O4 0.000000 0.673200 0.351775
O O5 0.250000 0.183401 0.750000
O O6 0.346943 0.161641 0.498067
O O7 0.376569 0.092465 0.764515
O O8 0.750000 0.990661 0.750000
O O9 0.893578 0.926907 0.752728
O O10 0.836288 0.000000 0.500000
O O11 0.500000 0.354987 0.178424
O O12 0.390476 0.238076 0.243530
O O13 0.361027 0.400749 0.274783
O O14 0.500000 0.158593 0.411847
O O15 0.250000 0.520023 0.250000
O O16 0.167350 0.500000 0.000000
#
# Coordination Sequence:
#
# PCOD8221869 Si02
#       6
#     8   8   8   8   8   8
#     4  11  23  41  65  92 125 162 203 254 310 370
#     4  11  23  40  62  92 127 165 211 259 312 372
#     4  11  23  41  64  92 128 169 214 263 318 378
#     4  10  23  42  62  89 124 161 201 250 310 368
#     4  11  24  42  66  96 129 167 213 264 317 376
#     4  12  25  41  63  91 122 159 205 253 305 367
#
# _framework density 21.266793
#
# number of rings (size 3 to 8) (size 9 to 14) (size 15 to 20)
#    0.000    1.000    0.000    7.500    0.000    8.333 
#    0.000    0.000    0.000    0.000    0.000    0.000 
#    0.000    0.000    0.000    0.000    0.000    0.000 
#
# Total GULP energy -595332.597055 kJ/mol
# GULP energy per Si atom -12402.762439 kJ/mol
# Density = 2.121839 g / cm^3
# Si number density = 21.266793 Si / 1000 Ang^3
#
#
#
# Elastic Constant Matrix: (Units=GPa)
#
#
# Indices 1 2 3 4 5 6 
#
# 1 56.2641 20.6093 30.4447 0.0000 0.0000 0.0000
# 2 20.6093 111.0026 8.0074 0.0000 0.0000 0.0000
# 3 30.4447 8.0074 143.3014 0.0000 0.0000 0.0000
# 4 0.0000 0.0000 0.0000 -40.4300 0.0000 0.0000
# 5 0.0000 0.0000 0.0000 0.0000 27.9616 0.0000
# 6 0.0000 0.0000 0.0000 0.0000 0.0000 28.1965
#
#
#
# Elastic Compliance Matrix: (Units=1/GPa)
#
#
# Indices 1 2 3 4 5 6 
#
# 1 0.021477 -0.003673 -0.004358 0.000000 0.000000 0.000000
# 2 -0.003673 0.009673 0.000240 0.000000 0.000000 0.000000
# 3 -0.004358 0.000240 0.007891 0.000000 0.000000 0.000000
# 4 0.000000 0.000000 0.000000 -0.024734 0.000000 0.000000
# 5 0.000000 0.000000 0.000000 0.000000 0.035763 0.000000
# 6 0.000000 0.000000 0.000000 0.000000 0.000000 0.035465
#
#
# Mechanical properties :
#
#
# Convention : Reuss Voigt Hill
#
# Bulk Modulus (GPa) = 42.62730 47.63233 45.12982
# Shear Modulus (GPa) = 45.89819 19.91272 32.90546
#
# Velocity S-wave (km/s) = 4.65069 3.06327 3.93780
# Velocity P-wave (km/s) = 6.99472 5.91250 6.47626
#
# Compressibility (1/GPa) = 0.02345914
#
# Stress axis : x y z
#
# Youngs Moduli (GPa) = 46.56225 103.37559 126.73207
#
# Poissons Ratio (x) = 0.37971 0.55224
# Poissons Ratio (y) = 0.17103 -0.03039
# Poissons Ratio (z) = 0.20290 -0.02479
#
# Static dielectric constant tensor:
#      x y z
#    x 3.810950 0.000000 0.000000 
#    y 0.000000 4.169970 0.000000 
#    z 0.000000 0.000000 3.945990 
# 
# 
# High freq. dielectric constant tensor:
#      x y z
#    x 1.824150 0.000000 0.000000 
#    y 0.000000 1.856580 0.000000 
#    z 0.000000 0.000000 1.851480 
# 
# From -- ./inp_files/10020.got.cif
#   From: 2010.03.12/outbox.cif.g09.slc.cpg/sg53_6_cif.got.tgz:10020.got - 2010.04.16 14:36:59.
