data_PCOD8221520
_publ_section_title
;
Structure prediction by ZEFSAII (Michael W. Deem and Ramdas Pophale) SiO2 
 PCOD8221520
Probable space group: P M N A
;
_chemical_formula_sum "Si O2"
_cell_formula_units_Z 40
_cell_length_a 18.562584
_cell_length_b 10.300460
_cell_length_c 9.718396
_cell_angle_alpha 90.000000
_cell_angle_beta 90.000000
_cell_angle_gamma 90.000000
_cell_volume 1858.187967
_symmetry_space_group_name_H-M "P M N A"
_symmetry_group_IT_number 53
_symmetry_cell_setting 'orthorhombic'
loop_
_space_group_symop_operation_xyz
x,y,z
1/2-x,-y,1/2+z
x,-y,-z
1/2-x,y,1/2-z
-x,-y,-z
1/2+x,y,1/2-z
-x,y,z
1/2+x,-y,1/2+z
loop_
_atom_site_type_symbol
_atom_site_label
_atom_site_fract_x
_atom_site_fract_y
_atom_site_fract_z
Si Si1 0.226533 0.387904 0.595590
Si Si2 0.181667 0.151136 0.974740
Si Si3 0.082168 0.810438 0.774398
Si Si4 0.420224 0.101791 0.768795
Si Si5 0.919456 0.306532 0.509293
O O1 0.261639 0.500000 0.500000
O O2 0.250000 0.416487 0.750000
O O3 0.249077 0.243326 0.544075
O O4 0.139582 0.398635 0.581170
O O5 0.135905 0.166408 0.835989
O O6 0.135569 0.211520 0.098956
O O7 0.203700 0.000000 0.000000
O O8 0.098257 0.708702 0.652651
O O9 0.000000 0.796557 0.826618
O O10 0.096923 0.951417 0.710848
O O11 0.500000 0.119911 0.704281
O O12 0.415317 0.166408 0.917863
O O13 0.000000 0.365658 0.529486
#
# Coordination Sequence:
#
# PCOD8221520 Si02
#       5
#     8   8   8   8   8
#     4  12  28  48  67  92 130 173 217 267 328 384
#     4  10  21  39  65  98 130 169 213 269 320 381
#     4   9  18  32  59  99 135 168 209 257 319 384
#     4   9  16  32  59  93 133 171 208 262 321 375
#     4  10  21  39  64  90 124 168 217 263 313 380
#
# _framework density 21.526347999999999
#
# number of rings (size 3 to 8) (size 9 to 14) (size 15 to 20)
#    0.000    2.000    2.000    1.200    2.800    6.800 
#    0.000    0.000    0.000    3.000    0.000    0.000 
#    0.000    0.000    0.000    0.000    0.000    0.000 
#
# Total GULP energy -495858.331868 kJ/mol
# GULP energy per Si atom -12396.458297 kJ/mol
# Density = 2.147735 g / cm^3
# Si number density = 21.526348 Si / 1000 Ang^3
#
#
#
# Elastic Constant Matrix: (Units=GPa)
#
#
# Indices 1 2 3 4 5 6 
#
# 1 111.8728 32.9122 52.4922 0.0000 0.0000 0.0000
# 2 32.9122 75.1101 35.9161 0.0000 0.0000 0.0000
# 3 52.4922 35.9161 127.7692 0.0000 0.0000 0.0000
# 4 0.0000 0.0000 0.0000 23.6927 0.0000 0.0000
# 5 0.0000 0.0000 0.0000 0.0000 27.6728 0.0000
# 6 0.0000 0.0000 0.0000 0.0000 0.0000 -0.6960
#
#
#
# Elastic Compliance Matrix: (Units=1/GPa)
#
#
# Indices 1 2 3 4 5 6 
#
# 1 0.011732 -0.003276 -0.003899 0.000000 0.000000 0.000000
# 2 -0.003276 0.016296 -0.003235 0.000000 0.000000 0.000000
# 3 -0.003899 -0.003235 0.010338 0.000000 0.000000 0.000000
# 4 0.000000 0.000000 0.000000 0.042207 0.000000 0.000000
# 5 0.000000 0.000000 0.000000 0.000000 0.036137 0.000000
# 6 0.000000 0.000000 0.000000 0.000000 0.000000 -1.436742
#
#
# Mechanical properties :
#
#
# Convention : Reuss Voigt Hill
#
# Bulk Modulus (GPa) = 56.99404 61.93258 59.46331
# Shear Modulus (GPa) = -3.86589 23.02935 9.58173
#
# Velocity S-wave (km/s) = -1.34156 3.27436 2.11207
# Velocity P-wave (km/s) = 4.91265 6.56721 5.79924
#
# Compressibility (1/GPa) = 0.01754569
#
# Stress axis : x y z
#
# Youngs Moduli (GPa) = 85.23653 61.36357 96.73279
#
# Poissons Ratio (x) = 0.20105 0.37716
# Poissons Ratio (y) = 0.27927 0.31292
# Poissons Ratio (z) = 0.33233 0.19850
#
# Static dielectric constant tensor:
#      x y z
#    x 3.951530 0.000000 0.000000 
#    y 0.000000 3.582450 0.000000 
#    z 0.000000 0.000000 3.904270 
# 
# 
# High freq. dielectric constant tensor:
#      x y z
#    x 1.846290 0.000000 0.000000 
#    y 0.000000 1.823160 0.000000 
#    z 0.000000 0.000000 1.847400 
# 
# From -- ./inp_files/9624.got.cif
#   From: 2010.03.12/outbox.cif.g09.slc.cpg/sg53_5_cif.got.tgz:9624.got - 2010.04.16 14:36:59.
