data_PCOD8221912
_publ_section_title
;
Structure prediction by ZEFSAII (Michael W. Deem and Ramdas Pophale) SiO2 
 PCOD8221912
Probable space group: P M N A
;
_chemical_formula_sum "Si O2"
_cell_formula_units_Z 48
_cell_length_a 18.239147
_cell_length_b 13.235664
_cell_length_c 9.608395
_cell_angle_alpha 90.000000
_cell_angle_beta 90.000000
_cell_angle_gamma 90.000000
_cell_volume 2319.535938
_symmetry_space_group_name_H-M "P M N A"
_symmetry_group_IT_number 53
_symmetry_cell_setting 'orthorhombic'
loop_
_space_group_symop_operation_xyz
x,y,z
1/2-x,-y,1/2+z
x,-y,-z
1/2-x,y,1/2-z
-x,-y,-z
1/2+x,y,1/2-z
-x,y,z
1/2+x,-y,1/2+z
loop_
_atom_site_type_symbol
_atom_site_label
_atom_site_fract_x
_atom_site_fract_y
_atom_site_fract_z
Si Si1 0.150323 0.292384 0.964601
Si Si2 0.915782 0.081053 0.880521
Si Si3 0.316500 0.939492 0.143979
Si Si4 0.414967 0.574901 0.244933
Si Si5 0.833174 0.367853 0.259306
Si Si6 0.683608 0.288251 0.946661
O O1 0.143702 0.297053 0.130732
O O2 0.132116 0.179755 0.914781
O O3 0.097508 0.376992 0.897675
O O4 0.232737 0.321513 0.918976
O O5 0.889348 0.033223 0.733307
O O6 0.000000 0.113232 0.868719
O O7 0.902543 0.000000 0.000000
O O8 0.250000 0.961430 0.250000
O O9 0.325620 0.824310 0.103574
O O10 0.308431 0.000000 0.000000
O O11 0.500000 0.578467 0.206291
O O12 0.388653 0.460469 0.235205
O O13 0.370485 0.640007 0.135319
O O14 0.750000 0.409909 0.250000
O O15 0.839540 0.295845 0.392524
#
# Coordination Sequence:
#
# PCOD8221912 Si02
#       6
#     8   8   8   8   8   8
#     4  11  22  42  68  94 129 171 222 272 325 386
#     4  11  25  45  67  97 137 179 218 270 335 396
#     4  12  25  42  72 102 133 170 223 273 325 397
#     4  12  24  41  64  93 134 177 220 267 328 392
#     4  10  24  40  65  96 128 169 221 276 326 383
#     4  11  23  42  65  97 131 169 213 273 329 387
#
# _framework density 20.693794
#
# number of rings (size 3 to 8) (size 9 to 14) (size 15 to 20)
#    0.000    0.833    3.333    3.500    2.333    7.000 
#    0.000    0.000    0.000    0.000    0.000    0.000 
#    0.000    0.000    0.000    0.000    0.000    0.000 
#
# Total GULP energy -595250.668996 kJ/mol
# GULP energy per Si atom -12401.055604 kJ/mol
# Density = 2.064669 g / cm^3
# Si number density = 20.693794 Si / 1000 Ang^3
#
#
#
# Elastic Constant Matrix: (Units=GPa)
#
#
# Indices 1 2 3 4 5 6 
#
# 1 128.3366 42.8286 70.6576 0.0000 0.0000 0.0000
# 2 42.8286 62.6363 47.8421 0.0000 0.0000 0.0000
# 3 70.6576 47.8421 164.6486 0.0000 0.0000 0.0000
# 4 0.0000 0.0000 0.0000 36.6473 0.0000 0.0000
# 5 0.0000 0.0000 0.0000 0.0000 19.1101 0.0000
# 6 0.0000 0.0000 0.0000 0.0000 0.0000 28.3344
#
#
#
# Elastic Compliance Matrix: (Units=1/GPa)
#
#
# Indices 1 2 3 4 5 6 
#
# 1 0.011388 -0.005210 -0.003373 0.000000 0.000000 0.000000
# 2 -0.005210 0.022903 -0.004419 0.000000 0.000000 0.000000
# 3 -0.003373 -0.004419 0.008805 0.000000 0.000000 0.000000
# 4 0.000000 0.000000 0.000000 0.027287 0.000000 0.000000
# 5 0.000000 0.000000 0.000000 0.000000 0.052328 0.000000
# 6 0.000000 0.000000 0.000000 0.000000 0.000000 0.035293
#
#
# Mechanical properties :
#
#
# Convention : Reuss Voigt Hill
#
# Bulk Modulus (GPa) = 58.50914 75.36422 66.93668
# Shear Modulus (GPa) = 26.35654 29.77124 28.06389
#
# Velocity S-wave (km/s) = 3.57269 3.79708 3.68659
# Velocity P-wave (km/s) = 6.73453 7.46469 7.10899
#
# Compressibility (1/GPa) = 0.01709135
#
# Stress axis : x y z
#
# Youngs Moduli (GPa) = 87.81275 43.66224 113.57058
#
# Poissons Ratio (x) = 0.22749 0.38308
# Poissons Ratio (y) = 0.45753 0.50187
# Poissons Ratio (z) = 0.29620 0.19294
#
# Static dielectric constant tensor:
#      x y z
#    x 3.845430 0.000000 0.000000 
#    y 0.000000 3.495800 0.000000 
#    z 0.000000 0.000000 4.023330 
# 
# 
# High freq. dielectric constant tensor:
#      x y z
#    x 1.809060 0.000000 0.000000 
#    y 0.000000 1.805100 0.000000 
#    z 0.000000 0.000000 1.830800 
# 
# From -- ./inp_files/9966.got.cif
#   From: 2010.03.12/outbox.cif.g09.slc.cpg/sg53_5_cif.got.tgz:9966.got - 2010.04.16 14:36:59.
