data_PCOD8221264
_publ_section_title
;
Structure prediction by ZEFSAII (Michael W. Deem and Ramdas Pophale) SiO2 
 PCOD8221264
Probable space group: P M N A
;
_chemical_formula_sum "Si O2"
_cell_formula_units_Z 32
_cell_length_a 25.881503
_cell_length_b 12.629060
_cell_length_c 4.977975
_cell_angle_alpha 90.000000
_cell_angle_beta 90.000000
_cell_angle_gamma 90.000000
_cell_volume 1627.096201
_symmetry_space_group_name_H-M "P M N A"
_symmetry_group_IT_number 53
_symmetry_cell_setting 'orthorhombic'
loop_
_space_group_symop_operation_xyz
x,y,z
1/2-x,-y,1/2+z
x,-y,-z
1/2-x,y,1/2-z
-x,-y,-z
1/2+x,y,1/2-z
-x,y,z
1/2+x,-y,1/2+z
loop_
_atom_site_type_symbol
_atom_site_label
_atom_site_fract_x
_atom_site_fract_y
_atom_site_fract_z
Si Si1 0.441833 0.879760 0.089803
Si Si2 0.607519 0.783071 0.602193
Si Si3 0.214519 0.121641 0.000681
Si Si4 0.943282 0.429714 0.252854
O O1 0.500000 0.840010 0.036640
O O2 0.428706 0.850738 0.398637
O O3 0.400352 0.822003 0.905241
O O4 0.436727 0.000000 0.000000
O O5 0.666204 0.799138 0.508151
O O6 0.594795 0.659545 0.633714
O O7 0.250000 0.145369 0.250000
O O8 0.250000 0.148243 0.750000
O O9 0.194406 0.000000 0.000000
O O10 0.919625 0.500000 0.500000
O O11 0.000000 0.384028 0.345221
O O12 0.953742 0.500000 0.000000
#
# Coordination Sequence:
#
# PCOD8221264 Si02
#       4
#     8   8   8   8
#     4  11  22  34  52  84 121 152 185 228 287 364
#     4  12  22  37  60  82 113 156 197 238 295 351
#     4  10  21  37  57  83 114 148 190 237 284 342
#     4  10  21  37  57  83 114 148 190 237 284 340
#
# _framework density 19.666936
#
# number of rings (size 3 to 8) (size 9 to 14) (size 15 to 20)
#    0.000    1.250    0.000    7.500    0.000    6.000 
#    0.000    0.000    0.000    3.000    0.000    0.000 
#    0.000    0.000    0.000    0.000    0.000    0.000 
#
# Total GULP energy -396533.215542 kJ/mol
# GULP energy per Si atom -12391.662986 kJ/mol
# Density = 1.962217 g / cm^3
# Si number density = 19.666936 Si / 1000 Ang^3
#
#
#
# Elastic Constant Matrix: (Units=GPa)
#
#
# Indices 1 2 3 4 5 6 
#
# 1 130.5829 62.5189 33.1853 0.0000 0.0000 0.0000
# 2 62.5189 110.9833 37.3738 0.0000 0.0000 0.0000
# 3 33.1853 37.3738 111.9155 0.0000 0.0000 0.0000
# 4 0.0000 0.0000 0.0000 38.6176 0.0000 0.0000
# 5 0.0000 0.0000 0.0000 0.0000 108.7872 0.0000
# 6 0.0000 0.0000 0.0000 0.0000 0.0000 39.1951
#
#
#
# Elastic Compliance Matrix: (Units=1/GPa)
#
#
# Indices 1 2 3 4 5 6 
#
# 1 0.010652 -0.005562 -0.001301 0.000000 0.000000 0.000000
# 2 -0.005562 0.013056 -0.002711 0.000000 0.000000 0.000000
# 3 -0.001301 -0.002711 0.010226 0.000000 0.000000 0.000000
# 4 0.000000 0.000000 0.000000 0.025895 0.000000 0.000000
# 5 0.000000 0.000000 0.000000 0.000000 0.009192 0.000000
# 6 0.000000 0.000000 0.000000 0.000000 0.000000 0.025513
#
#
# Mechanical properties :
#
#
# Convention : Reuss Voigt Hill
#
# Bulk Modulus (GPa) = 67.62927 68.84862 68.23895
# Shear Modulus (GPa) = 42.15436 52.01357 47.08397
#
# Velocity S-wave (km/s) = 4.63472 5.14826 4.89823
# Velocity P-wave (km/s) = 7.94373 8.39183 8.17085
#
# Compressibility (1/GPa) = 0.01478650
#
# Stress axis : x y z
#
# Youngs Moduli (GPa) = 93.88314 76.59025 97.78645
#
# Poissons Ratio (x) = 0.42600 0.12722
# Poissons Ratio (y) = 0.52219 0.26509
# Poissons Ratio (z) = 0.12214 0.20763
#
# Static dielectric constant tensor:
#      x y z
#    x 3.430440 0.000000 0.000000 
#    y 0.000000 3.042140 0.000000 
#    z 0.000000 0.000000 3.909740 
# 
# 
# High freq. dielectric constant tensor:
#      x y z
#    x 1.749600 0.000000 0.000000 
#    y 0.000000 1.749360 0.000000 
#    z 0.000000 0.000000 1.791690 
# 
# From -- ./inp_files/2616.got.cif
#   From: 2010.03.12/outbox.cif.g09.slc.cpg/sg53_2_cif.got.tgz:2616.got - 2010.04.16 14:36:59.
