data_PCOD8221807
_publ_section_title
;
Structure prediction by ZEFSAII (Michael W. Deem and Ramdas Pophale) SiO2 
 PCOD8221807
Probable space group: P M N A
;
_chemical_formula_sum "Si O2"
_cell_formula_units_Z 56
_cell_length_a 19.461467
_cell_length_b 9.107723
_cell_length_c 15.418926
_cell_angle_alpha 90.000000
_cell_angle_beta 90.000000
_cell_angle_gamma 90.000000
_cell_volume 2732.999246
_symmetry_space_group_name_H-M "P M N A"
_symmetry_group_IT_number 53
_symmetry_cell_setting 'orthorhombic'
loop_
_space_group_symop_operation_xyz
x,y,z
1/2-x,-y,1/2+z
x,-y,-z
1/2-x,y,1/2-z
-x,-y,-z
1/2+x,y,1/2-z
-x,y,z
1/2+x,-y,1/2+z
loop_
_atom_site_type_symbol
_atom_site_label
_atom_site_fract_x
_atom_site_fract_y
_atom_site_fract_z
Si Si1 0.307758 0.829289 0.001959
Si Si2 0.182287 0.643136 0.942817
Si Si3 0.922399 0.955502 0.236573
Si Si4 0.816805 0.266630 0.699735
Si Si5 0.078610 0.794643 0.632701
Si Si6 0.575522 0.876099 0.570072
Si Si7 0.325799 0.598222 0.750795
O O1 0.310886 0.776010 0.099936
O O2 0.253950 0.732513 0.946158
O O3 0.382392 0.803041 0.958983
O O4 0.285866 0.000000 0.000000
O O5 0.122607 0.752310 0.973955
O O6 0.156306 0.585901 0.849924
O O7 0.189101 0.500000 0.000000
O O8 0.880778 0.806505 0.251130
O O9 0.000000 0.910762 0.211263
O O10 0.920098 0.043417 0.326666
O O11 0.891639 0.056253 0.158679
O O12 0.750000 0.209248 0.750000
O O13 0.822934 0.440965 0.703276
O O14 0.116210 0.687865 0.699759
O O15 0.000000 0.741540 0.617430
O O16 0.500000 0.810484 0.591735
O O17 0.568097 0.000000 0.500000
O O18 0.250000 0.673247 0.750000
#
# Coordination Sequence:
#
# PCOD8221807 Si02
#       7
#     8   8   8   8   8   8   8
#     4  12  26  44  68 102 132 172 224 282 331 403
#     4  12  25  40  68  97 133 175 223 280 336 396
#     4  10  22  42  65  94 133 173 221 274 333 403
#     4  11  26  42  67 100 133 171 223 276 331 394
#     4  11  24  44  71  99 132 181 224 270 338 412
#     4  10  23  41  64  96 134 175 223 277 337 403
#     4  11  23  44  65  93 136 177 218 271 335 401
#
# _framework density 20.490310000000001
#
# number of rings (size 3 to 8) (size 9 to 14) (size 15 to 20)
#    0.000    1.000    4.286    2.143    6.000    2.286 
#    0.000    0.714    0.000    0.000    0.000    0.000 
#    0.000    0.000    0.000    0.000    0.000    0.000 
#
# Total GULP energy -694407.959323 kJ/mol
# GULP energy per Si atom -12400.142131 kJ/mol
# Density = 2.044367 g / cm^3
# Si number density = 20.490310 Si / 1000 Ang^3
#
#
#
# Elastic Constant Matrix: (Units=GPa)
#
#
# Indices 1 2 3 4 5 6 
#
# 1 120.9944 34.4310 40.4407 0.0000 0.0000 0.0000
# 2 34.4310 67.3293 34.4205 0.0000 0.0000 0.0000
# 3 40.4407 34.4205 120.8575 0.0000 0.0000 0.0000
# 4 0.0000 0.0000 0.0000 32.2506 0.0000 0.0000
# 5 0.0000 0.0000 0.0000 0.0000 33.9709 0.0000
# 6 0.0000 0.0000 0.0000 0.0000 0.0000 -0.7263
#
#
#
# Elastic Compliance Matrix: (Units=1/GPa)
#
#
# Indices 1 2 3 4 5 6 
#
# 1 0.010169 -0.004051 -0.002249 0.000000 0.000000 0.000000
# 2 -0.004051 0.018997 -0.004055 0.000000 0.000000 0.000000
# 3 -0.002249 -0.004055 0.010182 0.000000 0.000000 0.000000
# 4 0.000000 0.000000 0.000000 0.031007 0.000000 0.000000
# 5 0.000000 0.000000 0.000000 0.000000 0.029437 0.000000
# 6 0.000000 0.000000 0.000000 0.000000 0.000000 -1.376888
#
#
# Mechanical properties :
#
#
# Convention : Reuss Voigt Hill
#
# Bulk Modulus (GPa) = 53.65283 58.64063 56.14673
# Shear Modulus (GPa) = -3.99944 26.42498 11.21277
#
# Velocity S-wave (km/s) = -1.39861 3.59504 2.34182
# Velocity P-wave (km/s) = 4.86140 6.77593 5.89688
#
# Compressibility (1/GPa) = 0.01863834
#
# Stress axis : x y z
#
# Youngs Moduli (GPa) = 98.33562 52.64060 98.21572
#
# Poissons Ratio (x) = 0.21322 0.22090
# Poissons Ratio (y) = 0.39831 0.39826
# Poissons Ratio (z) = 0.22117 0.21345
#
# Static dielectric constant tensor:
#      x y z
#    x 3.958960 0.000000 0.000000 
#    y 0.000000 3.669880 0.000000 
#    z 0.000000 0.000000 3.861540 
# 
# 
# High freq. dielectric constant tensor:
#      x y z
#    x 1.804270 0.000000 0.000000 
#    y 0.000000 1.794490 0.000000 
#    z 0.000000 0.000000 1.814390 
# 
# From -- ./inp_files/24310.got.cif
#   From: 2010.03.12/outbox.cif.g09.slc.cpg/sg53_13_cif.got.tgz:24310.got - 2010.04.16 14:36:59.
