data_PCOD8221634
_publ_section_title
;
Structure prediction by ZEFSAII (Michael W. Deem and Ramdas Pophale) SiO2 
 PCOD8221634
Probable space group: P M N A
;
_chemical_formula_sum "Si O2"
_cell_formula_units_Z 64
_cell_length_a 19.837332
_cell_length_b 18.600594
_cell_length_c 9.046663
_cell_angle_alpha 90.000000
_cell_angle_beta 90.000000
_cell_angle_gamma 90.000000
_cell_volume 3338.093428
_symmetry_space_group_name_H-M "P M N A"
_symmetry_group_IT_number 53
_symmetry_cell_setting 'orthorhombic'
loop_
_space_group_symop_operation_xyz
x,y,z
1/2-x,-y,1/2+z
x,-y,-z
1/2-x,y,1/2-z
-x,-y,-z
1/2+x,y,1/2-z
-x,y,z
1/2+x,-y,1/2+z
loop_
_atom_site_type_symbol
_atom_site_label
_atom_site_fract_x
_atom_site_fract_y
_atom_site_fract_z
Si Si1 0.326523 0.872907 0.739712
Si Si2 0.143661 0.224737 0.982224
Si Si3 0.424941 0.000376 0.173232
Si Si4 0.075504 0.841295 0.287714
Si Si5 0.076680 0.660697 0.814894
Si Si6 0.620024 0.245661 0.052247
Si Si7 0.737668 0.677829 0.083073
Si Si8 0.799535 0.560222 0.880995
O O1 0.250000 0.900712 0.750000
O O2 0.349380 0.847485 0.577581
O O3 0.374495 0.938923 0.774393
O O4 0.332182 0.804763 0.848422
O O5 0.117707 0.208032 0.820096
O O6 0.218012 0.253767 0.957503
O O7 0.094519 0.283684 0.055006
O O8 0.500000 0.013852 0.240808
O O9 0.395295 0.922259 0.216553
O O10 0.431763 0.000000 0.000000
O O11 0.074744 0.806908 0.452154
O O12 0.000000 0.844302 0.228817
O O13 0.076879 0.702661 0.658590
O O14 0.131137 0.595347 0.817251
O O15 0.000000 0.631649 0.839032
O O16 0.661350 0.297361 0.942107
O O17 0.750000 0.650439 0.250000
O O18 0.753625 0.616390 0.966749
O O19 0.750000 0.531012 0.750000
O O20 0.820802 0.500000 0.000000
#
# Coordination Sequence:
#
# PCOD8221634 Si02
#       8
#     8   8   8   8   8   8   8   8
#     4  11  22  38  58  84 115 153 202 255 311 362
#     4  10  22  35  59  88 118 151 196 256 309 357
#     4  10  22  40  57  77 109 156 207 249 300 376
#     4  11  22  38  57  82 115 155 202 253 306 364
#     4  10  22  39  63  93 125 161 200 244 293 349
#     4  11  20  36  63  86 117 157 198 251 298 360
#     4  11  20  37  62  92 121 153 196 250 299 349
#     4  11  23  41  66  95 127 165 203 235 286 355
#
# _framework density 19.172622
#
# number of rings (size 3 to 8) (size 9 to 14) (size 15 to 20)
#    0.000    1.375    5.000    1.125    0.000    3.250 
#    4.500    1.250    0.000    0.375    0.000    0.000 
#    0.000    0.000    0.000    0.000    0.000    0.000 
#
# Total GULP energy -793426.892118 kJ/mol
# GULP energy per Si atom -12397.295189 kJ/mol
# Density = 1.912898 g / cm^3
# Si number density = 19.172622 Si / 1000 Ang^3
#
#
#
# Elastic Constant Matrix: (Units=GPa)
#
#
# Indices 1 2 3 4 5 6 
#
# 1 101.7334 39.0734 23.7356 0.0000 0.0000 0.0000
# 2 39.0734 79.5730 22.4716 0.0000 0.0000 0.0000
# 3 23.7356 22.4716 89.2615 0.0000 0.0000 0.0000
# 4 0.0000 0.0000 0.0000 34.5630 0.0000 0.0000
# 5 0.0000 0.0000 0.0000 0.0000 19.8964 0.0000
# 6 0.0000 0.0000 0.0000 0.0000 0.0000 2.0383
#
#
#
# Elastic Compliance Matrix: (Units=1/GPa)
#
#
# Indices 1 2 3 4 5 6 
#
# 1 0.012407 -0.005555 -0.001900 0.000000 0.000000 0.000000
# 2 -0.005555 0.016017 -0.002555 0.000000 0.000000 0.000000
# 3 -0.001900 -0.002555 0.012352 0.000000 0.000000 0.000000
# 4 0.000000 0.000000 0.000000 0.028933 0.000000 0.000000
# 5 0.000000 0.000000 0.000000 0.000000 0.050260 0.000000
# 6 0.000000 0.000000 0.000000 0.000000 0.000000 0.490593
#
#
# Mechanical properties :
#
#
# Convention : Reuss Voigt Hill
#
# Bulk Modulus (GPa) = 48.18554 49.01436 48.59995
# Shear Modulus (GPa) = 7.84313 23.65203 15.74758
#
# Velocity S-wave (km/s) = 2.02477 3.51613 2.86904
# Velocity P-wave (km/s) = 5.53654 6.48879 6.03149
#
# Compressibility (1/GPa) = 0.02075312
#
# Stress axis : x y z
#
# Youngs Moduli (GPa) = 80.60129 62.43544 80.96120
#
# Poissons Ratio (x) = 0.34686 0.15387
# Poissons Ratio (y) = 0.44778 0.20685
# Poissons Ratio (z) = 0.15318 0.15952
#
# Static dielectric constant tensor:
#      x y z
#    x 3.374540 0.000000 0.000000 
#    y 0.000000 3.513500 0.000000 
#    z 0.000000 0.000000 3.742830 
# 
# 
# High freq. dielectric constant tensor:
#      x y z
#    x 1.740320 0.000000 0.000000 
#    y 0.000000 1.734730 0.000000 
#    z 0.000000 0.000000 1.752240 
# 
# From -- ./inp_files/11183.got.cif
#   From: 2010.03.12/outbox.cif.g09.slc.cpg/sg53_6_cif.got.tgz:11183.got - 2010.04.16 14:36:59.
