data_PCOD8221215
_publ_section_title
;
Structure prediction by ZEFSAII (Michael W. Deem and Ramdas Pophale) SiO2 
 PCOD8221215
Probable space group: P M N A
;
_chemical_formula_sum "Si O2"
_cell_formula_units_Z 48
_cell_length_a 14.559842
_cell_length_b 7.118540
_cell_length_c 23.321054
_cell_angle_alpha 90.000000
_cell_angle_beta 90.000000
_cell_angle_gamma 90.000000
_cell_volume 2417.106390
_symmetry_space_group_name_H-M "P M N A"
_symmetry_group_IT_number 53
_symmetry_cell_setting 'orthorhombic'
loop_
_space_group_symop_operation_xyz
x,y,z
1/2-x,-y,1/2+z
x,-y,-z
1/2-x,y,1/2-z
-x,-y,-z
1/2+x,y,1/2-z
-x,y,z
1/2+x,-y,1/2+z
loop_
_atom_site_type_symbol
_atom_site_label
_atom_site_fract_x
_atom_site_fract_y
_atom_site_fract_z
Si Si1 0.674238 0.517713 0.202761
Si Si2 0.605652 0.390872 0.557866
Si Si3 0.755583 0.958483 0.063498
Si Si4 0.893753 0.897381 0.341747
Si Si5 0.187243 0.697181 0.868191
Si Si6 0.601763 0.829843 0.744123
O O1 0.750000 0.579190 0.250000
O O2 0.614053 0.688283 0.181244
O O3 0.720036 0.412889 0.148504
O O4 0.600830 0.380574 0.231723
O O5 0.633922 0.500000 0.500000
O O6 0.500000 0.321817 0.555554
O O7 0.670737 0.210525 0.567161
O O8 0.615839 0.537448 0.610774
O O9 0.666437 0.916425 0.101428
O O10 0.801256 0.154627 0.081217
O O11 0.719787 0.000000 0.000000
O O12 0.000000 0.945014 0.355958
O O13 0.853719 0.033297 0.291863
O O14 0.157069 0.826936 0.814790
O O15 0.500000 0.901277 0.730555
#
# Coordination Sequence:
#
# PCOD8221215 Si02
#       6
#     8   8   8   8   8   8
#     4  10  21  36  64  90 125 166 206 258 322 381
#     4  11  24  42  65  95 129 166 213 269 328 392
#     4  12  25  42  67  92 129 173 220 268 326 384
#     4  11  24  41  65  96 130 169 219 269 319 380
#     4  11  22  40  64  92 128 171 210 259 325 390
#     4  10  22  38  60  93 127 160 207 264 321 387
#
# _framework density 19.858454999999999
#
# number of rings (size 3 to 8) (size 9 to 14) (size 15 to 20)
#    0.000    1.167    5.000    1.000    2.333    2.000 
#    0.000    3.333    0.000    1.500    0.000    0.000 
#    0.000    0.000    0.000    0.000    0.000    0.000 
#
# Total GULP energy -595092.628496 kJ/mol
# GULP energy per Si atom -12397.763094 kJ/mol
# Density = 1.981326 g / cm^3
# Si number density = 19.858455 Si / 1000 Ang^3
#
#
#
# Elastic Constant Matrix: (Units=GPa)
#
#
# Indices 1 2 3 4 5 6 
#
# 1 82.0361 30.7593 36.6299 0.0000 0.0000 0.0000
# 2 30.7593 93.2091 53.7043 0.0000 0.0000 0.0000
# 3 36.6299 53.7043 128.7303 0.0000 0.0000 0.0000
# 4 0.0000 0.0000 0.0000 35.2881 0.0000 0.0000
# 5 0.0000 0.0000 0.0000 0.0000 24.6662 0.0000
# 6 0.0000 0.0000 0.0000 0.0000 0.0000 20.5927
#
#
#
# Elastic Compliance Matrix: (Units=1/GPa)
#
#
# Indices 1 2 3 4 5 6 
#
# 1 0.014656 -0.003204 -0.002834 0.000000 0.000000 0.000000
# 2 -0.003204 0.014824 -0.005273 0.000000 0.000000 0.000000
# 3 -0.002834 -0.005273 0.010774 0.000000 0.000000 0.000000
# 4 0.000000 0.000000 0.000000 0.028338 0.000000 0.000000
# 5 0.000000 0.000000 0.000000 0.000000 0.040541 0.000000
# 6 0.000000 0.000000 0.000000 0.000000 0.000000 0.048561
#
#
# Mechanical properties :
#
#
# Convention : Reuss Voigt Hill
#
# Bulk Modulus (GPa) = 56.70950 60.68470 58.69710
# Shear Modulus (GPa) = 26.85385 28.30155 27.57770
#
# Velocity S-wave (km/s) = 3.68130 3.77923 3.73059
# Velocity P-wave (km/s) = 6.83287 7.04758 6.94106
#
# Compressibility (1/GPa) = 0.01763373
#
# Stress axis : x y z
#
# Youngs Moduli (GPa) = 68.22966 67.45926 92.81446
#
# Poissons Ratio (x) = 0.21613 0.26302
# Poissons Ratio (y) = 0.21860 0.48937
# Poissons Ratio (z) = 0.19335 0.35568
#
# Static dielectric constant tensor:
#      x y z
#    x 3.444050 0.000000 0.000000 
#    y 0.000000 3.707870 0.000000 
#    z 0.000000 0.000000 3.737340 
# 
# 
# High freq. dielectric constant tensor:
#      x y z
#    x 1.764080 0.000000 0.000000 
#    y 0.000000 1.786090 0.000000 
#    z 0.000000 0.000000 1.778120 
# 
# From -- ./inp_files/36994.got.cif
#   From: 2010.03.12/outbox.cif.g09.slc.cpg/sg53_19_cif.got.tgz:36994.got - 2010.04.16 14:36:59.
