data_PCOD8221306
_publ_section_title
;
Structure prediction by ZEFSAII (Michael W. Deem and Ramdas Pophale) SiO2 
 PCOD8221306
Probable space group: P M N A
;
_chemical_formula_sum "Si O2"
_cell_formula_units_Z 56
_cell_length_a 8.901827
_cell_length_b 18.711982
_cell_length_c 16.144913
_cell_angle_alpha 90.000000
_cell_angle_beta 90.000000
_cell_angle_gamma 90.000000
_cell_volume 2689.271504
_symmetry_space_group_name_H-M "P M N A"
_symmetry_group_IT_number 53
_symmetry_cell_setting 'orthorhombic'
loop_
_space_group_symop_operation_xyz
x,y,z
1/2-x,-y,1/2+z
x,-y,-z
1/2-x,y,1/2-z
-x,-y,-z
1/2+x,y,1/2-z
-x,y,z
1/2+x,-y,1/2+z
loop_
_atom_site_type_symbol
_atom_site_label
_atom_site_fract_x
_atom_site_fract_y
_atom_site_fract_z
Si Si1 0.170401 0.412119 0.166961
Si Si2 0.673057 0.705475 0.925792
Si Si3 0.321363 0.293281 0.589602
Si Si4 0.671987 0.155368 0.164761
Si Si5 0.671177 0.452814 0.573228
Si Si6 0.178959 0.164172 0.665862
Si Si7 0.321689 0.081555 0.998594
O O1 0.250000 0.388932 0.250000
O O2 0.253952 0.371359 0.092742
O O3 0.180192 0.497585 0.154841
O O4 0.000000 0.385229 0.170236
O O5 0.500000 0.695691 0.951385
O O6 0.688966 0.759266 0.848332
O O7 0.764486 0.739021 0.002417
O O8 0.500000 0.288469 0.599722
O O9 0.258252 0.375462 0.594182
O O10 0.242046 0.245383 0.659501
O O11 0.750000 0.131727 0.250000
O O12 0.500000 0.132395 0.174173
O O13 0.742141 0.117209 0.083196
O O14 0.749249 0.500000 0.500000
O O15 0.500000 0.437900 0.544805
O O16 0.250000 0.130801 0.750000
O O17 0.236636 0.118790 0.586169
O O18 0.000000 0.164408 0.672821
O O19 0.500000 0.089041 0.999484
O O20 0.267317 0.000000 0.000000
#
# Coordination Sequence:
#
# PCOD8221306 Si02
#       7
#     8   8   8   8   8   8   8
#     4  11  22  37  55  79 112 149 192 243 300 361
#     4  11  21  36  57  85 118 154 198 245 297 360
#     4  11  21  37  63  89 116 156 202 253 309 361
#     4  10  21  37  58  88 121 156 195 239 289 348
#     4   9  18  35  56  79 108 147 195 245 301 361
#     4  11  23  42  65  93 126 162 209 257 303 363
#     4   9  19  39  65  90 123 165 199 237 297 361
#
# _framework density 20.823481999999998
#
# number of rings (size 3 to 8) (size 9 to 14) (size 15 to 20)
#    0.000    1.714    2.857    2.143    0.000    3.429 
#    0.000    5.000    0.000    3.000    0.000    0.000 
#    0.000    0.000    0.000    0.000    0.000    0.000 
#
# Total GULP energy -694151.252928 kJ/mol
# GULP energy per Si atom -12395.558088 kJ/mol
# Density = 2.077609 g / cm^3
# Si number density = 20.823482 Si / 1000 Ang^3
#
#
#
# Elastic Constant Matrix: (Units=GPa)
#
#
# Indices 1 2 3 4 5 6 
#
# 1 72.1252 32.1679 39.9860 0.0000 0.0000 0.0000
# 2 32.1679 113.3266 48.2269 0.0000 0.0000 0.0000
# 3 39.9860 48.2269 139.8184 0.0000 0.0000 0.0000
# 4 0.0000 0.0000 0.0000 24.1494 0.0000 0.0000
# 5 0.0000 0.0000 0.0000 0.0000 32.9406 0.0000
# 6 0.0000 0.0000 0.0000 0.0000 0.0000 17.5741
#
#
#
# Elastic Compliance Matrix: (Units=1/GPa)
#
#
# Indices 1 2 3 4 5 6 
#
# 1 0.017483 -0.003323 -0.003854 0.000000 0.000000 0.000000
# 2 -0.003323 0.010974 -0.002835 0.000000 0.000000 0.000000
# 3 -0.003854 -0.002835 0.009232 0.000000 0.000000 0.000000
# 4 0.000000 0.000000 0.000000 0.041409 0.000000 0.000000
# 5 0.000000 0.000000 0.000000 0.000000 0.030358 0.000000
# 6 0.000000 0.000000 0.000000 0.000000 0.000000 0.056902
#
#
# Mechanical properties :
#
#
# Convention : Reuss Voigt Hill
#
# Bulk Modulus (GPa) = 56.60516 62.89241 59.74879
# Shear Modulus (GPa) = 26.00527 28.59213 27.29870
#
# Velocity S-wave (km/s) = 3.53773 3.70952 3.62464
# Velocity P-wave (km/s) = 6.62795 6.97249 6.80240
#
# Compressibility (1/GPa) = 0.01766624
#
# Stress axis : x y z
#
# Youngs Moduli (GPa) = 57.19757 91.12811 108.31768
#
# Poissons Ratio (x) = 0.30278 0.41745
# Poissons Ratio (y) = 0.19004 0.30706
# Poissons Ratio (z) = 0.22043 0.25833
#
# Static dielectric constant tensor:
#      x y z
#    x 3.440040 0.000000 0.000000 
#    y 0.000000 3.806760 0.000000 
#    z 0.000000 0.000000 3.752620 
# 
# 
# High freq. dielectric constant tensor:
#      x y z
#    x 1.784140 0.000000 0.000000 
#    y 0.000000 1.813790 0.000000 
#    z 0.000000 0.000000 1.817770 
# 
# From -- ./inp_files/20658.got.cif
#   From: 2010.03.12/outbox.cif.g09.slc.cpg/sg53_11_cif.got.tgz:20658.got - 2010.04.16 14:36:59.
