data_PCOD8221936
_publ_section_title
;
Structure prediction by ZEFSAII (Michael W. Deem and Ramdas Pophale) SiO2 
 PCOD8221936
Probable space group: P M N A
;
_chemical_formula_sum "Si O2"
_cell_formula_units_Z 48
_cell_length_a 27.873352
_cell_length_b 8.978864
_cell_length_c 9.763616
_cell_angle_alpha 90.000000
_cell_angle_beta 90.000000
_cell_angle_gamma 90.000000
_cell_volume 2443.550300
_symmetry_space_group_name_H-M "P M N A"
_symmetry_group_IT_number 53
_symmetry_cell_setting 'orthorhombic'
loop_
_space_group_symop_operation_xyz
x,y,z
1/2-x,-y,1/2+z
x,-y,-z
1/2-x,y,1/2-z
-x,-y,-z
1/2+x,y,1/2-z
-x,y,z
1/2+x,-y,1/2+z
loop_
_atom_site_type_symbol
_atom_site_label
_atom_site_fract_x
_atom_site_fract_y
_atom_site_fract_z
Si Si1 0.848033 0.831309 0.499043
Si Si2 0.500000 0.324336 0.668803
Si Si3 0.258912 0.358459 0.088344
Si Si4 0.900504 0.824370 0.223217
Si Si5 0.000000 0.327539 0.154249
Si Si6 0.346169 0.325958 0.477765
Si Si7 0.905334 0.826779 0.755233
O O1 0.802200 0.751924 0.562878
O O2 0.866351 0.779090 0.350405
O O3 0.894139 0.810949 0.595335
O O4 0.830853 0.000000 0.500000
O O5 0.547181 0.251178 0.736480
O O6 0.500000 0.500114 0.695965
O O7 0.500000 0.297084 0.506955
O O8 0.250000 0.393764 0.250000
O O9 0.210459 0.293301 0.020871
O O10 0.274057 0.500000 0.000000
O O11 0.906599 0.000387 0.202930
O O12 0.872880 0.766798 0.092070
O O13 0.044323 0.247403 0.221255
O O14 0.357707 0.500000 0.500000
O O15 0.365263 0.268615 0.333296
#
# Coordination Sequence:
#
# PCOD8221936 Si02
#       7
#     8   4   8   8   4   8   8
#     4  10  25  45  64  93 131 168 210 263 317 376
#     4  11  23  40  61  98 127 163 212 258 319 376
#     4  11  25  43  66  95 130 168 213 261 316 376
#     4  11  24  40  66  93 127 165 212 260 314 380
#     4  11  23  38  65  92 131 163 208 268 309 380
#     4  11  23  39  62  93 126 163 212 259 312 373
#     4  11  22  42  64  93 124 168 209 260 320 369
#
# _framework density 19.643547999999999
#
# number of rings (size 3 to 8) (size 9 to 14) (size 15 to 20)
#    0.000    1.167    3.333    2.000    4.667    4.000 
#    0.000    3.333    0.000    0.000    0.000    0.000 
#    0.000    0.000    0.000    0.000    0.000    0.000 
#
# Total GULP energy -595155.328154 kJ/mol
# GULP energy per Si atom -12399.069337 kJ/mol
# Density = 1.959884 g / cm^3
# Si number density = 19.643548 Si / 1000 Ang^3
#
#
#
# Elastic Constant Matrix: (Units=GPa)
#
#
# Indices 1 2 3 4 5 6 
#
# 1 111.6091 63.4198 29.6641 0.0000 0.0000 0.0000
# 2 63.4198 111.9600 36.9586 0.0000 0.0000 0.0000
# 3 29.6641 36.9586 74.2323 0.0000 0.0000 0.0000
# 4 0.0000 0.0000 0.0000 23.7285 0.0000 0.0000
# 5 0.0000 0.0000 0.0000 0.0000 18.7127 0.0000
# 6 0.0000 0.0000 0.0000 0.0000 0.0000 24.3046
#
#
#
# Elastic Compliance Matrix: (Units=1/GPa)
#
#
# Indices 1 2 3 4 5 6 
#
# 1 0.013431 -0.006984 -0.001890 0.000000 0.000000 0.000000
# 2 -0.006984 0.014320 -0.004339 0.000000 0.000000 0.000000
# 3 -0.001890 -0.004339 0.016387 0.000000 0.000000 0.000000
# 4 0.000000 0.000000 0.000000 0.042143 0.000000 0.000000
# 5 0.000000 0.000000 0.000000 0.000000 0.053440 0.000000
# 6 0.000000 0.000000 0.000000 0.000000 0.000000 0.041145
#
#
# Mechanical properties :
#
#
# Convention : Reuss Voigt Hill
#
# Bulk Modulus (GPa) = 56.45851 61.98738 59.22295
# Shear Modulus (GPa) = 23.45281 24.53309 23.99295
#
# Velocity S-wave (km/s) = 3.45906 3.53783 3.49867
# Velocity P-wave (km/s) = 6.69010 6.95075 6.82167
#
# Compressibility (1/GPa) = 0.01771212
#
# Stress axis : x y z
#
# Youngs Moduli (GPa) = 74.45658 69.83199 61.02535
#
# Poissons Ratio (x) = 0.48770 0.11533
# Poissons Ratio (y) = 0.52000 0.26478
# Poissons Ratio (z) = 0.14071 0.30299
#
# Static dielectric constant tensor:
#      x y z
#    x 3.665900 0.000000 0.000000 
#    y 0.000000 3.892470 0.000000 
#    z 0.000000 0.000000 3.744610 
# 
# 
# High freq. dielectric constant tensor:
#      x y z
#    x 1.781040 0.000000 0.000000 
#    y 0.000000 1.773390 0.000000 
#    z 0.000000 0.000000 1.772350 
# 
# From -- ./inp_files/13070.got.cif
#   From: 2010.03.12/outbox.cif.g09.slc.cpg/sg53_7_cif.got.tgz:13070.got - 2010.04.16 14:36:59.
