data_PCOD8221013
_publ_section_title
;
Structure prediction by ZEFSAII (Michael W. Deem and Ramdas Pophale) SiO2 
 PCOD8221013
Probable space group: P M N A
;
_chemical_formula_sum "Si O2"
_cell_formula_units_Z 56
_cell_length_a 9.038900
_cell_length_b 17.319261
_cell_length_c 18.305126
_cell_angle_alpha 90.000000
_cell_angle_beta 90.000000
_cell_angle_gamma 90.000000
_cell_volume 2865.613809
_symmetry_space_group_name_H-M "P M N A"
_symmetry_group_IT_number 53
_symmetry_cell_setting 'orthorhombic'
loop_
_space_group_symop_operation_xyz
x,y,z
1/2-x,-y,1/2+z
x,-y,-z
1/2-x,y,1/2-z
-x,-y,-z
1/2+x,y,1/2-z
-x,y,z
1/2+x,-y,1/2+z
loop_
_atom_site_type_symbol
_atom_site_label
_atom_site_fract_x
_atom_site_fract_y
_atom_site_fract_z
Si Si1 0.827861 0.450188 0.930561
Si Si2 0.829359 0.986924 0.420674
Si Si3 0.830963 0.415637 0.174735
Si Si4 0.328665 0.864452 0.823663
Si Si5 0.672843 0.289202 0.939657
Si Si6 0.325819 0.733694 0.587951
Si Si7 0.326867 0.844290 0.172075
O O1 0.798925 0.499843 0.857696
O O2 0.731657 0.373999 0.921539
O O3 0.000000 0.427277 0.939954
O O4 0.775680 0.500000 0.000000
O O5 0.759294 0.915534 0.375379
O O6 0.000000 0.965256 0.433187
O O7 0.753086 0.000000 0.500000
O O8 0.807643 0.066088 0.378898
O O9 0.750000 0.401683 0.250000
O O10 0.787201 0.353114 0.113313
O O11 0.000000 0.404939 0.194859
O O12 0.250000 0.890813 0.750000
O O13 0.500000 0.845132 0.809626
O O14 0.247409 0.789478 0.853498
O O15 0.500000 0.292949 0.957910
O O16 0.704867 0.235312 0.870167
O O17 0.755408 0.252418 0.008867
O O18 0.500000 0.749274 0.583642
O O19 0.250000 0.840437 0.250000
O O20 0.500000 0.857331 0.185721
#
# Coordination Sequence:
#
# PCOD8221013 Si02
#       7
#     8   8   8   8   8   8   8
#     4  10  20  40  62  82 114 155 196 238 293 355
#     4   9  18  36  61  85 115 155 198 246 298 352
#     4  10  22  38  58  83 113 151 191 235 290 352
#     4  11  22  36  57  86 118 154 195 240 293 349
#     4  11  23  38  61  91 118 150 198 249 297 352
#     4  11  22  39  60  84 117 157 197 239 295 356
#     4  10  22  40  61  87 121 161 202 246 300 357
#
# _framework density 19.542059999999999
#
# number of rings (size 3 to 8) (size 9 to 14) (size 15 to 20)
#    0.000    1.714    1.429    3.000    0.000    7.143 
#    0.000    3.571    0.000    3.000    0.000    0.000 
#    0.000    0.000    0.000    0.000    0.000    0.000 
#
# Total GULP energy -694555.101747 kJ/mol
# GULP energy per Si atom -12402.769674 kJ/mol
# Density = 1.949758 g / cm^3
# Si number density = 19.542060 Si / 1000 Ang^3
#
#
#
# Elastic Constant Matrix: (Units=GPa)
#
#
# Indices 1 2 3 4 5 6 
#
# 1 85.1158 46.3789 60.4917 0.0000 0.0000 0.0000
# 2 46.3789 88.8255 37.3284 0.0000 0.0000 0.0000
# 3 60.4917 37.3284 144.5497 0.0000 0.0000 0.0000
# 4 0.0000 0.0000 0.0000 27.1907 0.0000 0.0000
# 5 0.0000 0.0000 0.0000 0.0000 34.7134 0.0000
# 6 0.0000 0.0000 0.0000 0.0000 0.0000 23.1232
#
#
#
# Elastic Compliance Matrix: (Units=1/GPa)
#
#
# Indices 1 2 3 4 5 6 
#
# 1 0.020897 -0.008117 -0.006649 0.000000 0.000000 0.000000
# 2 -0.008117 0.015781 -0.000679 0.000000 0.000000 0.000000
# 3 -0.006649 -0.000679 0.009876 0.000000 0.000000 0.000000
# 4 0.000000 0.000000 0.000000 0.036777 0.000000 0.000000
# 5 0.000000 0.000000 0.000000 0.000000 0.028807 0.000000
# 6 0.000000 0.000000 0.000000 0.000000 0.000000 0.043247
#
#
# Mechanical properties :
#
#
# Convention : Reuss Voigt Hill
#
# Bulk Modulus (GPa) = 63.83561 67.43208 65.63385
# Shear Modulus (GPa) = 26.11027 28.62493 27.36760
#
# Velocity S-wave (km/s) = 3.65924 3.83140 3.74631
# Velocity P-wave (km/s) = 7.11267 7.35893 7.23685
#
# Compressibility (1/GPa) = 0.01566524
#
# Stress axis : x y z
#
# Youngs Moduli (GPa) = 47.85405 63.36622 101.25829
#
# Poissons Ratio (x) = 0.51433 0.67326
# Poissons Ratio (y) = 0.38842 0.06871
# Poissons Ratio (z) = 0.31818 0.04300
#
# Static dielectric constant tensor:
#      x y z
#    x 3.461740 0.000000 0.000000 
#    y 0.000000 3.700240 0.000000 
#    z 0.000000 0.000000 3.494300 
# 
# 
# High freq. dielectric constant tensor:
#      x y z
#    x 1.746290 0.000000 0.000000 
#    y 0.000000 1.773200 0.000000 
#    z 0.000000 0.000000 1.773060 
# 
# From -- ./inp_files/30883.got.cif
#   From: 2010.03.12/outbox.cif.g09.slc.cpg/sg53_16_cif.got.tgz:30883.got - 2010.04.16 14:36:59.
