data_PCOD8221084
_publ_section_title
;
Structure prediction by ZEFSAII (Michael W. Deem and Ramdas Pophale) SiO2 
 PCOD8221084
Probable space group: P M N A
;
_chemical_formula_sum "Si O2"
_cell_formula_units_Z 48
_cell_length_a 9.002271
_cell_length_b 30.455116
_cell_length_c 9.126500
_cell_angle_alpha 90.000000
_cell_angle_beta 90.000000
_cell_angle_gamma 90.000000
_cell_volume 2502.168767
_symmetry_space_group_name_H-M "P M N A"
_symmetry_group_IT_number 53
_symmetry_cell_setting 'orthorhombic'
loop_
_space_group_symop_operation_xyz
x,y,z
1/2-x,-y,1/2+z
x,-y,-z
1/2-x,y,1/2-z
-x,-y,-z
1/2+x,y,1/2-z
-x,y,z
1/2+x,-y,1/2+z
loop_
_atom_site_type_symbol
_atom_site_label
_atom_site_fract_x
_atom_site_fract_y
_atom_site_fract_z
Si Si1 0.827568 0.281288 0.601608
Si Si2 0.825168 0.459064 0.403906
Si Si3 0.674714 0.379888 0.899585
Si Si4 0.172894 0.959384 0.905703
Si Si5 0.325004 0.873692 0.405248
Si Si6 0.324724 0.200712 0.093194
O O1 0.750000 0.264730 0.750000
O O2 0.775133 0.330401 0.557690
O O3 0.790260 0.249591 0.465831
O O4 0.000000 0.280413 0.638205
O O5 0.770946 0.500000 0.500000
O O6 0.750000 0.463919 0.250000
O O7 0.771915 0.413212 0.475199
O O8 0.000000 0.459859 0.382377
O O9 0.750000 0.395051 0.750000
O O10 0.500000 0.383046 0.875892
O O11 0.250000 0.957104 0.750000
O O12 0.000000 0.966299 0.876448
O O13 0.206697 0.915052 0.992201
O O14 0.236830 0.000000 0.000000
O O15 0.250000 0.883200 0.250000
O O16 0.500000 0.864918 0.385029
O O17 0.247366 0.832049 0.477579
O O18 0.250000 0.194516 0.250000
O O19 0.500000 0.191494 0.106711
#
# Coordination Sequence:
#
# PCOD8221084 Si02
#       6
#     8   8   8   8   8   8
#     4   9  19  35  55  78 105 139 177 219 265 316
#     4  10  21  35  52  76 105 136 172 215 261 312
#     4   9  18  34  54  77 105 136 174 217 262 314
#     4  10  22  39  59  85 115 147 184 225 270 321
#     4  11  23  39  60  85 113 146 185 227 274 326
#     4  11  23  38  56  80 111 145 183 227 274 323
#
# _framework density 19.183358999999999
#
# number of rings (size 3 to 8) (size 9 to 14) (size 15 to 20)
#    0.000    2.000    0.000    3.000    0.000    7.333 
#    0.000    0.000    0.000    0.000    0.000    0.000 
#    0.000    0.000    0.000    0.000    0.000    0.000 
#
# Total GULP energy -595326.395746 kJ/mol
# GULP energy per Si atom -12402.633245 kJ/mol
# Density = 1.913970 g / cm^3
# Si number density = 19.183359 Si / 1000 Ang^3
#
#
#
# Elastic Constant Matrix: (Units=GPa)
#
#
# Indices 1 2 3 4 5 6 
#
# 1 65.5231 49.6980 61.5835 0.0000 0.0000 0.0000
# 2 49.6980 115.0753 67.3642 0.0000 0.0000 0.0000
# 3 61.5835 67.3642 156.8617 0.0000 0.0000 0.0000
# 4 0.0000 0.0000 0.0000 26.3322 0.0000 0.0000
# 5 0.0000 0.0000 0.0000 0.0000 38.1352 0.0000
# 6 0.0000 0.0000 0.0000 0.0000 0.0000 23.6705
#
#
#
# Elastic Compliance Matrix: (Units=1/GPa)
#
#
# Indices 1 2 3 4 5 6 
#
# 1 0.028514 -0.007696 -0.007890 0.000000 0.000000 0.000000
# 2 -0.007696 0.013685 -0.002856 0.000000 0.000000 0.000000
# 3 -0.007890 -0.002856 0.010699 0.000000 0.000000 0.000000
# 4 0.000000 0.000000 0.000000 0.037976 0.000000 0.000000
# 5 0.000000 0.000000 0.000000 0.000000 0.026222 0.000000
# 6 0.000000 0.000000 0.000000 0.000000 0.000000 0.042247
#
#
# Mechanical properties :
#
#
# Convention : Reuss Voigt Hill
#
# Bulk Modulus (GPa) = 62.43827 77.19462 69.81645
# Shear Modulus (GPa) = 24.80586 28.21523 26.51054
#
# Velocity S-wave (km/s) = 3.59986 3.83929 3.72150
# Velocity P-wave (km/s) = 7.06381 7.74476 7.41211
#
# Compressibility (1/GPa) = 0.01601582
#
# Stress axis : x y z
#
# Youngs Moduli (GPa) = 35.07012 73.07049 93.46789
#
# Poissons Ratio (x) = 0.56236 0.73742
# Poissons Ratio (y) = 0.26990 0.26692
# Poissons Ratio (z) = 0.27669 0.20867
#
# Static dielectric constant tensor:
#      x y z
#    x 3.502320 0.000000 0.000000 
#    y 0.000000 3.906440 0.000000 
#    z 0.000000 0.000000 3.684180 
# 
# 
# High freq. dielectric constant tensor:
#      x y z
#    x 1.744360 0.000000 0.000000 
#    y 0.000000 1.764550 0.000000 
#    z 0.000000 0.000000 1.750050 
# 
# From -- ./inp_files/6605.got.cif
#   From: 2010.03.12/outbox.cif.g09.slc.cpg/sg53_4_cif.got.tgz:6605.got - 2010.04.16 14:36:59.
