data_PCOD8221159
_publ_section_title
;
Structure prediction by ZEFSAII (Michael W. Deem and Ramdas Pophale) SiO2 
 PCOD8221159
Probable space group: P M N A
;
_chemical_formula_sum "Si O2"
_cell_formula_units_Z 40
_cell_length_a 8.970695
_cell_length_b 25.624863
_cell_length_c 8.887355
_cell_angle_alpha 90.000000
_cell_angle_beta 90.000000
_cell_angle_gamma 90.000000
_cell_volume 2042.961449
_symmetry_space_group_name_H-M "P M N A"
_symmetry_group_IT_number 53
_symmetry_cell_setting 'orthorhombic'
loop_
_space_group_symop_operation_xyz
x,y,z
1/2-x,-y,1/2+z
x,-y,-z
1/2-x,y,1/2-z
-x,-y,-z
1/2+x,y,1/2-z
-x,y,z
1/2+x,-y,1/2+z
loop_
_atom_site_type_symbol
_atom_site_label
_atom_site_fract_x
_atom_site_fract_y
_atom_site_fract_z
Si Si1 0.324444 0.857616 0.411053
Si Si2 0.825784 0.245600 0.090800
Si Si3 0.329569 0.052107 0.095321
Si Si4 0.676132 0.653584 0.411389
Si Si5 0.824189 0.448954 0.088640
O O1 0.250000 0.861599 0.250000
O O2 0.500000 0.866059 0.393833
O O3 0.284443 0.801907 0.481846
O O4 0.259155 0.901808 0.516875
O O5 0.750000 0.237017 0.250000
O O6 0.000000 0.248987 0.121087
O O7 0.766930 0.298326 0.012611
O O8 0.250000 0.038837 0.250000
O O9 0.500000 0.069767 0.121881
O O10 0.321996 0.000000 0.000000
O O11 0.750000 0.657011 0.250000
O O12 0.500000 0.655564 0.388790
O O13 0.728176 0.600848 0.493062
O O14 0.750000 0.447156 0.250000
O O15 0.000000 0.449439 0.112460
O O16 0.769004 0.500000 0.000000
#
# Coordination Sequence:
#
# PCOD8221159 Si02
#       5
#     8   8   8   8   8
#     4  11  23  39  60  86 116 150 190 234 282 336
#     4  10  22  38  57  83 113 147 187 231 279 333
#     4  11  24  41  62  88 118 152 190 233 281 334
#     4  10  21  37  56  81 112 145 185 230 277 331
#     4  10  21  36  55  81 111 144 185 230 276 330
#
# _framework density 19.579419000000001
#
# number of rings (size 3 to 8) (size 9 to 14) (size 15 to 20)
#    0.000    1.600    0.000    4.200    0.000    8.400 
#    0.000    0.000    0.000    0.000    0.000    0.000 
#    0.000    0.000    0.000    0.000    0.000    0.000 
#
# Total GULP energy -496223.006120 kJ/mol
# GULP energy per Si atom -12405.575153 kJ/mol
# Density = 1.953486 g / cm^3
# Si number density = 19.579419 Si / 1000 Ang^3
#
#
#
# Elastic Constant Matrix: (Units=GPa)
#
#
# Indices 1 2 3 4 5 6 
#
# 1 67.1370 46.2742 55.0744 0.0000 0.0000 0.0000
# 2 46.2742 113.3322 25.0910 0.0000 0.0000 0.0000
# 3 55.0744 25.0910 127.1914 0.0000 0.0000 0.0000
# 4 0.0000 0.0000 0.0000 34.8266 0.0000 0.0000
# 5 0.0000 0.0000 0.0000 0.0000 40.6088 0.0000
# 6 0.0000 0.0000 0.0000 0.0000 0.0000 42.3243
#
#
#
# Elastic Compliance Matrix: (Units=1/GPa)
#
#
# Indices 1 2 3 4 5 6 
#
# 1 0.031525 -0.010300 -0.011619 0.000000 0.000000 0.000000
# 2 -0.010300 0.012592 0.001976 0.000000 0.000000 0.000000
# 3 -0.011619 0.001976 0.012503 0.000000 0.000000 0.000000
# 4 0.000000 0.000000 0.000000 0.028714 0.000000 0.000000
# 5 0.000000 0.000000 0.000000 0.000000 0.024625 0.000000
# 6 0.000000 0.000000 0.000000 0.000000 0.000000 0.023627
#
#
# Mechanical properties :
#
#
# Convention : Reuss Voigt Hill
#
# Bulk Modulus (GPa) = 59.75472 62.28221 61.01846
# Shear Modulus (GPa) = 27.92531 35.63334 31.77932
#
# Velocity S-wave (km/s) = 3.78068 4.27070 4.03314
# Velocity P-wave (km/s) = 7.04581 7.49651 7.27465
#
# Compressibility (1/GPa) = 0.01673508
#
# Stress axis : x y z
#
# Youngs Moduli (GPa) = 31.72086 79.41835 79.97867
#
# Poissons Ratio (x) = 0.81797 0.92925
# Poissons Ratio (y) = 0.32671 -0.15802
# Poissons Ratio (z) = 0.36855 -0.15692
#
# Static dielectric constant tensor:
#      x y z
#    x 3.615060 0.000000 0.000000 
#    y 0.000000 3.716300 0.000000 
#    z 0.000000 0.000000 3.573440 
# 
# 
# High freq. dielectric constant tensor:
#      x y z
#    x 1.762230 0.000000 0.000000 
#    y 0.000000 1.784320 0.000000 
#    z 0.000000 0.000000 1.780040 
# 
# From -- ./inp_files/6265.got.cif
#   From: 2010.03.12/outbox.cif.g09.slc.cpg/sg53_4_cif.got.tgz:6265.got - 2010.04.16 14:36:59.
