data_PCOD8221611
_publ_section_title
;
Structure prediction by ZEFSAII (Michael W. Deem and Ramdas Pophale) SiO2 
 PCOD8221611
Probable space group: P M N A
;
_chemical_formula_sum "Si O2"
_cell_formula_units_Z 56
_cell_length_a 18.841990
_cell_length_b 13.495890
_cell_length_c 10.093768
_cell_angle_alpha 90.000000
_cell_angle_beta 90.000000
_cell_angle_gamma 90.000000
_cell_volume 2566.738455
_symmetry_space_group_name_H-M "P M N A"
_symmetry_group_IT_number 53
_symmetry_cell_setting 'orthorhombic'
loop_
_space_group_symop_operation_xyz
x,y,z
1/2-x,-y,1/2+z
x,-y,-z
1/2-x,y,1/2-z
-x,-y,-z
1/2+x,y,1/2-z
-x,y,z
1/2+x,-y,1/2+z
loop_
_atom_site_type_symbol
_atom_site_label
_atom_site_fract_x
_atom_site_fract_y
_atom_site_fract_z
Si Si1 0.196143 0.332022 0.468867
Si Si2 0.080834 0.081555 0.198779
Si Si3 0.580642 0.183909 0.033280
Si Si4 0.682732 0.479174 0.815774
Si Si5 0.082584 0.856532 0.231715
Si Si6 0.654420 0.235749 0.487111
Si Si7 0.922468 0.572769 0.879852
O O1 0.131363 0.269364 0.408911
O O2 0.158140 0.391476 0.588339
O O3 0.219678 0.420713 0.373154
O O4 0.261470 0.257507 0.497354
O O5 0.087634 0.097143 0.357790
O O6 0.136395 0.143685 0.110069
O O7 0.000000 0.106926 0.153002
O O8 0.097696 0.966389 0.176834
O O9 0.500000 0.222418 0.026385
O O10 0.606706 0.151685 0.885936
O O11 0.750000 0.425951 0.750000
O O12 0.615382 0.507985 0.731205
O O13 0.000000 0.829830 0.219018
O O14 0.126416 0.782497 0.136636
O O15 0.619585 0.330937 0.422087
O O16 0.000000 0.605503 0.827028
O O17 0.931315 0.500000 0.000000
#
# Coordination Sequence:
#
# PCOD8221611 Si02
#       7
#     8   8   8   8   8   8   8
#     4  11  26  40  65  91 125 172 221 265 325 395
#     4  10  21  41  68  94 128 174 219 266 331 404
#     4  10  23  42  65  94 128 170 221 274 326 390
#     4  11  23  44  62  85 125 179 211 257 326 399
#     4  10  22  41  66  95 131 173 216 269 332 397
#     4  12  23  40  63  99 132 168 215 276 333 392
#     4  11  24  40  65  99 131 164 214 276 325 382
#
# _framework density 21.81757
#
# number of rings (size 3 to 8) (size 9 to 14) (size 15 to 20)
#    0.000    1.286    1.429    3.857    4.000    5.143 
#    0.000    5.714    0.000    0.000    0.000    0.000 
#    0.000    0.000    0.000    0.000    0.000    0.000 
#
# Total GULP energy -694036.003381 kJ/mol
# GULP energy per Si atom -12393.500060 kJ/mol
# Density = 2.176791 g / cm^3
# Si number density = 21.817570 Si / 1000 Ang^3
#
#
#
# Elastic Constant Matrix: (Units=GPa)
#
#
# Indices 1 2 3 4 5 6 
#
# 1 108.4963 37.3009 27.8153 0.0000 0.0000 0.0000
# 2 37.3009 63.4310 4.7051 0.0000 0.0000 0.0000
# 3 27.8153 4.7051 96.7360 0.0000 0.0000 0.0000
# 4 0.0000 0.0000 0.0000 -26.6158 0.0000 0.0000
# 5 0.0000 0.0000 0.0000 0.0000 45.1731 0.0000
# 6 0.0000 0.0000 0.0000 0.0000 0.0000 -8.6348
#
#
#
# Elastic Compliance Matrix: (Units=1/GPa)
#
#
# Indices 1 2 3 4 5 6 
#
# 1 0.012492 -0.007105 -0.003246 0.000000 0.000000 0.000000
# 2 -0.007105 0.019863 0.001077 0.000000 0.000000 0.000000
# 3 -0.003246 0.001077 0.011218 0.000000 0.000000 0.000000
# 4 0.000000 0.000000 0.000000 -0.037572 0.000000 0.000000
# 5 0.000000 0.000000 0.000000 0.000000 0.022137 0.000000
# 6 0.000000 0.000000 0.000000 0.000000 0.000000 -0.115810
#
#
# Mechanical properties :
#
#
# Convention : Reuss Voigt Hill
#
# Bulk Modulus (GPa) = 39.96047 45.36729 42.66388
# Shear Modulus (GPa) = -82.26366 15.24064 -33.51151
#
# Velocity S-wave (km/s) = -6.14712 2.64587 -3.92342
# Velocity P-wave (km/s) = 5.65927 5.49302 0.96281
#
# Compressibility (1/GPa) = 0.02502473
#
# Stress axis : x y z
#
# Youngs Moduli (GPa) = 80.05192 50.34362 89.13869
#
# Poissons Ratio (x) = 0.35770 0.28937
# Poissons Ratio (y) = 0.56878 -0.09599
# Poissons Ratio (z) = 0.25987 -0.05421
#
# Static dielectric constant tensor:
#      x y z
#    x 3.913230 0.000000 0.000000 
#    y 0.000000 3.890520 0.000000 
#    z 0.000000 0.000000 4.129270 
# 
# 
# High freq. dielectric constant tensor:
#      x y z
#    x 1.847070 0.000000 0.000000 
#    y 0.000000 1.859590 0.000000 
#    z 0.000000 0.000000 1.869850 
# 
# From -- ./inp_files/11065.got.cif
#   From: 2010.03.12/outbox.cif.g09.slc.cpg/sg53_6_cif.got.tgz:11065.got - 2010.04.16 14:36:59.
