data_PCOD8221255
_publ_section_title
;
Structure prediction by ZEFSAII (Michael W. Deem and Ramdas Pophale) SiO2 
 PCOD8221255
Probable space group: P M N A
;
_chemical_formula_sum "Si O2"
_cell_formula_units_Z 48
_cell_length_a 16.822825
_cell_length_b 27.481286
_cell_length_c 5.062798
_cell_angle_alpha 90.000000
_cell_angle_beta 90.000000
_cell_angle_gamma 90.000000
_cell_volume 2340.596649
_symmetry_space_group_name_H-M "P M N A"
_symmetry_group_IT_number 53
_symmetry_cell_setting 'orthorhombic'
loop_
_space_group_symop_operation_xyz
x,y,z
1/2-x,-y,1/2+z
x,-y,-z
1/2-x,y,1/2-z
-x,-y,-z
1/2+x,y,1/2-z
-x,y,z
1/2+x,-y,1/2+z
loop_
_atom_site_type_symbol
_atom_site_label
_atom_site_fract_x
_atom_site_fract_y
_atom_site_fract_z
Si Si1 0.695987 0.944861 0.998406
Si Si2 0.092996 0.706743 0.067378
Si Si3 0.408435 0.645322 0.920872
Si Si4 0.592312 0.857762 0.857706
Si Si5 0.696101 0.554550 0.999434
Si Si6 0.839941 0.809495 0.153889
O O1 0.750000 0.935506 0.750000
O O2 0.620831 0.909152 0.979912
O O3 0.750000 0.932665 0.250000
O O4 0.663069 0.000000 0.000000
O O5 0.108996 0.683165 0.348623
O O6 0.144821 0.755335 0.048247
O O7 0.000000 0.719066 0.019869
O O8 0.125802 0.669422 0.846148
O O9 0.500000 0.634875 0.880635
O O10 0.374210 0.592900 0.990404
O O11 0.500000 0.860747 0.782116
O O12 0.641168 0.845105 0.591871
O O13 0.604146 0.818364 0.091253
O O14 0.750000 0.563068 0.750000
O O15 0.659679 0.500000 0.000000
O O16 0.750000 0.564402 0.250000
O O17 0.750000 0.817691 0.250000
#
# Coordination Sequence:
#
# PCOD8221255 Si02
#       6
#     8   8   8   8   8   8
#     4  10  21  39  63  89 120 158 198 244 297 351
#     4  10  21  38  58  84 117 150 188 235 289 341
#     4  10  21  37  59  84 113 149 187 233 285 341
#     4  12  24  40  63  90 123 160 198 246 299 350
#     4  10  21  37  57  82 113 148 186 232 283 335
#     4  12  25  41  62  89 120 158 204 246 292 353
#
# _framework density 20.507594000000001
#
# number of rings (size 3 to 8) (size 9 to 14) (size 15 to 20)
#    0.000    1.333    0.000    6.500    0.000    4.000 
#    0.000    0.000    0.000   11.000    0.000    0.000 
#    0.000    0.000    0.000    0.000    0.000    0.000 
#
# Total GULP energy -595338.029001 kJ/mol
# GULP energy per Si atom -12402.875604 kJ/mol
# Density = 2.046092 g / cm^3
# Si number density = 20.507594 Si / 1000 Ang^3
#
#
#
# Elastic Constant Matrix: (Units=GPa)
#
#
# Indices 1 2 3 4 5 6 
#
# 1 89.4599 67.3318 46.4437 0.0000 0.0000 0.0000
# 2 67.3318 132.5108 37.0791 0.0000 0.0000 0.0000
# 3 46.4437 37.0791 141.3928 0.0000 0.0000 0.0000
# 4 0.0000 0.0000 0.0000 29.0407 0.0000 0.0000
# 5 0.0000 0.0000 0.0000 0.0000 68.5741 0.0000
# 6 0.0000 0.0000 0.0000 0.0000 0.0000 31.8988
#
#
#
# Elastic Compliance Matrix: (Units=1/GPa)
#
#
# Indices 1 2 3 4 5 6 
#
# 1 0.020230 -0.009087 -0.004262 0.000000 0.000000 0.000000
# 2 -0.009087 0.012226 -0.000221 0.000000 0.000000 0.000000
# 3 -0.004262 -0.000221 0.008531 0.000000 0.000000 0.000000
# 4 0.000000 0.000000 0.000000 0.034434 0.000000 0.000000
# 5 0.000000 0.000000 0.000000 0.000000 0.014583 0.000000
# 6 0.000000 0.000000 0.000000 0.000000 0.000000 0.031349
#
#
# Mechanical properties :
#
#
# Convention : Reuss Voigt Hill
#
# Bulk Modulus (GPa) = 72.22361 73.89698 73.06029
# Shear Modulus (GPa) = 32.65668 40.06998 36.36333
#
# Velocity S-wave (km/s) = 3.99484 4.42510 4.21546
# Velocity P-wave (km/s) = 7.52149 7.88802 7.70693
#
# Compressibility (1/GPa) = 0.01384589
#
# Stress axis : x y z
#
# Youngs Moduli (GPa) = 49.43157 81.79518 117.22612
#
# Poissons Ratio (x) = 0.74325 0.49963
# Poissons Ratio (y) = 0.44917 0.02595
# Poissons Ratio (z) = 0.21068 0.01811
#
# Static dielectric constant tensor:
#      x y z
#    x 3.454670 0.000000 0.000000 
#    y 0.000000 9.099940 0.000000 
#    z 0.000000 0.000000 4.065190 
# 
# 
# High freq. dielectric constant tensor:
#      x y z
#    x 1.781350 0.000000 0.000000 
#    y 0.000000 1.813430 0.000000 
#    z 0.000000 0.000000 1.827480 
# 
# From -- ./inp_files/1438.got.cif
#   From: 2010.03.12/outbox.cif.g09.slc.cpg/sg53_1_cif.got.tgz:1438.got - 2010.04.16 14:36:59.
