data_PCOD8221783
_publ_section_title
;
Structure prediction by ZEFSAII (Michael W. Deem and Ramdas Pophale) SiO2 
 PCOD8221783
Probable space group: P M N A
;
_chemical_formula_sum "Si O2"
_cell_formula_units_Z 40
_cell_length_a 15.479574
_cell_length_b 7.937592
_cell_length_c 15.780389
_cell_angle_alpha 90.000000
_cell_angle_beta 90.000000
_cell_angle_gamma 90.000000
_cell_volume 1938.944961
_symmetry_space_group_name_H-M "P M N A"
_symmetry_group_IT_number 53
_symmetry_cell_setting 'orthorhombic'
loop_
_space_group_symop_operation_xyz
x,y,z
1/2-x,-y,1/2+z
x,-y,-z
1/2-x,y,1/2-z
-x,-y,-z
1/2+x,y,1/2-z
-x,y,z
1/2+x,-y,1/2+z
loop_
_atom_site_type_symbol
_atom_site_label
_atom_site_fract_x
_atom_site_fract_y
_atom_site_fract_z
Si Si1 0.808741 0.725666 0.329030
Si Si2 0.601105 0.377676 0.133829
Si Si3 0.905306 0.878871 0.920858
Si Si4 0.249451 0.683818 0.990764
Si Si5 0.903015 0.950524 0.733045
O O1 0.750000 0.674971 0.250000
O O2 0.873969 0.567690 0.338716
O O3 0.755691 0.762079 0.415399
O O4 0.850723 0.906416 0.314632
O O5 0.500000 0.375824 0.110034
O O6 0.655610 0.319203 0.051851
O O7 0.623474 0.241066 0.207300
O O8 0.821896 0.764426 0.930590
O O9 0.890736 0.978084 0.833264
O O10 0.000000 0.785099 0.915506
O O11 0.908853 0.000000 0.000000
O O12 0.211266 0.500000 0.000000
O O13 0.000000 0.981226 0.703762
#
# Coordination Sequence:
#
# PCOD8221783 Si02
#       5
#     8   8   8   8   8
#     4  11  24  39  63  96 126 169 214 263 320 383
#     4  10  24  43  65  95 131 169 214 267 321 384
#     4  10  22  41  63  91 128 167 213 264 317 382
#     4  10  24  40  63  95 124 170 212 259 330 374
#     4  10  23  41  65  92 123 171 212 263 328 372
#
# _framework density 20.629774999999999
#
# number of rings (size 3 to 8) (size 9 to 14) (size 15 to 20)
#    0.000    1.800    0.000    1.800   11.200    4.800 
#    0.000    3.000    0.000    0.000    0.000    0.000 
#    0.000    0.000    0.000    0.000    0.000    0.000 
#
# Total GULP energy -495679.346430 kJ/mol
# GULP energy per Si atom -12391.983661 kJ/mol
# Density = 2.058282 g / cm^3
# Si number density = 20.629775 Si / 1000 Ang^3
#
#
#
# Elastic Constant Matrix: (Units=GPa)
#
#
# Indices 1 2 3 4 5 6 
#
# 1 125.6364 44.0657 33.5429 0.0000 0.0000 0.0000
# 2 44.0657 100.1541 21.9223 0.0000 0.0000 0.0000
# 3 33.5429 21.9223 97.5060 0.0000 0.0000 0.0000
# 4 0.0000 0.0000 0.0000 31.8524 0.0000 0.0000
# 5 0.0000 0.0000 0.0000 0.0000 46.0290 0.0000
# 6 0.0000 0.0000 0.0000 0.0000 0.0000 126.2009
#
#
#
# Elastic Compliance Matrix: (Units=1/GPa)
#
#
# Indices 1 2 3 4 5 6 
#
# 1 0.009991 -0.003832 -0.002575 0.000000 0.000000 0.000000
# 2 -0.003832 0.011971 -0.001373 0.000000 0.000000 0.000000
# 3 -0.002575 -0.001373 0.011450 0.000000 0.000000 0.000000
# 4 0.000000 0.000000 0.000000 0.031395 0.000000 0.000000
# 5 0.000000 0.000000 0.000000 0.000000 0.021725 0.000000
# 6 0.000000 0.000000 0.000000 0.000000 0.000000 0.007924
#
#
# Mechanical properties :
#
#
# Convention : Reuss Voigt Hill
#
# Bulk Modulus (GPa) = 56.01847 58.03983 57.02915
# Shear Modulus (GPa) = 43.11490 55.73415 49.42452
#
# Velocity S-wave (km/s) = 4.57654 5.20337 4.89999
# Velocity P-wave (km/s) = 7.42559 8.01842 7.72769
#
# Compressibility (1/GPa) = 0.01785126
#
# Stress axis : x y z
#
# Youngs Moduli (GPa) = 100.08828 83.53334 87.33243
#
# Poissons Ratio (x) = 0.32011 0.22492
# Poissons Ratio (y) = 0.38356 0.11993
# Poissons Ratio (z) = 0.25777 0.11471
#
# Static dielectric constant tensor:
#      x y z
#    x 3.980060 0.000000 0.000000 
#    y 0.000000 3.900700 0.000000 
#    z 0.000000 0.000000 3.453000 
# 
# 
# High freq. dielectric constant tensor:
#      x y z
#    x 1.816110 0.000000 0.000000 
#    y 0.000000 1.800970 0.000000 
#    z 0.000000 0.000000 1.820380 
# 
# From -- ./inp_files/22389.got.cif
#   From: 2010.03.12/outbox.cif.g09.slc.cpg/sg53_12_cif.got.tgz:22389.got - 2010.04.16 14:36:59.
