data_PCOD8221841
_publ_section_title
;
Structure prediction by ZEFSAII (Michael W. Deem and Ramdas Pophale) SiO2 
 PCOD8221841
Probable space group: P M N A
;
_chemical_formula_sum "Si O2"
_cell_formula_units_Z 32
_cell_length_a 28.774541
_cell_length_b 8.986172
_cell_length_c 5.515716
_cell_angle_alpha 90.000000
_cell_angle_beta 90.000000
_cell_angle_gamma 90.000000
_cell_volume 1426.215093
_symmetry_space_group_name_H-M "P M N A"
_symmetry_group_IT_number 53
_symmetry_cell_setting 'orthorhombic'
loop_
_space_group_symop_operation_xyz
x,y,z
1/2-x,-y,1/2+z
x,-y,-z
1/2-x,y,1/2-z
-x,-y,-z
1/2+x,y,1/2-z
-x,y,z
1/2+x,-y,1/2+z
loop_
_atom_site_type_symbol
_atom_site_label
_atom_site_fract_x
_atom_site_fract_y
_atom_site_fract_z
Si Si1 0.726155 0.676370 0.499045
Si Si2 0.901239 0.500000 0.500000
Si Si3 0.899696 0.000000 0.500000
Si Si4 0.553703 0.252964 0.696314
Si Si5 0.368610 0.246657 0.318535
O O1 0.725414 0.500000 0.500000
O O2 0.750000 0.735332 0.250000
O O3 0.673714 0.740808 0.492646
O O4 0.750000 0.734153 0.750000
O O5 0.934952 0.591390 0.324511
O O6 0.866407 0.389362 0.358961
O O7 0.933268 0.113375 0.638100
O O8 0.865194 0.091242 0.324719
O O9 0.500000 0.246074 0.627262
O O10 0.581682 0.246210 0.447254
#
# Coordination Sequence:
#
# PCOD8221841 Si02
#       5
#     8   4   4   8   8
#     4  10  23  40  71 106 136 171 224 285 351 412
#     4  10  23  38  66 100 136 172 224 278 351 398
#     4  10  25  42  66  90 134 180 232 272 343 406
#     4  11  23  41  65  95 133 178 227 281 342 409
#     4  11  24  42  68  97 136 177 224 283 340 410
#
# _framework density 22.437009
#
# number of rings (size 3 to 8) (size 9 to 14) (size 15 to 20)
#    0.000    1.500    0.000    3.750   12.250    8.000 
#    0.000    0.000    5.500    0.000    0.000    0.000 
#    0.000    0.000    0.000    0.000    0.000    0.000 
#
# Total GULP energy -396914.602568 kJ/mol
# GULP energy per Si atom -12403.581330 kJ/mol
# Density = 2.238594 g / cm^3
# Si number density = 22.437009 Si / 1000 Ang^3
#
#
#
# Elastic Constant Matrix: (Units=GPa)
#
#
# Indices 1 2 3 4 5 6 
#
# 1 145.1578 27.6108 60.1296 0.0000 0.0000 0.0000
# 2 27.6108 109.7366 41.0463 0.0000 0.0000 0.0000
# 3 60.1296 41.0463 141.1309 0.0000 0.0000 0.0000
# 4 0.0000 0.0000 0.0000 8.5233 0.0000 0.0000
# 5 0.0000 0.0000 0.0000 0.0000 40.5515 0.0000
# 6 0.0000 0.0000 0.0000 0.0000 0.0000 8.2992
#
#
#
# Elastic Compliance Matrix: (Units=1/GPa)
#
#
# Indices 1 2 3 4 5 6 
#
# 1 0.008439 -0.000874 -0.003342 0.000000 0.000000 0.000000
# 2 -0.000874 0.010315 -0.002628 0.000000 0.000000 0.000000
# 3 -0.003342 -0.002628 0.009274 0.000000 0.000000 0.000000
# 4 0.000000 0.000000 0.000000 0.117326 0.000000 0.000000
# 5 0.000000 0.000000 0.000000 0.000000 0.024660 0.000000
# 6 0.000000 0.000000 0.000000 0.000000 0.000000 0.120493
#
#
# Mechanical properties :
#
#
# Convention : Reuss Voigt Hill
#
# Bulk Modulus (GPa) = 69.72359 72.62207 71.17283
# Shear Modulus (GPa) = 16.18255 29.29069 22.73662
#
# Velocity S-wave (km/s) = 2.68851 3.61704 3.18677
# Velocity P-wave (km/s) = 6.38594 7.06267 6.73281
#
# Compressibility (1/GPa) = 0.01434235
#
# Stress axis : x y z
#
# Youngs Moduli (GPa) = 118.49142 96.94154 107.83245
#
# Poissons Ratio (x) = 0.08468 0.36033
# Poissons Ratio (y) = 0.10351 0.28338
# Poissons Ratio (z) = 0.39595 0.25476
#
# Static dielectric constant tensor:
#      x y z
#    x 3.783620 0.000000 0.000000 
#    y 0.000000 4.114250 0.000000 
#    z 0.000000 0.000000 4.301640 
# 
# 
# High freq. dielectric constant tensor:
#      x y z
#    x 1.872840 0.000000 0.000000 
#    y 0.000000 1.883050 0.000000 
#    z 0.000000 0.000000 1.896260 
# 
# From -- ./inp_files/4955.got.cif
#   From: 2010.03.12/outbox.cif.g09.slc.cpg/sg53_3_cif.got.tgz:4955.got - 2010.04.16 14:36:59.
