data_PCOD8221500
_publ_section_title
;
Structure prediction by ZEFSAII (Michael W. Deem and Ramdas Pophale) SiO2 
 PCOD8221500
Probable space group: P M N A
;
_chemical_formula_sum "Si O2"
_cell_formula_units_Z 48
_cell_length_a 7.710939
_cell_length_b 9.871479
_cell_length_c 30.974095
_cell_angle_alpha 90.000000
_cell_angle_beta 90.000000
_cell_angle_gamma 90.000000
_cell_volume 2357.697698
_symmetry_space_group_name_H-M "P M N A"
_symmetry_group_IT_number 53
_symmetry_cell_setting 'orthorhombic'
loop_
_space_group_symop_operation_xyz
x,y,z
1/2-x,-y,1/2+z
x,-y,-z
1/2-x,y,1/2-z
-x,-y,-z
1/2+x,y,1/2-z
-x,y,z
1/2+x,-y,1/2+z
loop_
_atom_site_type_symbol
_atom_site_label
_atom_site_fract_x
_atom_site_fract_y
_atom_site_fract_z
Si Si1 0.197810 0.347875 0.627808
Si Si2 0.500000 0.707672 0.521368
Si Si3 0.702564 0.846227 0.701932
Si Si4 0.802604 0.953788 0.372490
Si Si5 0.701338 0.907053 0.958394
Si Si6 0.500000 0.421391 0.565914
Si Si7 0.203496 0.539528 0.798101
O O1 0.271758 0.196155 0.637637
O O2 0.324384 0.415278 0.593365
O O3 0.197734 0.436064 0.671163
O O4 0.000000 0.346090 0.610040
O O5 0.677551 0.777753 0.536064
O O6 0.500000 0.563760 0.543088
O O7 0.500000 0.697745 0.469434
O O8 0.750000 0.894870 0.750000
O O9 0.500000 0.851681 0.694761
O O10 0.771585 0.693343 0.693988
O O11 0.787015 0.948362 0.668331
O O12 0.000000 0.931784 0.383962
O O13 0.721801 0.016918 0.416041
O O14 0.500000 0.861719 0.952785
O O15 0.723968 0.000000 0.000000
O O16 0.250000 0.494049 0.750000
O O17 0.000000 0.530364 0.806799
#
# Coordination Sequence:
#
# PCOD8221500 Si02
#       7
#     8   4   8   8   8   4   8
#     4  11  24  42  64  90 127 172 210 263 319 380
#     4  11  25  42  66  94 127 172 213 270 325 378
#     4  10  22  38  62  91 126 163 206 264 316 374
#     4  10  23  39  61  92 124 162 212 260 317 377
#     4  10  22  41  66  96 129 167 215 267 319 388
#     4  11  26  44  62  94 132 165 218 269 316 388
#     4  10  21  39  62  92 126 166 214 258 314 381
#
# _framework density 20.358844000000001
#
# number of rings (size 3 to 8) (size 9 to 14) (size 15 to 20)
#    0.000    1.667    0.833    2.250    4.667    5.333 
#    0.000    1.667    0.000    0.000    0.000    0.000 
#    0.000    0.000    0.000    0.000    0.000    0.000 
#
# Total GULP energy -595190.236606 kJ/mol
# GULP energy per Si atom -12399.796596 kJ/mol
# Density = 2.031251 g / cm^3
# Si number density = 20.358844 Si / 1000 Ang^3
#
#
#
# Elastic Constant Matrix: (Units=GPa)
#
#
# Indices 1 2 3 4 5 6 
#
# 1 89.7456 30.9098 25.5368 0.0000 0.0000 0.0000
# 2 30.9098 98.9815 62.1869 0.0000 0.0000 0.0000
# 3 25.5368 62.1869 140.3806 0.0000 0.0000 0.0000
# 4 0.0000 0.0000 0.0000 39.0851 0.0000 0.0000
# 5 0.0000 0.0000 0.0000 0.0000 27.0614 0.0000
# 6 0.0000 0.0000 0.0000 0.0000 0.0000 7.9138
#
#
#
# Elastic Compliance Matrix: (Units=1/GPa)
#
#
# Indices 1 2 3 4 5 6 
#
# 1 0.012543 -0.003441 -0.000757 0.000000 0.000000 0.000000
# 2 -0.003441 0.014943 -0.005994 0.000000 0.000000 0.000000
# 3 -0.000757 -0.005994 0.009916 0.000000 0.000000 0.000000
# 4 0.000000 0.000000 0.000000 0.025585 0.000000 0.000000
# 5 0.000000 0.000000 0.000000 0.000000 0.036953 0.000000
# 6 0.000000 0.000000 0.000000 0.000000 0.000000 0.126361
#
#
# Mechanical properties :
#
#
# Convention : Reuss Voigt Hill
#
# Bulk Modulus (GPa) = 58.75981 62.93054 60.84518
# Shear Modulus (GPa) = 19.81301 28.84367 24.32834
#
# Velocity S-wave (km/s) = 3.12298 3.76808 3.46059
# Velocity P-wave (km/s) = 6.47524 7.06463 6.77635
#
# Compressibility (1/GPa) = 0.01701843
#
# Stress axis : x y z
#
# Youngs Moduli (GPa) = 79.72380 66.92044 100.84331
#
# Poissons Ratio (x) = 0.23029 0.07638
# Poissons Ratio (y) = 0.27434 0.60442
# Poissons Ratio (z) = 0.06038 0.40110
#
# Static dielectric constant tensor:
#      x y z
#    x 3.716030 0.000000 0.000000 
#    y 0.000000 3.841310 0.000000 
#    z 0.000000 0.000000 3.768370 
# 
# 
# High freq. dielectric constant tensor:
#      x y z
#    x 1.802270 0.000000 0.000000 
#    y 0.000000 1.797950 0.000000 
#    z 0.000000 0.000000 1.802080 
# 
# From -- ./inp_files/37841.got.cif
#   From: 2010.03.12/outbox.cif.g09.slc.cpg/sg53_19_cif.got.tgz:37841.got - 2010.04.16 14:36:59.
