data_PCOD8221526
_publ_section_title
;
Structure prediction by ZEFSAII (Michael W. Deem and Ramdas Pophale) SiO2 
 PCOD8221526
Probable space group: P M N A
;
_chemical_formula_sum "Si O2"
_cell_formula_units_Z 56
_cell_length_a 8.767098
_cell_length_b 20.804352
_cell_length_c 15.331210
_cell_angle_alpha 90.000000
_cell_angle_beta 90.000000
_cell_angle_gamma 90.000000
_cell_volume 2796.317540
_symmetry_space_group_name_H-M "P M N A"
_symmetry_group_IT_number 53
_symmetry_cell_setting 'orthorhombic'
loop_
_space_group_symop_operation_xyz
x,y,z
1/2-x,-y,1/2+z
x,-y,-z
1/2-x,y,1/2-z
-x,-y,-z
1/2+x,y,1/2-z
-x,y,z
1/2+x,-y,1/2+z
loop_
_atom_site_type_symbol
_atom_site_label
_atom_site_fract_x
_atom_site_fract_y
_atom_site_fract_z
Si Si1 0.180503 0.506643 0.599482
Si Si2 0.179031 0.638984 0.839321
Si Si3 0.179296 0.852621 0.491721
Si Si4 0.179651 0.378238 0.837372
Si Si5 0.822613 0.717640 0.009756
Si Si6 0.178531 0.086449 0.158899
Si Si7 0.821517 0.062429 0.841258
O O1 0.235218 0.500000 0.500000
O O2 0.242073 0.572098 0.639027
O O3 0.250398 0.448726 0.654007
O O4 0.000000 0.505096 0.608102
O O5 0.250000 0.666686 0.750000
O O6 0.214566 0.690796 0.914029
O O7 0.000000 0.627258 0.829279
O O8 0.220878 0.779480 0.470829
O O9 0.246905 0.870523 0.584998
O O10 0.248500 0.898094 0.418673
O O11 0.000000 0.862201 0.492816
O O12 0.250000 0.346443 0.750000
O O13 0.000000 0.383691 0.828321
O O14 0.226730 0.335537 0.920023
O O15 0.000000 0.735868 0.019305
O O16 0.250000 0.108542 0.250000
O O17 0.000000 0.100205 0.161081
O O18 0.214749 0.011994 0.140522
O O19 0.750000 0.084992 0.750000
O O20 0.000000 0.076223 0.837936
#
# Coordination Sequence:
#
# PCOD8221526 Si02
#       7
#     8   8   8   8   8   8   8
#     4  11  22  37  62  92 122 154 192 245 299 355
#     4  11  23  41  64  89 118 155 198 246 300 357
#     4  12  25  39  61  90 124 165 205 249 300 361
#     4  11  23  41  64  89 118 155 198 246 300 357
#     4  10  24  44  62  82 117 162 204 251 300 354
#     4  10  21  39  64  93 125 160 201 251 303 357
#     4  10  21  39  64  93 125 160 201 251 303 357
#
# _framework density 20.026337000000002
#
# number of rings (size 3 to 8) (size 9 to 14) (size 15 to 20)
#    0.000    1.286    1.429    4.286    0.000    7.429 
#    0.000    2.857    0.000    0.000    0.000    0.000 
#    0.000    0.000    0.000    0.000    0.000    0.000 
#
# Total GULP energy -694786.163237 kJ/mol
# GULP energy per Si atom -12406.895772 kJ/mol
# Density = 1.998076 g / cm^3
# Si number density = 20.026337 Si / 1000 Ang^3
#
#
#
# Elastic Constant Matrix: (Units=GPa)
#
#
# Indices 1 2 3 4 5 6 
#
# 1 90.2644 27.3765 36.6195 0.0000 0.0000 0.0000
# 2 27.3765 50.9365 8.5139 0.0000 0.0000 0.0000
# 3 36.6195 8.5139 104.7045 0.0000 0.0000 0.0000
# 4 0.0000 0.0000 0.0000 -39.4451 0.0000 0.0000
# 5 0.0000 0.0000 0.0000 0.0000 40.1849 0.0000
# 6 0.0000 0.0000 0.0000 0.0000 0.0000 28.9648
#
#
#
# Elastic Compliance Matrix: (Units=1/GPa)
#
#
# Indices 1 2 3 4 5 6 
#
# 1 0.015242 -0.007401 -0.004729 0.000000 0.000000 0.000000
# 2 -0.007401 0.023497 0.000678 0.000000 0.000000 0.000000
# 3 -0.004729 0.000678 0.011149 0.000000 0.000000 0.000000
# 4 0.000000 0.000000 0.000000 -0.025352 0.000000 0.000000
# 5 0.000000 0.000000 0.000000 0.000000 0.024885 0.000000
# 6 0.000000 0.000000 0.000000 0.000000 0.000000 0.034525
#
#
# Mechanical properties :
#
#
# Convention : Reuss Voigt Hill
#
# Bulk Modulus (GPa) = 37.05966 43.43613 40.24789
# Shear Modulus (GPa) = 43.16096 17.50063 30.33079
#
# Velocity S-wave (km/s) = 4.64746 2.95935 3.89594
# Velocity P-wave (km/s) = 6.88071 5.78045 6.35444
#
# Compressibility (1/GPa) = 0.02698352
#
# Stress axis : x y z
#
# Youngs Moduli (GPa) = 65.60895 42.55864 89.69069
#
# Poissons Ratio (x) = 0.31500 0.42413
# Poissons Ratio (y) = 0.48560 -0.06081
# Poissons Ratio (z) = 0.31025 -0.02885
#
# Static dielectric constant tensor:
#      x y z
#    x 3.795000 0.000000 0.000000 
#    y 0.000000 3.532760 0.000000 
#    z 0.000000 0.000000 4.002250 
# 
# 
# High freq. dielectric constant tensor:
#      x y z
#    x 1.793400 0.000000 0.000000 
#    y 0.000000 1.775720 0.000000 
#    z 0.000000 0.000000 1.801680 
# 
# From -- ./inp_files/20484.got.cif
#   From: 2010.03.12/outbox.cif.g09.slc.cpg/sg53_11_cif.got.tgz:20484.got - 2010.04.16 14:36:59.
