data_PCOD8221967
_publ_section_title
;
Structure prediction by ZEFSAII (Michael W. Deem and Ramdas Pophale) SiO2 
 PCOD8221967
Probable space group: P M N A
;
_chemical_formula_sum "Si O2"
_cell_formula_units_Z 40
_cell_length_a 17.596520
_cell_length_b 9.250238
_cell_length_c 11.851421
_cell_angle_alpha 90.000000
_cell_angle_beta 90.000000
_cell_angle_gamma 90.000000
_cell_volume 1929.079475
_symmetry_space_group_name_H-M "P M N A"
_symmetry_group_IT_number 53
_symmetry_cell_setting 'orthorhombic'
loop_
_space_group_symop_operation_xyz
x,y,z
1/2-x,-y,1/2+z
x,-y,-z
1/2-x,y,1/2-z
-x,-y,-z
1/2+x,y,1/2-z
-x,y,z
1/2+x,-y,1/2+z
loop_
_atom_site_type_symbol
_atom_site_label
_atom_site_fract_x
_atom_site_fract_y
_atom_site_fract_z
Si Si1 0.307776 0.331860 0.529057
Si Si2 0.335334 0.267919 0.286959
Si Si3 0.085988 0.109041 0.403698
Si Si4 0.913406 0.575365 0.215605
Si Si5 0.640072 0.345800 0.948416
O O1 0.305060 0.500000 0.500000
O O2 0.335437 0.235749 0.421498
O O3 0.368103 0.320628 0.629766
O O4 0.224397 0.276167 0.567518
O O5 0.250000 0.304133 0.250000
O O6 0.367265 0.129898 0.214531
O O7 0.383246 0.413153 0.267252
O O8 0.088231 0.264634 0.461243
O O9 0.000000 0.062887 0.373312
O O10 0.120485 0.000000 0.500000
O O11 0.906602 0.657934 0.333497
O O12 0.000000 0.567677 0.174623
O O13 0.654202 0.500000 0.000000
#
# Coordination Sequence:
#
# PCOD8221967 Si02
#       5
#     8   8   8   8   8
#     4   9  19  33  56  86 121 157 200 254 303 357
#     4  11  19  37  60  82 120 162 205 249 304 371
#     4  11  24  39  59  89 121 154 198 256 310 359
#     4  11  21  31  54  94 129 158 199 253 314 369
#     4  11  19  36  62  85 118 160 205 254 304 362
#
# _framework density 20.735278999999998
#
# number of rings (size 3 to 8) (size 9 to 14) (size 15 to 20)
#    0.000    1.400    4.000    4.200    0.000    5.200 
#    0.000    2.000    0.000    0.000    0.000    4.200 
#    0.000    0.000    0.000    0.000    0.000    0.000 
#
# Total GULP energy -495638.863505 kJ/mol
# GULP energy per Si atom -12390.971588 kJ/mol
# Density = 2.068808 g / cm^3
# Si number density = 20.735279 Si / 1000 Ang^3
#
#
#
# Elastic Constant Matrix: (Units=GPa)
#
#
# Indices 1 2 3 4 5 6 
#
# 1 104.2630 14.7771 28.3159 0.0000 0.0000 0.0000
# 2 14.7771 38.1928 21.3882 0.0000 0.0000 0.0000
# 3 28.3159 21.3882 113.5380 0.0000 0.0000 0.0000
# 4 0.0000 0.0000 0.0000 39.5110 0.0000 0.0000
# 5 0.0000 0.0000 0.0000 0.0000 14.0934 0.0000
# 6 0.0000 0.0000 0.0000 0.0000 0.0000 15.9872
#
#
#
# Elastic Compliance Matrix: (Units=1/GPa)
#
#
# Indices 1 2 3 4 5 6 
#
# 1 0.010572 -0.002922 -0.002086 0.000000 0.000000 0.000000
# 2 -0.002922 0.030079 -0.004937 0.000000 0.000000 0.000000
# 3 -0.002086 -0.004937 0.010258 0.000000 0.000000 0.000000
# 4 0.000000 0.000000 0.000000 0.025309 0.000000 0.000000
# 5 0.000000 0.000000 0.000000 0.000000 0.070955 0.000000
# 6 0.000000 0.000000 0.000000 0.000000 0.000000 0.062550
#
#
# Mechanical properties :
#
#
# Convention : Reuss Voigt Hill
#
# Bulk Modulus (GPa) = 32.24028 42.77293 37.50660
# Shear Modulus (GPa) = 20.83741 26.68582 23.76161
#
# Velocity S-wave (km/s) = 3.17349 3.59134 3.38886
# Velocity P-wave (km/s) = 5.38613 6.15385 5.78274
#
# Compressibility (1/GPa) = 0.03101710
#
# Stress axis : x y z
#
# Youngs Moduli (GPa) = 94.59102 33.24633 97.48485
#
# Poissons Ratio (x) = 0.09715 0.20336
# Poissons Ratio (y) = 0.27640 0.48132
# Poissons Ratio (z) = 0.19733 0.16415
#
# Static dielectric constant tensor:
#      x y z
#    x 3.807610 0.000000 0.000000 
#    y 0.000000 0.577780 0.000000 
#    z 0.000000 0.000000 4.249350 
# 
# 
# High freq. dielectric constant tensor:
#      x y z
#    x 1.815980 0.000000 0.000000 
#    y 0.000000 1.752110 0.000000 
#    z 0.000000 0.000000 1.825070 
# 
# From -- ./inp_files/16686.got.cif
#   From: 2010.03.12/outbox.cif.g09.slc.cpg/sg53_9_cif.got.tgz:16686.got - 2010.04.16 14:36:59.
