data_PCOD8221901
_publ_section_title
;
Structure prediction by ZEFSAII (Michael W. Deem and Ramdas Pophale) SiO2 
 PCOD8221901
Probable space group: P M N A
;
_chemical_formula_sum "Si O2"
_cell_formula_units_Z 48
_cell_length_a 17.034284
_cell_length_b 14.143789
_cell_length_c 9.203451
_cell_angle_alpha 90.000000
_cell_angle_beta 90.000000
_cell_angle_gamma 90.000000
_cell_volume 2217.381179
_symmetry_space_group_name_H-M "P M N A"
_symmetry_group_IT_number 53
_symmetry_cell_setting 'orthorhombic'
loop_
_space_group_symop_operation_xyz
x,y,z
1/2-x,-y,1/2+z
x,-y,-z
1/2-x,y,1/2-z
-x,-y,-z
1/2+x,y,1/2-z
-x,y,z
1/2+x,-y,1/2+z
loop_
_atom_site_type_symbol
_atom_site_label
_atom_site_fract_x
_atom_site_fract_y
_atom_site_fract_z
Si Si1 0.303932 0.743099 0.622417
Si Si2 0.410650 0.570381 0.124129
Si Si3 0.192456 0.248503 0.617700
Si Si4 0.591743 0.089028 0.400679
Si Si5 0.587407 0.897195 0.938040
Si Si6 0.672671 0.461734 0.341279
O O1 0.250000 0.788412 0.750000
O O2 0.248178 0.702168 0.498570
O O3 0.361649 0.818666 0.546086
O O4 0.349094 0.649618 0.676081
O O5 0.500000 0.593971 0.086547
O O6 0.369217 0.670618 0.154211
O O7 0.402585 0.514711 0.275141
O O8 0.375218 0.500000 0.000000
O O9 0.250000 0.215090 0.750000
O O10 0.148576 0.160972 0.537074
O O11 0.500000 0.103632 0.428260
O O12 0.613063 0.086259 0.229610
O O13 0.620370 0.000000 0.500000
O O14 0.500000 0.849929 0.943731
O O15 0.582264 0.000000 0.000000
O O16 0.686703 0.500000 0.500000
O O17 0.750000 0.488297 0.250000
#
# Coordination Sequence:
#
# PCOD8221901 Si02
#       6
#     8   8   8   8   8   8
#     4  11  22  40  64  96 132 171 224 274 339 399
#     4  11  24  42  67  98 134 181 236 284 341 409
#     4  12  25  42  65 100 137 179 223 280 341 410
#     4  10  23  44  68  95 130 172 219 276 338 400
#     4  10  23  45  69  94 130 174 220 273 339 405
#     4  11  22  40  65  94 133 175 217 277 340 407
#
# _framework density 21.647158999999998
#
# number of rings (size 3 to 8) (size 9 to 14) (size 15 to 20)
#    0.000    1.167    1.667    5.500    2.333    1.667 
#    0.000    2.500    0.000    0.000    0.000    0.000 
#    0.000    0.000    0.000    0.000    0.000    0.000 
#
# Total GULP energy -594684.966175 kJ/mol
# GULP energy per Si atom -12389.270129 kJ/mol
# Density = 2.159789 g / cm^3
# Si number density = 21.647159 Si / 1000 Ang^3
#
#
#
# Elastic Constant Matrix: (Units=GPa)
#
#
# Indices 1 2 3 4 5 6 
#
# 1 76.1168 55.2982 51.9546 0.0000 0.0000 0.0000
# 2 55.2982 129.0044 52.0071 0.0000 0.0000 0.0000
# 3 51.9546 52.0071 131.8540 0.0000 0.0000 0.0000
# 4 0.0000 0.0000 0.0000 40.3981 0.0000 0.0000
# 5 0.0000 0.0000 0.0000 0.0000 33.1187 0.0000
# 6 0.0000 0.0000 0.0000 0.0000 0.0000 27.1508
#
#
#
# Elastic Compliance Matrix: (Units=1/GPa)
#
#
# Indices 1 2 3 4 5 6 
#
# 1 0.022483 -0.007213 -0.006014 0.000000 0.000000 0.000000
# 2 -0.007213 0.011531 -0.001706 0.000000 0.000000 0.000000
# 3 -0.006014 -0.001706 0.010627 0.000000 0.000000 0.000000
# 4 0.000000 0.000000 0.000000 0.024754 0.000000 0.000000
# 5 0.000000 0.000000 0.000000 0.000000 0.030194 0.000000
# 6 0.000000 0.000000 0.000000 0.000000 0.000000 0.036831
#
#
# Mechanical properties :
#
#
# Convention : Reuss Voigt Hill
#
# Bulk Modulus (GPa) = 67.68251 72.83278 70.25765
# Shear Modulus (GPa) = 29.20374 31.98120 30.59247
#
# Velocity S-wave (km/s) = 3.67697 3.84785 3.76338
# Velocity P-wave (km/s) = 7.02573 7.31161 7.17010
#
# Compressibility (1/GPa) = 0.01477487
#
# Stress axis : x y z
#
# Youngs Moduli (GPa) = 44.47887 86.72041 94.10169
#
# Poissons Ratio (x) = 0.62550 0.56592
# Poissons Ratio (y) = 0.32082 0.16056
# Poissons Ratio (z) = 0.26749 0.14797
#
# Static dielectric constant tensor:
#      x y z
#    x 4.012900 0.000000 0.000000 
#    y 0.000000 3.869510 0.000000 
#    z 0.000000 0.000000 4.556730 
# 
# 
# High freq. dielectric constant tensor:
#      x y z
#    x 1.843210 0.000000 0.000000 
#    y 0.000000 1.852170 0.000000 
#    z 0.000000 0.000000 1.860040 
# 
# From -- ./inp_files/9984.got.cif
#   From: 2010.03.12/outbox.cif.g09.slc.cpg/sg53_5_cif.got.tgz:9984.got - 2010.04.16 14:36:59.
