data_PCOD8221467
_publ_section_title
;
Structure prediction by ZEFSAII (Michael W. Deem and Ramdas Pophale) SiO2 
 PCOD8221467
Probable space group: P M N A
;
_chemical_formula_sum "Si O2"
_cell_formula_units_Z 48
_cell_length_a 10.225686
_cell_length_b 17.745916
_cell_length_c 14.039530
_cell_angle_alpha 90.000000
_cell_angle_beta 90.000000
_cell_angle_gamma 90.000000
_cell_volume 2547.671586
_symmetry_space_group_name_H-M "P M N A"
_symmetry_group_IT_number 53
_symmetry_cell_setting 'orthorhombic'
loop_
_space_group_symop_operation_xyz
x,y,z
1/2-x,-y,1/2+z
x,-y,-z
1/2-x,y,1/2-z
-x,-y,-z
1/2+x,y,1/2-z
-x,y,z
1/2+x,-y,1/2+z
loop_
_atom_site_type_symbol
_atom_site_label
_atom_site_fract_x
_atom_site_fract_y
_atom_site_fract_z
Si Si1 0.500000 0.581215 0.451666
Si Si2 0.851205 0.812653 0.974335
Si Si3 0.500000 0.414537 0.965578
Si Si4 0.750000 0.572053 0.750000
Si Si5 0.352641 0.113992 0.670798
Si Si6 0.000000 0.468985 0.738245
Si Si7 0.649617 0.057929 0.331649
Si Si8 0.758310 0.346342 0.052587
O O1 0.500000 0.500000 0.500000
O O2 0.500000 0.576026 0.337278
O O3 0.627814 0.625821 0.482977
O O4 0.815005 0.889053 0.919836
O O5 0.758639 0.744280 0.942005
O O6 0.000000 0.788912 0.952728
O O7 0.830153 0.828729 0.085103
O O8 0.500000 0.410713 0.850325
O O9 0.500000 0.500000 0.000000
O O10 0.623997 0.372362 0.007346
O O11 0.626502 0.520669 0.771872
O O12 0.720113 0.623334 0.658874
O O13 0.250000 0.138710 0.750000
O O14 0.500000 0.121656 0.711412
O O15 0.328315 0.028292 0.636311
O O16 0.750000 0.081000 0.250000
O O17 0.500000 0.070328 0.296944
#
# Coordination Sequence:
#
# PCOD8221467 Si02
#       8
#     4   8   4   4   8   4   8   8
#     4  12  22  42  66  90 111 150 205 244 280 358
#     4  10  21  39  58  86 120 160 195 238 293 352
#     4  12  24  46  60  88 123 154 193 246 306 362
#     4  12  22  38  64  90 110 152 188 244 310 342
#     4   9  18  37  63  85 116 157 203 243 284 341
#     4  12  24  40  68  86 108 150 198 246 290 356
#     4   9  18  35  60  90 117 154 200 243 284 343
#     4  12  24  41  61  88 125 152 194 249 299 359
#
# _framework density 18.840733
#
# number of rings (size 3 to 8) (size 9 to 14) (size 15 to 20)
#    0.000    1.333    4.167    2.000    1.167    2.000 
#    6.000    0.000    0.000    4.000    0.000    0.000 
#    0.000    0.000    0.000    0.000    0.000    0.000 
#
# Total GULP energy -595330.865537 kJ/mol
# GULP energy per Si atom -12402.726365 kJ/mol
# Density = 1.879785 g / cm^3
# Si number density = 18.840733 Si / 1000 Ang^3
#
#
#
# Elastic Constant Matrix: (Units=GPa)
#
#
# Indices 1 2 3 4 5 6 
#
# 1 105.5297 29.3969 28.8897 0.0000 0.0000 0.0000
# 2 29.3969 62.1704 24.9408 0.0000 0.0000 0.0000
# 3 28.8897 24.9408 106.3203 0.0000 0.0000 0.0000
# 4 0.0000 0.0000 0.0000 19.6990 0.0000 0.0000
# 5 0.0000 0.0000 0.0000 0.0000 35.3378 0.0000
# 6 0.0000 0.0000 0.0000 0.0000 0.0000 27.7882
#
#
#
# Elastic Compliance Matrix: (Units=1/GPa)
#
#
# Indices 1 2 3 4 5 6 
#
# 1 0.011287 -0.004533 -0.002004 0.000000 0.000000 0.000000
# 2 -0.004533 0.019577 -0.003360 0.000000 0.000000 0.000000
# 3 -0.002004 -0.003360 0.010738 0.000000 0.000000 0.000000
# 4 0.000000 0.000000 0.000000 0.050764 0.000000 0.000000
# 5 0.000000 0.000000 0.000000 0.000000 0.028298 0.000000
# 6 0.000000 0.000000 0.000000 0.000000 0.000000 0.035987
#
#
# Mechanical properties :
#
#
# Convention : Reuss Voigt Hill
#
# Bulk Modulus (GPa) = 45.85628 48.94170 47.39899
# Shear Modulus (GPa) = 27.21607 29.28452 28.25029
#
# Velocity S-wave (km/s) = 3.80482 3.94676 3.87644
# Velocity P-wave (km/s) = 6.61014 6.84121 6.72667
#
# Compressibility (1/GPa) = 0.02180726
#
# Stress axis : x y z
#
# Youngs Moduli (GPa) = 88.59481 51.08160 93.12488
#
# Poissons Ratio (x) = 0.23157 0.18658
# Poissons Ratio (y) = 0.40163 0.31294
# Poissons Ratio (z) = 0.17751 0.17166
#
# Static dielectric constant tensor:
#      x y z
#    x 3.394920 0.000000 0.000000 
#    y 0.000000 3.439380 0.000000 
#    z 0.000000 0.000000 3.590990 
# 
# 
# High freq. dielectric constant tensor:
#      x y z
#    x 1.737010 0.000000 0.000000 
#    y 0.000000 1.729150 0.000000 
#    z 0.000000 0.000000 1.735210 
# 
# From -- ./inp_files/20300.got.cif
#   From: 2010.03.12/outbox.cif.g09.slc.cpg/sg53_11_cif.got.tgz:20300.got - 2010.04.16 14:36:59.
