data_PCOD8221752
_publ_section_title
;
Structure prediction by ZEFSAII (Michael W. Deem and Ramdas Pophale) SiO2 
 PCOD8221752
Probable space group: P M N A
;
_chemical_formula_sum "Si O2"
_cell_formula_units_Z 32
_cell_length_a 36.054483
_cell_length_b 8.621094
_cell_length_c 5.033611
_cell_angle_alpha 90.000000
_cell_angle_beta 90.000000
_cell_angle_gamma 90.000000
_cell_volume 1564.592712
_symmetry_space_group_name_H-M "P M N A"
_symmetry_group_IT_number 53
_symmetry_cell_setting 'orthorhombic'
loop_
_space_group_symop_operation_xyz
x,y,z
1/2-x,-y,1/2+z
x,-y,-z
1/2-x,y,1/2-z
-x,-y,-z
1/2+x,y,1/2-z
-x,y,z
1/2+x,-y,1/2+z
loop_
_atom_site_type_symbol
_atom_site_label
_atom_site_fract_x
_atom_site_fract_y
_atom_site_fract_z
Si Si1 0.293379 0.899163 0.251783
Si Si2 0.344025 0.604836 0.240193
Si Si3 0.957049 0.169724 0.090621
Si Si4 0.426253 0.329252 0.907595
O O1 0.250000 0.860423 0.250000
O O2 0.314059 0.737375 0.278607
O O3 0.305376 0.000000 0.500000
O O4 0.305643 0.000000 0.000000
O O5 0.348284 0.500000 0.500000
O O6 0.383246 0.681583 0.168541
O O7 0.329456 0.500000 0.000000
O O8 0.950473 0.288489 0.849812
O O9 0.000000 0.171378 0.171951
O O10 0.933409 0.211934 0.350333
O O11 0.943906 0.000000 0.000000
O O12 0.438175 0.500000 0.000000
#
# Coordination Sequence:
#
# PCOD8221752 Si02
#       4
#     8   8   8   8
#     4  10  22  40  62  91 124 157 198 244 290 347
#     4  11  23  40  61  88 122 157 198 245 292 349
#     4  11  24  41  61  87 118 153 197 247 299 357
#     4  11  23  40  60  87 120 154 197 246 295 352
#
# _framework density 20.452607
#
# number of rings (size 3 to 8) (size 9 to 14) (size 15 to 20)
#    0.000    1.250    0.000    6.750    0.000    9.000 
#    0.000    0.000    0.000    0.000    0.000    0.000 
#    0.000    0.000    0.000    0.000    0.000    0.000 
#
# Total GULP energy -397005.924665 kJ/mol
# GULP energy per Si atom -12406.435146 kJ/mol
# Density = 2.040606 g / cm^3
# Si number density = 20.452607 Si / 1000 Ang^3
#
#
#
# Elastic Constant Matrix: (Units=GPa)
#
#
# Indices 1 2 3 4 5 6 
#
# 1 83.2004 75.2481 57.1989 0.0000 0.0000 0.0000
# 2 75.2481 115.7672 61.1696 0.0000 0.0000 0.0000
# 3 57.1989 61.1696 176.9774 0.0000 0.0000 0.0000
# 4 0.0000 0.0000 0.0000 34.4188 0.0000 0.0000
# 5 0.0000 0.0000 0.0000 0.0000 45.2664 0.0000
# 6 0.0000 0.0000 0.0000 0.0000 0.0000 42.3372
#
#
#
# Elastic Compliance Matrix: (Units=1/GPa)
#
#
# Indices 1 2 3 4 5 6 
#
# 1 0.031068 -0.018215 -0.003745 0.000000 0.000000 0.000000
# 2 -0.018215 0.021248 -0.001457 0.000000 0.000000 0.000000
# 3 -0.003745 -0.001457 0.007364 0.000000 0.000000 0.000000
# 4 0.000000 0.000000 0.000000 0.029054 0.000000 0.000000
# 5 0.000000 0.000000 0.000000 0.000000 0.022091 0.000000
# 6 0.000000 0.000000 0.000000 0.000000 0.000000 0.023620
#
#
# Mechanical properties :
#
#
# Convention : Reuss Voigt Hill
#
# Bulk Modulus (GPa) = 77.84819 84.79760 81.32289
# Shear Modulus (GPa) = 26.94516 36.55971 31.75244
#
# Velocity S-wave (km/s) = 3.63360 4.23251 3.94444
# Velocity P-wave (km/s) = 7.46655 8.08926 7.78413
#
# Compressibility (1/GPa) = 0.01284551
#
# Stress axis : x y z
#
# Youngs Moduli (GPa) = 32.18718 47.06429 135.78722
#
# Poissons Ratio (x) = 0.85728 0.50858
# Poissons Ratio (y) = 0.58630 0.19781
# Poissons Ratio (z) = 0.12055 0.06856
#
# Static dielectric constant tensor:
#      x y z
#    x 3.581840 0.000000 0.000000 
#    y 0.000000 3.751620 0.000000 
#    z 0.000000 0.000000 3.977700 
# 
# 
# High freq. dielectric constant tensor:
#      x y z
#    x 1.794850 0.000000 0.000000 
#    y 0.000000 1.808940 0.000000 
#    z 0.000000 0.000000 1.824500 
# 
# From -- ./inp_files/4946.got.cif
#   From: 2010.03.12/outbox.cif.g09.slc.cpg/sg53_3_cif.got.tgz:4946.got - 2010.04.16 14:36:59.
