data_PCOD8221364
_publ_section_title
;
Structure prediction by ZEFSAII (Michael W. Deem and Ramdas Pophale) SiO2 
 PCOD8221364
Probable space group: P M N A
;
_chemical_formula_sum "Si O2"
_cell_formula_units_Z 64
_cell_length_a 14.832444
_cell_length_b 18.476348
_cell_length_c 10.822375
_cell_angle_alpha 90.000000
_cell_angle_beta 90.000000
_cell_angle_gamma 90.000000
_cell_volume 2965.865343
_symmetry_space_group_name_H-M "P M N A"
_symmetry_group_IT_number 53
_symmetry_cell_setting 'orthorhombic'
loop_
_space_group_symop_operation_xyz
x,y,z
1/2-x,-y,1/2+z
x,-y,-z
1/2-x,y,1/2-z
-x,-y,-z
1/2+x,y,1/2-z
-x,y,z
1/2+x,-y,1/2+z
loop_
_atom_site_type_symbol
_atom_site_label
_atom_site_fract_x
_atom_site_fract_y
_atom_site_fract_z
Si Si1 0.598522 0.846155 0.443482
Si Si2 0.604180 0.528415 0.270225
Si Si3 0.167317 0.611561 0.669573
Si Si4 0.251010 0.736897 0.389057
Si Si5 0.101198 0.125759 0.219395
Si Si6 0.396333 0.762152 0.927042
Si Si7 0.696112 0.983572 0.364883
Si Si8 0.756371 0.578780 0.428535
O O1 0.500000 0.826644 0.392477
O O2 0.668474 0.792879 0.384153
O O3 0.602228 0.832594 0.589885
O O4 0.616954 0.929413 0.406116
O O5 0.500000 0.555966 0.279326
O O6 0.602090 0.442135 0.245308
O O7 0.661481 0.540622 0.395543
O O8 0.661284 0.574405 0.169517
O O9 0.250000 0.641141 0.750000
O O10 0.111051 0.679732 0.621341
O O11 0.206010 0.554910 0.563664
O O12 0.250000 0.709918 0.250000
O O13 0.162492 0.774874 0.448913
O O14 0.267227 0.662804 0.462565
O O15 0.139034 0.180479 0.324128
O O16 0.161210 0.054612 0.206307
O O17 0.000000 0.102031 0.254495
O O18 0.500000 0.777110 0.960289
O O19 0.750000 0.945785 0.250000
O O20 0.745948 0.000000 0.500000
#
# Coordination Sequence:
#
# PCOD8221364 Si02
#       8
#     8   8   8   8   8   8   8   8
#     4  10  22  39  62  93 128 167 214 259 312 384
#     4  11  22  41  68  90 121 172 217 261 323 386
#     4  11  23  39  66  91 134 168 209 268 325 387
#     4  11  23  41  63  87 126 171 212 264 328 381
#     4   9  20  39  63  93 125 160 206 259 317 376
#     4  10  24  41  64 100 132 166 215 271 327 390
#     4  10  21  37  65  94 126 171 216 264 319 383
#     4  10  23  43  59  93 125 160 217 272 316 375
#
# _framework density 21.578862000000001
#
# number of rings (size 3 to 8) (size 9 to 14) (size 15 to 20)
#    0.000    1.750    2.500    1.500    7.000    5.500 
#    0.000    1.875    0.000    0.750    0.000    0.000 
#    0.000    0.000    0.000    0.000    0.000    0.000 
#
# Total GULP energy -792932.502870 kJ/mol
# GULP energy per Si atom -12389.570357 kJ/mol
# Density = 2.152975 g / cm^3
# Si number density = 21.578862 Si / 1000 Ang^3
#
#
#
# Elastic Constant Matrix: (Units=GPa)
#
#
# Indices 1 2 3 4 5 6 
#
# 1 124.2321 36.7155 40.2828 0.0000 0.0000 0.0000
# 2 36.7155 89.0275 26.2998 0.0000 0.0000 0.0000
# 3 40.2828 26.2998 107.7291 0.0000 0.0000 0.0000
# 4 0.0000 0.0000 0.0000 31.7569 0.0000 0.0000
# 5 0.0000 0.0000 0.0000 0.0000 17.1319 0.0000
# 6 0.0000 0.0000 0.0000 0.0000 0.0000 25.1789
#
#
#
# Elastic Compliance Matrix: (Units=1/GPa)
#
#
# Indices 1 2 3 4 5 6 
#
# 1 0.009958 -0.003240 -0.002932 0.000000 0.000000 0.000000
# 2 -0.003240 0.013160 -0.002001 0.000000 0.000000 0.000000
# 3 -0.002932 -0.002001 0.010868 0.000000 0.000000 0.000000
# 4 0.000000 0.000000 0.000000 0.031489 0.000000 0.000000
# 5 0.000000 0.000000 0.000000 0.000000 0.058371 0.000000
# 6 0.000000 0.000000 0.000000 0.000000 0.000000 0.039716
#
#
# Mechanical properties :
#
#
# Convention : Reuss Voigt Hill
#
# Bulk Modulus (GPa) = 56.69694 58.62055 57.65875
# Shear Modulus (GPa) = 26.91235 29.32625 28.11930
#
# Velocity S-wave (km/s) = 3.53535 3.69050 3.61376
# Velocity P-wave (km/s) = 6.55715 6.73679 6.64758
#
# Compressibility (1/GPa) = 0.01763764
#
# Stress axis : x y z
#
# Youngs Moduli (GPa) = 100.42180 75.98787 92.01681
#
# Poissons Ratio (x) = 0.24624 0.26984
# Poissons Ratio (y) = 0.32541 0.18413
# Poissons Ratio (z) = 0.29448 0.15206
#
# Static dielectric constant tensor:
#      x y z
#    x 3.809470 0.000000 0.000000 
#    y 0.000000 3.787440 0.000000 
#    z 0.000000 0.000000 4.155260 
# 
# 
# High freq. dielectric constant tensor:
#      x y z
#    x 1.828430 0.000000 0.000000 
#    y 0.000000 1.854830 0.000000 
#    z 0.000000 0.000000 1.850900 
# 
# From -- ./inp_files/16214.got.cif
#   From: 2010.03.12/outbox.cif.g09.slc.cpg/sg53_9_cif.got.tgz:16214.got - 2010.04.16 14:36:59.
