data_PCOD8221785
_publ_section_title
;
Structure prediction by ZEFSAII (Michael W. Deem and Ramdas Pophale) SiO2 
 PCOD8221785
Probable space group: P M N A
;
_chemical_formula_sum "Si O2"
_cell_formula_units_Z 40
_cell_length_a 17.435907
_cell_length_b 19.556973
_cell_length_c 5.136874
_cell_angle_alpha 90.000000
_cell_angle_beta 90.000000
_cell_angle_gamma 90.000000
_cell_volume 1751.640965
_symmetry_space_group_name_H-M "P M N A"
_symmetry_group_IT_number 53
_symmetry_cell_setting 'orthorhombic'
loop_
_space_group_symop_operation_xyz
x,y,z
1/2-x,-y,1/2+z
x,-y,-z
1/2-x,y,1/2-z
-x,-y,-z
1/2+x,y,1/2-z
-x,y,z
1/2+x,-y,1/2+z
loop_
_atom_site_type_symbol
_atom_site_label
_atom_site_fract_x
_atom_site_fract_y
_atom_site_fract_z
Si Si1 0.591643 0.076954 0.028317
Si Si2 0.912991 0.700359 0.836693
Si Si3 0.413395 0.436506 0.673306
Si Si4 0.199703 0.368551 0.498833
Si Si5 0.090672 0.845663 0.029829
O O1 0.500000 0.077013 0.026172
O O2 0.624809 0.123667 0.795084
O O3 0.624202 0.109775 0.292333
O O4 0.622992 0.000000 0.000000
O O5 0.855844 0.693779 0.589859
O O6 0.886553 0.766095 0.001493
O O7 0.000000 0.709372 0.730459
O O8 0.905700 0.633367 0.012664
O O9 0.386945 0.500000 0.500000
O O10 0.500000 0.446914 0.776803
O O11 0.356094 0.431593 0.919399
O O12 0.250000 0.346035 0.750000
O O13 0.250000 0.392131 0.250000
O O14 0.000000 0.853301 0.032785
#
# Coordination Sequence:
#
# PCOD8221785 Si02
#       5
#     8   8   8   8   8
#     4   9  16  27  44  74 116 158 198 243 307 380
#     4  10  22  41  64  91 127 172 226 272 319 390
#     4  10  23  46  73  99 130 173 222 270 324 389
#     4  12  25  46  66  95 132 172 214 276 339 397
#     4   9  18  29  50  78 111 161 207 250 306 369
#
# _framework density 22.835730999999999
#
# number of rings (size 3 to 8) (size 9 to 14) (size 15 to 20)
#    0.000    2.000    2.000    1.200    2.800    3.200 
#    3.600    3.000    0.000    0.000    0.000    0.000 
#    0.000    4.800    1.200    0.000    0.400    0.000 
#
# Total GULP energy -495851.355234 kJ/mol
# GULP energy per Si atom -12396.283881 kJ/mol
# Density = 2.278376 g / cm^3
# Si number density = 22.835731 Si / 1000 Ang^3
#
#
#
# Elastic Constant Matrix: (Units=GPa)
#
#
# Indices 1 2 3 4 5 6 
#
# 1 92.3558 16.6203 40.0406 0.0000 0.0000 0.0000
# 2 16.6203 150.0400 41.7754 0.0000 0.0000 0.0000
# 3 40.0406 41.7754 136.3542 0.0000 0.0000 0.0000
# 4 0.0000 0.0000 0.0000 39.3411 0.0000 0.0000
# 5 0.0000 0.0000 0.0000 0.0000 -1.4773 0.0000
# 6 0.0000 0.0000 0.0000 0.0000 0.0000 -3.1696
#
#
#
# Elastic Compliance Matrix: (Units=1/GPa)
#
#
# Indices 1 2 3 4 5 6 
#
# 1 0.012429 -0.000394 -0.003529 0.000000 0.000000 0.000000
# 2 -0.000394 0.007299 -0.002120 0.000000 0.000000 0.000000
# 3 -0.003529 -0.002120 0.009020 0.000000 0.000000 0.000000
# 4 0.000000 0.000000 0.000000 0.025419 0.000000 0.000000
# 5 0.000000 0.000000 0.000000 0.000000 -0.676907 0.000000
# 6 0.000000 0.000000 0.000000 0.000000 0.000000 -0.315499
#
#
# Mechanical properties :
#
#
# Convention : Reuss Voigt Hill
#
# Bulk Modulus (GPa) = 60.02333 63.95807 61.99070
# Shear Modulus (GPa) = -5.43124 25.62642 10.09759
#
# Velocity S-wave (km/s) = -1.54388 3.35357 2.10510
# Velocity P-wave (km/s) = 4.81288 6.56231 5.75447
#
# Compressibility (1/GPa) = 0.01666019
#
# Stress axis : x y z
#
# Youngs Moduli (GPa) = 80.45976 137.00606 110.86774
#
# Poissons Ratio (x) = 0.05401 0.39124
# Poissons Ratio (y) = 0.03172 0.23509
# Poissons Ratio (z) = 0.28393 0.29051
#
# Static dielectric constant tensor:
#      x y z
#    x 4.076320 0.000000 0.000000 
#    y 0.000000 4.100840 0.000000 
#    z 0.000000 0.000000 4.331290 
# 
# 
# High freq. dielectric constant tensor:
#      x y z
#    x 1.861070 0.000000 0.000000 
#    y 0.000000 1.897230 0.000000 
#    z 0.000000 0.000000 1.910240 
# 
# From -- ./inp_files/2177.got.cif
#   From: 2010.03.12/outbox.cif.g09.slc.cpg/sg53_2_cif.got.tgz:2177.got - 2010.04.16 14:36:59.
