data_PCOD8221146
_publ_section_title
;
Structure prediction by ZEFSAII (Michael W. Deem and Ramdas Pophale) SiO2 
 PCOD8221146
Probable space group: P M N A
;
_chemical_formula_sum "Si O2"
_cell_formula_units_Z 56
_cell_length_a 17.286058
_cell_length_b 31.480851
_cell_length_c 5.084907
_cell_angle_alpha 90.000000
_cell_angle_beta 90.000000
_cell_angle_gamma 90.000000
_cell_volume 2767.103757
_symmetry_space_group_name_H-M "P M N A"
_symmetry_group_IT_number 53
_symmetry_cell_setting 'orthorhombic'
loop_
_space_group_symop_operation_xyz
x,y,z
1/2-x,-y,1/2+z
x,-y,-z
1/2-x,y,1/2-z
-x,-y,-z
1/2+x,y,1/2-z
-x,y,z
1/2+x,-y,1/2+z
loop_
_atom_site_type_symbol
_atom_site_label
_atom_site_fract_x
_atom_site_fract_y
_atom_site_fract_z
Si Si1 0.410393 0.679159 0.498933
Si Si2 0.801705 0.548163 0.499256
Si Si3 0.086547 0.888760 0.616195
Si Si4 0.198488 0.757094 0.006159
Si Si5 0.158745 0.024109 0.252850
Si Si6 0.088535 0.374699 0.510792
Si Si7 0.588045 0.166010 0.623797
O O1 0.500000 0.693393 0.474636
O O2 0.359946 0.719895 0.574113
O O3 0.378839 0.657631 0.231358
O O4 0.398482 0.645119 0.726859
O O5 0.833635 0.500000 0.500000
O O6 0.750000 0.558225 0.750000
O O7 0.873741 0.579284 0.485425
O O8 0.750000 0.557150 0.250000
O O9 0.139627 0.926424 0.724048
O O10 0.116367 0.868580 0.341091
O O11 0.000000 0.906546 0.576902
O O12 0.088750 0.852463 0.833043
O O13 0.250000 0.741502 0.250000
O O14 0.148445 0.795870 0.120587
O O15 0.250000 0.769345 0.750000
O O16 0.250000 0.019288 0.250000
O O17 0.121950 0.000000 0.500000
O O18 0.123009 0.000000 0.000000
O O19 0.000000 0.382966 0.579255
O O20 0.500000 0.180848 0.696264
#
# Coordination Sequence:
#
# PCOD8221146 Si02
#       7
#     8   8   8   8   8   8   8
#     4  10  22  40  59  82 115 152 187 231 291 346
#     4  10  21  36  55  81 114 151 188 231 288 345
#     4  10  21  37  60  85 108 145 192 230 271 326
#     4  12  25  39  59  89 116 145 191 237 281 335
#     4  10  21  36  54  80 114 149 182 223 280 334
#     4  10  21  37  59  84 110 147 193 235 281 340
#     4  10  22  41  60  81 114 151 185 227 282 335
#
# _framework density 20.237766000000001
#
# number of rings (size 3 to 8) (size 9 to 14) (size 15 to 20)
#    0.000    1.714    0.000    3.857    0.000    6.000 
#    0.000    5.714    0.000    5.143    0.000    0.000 
#    0.000    0.000    0.000    0.000    0.000    0.000 
#
# Total GULP energy -694467.105703 kJ/mol
# GULP energy per Si atom -12401.198316 kJ/mol
# Density = 2.019170 g / cm^3
# Si number density = 20.237766 Si / 1000 Ang^3
#
#
#
# Elastic Constant Matrix: (Units=GPa)
#
#
# Indices 1 2 3 4 5 6 
#
# 1 60.9198 52.2612 34.0747 0.0000 0.0000 0.0000
# 2 52.2612 106.2173 27.0378 0.0000 0.0000 0.0000
# 3 34.0747 27.0378 126.7910 0.0000 0.0000 0.0000
# 4 0.0000 0.0000 0.0000 33.6234 0.0000 0.0000
# 5 0.0000 0.0000 0.0000 0.0000 27.9332 0.0000
# 6 0.0000 0.0000 0.0000 0.0000 0.0000 36.3758
#
#
#
# Elastic Compliance Matrix: (Units=1/GPa)
#
#
# Indices 1 2 3 4 5 6 
#
# 1 0.031638 -0.014171 -0.005481 0.000000 0.000000 0.000000
# 2 -0.014171 0.016303 0.000332 0.000000 0.000000 0.000000
# 3 -0.005481 0.000332 0.009289 0.000000 0.000000 0.000000
# 4 0.000000 0.000000 0.000000 0.029741 0.000000 0.000000
# 5 0.000000 0.000000 0.000000 0.000000 0.035800 0.000000
# 6 0.000000 0.000000 0.000000 0.000000 0.000000 0.027491
#
#
# Mechanical properties :
#
#
# Convention : Reuss Voigt Hill
#
# Bulk Modulus (GPa) = 53.79312 57.85283 55.82297
# Shear Modulus (GPa) = 25.62820 31.62342 28.62581
#
# Velocity S-wave (km/s) = 3.56245 3.95725 3.76503
# Velocity P-wave (km/s) = 6.59997 7.03765 6.82232
#
# Compressibility (1/GPa) = 0.01858974
#
# Stress axis : x y z
#
# Youngs Moduli (GPa) = 31.60791 61.33939 107.65326
#
# Poissons Ratio (x) = 0.86926 0.59000
# Poissons Ratio (y) = 0.44793 -0.03574
# Poissons Ratio (z) = 0.17323 -0.02036
#
# Static dielectric constant tensor:
#      x y z
#    x 3.628390 0.000000 0.000000 
#    y 0.000000 3.509060 0.000000 
#    z 0.000000 0.000000 3.953260 
# 
# 
# High freq. dielectric constant tensor:
#      x y z
#    x 1.781730 0.000000 0.000000 
#    y 0.000000 1.788570 0.000000 
#    z 0.000000 0.000000 1.813050 
# 
# From -- ./inp_files/1471.got.cif
#   From: 2010.03.12/outbox.cif.g09.slc.cpg/sg53_1_cif.got.tgz:1471.got - 2010.04.16 14:36:59.
