data_PCOD8221322
_publ_section_title
;
Structure prediction by ZEFSAII (Michael W. Deem and Ramdas Pophale) SiO2 
 PCOD8221322
Probable space group: P M N A
;
_chemical_formula_sum "Si O2"
_cell_formula_units_Z 64
_cell_length_a 8.706527
_cell_length_b 11.954595
_cell_length_c 30.829452
_cell_angle_alpha 90.000000
_cell_angle_beta 90.000000
_cell_angle_gamma 90.000000
_cell_volume 3208.821980
_symmetry_space_group_name_H-M "P M N A"
_symmetry_group_IT_number 53
_symmetry_cell_setting 'orthorhombic'
loop_
_space_group_symop_operation_xyz
x,y,z
1/2-x,-y,1/2+z
x,-y,-z
1/2-x,y,1/2-z
-x,-y,-z
1/2+x,y,1/2-z
-x,y,z
1/2+x,-y,1/2+z
loop_
_atom_site_type_symbol
_atom_site_label
_atom_site_fract_x
_atom_site_fract_y
_atom_site_fract_z
Si Si1 0.680141 0.019431 0.794167
Si Si2 0.818334 0.490858 0.794985
Si Si3 0.681842 0.633064 0.624189
Si Si4 0.822364 0.252226 0.585743
Si Si5 0.820542 0.115244 0.126914
Si Si6 0.320181 0.245244 0.678147
Si Si7 0.321829 0.468389 0.549378
Si Si8 0.822957 0.042349 0.952467
O O1 0.750000 0.968287 0.750000
O O2 0.500000 0.010016 0.791412
O O3 0.736564 0.950334 0.835154
O O4 0.727354 0.148928 0.797617
O O5 0.750000 0.536314 0.750000
O O6 0.752254 0.566521 0.834127
O O7 0.765541 0.363275 0.802309
O O8 0.000000 0.499486 0.793452
O O9 0.500000 0.637220 0.626743
O O10 0.746971 0.759089 0.623996
O O11 0.731930 0.570480 0.580122
O O12 0.714129 0.243783 0.627347
O O13 0.783802 0.362848 0.559093
O O14 0.787698 0.146555 0.555610
O O15 0.000000 0.252187 0.599736
O O16 0.000000 0.115461 0.137843
O O17 0.786550 0.056448 0.081263
O O18 0.500000 0.223826 0.684982
O O19 0.293012 0.500000 0.500000
O O20 0.500000 0.438389 0.558127
O O21 0.000000 0.080760 0.948921
O O22 0.782994 0.000000 0.000000
#
# Coordination Sequence:
#
# PCOD8221322 Si02
#       8
#     8   8   8   8   8   8   8   8
#     4  12  25  41  62  90 124 161 205 252 311 370
#     4  10  21  37  59  86 119 152 193 246 298 357
#     4   9  19  38  60  88 119 155 201 251 301 351
#     4  12  24  38  61  92 130 166 197 249 310 366
#     4  10  21  39  63  88 122 160 204 257 305 360
#     4  11  21  39  64  90 122 158 203 256 304 358
#     4  10  21  39  67  93 119 159 208 254 299 361
#     4  10  22  39  64  94 122 160 211 257 300 359
#
# _framework density 19.945015000000001
#
# number of rings (size 3 to 8) (size 9 to 14) (size 15 to 20)
#    0.000    1.500    2.500    3.000    1.750    3.000 
#    0.000    2.500    0.000    0.000    0.000    0.000 
#    0.000    0.000    0.000    0.000    0.000    0.000 
#
# Total GULP energy -793887.619046 kJ/mol
# GULP energy per Si atom -12404.494048 kJ/mol
# Density = 1.989962 g / cm^3
# Si number density = 19.945015 Si / 1000 Ang^3
#
#
#
# Elastic Constant Matrix: (Units=GPa)
#
#
# Indices 1 2 3 4 5 6 
#
# 1 63.3728 40.2318 38.8857 0.0000 0.0000 0.0000
# 2 40.2318 138.2848 58.3242 0.0000 0.0000 0.0000
# 3 38.8857 58.3242 159.9240 0.0000 0.0000 0.0000
# 4 0.0000 0.0000 0.0000 36.3901 0.0000 0.0000
# 5 0.0000 0.0000 0.0000 0.0000 26.3050 0.0000
# 6 0.0000 0.0000 0.0000 0.0000 0.0000 18.7425
#
#
#
# Elastic Compliance Matrix: (Units=1/GPa)
#
#
# Indices 1 2 3 4 5 6 
#
# 1 0.020782 -0.004627 -0.003366 0.000000 0.000000 0.000000
# 2 -0.004627 0.009576 -0.002367 0.000000 0.000000 0.000000
# 3 -0.003366 -0.002367 0.007935 0.000000 0.000000 0.000000
# 4 0.000000 0.000000 0.000000 0.027480 0.000000 0.000000
# 5 0.000000 0.000000 0.000000 0.000000 0.038016 0.000000
# 6 0.000000 0.000000 0.000000 0.000000 0.000000 0.053355
#
#
# Mechanical properties :
#
#
# Convention : Reuss Voigt Hill
#
# Bulk Modulus (GPa) = 56.90510 70.71835 63.81172
# Shear Modulus (GPa) = 27.21523 31.23018 29.22270
#
# Velocity S-wave (km/s) = 3.69794 3.96133 3.83190
# Velocity P-wave (km/s) = 6.84295 7.51375 7.18618
#
# Compressibility (1/GPa) = 0.01757312
#
# Stress axis : x y z
#
# Youngs Moduli (GPa) = 48.11832 104.42791 126.02757
#
# Poissons Ratio (x) = 0.48315 0.42419
# Poissons Ratio (y) = 0.22262 0.29836
# Poissons Ratio (z) = 0.16196 0.24722
#
# Static dielectric constant tensor:
#      x y z
#    x 3.368940 0.000000 0.000000 
#    y 0.000000 3.858610 0.000000 
#    z 0.000000 0.000000 3.757640 
# 
# 
# High freq. dielectric constant tensor:
#      x y z
#    x 1.755980 0.000000 0.000000 
#    y 0.000000 1.782980 0.000000 
#    z 0.000000 0.000000 1.793110 
# 
# From -- ./inp_files/38139.got.cif
#   From: 2010.03.12/outbox.cif.g09.slc.cpg/sg53_20_cif.got.tgz:38139.got - 2010.04.16 14:36:59.
