data_PCOD8221829
_publ_section_title
;
Structure prediction by ZEFSAII (Michael W. Deem and Ramdas Pophale) SiO2 
 PCOD8221829
Probable space group: P M N A
;
_chemical_formula_sum "Si O2"
_cell_formula_units_Z 48
_cell_length_a 17.369564
_cell_length_b 11.642160
_cell_length_c 12.225574
_cell_angle_alpha 90.000000
_cell_angle_beta 90.000000
_cell_angle_gamma 90.000000
_cell_volume 2472.246322
_symmetry_space_group_name_H-M "P M N A"
_symmetry_group_IT_number 53
_symmetry_cell_setting 'orthorhombic'
loop_
_space_group_symop_operation_xyz
x,y,z
1/2-x,-y,1/2+z
x,-y,-z
1/2-x,y,1/2-z
-x,-y,-z
1/2+x,y,1/2-z
-x,y,z
1/2+x,-y,1/2+z
loop_
_atom_site_type_symbol
_atom_site_label
_atom_site_fract_x
_atom_site_fract_y
_atom_site_fract_z
Si Si1 0.409746 0.608916 0.872448
Si Si2 0.911890 0.236189 0.787031
Si Si3 0.161335 0.367172 0.600008
Si Si4 0.666974 0.760882 0.696662
Si Si5 0.089424 0.986820 0.876226
Si Si6 0.833732 0.372448 0.971732
O O1 0.500000 0.589745 0.884438
O O2 0.369905 0.486591 0.851280
O O3 0.392805 0.691846 0.771612
O O4 0.376993 0.663584 0.984011
O O5 0.858109 0.266673 0.684595
O O6 0.895610 0.314495 0.892471
O O7 0.000000 0.256275 0.753543
O O8 0.895201 0.104180 0.812687
O O9 0.252538 0.378500 0.590033
O O10 0.750000 0.761690 0.750000
O O11 0.637390 0.890195 0.686024
O O12 0.673069 0.702536 0.579662
O O13 0.000000 0.951553 0.876456
O O14 0.119401 0.000000 0.000000
O O15 0.862786 0.500000 0.000000
#
# Coordination Sequence:
#
# PCOD8221829 Si02
#       6
#     8   8   8   8   8   8
#     4  11  22  39  65  92 126 171 205 246 308 371
#     4  11  24  41  65  93 122 161 213 262 308 366
#     4  11  21  41  61  93 129 167 201 250 307 380
#     4  12  23  40  62  94 127 161 211 258 307 370
#     4  10  22  44  66  86 119 164 208 258 315 362
#     4  12  23  39  64  92 130 163 204 256 316 369
#
# _framework density 19.415541000000001
#
# number of rings (size 3 to 8) (size 9 to 14) (size 15 to 20)
#    0.000    0.833    5.000    4.000    0.000    2.333 
#    0.000    0.833    0.000    3.000    0.000    0.000 
#    0.000    0.000    0.000    0.000    0.000    0.000 
#
# Total GULP energy -595543.518335 kJ/mol
# GULP energy per Si atom -12407.156632 kJ/mol
# Density = 1.937135 g / cm^3
# Si number density = 19.415541 Si / 1000 Ang^3
#
#
#
# Elastic Constant Matrix: (Units=GPa)
#
#
# Indices 1 2 3 4 5 6 
#
# 1 37.8172 22.5592 0.3955 0.0000 0.0000 0.0000
# 2 22.5592 93.6019 20.6053 0.0000 0.0000 0.0000
# 3 0.3955 20.6053 60.3574 0.0000 0.0000 0.0000
# 4 0.0000 0.0000 0.0000 25.9165 0.0000 0.0000
# 5 0.0000 0.0000 0.0000 0.0000 26.9457 0.0000
# 6 0.0000 0.0000 0.0000 0.0000 0.0000 22.5109
#
#
#
# Elastic Compliance Matrix: (Units=1/GPa)
#
#
# Indices 1 2 3 4 5 6 
#
# 1 0.031244 -0.008093 0.002558 0.000000 0.000000 0.000000
# 2 -0.008093 0.013648 -0.004606 0.000000 0.000000 0.000000
# 3 0.002558 -0.004606 0.018124 0.000000 0.000000 0.000000
# 4 0.000000 0.000000 0.000000 0.038585 0.000000 0.000000
# 5 0.000000 0.000000 0.000000 0.000000 0.037112 0.000000
# 6 0.000000 0.000000 0.000000 0.000000 0.000000 0.044423
#
#
# Mechanical properties :
#
#
# Convention : Reuss Voigt Hill
#
# Bulk Modulus (GPa) = 23.40095 30.98848 27.19472
# Shear Modulus (GPa) = 22.97124 24.95572 23.96348
#
# Velocity S-wave (km/s) = 3.44341 3.58906 3.51699
# Velocity P-wave (km/s) = 5.28093 5.75938 5.52534
#
# Compressibility (1/GPa) = 0.04273330
#
# Stress axis : x y z
#
# Youngs Moduli (GPa) = 32.00594 73.26987 55.17618
#
# Poissons Ratio (x) = 0.59300 -0.14116
# Poissons Ratio (y) = 0.25904 0.25416
# Poissons Ratio (z) = -0.08188 0.33750
#
# Static dielectric constant tensor:
#      x y z
#    x 3.610270 0.000000 0.000000 
#    y 0.000000 3.560920 0.000000 
#    z 0.000000 0.000000 3.832150 
# 
# 
# High freq. dielectric constant tensor:
#      x y z
#    x 1.762170 0.000000 0.000000 
#    y 0.000000 1.755330 0.000000 
#    z 0.000000 0.000000 1.767480 
# 
# From -- ./inp_files/16957.got.cif
#   From: 2010.03.12/outbox.cif.g09.slc.cpg/sg53_9_cif.got.tgz:16957.got - 2010.04.16 14:36:59.
