data_PCOD8221461
_publ_section_title
;
Structure prediction by ZEFSAII (Michael W. Deem and Ramdas Pophale) SiO2 
 PCOD8221461
Probable space group: P M N A
;
_chemical_formula_sum "Si O2"
_cell_formula_units_Z 28
_cell_length_a 20.924282
_cell_length_b 6.949716
_cell_length_c 8.015423
_cell_angle_alpha 90.000000
_cell_angle_beta 90.000000
_cell_angle_gamma 90.000000
_cell_volume 1165.585318
_symmetry_space_group_name_H-M "P M N A"
_symmetry_group_IT_number 53
_symmetry_cell_setting 'orthorhombic'
loop_
_space_group_symop_operation_xyz
x,y,z
1/2-x,-y,1/2+z
x,-y,-z
1/2-x,y,1/2-z
-x,-y,-z
1/2+x,y,1/2-z
-x,y,z
1/2+x,-y,1/2+z
loop_
_atom_site_type_symbol
_atom_site_label
_atom_site_fract_x
_atom_site_fract_y
_atom_site_fract_z
Si Si1 0.313154 0.628506 0.158917
Si Si2 0.159345 0.000000 0.500000
Si Si3 0.428561 0.715781 0.381919
Si Si4 0.070521 0.151027 0.234103
O O1 0.250000 0.550743 0.250000
O O2 0.375452 0.603449 0.275429
O O3 0.299466 0.854454 0.112943
O O4 0.326162 0.500000 0.000000
O O5 0.118376 0.845975 0.609573
O O6 0.500000 0.630928 0.348632
O O7 0.411984 0.701580 0.581553
O O8 0.428083 0.937147 0.335924
O O9 0.000000 0.201421 0.301923
#
# Coordination Sequence:
#
# PCOD8221461 Si02
#       4
#     8   4   8   8
#     4  11  26  43  62  89 123 163 208 262 318 375
#     4  10  21  38  64  92 121 166 210 248 306 380
#     4   8  16  34  60  90 124 162 202 247 305 372
#     4   8  14  29  58  94 128 159 197 250 306 363
#
# _framework density 24.022265999999998
#
# number of rings (size 3 to 8) (size 9 to 14) (size 15 to 20)
#    0.000    2.857    0.000    2.143    0.000    9.714 
#    0.000    0.000    0.000    4.286    0.000    0.000 
#    0.000    0.000    0.000    0.000    0.000    0.000 
#
# Total GULP energy -346977.871248 kJ/mol
# GULP energy per Si atom -12392.066830 kJ/mol
# Density = 2.396759 g / cm^3
# Si number density = 24.022266 Si / 1000 Ang^3
#
#
#
# Elastic Constant Matrix: (Units=GPa)
#
#
# Indices 1 2 3 4 5 6 
#
# 1 144.7557 37.4240 77.0384 0.0000 0.0000 0.0000
# 2 37.4240 46.4530 32.3415 0.0000 0.0000 0.0000
# 3 77.0384 32.3415 133.3964 0.0000 0.0000 0.0000
# 4 0.0000 0.0000 0.0000 55.9197 0.0000 0.0000
# 5 0.0000 0.0000 0.0000 0.0000 23.2799 0.0000
# 6 0.0000 0.0000 0.0000 0.0000 0.0000 -20.3032
#
#
#
# Elastic Compliance Matrix: (Units=1/GPa)
#
#
# Indices 1 2 3 4 5 6 
#
# 1 0.010969 -0.005326 -0.005044 0.000000 0.000000 0.000000
# 2 -0.005326 0.028484 -0.003830 0.000000 0.000000 0.000000
# 3 -0.005044 -0.003830 0.011338 0.000000 0.000000 0.000000
# 4 0.000000 0.000000 0.000000 0.017883 0.000000 0.000000
# 5 0.000000 0.000000 0.000000 0.000000 0.042955 0.000000
# 6 0.000000 0.000000 0.000000 0.000000 0.000000 -0.049253
#
#
# Mechanical properties :
#
#
# Convention : Reuss Voigt Hill
#
# Bulk Modulus (GPa) = 44.65836 68.69033 56.67435
# Shear Modulus (GPa) = 50.89574 23.63270 37.26422
#
# Velocity S-wave (km/s) = 4.60792 3.13993 3.94285
# Velocity P-wave (km/s) = 6.85137 6.46545 6.66121
#
# Compressibility (1/GPa) = 0.02239222
#
# Stress axis : x y z
#
# Youngs Moduli (GPa) = 91.16339 35.10694 88.19937
#
# Poissons Ratio (x) = 0.18697 0.44486
# Poissons Ratio (y) = 0.48551 0.33783
# Poissons Ratio (z) = 0.45981 0.13447
#
# Static dielectric constant tensor:
#      x y z
#    x 4.234650 0.000000 0.000000 
#    y 0.000000 4.085320 0.000000 
#    z 0.000000 0.000000 5.255580 
# 
# 
# High freq. dielectric constant tensor:
#      x y z
#    x 1.928740 0.000000 0.000000 
#    y 0.000000 1.959140 0.000000 
#    z 0.000000 0.000000 1.960470 
# 
# From -- ./inp_files/9417.got.cif
#   From: 2010.03.12/outbox.cif.g09.slc.cpg/sg53_5_cif.got.tgz:9417.got - 2010.04.16 14:36:59.
