data_PCOD8221052
_publ_section_title
;
Structure prediction by ZEFSAII (Michael W. Deem and Ramdas Pophale) SiO2 
 PCOD8221052
Probable space group: P M N A
;
_chemical_formula_sum "Si O2"
_cell_formula_units_Z 48
_cell_length_a 14.928794
_cell_length_b 12.151319
_cell_length_c 11.729236
_cell_angle_alpha 90.000000
_cell_angle_beta 90.000000
_cell_angle_gamma 90.000000
_cell_volume 2127.736640
_symmetry_space_group_name_H-M "P M N A"
_symmetry_group_IT_number 53
_symmetry_cell_setting 'orthorhombic'
loop_
_space_group_symop_operation_xyz
x,y,z
1/2-x,-y,1/2+z
x,-y,-z
1/2-x,y,1/2-z
-x,-y,-z
1/2+x,y,1/2-z
-x,y,z
1/2+x,-y,1/2+z
loop_
_atom_site_type_symbol
_atom_site_label
_atom_site_fract_x
_atom_site_fract_y
_atom_site_fract_z
Si Si1 0.893150 0.331033 0.455123
Si Si2 0.400365 0.091262 0.080170
Si Si3 0.894836 0.161901 0.985178
Si Si4 0.844259 0.983862 0.811794
Si Si5 0.606764 0.403011 0.579581
Si Si6 0.893215 0.458543 0.673379
O O1 0.851538 0.210180 0.430141
O O2 0.858958 0.371796 0.578747
O O3 0.860652 0.418156 0.359222
O O4 0.000000 0.327093 0.451579
O O5 0.500000 0.105327 0.029683
O O6 0.410046 0.053377 0.210934
O O7 0.349903 0.000000 0.000000
O O8 0.860718 0.286347 0.969877
O O9 0.000000 0.154896 0.014724
O O10 0.877431 0.097736 0.866866
O O11 0.840030 0.109102 0.089959
O O12 0.750000 0.998646 0.750000
O O13 0.644184 0.500000 0.500000
O O14 0.500000 0.404679 0.584286
O O15 0.647595 0.423461 0.705082
O O16 0.000000 0.455797 0.677624
#
# Coordination Sequence:
#
# PCOD8221052 Si02
#       6
#     8   8   8   8   8   8
#     4   8  15  27  45  73 111 148 180 230 295 351
#     4  10  21  33  54  85 113 145 192 248 303 359
#     4  10  22  42  66  92 124 163 207 260 314 367
#     4  11  24  40  61  83 117 161 205 248 306 368
#     4   9  18  30  54  89 119 150 199 258 309 363
#     4   8  14  26  44  72 111 148 181 226 292 353
#
# _framework density 22.559180999999999
#
# number of rings (size 3 to 8) (size 9 to 14) (size 15 to 20)
#    0.000    2.667    0.000    3.000    7.000    0.000 
#    0.000    0.000    0.000    1.000    4.333    0.000 
#    0.000    0.000    0.000    0.000    0.000    0.167 
#
# Total GULP energy -595012.684142 kJ/mol
# GULP energy per Si atom -12396.097586 kJ/mol
# Density = 2.250784 g / cm^3
# Si number density = 22.559181 Si / 1000 Ang^3
#
#
#
# Elastic Constant Matrix: (Units=GPa)
#
#
# Indices 1 2 3 4 5 6 
#
# 1 17.0579 2.8957 -2.8929 0.0000 0.0000 0.0000
# 2 2.8957 218.7146 90.4694 0.0000 0.0000 0.0000
# 3 -2.8929 90.4694 159.1287 0.0000 0.0000 0.0000
# 4 0.0000 0.0000 0.0000 32.6654 0.0000 0.0000
# 5 0.0000 0.0000 0.0000 0.0000 -1.7280 0.0000
# 6 0.0000 0.0000 0.0000 0.0000 0.0000 6.0067
#
#
#
# Elastic Compliance Matrix: (Units=1/GPa)
#
#
# Indices 1 2 3 4 5 6 
#
# 1 0.059234 -0.001608 0.001991 0.000000 0.000000 0.000000
# 2 -0.001608 0.006022 -0.003453 0.000000 0.000000 0.000000
# 3 0.001991 -0.003453 0.008283 0.000000 0.000000 0.000000
# 4 0.000000 0.000000 0.000000 0.030613 0.000000 0.000000
# 5 0.000000 0.000000 0.000000 0.000000 -0.578714 0.000000
# 6 0.000000 0.000000 0.000000 0.000000 0.000000 0.166481
#
#
# Mechanical properties :
#
#
# Convention : Reuss Voigt Hill
#
# Bulk Modulus (GPa) = 14.83673 63.98286 39.40979
# Shear Modulus (GPa) = -17.89069 27.68409 4.89670
#
# Velocity S-wave (km/s) = -2.81918 3.50691 1.47489
# Velocity P-wave (km/s) = 2.00149 6.69490 4.51751
#
# Compressibility (1/GPa) = 0.06740029
#
# Stress axis : x y z
#
# Youngs Moduli (GPa) = 16.88208 166.06770 120.72357
#
# Poissons Ratio (x) = 0.26700 -0.24035
# Poissons Ratio (y) = 0.02714 0.41682
# Poissons Ratio (z) = -0.03361 0.57338
#
# Static dielectric constant tensor:
#      x y z
#    x 3.449270 0.000000 0.000000 
#    y 0.000000 4.436510 0.000000 
#    z 0.000000 0.000000 4.285490 
# 
# 
# High freq. dielectric constant tensor:
#      x y z
#    x 1.850830 0.000000 0.000000 
#    y 0.000000 1.897490 0.000000 
#    z 0.000000 0.000000 1.892850 
# 
# From -- ./inp_files/16914.got.cif
#   From: 2010.03.12/outbox.cif.g09.slc.cpg/sg53_9_cif.got.tgz:16914.got - 2010.04.16 14:36:59.
