data_PCOD8221361
_publ_section_title
;
Structure prediction by ZEFSAII (Michael W. Deem and Ramdas Pophale) SiO2 
 PCOD8221361
Probable space group: P M N A
;
_chemical_formula_sum "Si O2"
_cell_formula_units_Z 48
_cell_length_a 17.341191
_cell_length_b 8.121814
_cell_length_c 17.323428
_cell_angle_alpha 90.000000
_cell_angle_beta 90.000000
_cell_angle_gamma 90.000000
_cell_volume 2439.864996
_symmetry_space_group_name_H-M "P M N A"
_symmetry_group_IT_number 53
_symmetry_cell_setting 'orthorhombic'
loop_
_space_group_symop_operation_xyz
x,y,z
1/2-x,-y,1/2+z
x,-y,-z
1/2-x,y,1/2-z
-x,-y,-z
1/2+x,y,1/2-z
-x,y,z
1/2+x,-y,1/2+z
loop_
_atom_site_type_symbol
_atom_site_label
_atom_site_fract_x
_atom_site_fract_y
_atom_site_fract_z
Si Si1 0.211482 0.377785 0.429806
Si Si2 0.500000 0.631337 0.387751
Si Si3 0.413128 0.191072 0.983834
Si Si4 0.159247 0.896349 0.922431
Si Si5 0.184995 0.315167 0.653427
Si Si6 0.654339 0.204202 0.673732
Si Si7 0.500000 0.282668 0.436278
O O1 0.235365 0.500000 0.500000
O O2 0.134291 0.279342 0.449301
O O3 0.280407 0.252104 0.410823
O O4 0.185536 0.485703 0.355011
O O5 0.575660 0.711989 0.352116
O O6 0.500000 0.433806 0.374765
O O7 0.500000 0.653457 0.477830
O O8 0.500000 0.259855 0.984408
O O9 0.376189 0.227263 0.901180
O O10 0.411348 0.000000 0.000000
O O11 0.074084 0.827900 0.925556
O O12 0.156913 0.010160 0.845792
O O13 0.179128 0.000000 0.000000
O O14 0.165410 0.245610 0.736923
O O15 0.272277 0.273053 0.627018
#
# Coordination Sequence:
#
# PCOD8221361 Si02
#       7
#     8   4   8   8   8   8   4
#     4  10  21  37  64  91 121 154 209 257 310 366
#     4  11  23  40  61  88 126 169 201 253 305 369
#     4  10  21  39  63  90 118 153 203 255 306 364
#     4  12  21  37  64  95 125 162 209 256 305 365
#     4  10  23  41  61  88 120 162 201 252 311 367
#     4  11  23  41  61  87 125 163 206 246 311 364
#     4  11  24  35  60  93 128 159 210 253 301 362
#
# _framework density 19.673220000000001
#
# number of rings (size 3 to 8) (size 9 to 14) (size 15 to 20)
#    0.000    1.333    1.667    5.250    3.500    3.000 
#    0.000   11.667    0.000    0.000    0.000    0.000 
#    0.000    0.000    0.000    0.000    0.000    0.000 
#
# Total GULP energy -594937.131448 kJ/mol
# GULP energy per Si atom -12394.523572 kJ/mol
# Density = 1.962844 g / cm^3
# Si number density = 19.673220 Si / 1000 Ang^3
#
#
#
# Elastic Constant Matrix: (Units=GPa)
#
#
# Indices 1 2 3 4 5 6 
#
# 1 168.1512 56.2352 46.8076 0.0000 0.0000 0.0000
# 2 56.2352 119.8864 59.9719 0.0000 0.0000 0.0000
# 3 46.8076 59.9719 80.8644 0.0000 0.0000 0.0000
# 4 0.0000 0.0000 0.0000 34.5847 0.0000 0.0000
# 5 0.0000 0.0000 0.0000 0.0000 -25.0218 0.0000
# 6 0.0000 0.0000 0.0000 0.0000 0.0000 2.1563
#
#
#
# Elastic Compliance Matrix: (Units=1/GPa)
#
#
# Indices 1 2 3 4 5 6 
#
# 1 0.007412 -0.002115 -0.002722 0.000000 0.000000 0.000000
# 2 -0.002115 0.013865 -0.009058 0.000000 0.000000 0.000000
# 3 -0.002722 -0.009058 0.020660 0.000000 0.000000 0.000000
# 4 0.000000 0.000000 0.000000 0.028915 0.000000 0.000000
# 5 0.000000 0.000000 0.000000 0.000000 -0.039965 0.000000
# 6 0.000000 0.000000 0.000000 0.000000 0.000000 0.463762
#
#
# Mechanical properties :
#
#
# Convention : Reuss Voigt Hill
#
# Bulk Modulus (GPa) = 70.69015 77.21462 73.95238
# Shear Modulus (GPa) = 9.48491 16.06965 12.77728
#
# Velocity S-wave (km/s) = 2.19811 2.86112 2.55125
# Velocity P-wave (km/s) = 6.51555 7.08862 6.80812
#
# Compressibility (1/GPa) = 0.01414624
#
# Stress axis : x y z
#
# Youngs Moduli (GPa) = 134.91517 72.12575 48.40378
#
# Poissons Ratio (x) = 0.15257 0.13174
# Poissons Ratio (y) = 0.28539 0.43845
# Poissons Ratio (z) = 0.36719 0.65332
#
# Static dielectric constant tensor:
#      x y z
#    x 3.909970 0.000000 0.000000 
#    y 0.000000 4.245600 0.000000 
#    z 0.000000 0.000000 3.436440 
# 
# 
# High freq. dielectric constant tensor:
#      x y z
#    x 1.787220 0.000000 0.000000 
#    y 0.000000 1.784130 0.000000 
#    z 0.000000 0.000000 1.742580 
# 
# From -- ./inp_files/28320.got.cif
#   From: 2010.03.12/outbox.cif.g09.slc.cpg/sg53_15_cif.got.tgz:28320.got - 2010.04.16 14:36:59.
