data_PCOD8221913
_publ_section_title
;
Structure prediction by ZEFSAII (Michael W. Deem and Ramdas Pophale) SiO2 
 PCOD8221913
Probable space group: P M N A
;
_chemical_formula_sum "Si O2"
_cell_formula_units_Z 64
_cell_length_a 27.772624
_cell_length_b 9.285938
_cell_length_c 12.632487
_cell_angle_alpha 90.000000
_cell_angle_beta 90.000000
_cell_angle_gamma 90.000000
_cell_volume 3257.853524
_symmetry_space_group_name_H-M "P M N A"
_symmetry_group_IT_number 53
_symmetry_cell_setting 'orthorhombic'
loop_
_space_group_symop_operation_xyz
x,y,z
1/2-x,-y,1/2+z
x,-y,-z
1/2-x,y,1/2-z
-x,-y,-z
1/2+x,y,1/2-z
-x,y,z
1/2+x,-y,1/2+z
loop_
_atom_site_type_symbol
_atom_site_label
_atom_site_fract_x
_atom_site_fract_y
_atom_site_fract_z
Si Si1 0.821742 0.160393 0.454237
Si Si2 0.143124 0.601128 0.906518
Si Si3 0.943820 0.967260 0.377152
Si Si4 0.286190 0.834066 0.501784
Si Si5 0.896984 0.228965 0.287140
Si Si6 0.297007 0.349339 0.692984
Si Si7 0.947648 0.521671 0.622019
Si Si8 0.625734 0.713547 0.143918
O O1 0.764780 0.181900 0.437843
O O2 0.844946 0.192590 0.339325
O O3 0.845579 0.276704 0.533193
O O4 0.832692 0.000000 0.500000
O O5 0.171728 0.738721 0.949066
O O6 0.106793 0.677757 0.822389
O O7 0.181011 0.493166 0.855547
O O8 0.118001 0.500000 0.000000
O O9 0.917768 0.822462 0.345270
O O10 0.000000 0.942776 0.364381
O O11 0.930078 0.000000 0.500000
O O12 0.925306 0.077930 0.286483
O O13 0.278171 0.774919 0.384509
O O14 0.303106 0.000000 0.500000
O O15 0.933234 0.313374 0.363807
O O16 0.250000 0.409221 0.750000
O O17 0.335126 0.266305 0.765328
O O18 0.955094 0.500000 0.500000
O O19 0.901053 0.436983 0.664386
O O20 0.000000 0.487838 0.676877
#
# Coordination Sequence:
#
# PCOD8221913 Si02
#       8
#     8   8   8   8   8   8   8   8
#     4  11  21  36  55  92 132 155 200 249 305 370
#     4  10  25  44  59  86 121 164 215 257 304 359
#     4  11  22  38  61  92 130 162 199 254 315 381
#     4  10  24  41  60  87 118 162 210 258 299 355
#     4  12  21  37  62  88 120 166 202 250 315 364
#     4  11  23  39  59  88 124 166 201 251 304 366
#     4  11  22  35  56  90 125 154 196 241 300 374
#     4  12  20  37  57  88 126 166 195 243 302 369
#
# _framework density 19.644836999999999
#
# number of rings (size 3 to 8) (size 9 to 14) (size 15 to 20)
#    0.000    1.000    6.250    0.750    3.500    2.000 
#    2.250    0.000    0.000    1.500    0.000    3.500 
#    0.000    0.000    0.000    0.000    0.000    0.000 
#
# Total GULP energy -792863.539348 kJ/mol
# GULP energy per Si atom -12388.492802 kJ/mol
# Density = 1.960012 g / cm^3
# Si number density = 19.644837 Si / 1000 Ang^3
#
#
#
# Elastic Constant Matrix: (Units=GPa)
#
#
# Indices 1 2 3 4 5 6 
#
# 1 85.5534 18.6576 18.9437 0.0000 0.0000 0.0000
# 2 18.6576 75.4822 21.4567 0.0000 0.0000 0.0000
# 3 18.9437 21.4567 67.0127 0.0000 0.0000 0.0000
# 4 0.0000 0.0000 0.0000 30.6549 0.0000 0.0000
# 5 0.0000 0.0000 0.0000 0.0000 20.8163 0.0000
# 6 0.0000 0.0000 0.0000 0.0000 0.0000 31.0149
#
#
#
# Elastic Compliance Matrix: (Units=1/GPa)
#
#
# Indices 1 2 3 4 5 6 
#
# 1 0.012839 -0.002356 -0.002875 0.000000 0.000000 0.000000
# 2 -0.002356 0.015007 -0.004139 0.000000 0.000000 0.000000
# 3 -0.002875 -0.004139 0.017061 0.000000 0.000000 0.000000
# 4 0.000000 0.000000 0.000000 0.032621 0.000000 0.000000
# 5 0.000000 0.000000 0.000000 0.000000 0.048039 0.000000
# 6 0.000000 0.000000 0.000000 0.000000 0.000000 0.032243
#
#
# Mechanical properties :
#
#
# Convention : Reuss Voigt Hill
#
# Bulk Modulus (GPa) = 38.21732 38.46269 38.34001
# Shear Modulus (GPa) = 26.98727 27.76323 27.37525
#
# Velocity S-wave (km/s) = 3.71045 3.76341 3.73702
# Velocity P-wave (km/s) = 6.15247 6.20531 6.17895
#
# Compressibility (1/GPa) = 0.02616615
#
# Stress axis : x y z
#
# Youngs Moduli (GPa) = 77.88732 66.63491 58.61479
#
# Poissons Ratio (x) = 0.15701 0.16852
# Poissons Ratio (y) = 0.18353 0.24261
# Poissons Ratio (z) = 0.22393 0.27580
#
# Static dielectric constant tensor:
#      x y z
#    x 3.616270 0.000000 0.000000 
#    y 0.000000 3.382710 0.000000 
#    z 0.000000 0.000000 3.567050 
# 
# 
# High freq. dielectric constant tensor:
#      x y z
#    x 1.767160 0.000000 0.000000 
#    y 0.000000 1.780870 0.000000 
#    z 0.000000 0.000000 1.734040 
# 
# From -- ./inp_files/19014.got.cif
#   From: 2010.03.12/outbox.cif.g09.slc.cpg/sg53_10_cif.got.tgz:19014.got - 2010.04.16 14:36:59.
