data_PCOD8221691
_publ_section_title
;
Structure prediction by ZEFSAII (Michael W. Deem and Ramdas Pophale) SiO2 
 PCOD8221691
Probable space group: P M N A
;
_chemical_formula_sum "Si O2"
_cell_formula_units_Z 48
_cell_length_a 8.607293
_cell_length_b 7.903476
_cell_length_c 33.343772
_cell_angle_alpha 90.000000
_cell_angle_beta 90.000000
_cell_angle_gamma 90.000000
_cell_volume 2268.294572
_symmetry_space_group_name_H-M "P M N A"
_symmetry_group_IT_number 53
_symmetry_cell_setting 'orthorhombic'
loop_
_space_group_symop_operation_xyz
x,y,z
1/2-x,-y,1/2+z
x,-y,-z
1/2-x,y,1/2-z
-x,-y,-z
1/2+x,y,1/2-z
-x,y,z
1/2+x,-y,1/2+z
loop_
_atom_site_type_symbol
_atom_site_label
_atom_site_fract_x
_atom_site_fract_y
_atom_site_fract_z
Si Si1 0.180848 0.806271 0.997475
Si Si2 0.318419 0.336142 0.583772
Si Si3 0.682977 0.825258 0.157478
Si Si4 0.683317 0.507394 0.794142
Si Si5 0.182100 0.173349 0.159269
Si Si6 0.679910 0.309817 0.083337
O O1 0.277686 0.716434 0.962883
O O2 0.000000 0.785294 0.987324
O O3 0.225181 0.719283 0.039062
O O4 0.230445 0.000000 0.000000
O O5 0.500000 0.378002 0.587426
O O6 0.270137 0.190271 0.614724
O O7 0.217851 0.498662 0.595627
O O8 0.500000 0.829665 0.150564
O O9 0.733454 0.670104 0.185880
O O10 0.740515 0.001951 0.176872
O O11 0.750000 0.510571 0.750000
O O12 0.500000 0.527161 0.792947
O O13 0.751523 0.663784 0.818529
O O14 0.222145 0.185458 0.111928
O O15 0.000000 0.163128 0.166160
O O16 0.500000 0.273580 0.090872
#
# Coordination Sequence:
#
# PCOD8221691 Si02
#       6
#     8   8   8   8   8   8
#     4  10  22  39  58  86 123 166 219 275 328 389
#     4  11  22  38  63  92 127 172 223 270 326 392
#     4  11  24  43  69 100 137 175 220 273 330 393
#     4  11  25  46  72 102 136 173 215 268 329 395
#     4  12  25  43  70  99 134 177 224 273 329 395
#     4  12  24  39  61  90 127 171 221 274 332 390
#
# _framework density 21.161272
#
# number of rings (size 3 to 8) (size 9 to 14) (size 15 to 20)
#    0.000    0.833    1.667    6.000    0.000    7.667 
#    0.000    1.667    0.000    0.000    0.000    0.000 
#    0.000    0.000    0.000    0.000    0.000    0.000 
#
# Total GULP energy -595532.116206 kJ/mol
# GULP energy per Si atom -12406.919088 kJ/mol
# Density = 2.111311 g / cm^3
# Si number density = 21.161272 Si / 1000 Ang^3
#
#
#
# Elastic Constant Matrix: (Units=GPa)
#
#
# Indices 1 2 3 4 5 6 
#
# 1 88.1425 37.3829 40.5625 0.0000 0.0000 0.0000
# 2 37.3829 134.3986 38.5807 0.0000 0.0000 0.0000
# 3 40.5625 38.5807 111.0725 0.0000 0.0000 0.0000
# 4 0.0000 0.0000 0.0000 16.9735 0.0000 0.0000
# 5 0.0000 0.0000 0.0000 0.0000 27.6059 0.0000
# 6 0.0000 0.0000 0.0000 0.0000 0.0000 29.7916
#
#
#
# Elastic Compliance Matrix: (Units=1/GPa)
#
#
# Indices 1 2 3 4 5 6 
#
# 1 0.014525 -0.002796 -0.004333 0.000000 0.000000 0.000000
# 2 -0.002796 0.008803 -0.002036 0.000000 0.000000 0.000000
# 3 -0.004333 -0.002036 0.011293 0.000000 0.000000 0.000000
# 4 0.000000 0.000000 0.000000 0.058915 0.000000 0.000000
# 5 0.000000 0.000000 0.000000 0.000000 0.036224 0.000000
# 6 0.000000 0.000000 0.000000 0.000000 0.000000 0.033566
#
#
# Mechanical properties :
#
#
# Convention : Reuss Voigt Hill
#
# Bulk Modulus (GPa) = 61.39038 62.96286 62.17662
# Shear Modulus (GPa) = 26.72528 29.34673 28.03601
#
# Velocity S-wave (km/s) = 3.55763 3.72803 3.64383
# Velocity P-wave (km/s) = 6.77860 6.95337 6.86654
#
# Compressibility (1/GPa) = 0.01628920
#
# Stress axis : x y z
#
# Youngs Moduli (GPa) = 68.84520 113.59837 88.55095
#
# Poissons Ratio (x) = 0.31766 0.38371
# Poissons Ratio (y) = 0.19251 0.18033
# Poissons Ratio (z) = 0.29832 0.23134
#
# Static dielectric constant tensor:
#      x y z
#    x 3.764500 0.000000 0.000000 
#    y 0.000000 4.029350 0.000000 
#    z 0.000000 0.000000 3.896950 
# 
# 
# High freq. dielectric constant tensor:
#      x y z
#    x 1.834230 0.000000 0.000000 
#    y 0.000000 1.846670 0.000000 
#    z 0.000000 0.000000 1.829310 
# 
# From -- ./inp_files/37771.got.cif
#   From: 2010.03.12/outbox.cif.g09.slc.cpg/sg53_19_cif.got.tgz:37771.got - 2010.04.16 14:36:59.
