data_PCOD8221569
_publ_section_title
;
Structure prediction by ZEFSAII (Michael W. Deem and Ramdas Pophale) SiO2 
 PCOD8221569
Probable space group: P M N A
;
_chemical_formula_sum "Si O2"
_cell_formula_units_Z 28
_cell_length_a 25.505173
_cell_length_b 8.921721
_cell_length_c 5.611797
_cell_angle_alpha 90.000000
_cell_angle_beta 90.000000
_cell_angle_gamma 90.000000
_cell_volume 1276.964618
_symmetry_space_group_name_H-M "P M N A"
_symmetry_group_IT_number 53
_symmetry_cell_setting 'orthorhombic'
loop_
_space_group_symop_operation_xyz
x,y,z
1/2-x,-y,1/2+z
x,-y,-z
1/2-x,y,1/2-z
-x,-y,-z
1/2+x,y,1/2-z
-x,y,z
1/2+x,-y,1/2+z
loop_
_atom_site_type_symbol
_atom_site_label
_atom_site_fract_x
_atom_site_fract_y
_atom_site_fract_z
Si Si1 0.102230 0.000000 0.500000
Si Si2 0.250000 0.410474 0.750000
Si Si3 0.643563 0.745084 0.285573
Si Si4 0.443287 0.748448 0.681822
Si Si5 0.414788 0.500000 0.000000
O O1 0.140571 0.087143 0.681312
O O2 0.064282 0.116117 0.366746
O O3 0.237155 0.500000 0.500000
O O4 0.296957 0.301836 0.663923
O O5 0.607321 0.740096 0.517244
O O6 0.622705 0.626801 0.099197
O O7 0.500000 0.775987 0.551839
O O8 0.450028 0.585705 0.806420
#
# Coordination Sequence:
#
# PCOD8221569 Si02
#       5
#     4   4   8   8   4
#     4  10  25  44  62  98 140 182 233 288 352 426
#     4  12  26  48  80 106 138 186 238 308 364 424
#     4  11  24  44  68  99 138 177 238 285 358 422
#     4  11  23  41  67  99 141 187 231 289 353 426
#     4  10  21  40  64 100 136 170 231 288 348 418
#
# _framework density 21.926997
#
# number of rings (size 3 to 8) (size 9 to 14) (size 15 to 20)
#    0.000    1.143    1.429    4.286    4.000    9.143 
#    5.143    0.000    0.000    0.000    0.000    0.000 
#    0.000    0.000    0.000    0.000    0.000    0.000 
#
# Total GULP energy -346903.361749 kJ/mol
# GULP energy per Si atom -12389.405777 kJ/mol
# Density = 2.187709 g / cm^3
# Si number density = 21.926997 Si / 1000 Ang^3
#
#
#
# Elastic Constant Matrix: (Units=GPa)
#
#
# Indices 1 2 3 4 5 6 
#
# 1 182.4121 43.0291 48.3809 0.0000 0.0000 0.0000
# 2 43.0291 124.2863 37.7159 0.0000 0.0000 0.0000
# 3 48.3809 37.7159 111.5521 0.0000 0.0000 0.0000
# 4 0.0000 0.0000 0.0000 24.7924 0.0000 0.0000
# 5 0.0000 0.0000 0.0000 0.0000 32.8702 0.0000
# 6 0.0000 0.0000 0.0000 0.0000 0.0000 33.8713
#
#
#
# Elastic Compliance Matrix: (Units=1/GPa)
#
#
# Indices 1 2 3 4 5 6 
#
# 1 0.006449 -0.001542 -0.002276 0.000000 0.000000 0.000000
# 2 -0.001542 0.009335 -0.002487 0.000000 0.000000 0.000000
# 3 -0.002276 -0.002487 0.010792 0.000000 0.000000 0.000000
# 4 0.000000 0.000000 0.000000 0.040335 0.000000 0.000000
# 5 0.000000 0.000000 0.000000 0.000000 0.030423 0.000000
# 6 0.000000 0.000000 0.000000 0.000000 0.000000 0.029523
#
#
# Mechanical properties :
#
#
# Convention : Reuss Voigt Hill
#
# Bulk Modulus (GPa) = 71.60189 75.16693 73.38441
# Shear Modulus (GPa) = 34.69251 37.58176 36.13714
#
# Velocity S-wave (km/s) = 3.98198 4.14448 4.06404
# Velocity P-wave (km/s) = 7.33942 7.56685 7.45400
#
# Compressibility (1/GPa) = 0.01396611
#
# Stress axis : x y z
#
# Youngs Moduli (GPa) = 155.05104 107.12784 92.65836
#
# Poissons Ratio (x) = 0.16522 0.21087
# Poissons Ratio (y) = 0.23913 0.23046
# Poissons Ratio (z) = 0.35286 0.26644
#
# Static dielectric constant tensor:
#      x y z
#    x 3.913070 0.000000 0.000000 
#    y 0.000000 4.663350 0.000000 
#    z 0.000000 0.000000 4.023550 
# 
# 
# High freq. dielectric constant tensor:
#      x y z
#    x 1.858530 0.000000 0.000000 
#    y 0.000000 1.876990 0.000000 
#    z 0.000000 0.000000 1.858340 
# 
# From -- ./inp_files/4162.got.cif
#   From: 2010.03.12/outbox.cif.g09.slc.cpg/sg53_3_cif.got.tgz:4162.got - 2010.04.16 14:36:59.
