data_PCOD8221935
_publ_section_title
;
Structure prediction by ZEFSAII (Michael W. Deem and Ramdas Pophale) SiO2 
 PCOD8221935
Probable space group: P M N A
;
_chemical_formula_sum "Si O2"
_cell_formula_units_Z 32
_cell_length_a 16.939191
_cell_length_b 6.742087
_cell_length_c 12.668332
_cell_angle_alpha 90.000000
_cell_angle_beta 90.000000
_cell_angle_gamma 90.000000
_cell_volume 1446.793183
_symmetry_space_group_name_H-M "P M N A"
_symmetry_group_IT_number 53
_symmetry_cell_setting 'orthorhombic'
loop_
_space_group_symop_operation_xyz
x,y,z
1/2-x,-y,1/2+z
x,-y,-z
1/2-x,y,1/2-z
-x,-y,-z
1/2+x,y,1/2-z
-x,y,z
1/2+x,-y,1/2+z
loop_
_atom_site_type_symbol
_atom_site_label
_atom_site_fract_x
_atom_site_fract_y
_atom_site_fract_z
Si Si1 0.000000 0.193286 0.427100
Si Si2 0.500000 0.405872 0.616193
Si Si3 0.130793 0.097951 0.826553
Si Si4 0.000000 0.819598 0.806229
Si Si5 0.196285 0.862149 0.403164
Si Si6 0.872944 0.500000 0.500000
O O1 0.000000 0.097788 0.312162
O O2 0.924362 0.335005 0.440510
O O3 0.000000 0.000000 0.500000
O O4 0.500000 0.500000 0.500000
O O5 0.420425 0.288220 0.641094
O O6 0.500000 0.585155 0.698155
O O7 0.211145 0.098209 0.891097
O O8 0.147776 0.084282 0.701530
O O9 0.079194 0.906140 0.861625
O O10 0.183143 0.626858 0.422200
O O11 0.165333 0.000000 0.500000
#
# Coordination Sequence:
#
# PCOD8221935 Si02
#       6
#     4   4   8   4   8   4
#     4  11  22  39  66  98 128 164 213 264 332 396
#     4  11  26  43  69  96 131 180 230 282 325 393
#     4  10  25  43  63  99 131 168 231 274 326 411
#     4  11  22  41  66  88 127 169 215 270 331 381
#     4  11  24  42  66  95 135 175 215 277 340 399
#     4  11  22  36  64  93 128 168 208 263 328 394
#
# _framework density 22.117881000000001
#
# number of rings (size 3 to 8) (size 9 to 14) (size 15 to 20)
#    0.000    1.250    0.000    5.250    5.250    5.000 
#    0.000    6.875    0.000    0.000    0.000    0.000 
#    0.000    0.000    0.000    0.000    0.000    0.000 
#
# Total GULP energy -396686.627598 kJ/mol
# GULP energy per Si atom -12396.457112 kJ/mol
# Density = 2.206754 g / cm^3
# Si number density = 22.117881 Si / 1000 Ang^3
#
#
#
# Elastic Constant Matrix: (Units=GPa)
#
#
# Indices 1 2 3 4 5 6 
#
# 1 123.8049 39.9835 31.6377 0.0000 0.0000 0.0000
# 2 39.9835 135.6439 25.7872 0.0000 0.0000 0.0000
# 3 31.6377 25.7872 86.1575 0.0000 0.0000 0.0000
# 4 0.0000 0.0000 0.0000 40.6466 0.0000 0.0000
# 5 0.0000 0.0000 0.0000 0.0000 7.7735 0.0000
# 6 0.0000 0.0000 0.0000 0.0000 0.0000 25.8797
#
#
#
# Elastic Compliance Matrix: (Units=1/GPa)
#
#
# Indices 1 2 3 4 5 6 
#
# 1 0.009532 -0.002274 -0.002820 0.000000 0.000000 0.000000
# 2 -0.002274 0.008359 -0.001667 0.000000 0.000000 0.000000
# 3 -0.002820 -0.001667 0.013141 0.000000 0.000000 0.000000
# 4 0.000000 0.000000 0.000000 0.024602 0.000000 0.000000
# 5 0.000000 0.000000 0.000000 0.000000 0.128642 0.000000
# 6 0.000000 0.000000 0.000000 0.000000 0.000000 0.038640
#
#
# Mechanical properties :
#
#
# Convention : Reuss Voigt Hill
#
# Bulk Modulus (GPa) = 57.10529 60.04702 58.57615
# Shear Modulus (GPa) = 20.63765 31.40648 26.02207
#
# Velocity S-wave (km/s) = 3.05794 3.77232 3.43376
# Velocity P-wave (km/s) = 6.19215 6.79569 6.50093
#
# Compressibility (1/GPa) = 0.01751151
#
# Stress axis : x y z
#
# Youngs Moduli (GPa) = 104.90866 119.62602 76.09743
#
# Poissons Ratio (x) = 0.27199 0.21458
# Poissons Ratio (y) = 0.23853 0.12686
# Poissons Ratio (z) = 0.29582 0.19943
#
# Static dielectric constant tensor:
#      x y z
#    x 4.207110 0.000000 0.000000 
#    y 0.000000 4.124620 0.000000 
#    z 0.000000 0.000000 3.947790 
# 
# 
# High freq. dielectric constant tensor:
#      x y z
#    x 1.889070 0.000000 0.000000 
#    y 0.000000 1.877890 0.000000 
#    z 0.000000 0.000000 1.867410 
# 
# From -- ./inp_files/23241.got.cif
#   From: 2010.03.12/outbox.cif.g09.slc.cpg/sg53_12_cif.got.tgz:23241.got - 2010.04.16 14:36:59.
