data_PCOD8221367
_publ_section_title
;
Structure prediction by ZEFSAII (Michael W. Deem and Ramdas Pophale) SiO2 
 PCOD8221367
Probable space group: P M N A
;
_chemical_formula_sum "Si O2"
_cell_formula_units_Z 48
_cell_length_a 8.759598
_cell_length_b 20.769425
_cell_length_c 13.791634
_cell_angle_alpha 90.000000
_cell_angle_beta 90.000000
_cell_angle_gamma 90.000000
_cell_volume 2509.136987
_symmetry_space_group_name_H-M "P M N A"
_symmetry_group_IT_number 53
_symmetry_cell_setting 'orthorhombic'
loop_
_space_group_symop_operation_xyz
x,y,z
1/2-x,-y,1/2+z
x,-y,-z
1/2-x,y,1/2-z
-x,-y,-z
1/2+x,y,1/2-z
-x,y,z
1/2+x,-y,1/2+z
loop_
_atom_site_type_symbol
_atom_site_label
_atom_site_fract_x
_atom_site_fract_y
_atom_site_fract_z
Si Si1 0.318901 0.905141 0.048049
Si Si2 0.680553 0.966056 0.852191
Si Si3 0.819167 0.224950 0.644114
Si Si4 0.833294 0.482631 0.889023
Si Si5 0.680101 0.652666 0.455155
Si Si6 0.178320 0.392890 0.347047
O O1 0.500000 0.905434 0.049261
O O2 0.260906 0.962603 0.118069
O O3 0.254462 0.837721 0.087876
O O4 0.264582 0.916893 0.936965
O O5 0.750000 0.944280 0.750000
O O6 0.500000 0.964974 0.842187
O O7 0.750000 0.227355 0.750000
O O8 0.770059 0.286735 0.584166
O O9 0.000000 0.222974 0.652718
O O10 0.781148 0.407897 0.884261
O O11 0.707874 0.529674 0.842318
O O12 0.000000 0.492459 0.838574
O O13 0.853775 0.500000 0.000000
O O14 0.500000 0.665801 0.456849
O O15 0.736088 0.639529 0.563648
O O16 0.250000 0.361733 0.250000
O O17 0.000000 0.378647 0.353869
#
# Coordination Sequence:
#
# PCOD8221367 Si02
#       6
#     8   8   8   8   8   8
#     4   8  17  33  53  76 108 145 177 212 260 316
#     4   9  16  31  54  80 108 140 176 216 262 310
#     4  11  22  37  56  78 104 139 179 219 267 321
#     4   8  16  32  52  73 100 132 168 214 264 311
#     4  10  21  38  56  77 107 141 179 223 267 316
#     4  11  21  34  55  81 108 139 176 219 269 323
#
# _framework density 19.130082999999999
#
# number of rings (size 3 to 8) (size 9 to 14) (size 15 to 20)
#    0.000    2.500    0.000    5.000    0.000    4.333 
#    0.000    5.000    0.000    2.000    0.000    0.000 
#    0.000    0.000    0.000    0.000    0.000    0.000 
#
# Total GULP energy -594961.978221 kJ/mol
# GULP energy per Si atom -12395.041213 kJ/mol
# Density = 1.908654 g / cm^3
# Si number density = 19.130083 Si / 1000 Ang^3
#
#
#
# Elastic Constant Matrix: (Units=GPa)
#
#
# Indices 1 2 3 4 5 6 
#
# 1 55.5057 13.4321 21.3144 0.0000 0.0000 0.0000
# 2 13.4321 103.3473 37.5158 0.0000 0.0000 0.0000
# 3 21.3144 37.5158 117.5065 0.0000 0.0000 0.0000
# 4 0.0000 0.0000 0.0000 -15.8572 0.0000 0.0000
# 5 0.0000 0.0000 0.0000 0.0000 33.8130 0.0000
# 6 0.0000 0.0000 0.0000 0.0000 0.0000 20.1907
#
#
#
# Elastic Compliance Matrix: (Units=1/GPa)
#
#
# Indices 1 2 3 4 5 6 
#
# 1 0.019547 -0.001418 -0.003093 0.000000 0.000000 0.000000
# 2 -0.001418 0.011047 -0.003270 0.000000 0.000000 0.000000
# 3 -0.003093 -0.003270 0.010115 0.000000 0.000000 0.000000
# 4 0.000000 0.000000 0.000000 -0.063063 0.000000 0.000000
# 5 0.000000 0.000000 0.000000 0.000000 0.029574 0.000000
# 6 0.000000 0.000000 0.000000 0.000000 0.000000 0.049528
#
#
# Mechanical properties :
#
#
# Convention : Reuss Voigt Hill
#
# Bulk Modulus (GPa) = 39.76413 46.76489 43.26451
# Shear Modulus (GPa) = 61.96341 21.23578 41.59960
#
# Velocity S-wave (km/s) = 5.69744 3.33539 4.66828
# Velocity P-wave (km/s) = 8.00703 6.27152 7.19181
#
# Compressibility (1/GPa) = 0.02514829
#
# Stress axis : x y z
#
# Youngs Moduli (GPa) = 51.15883 90.51927 98.86153
#
# Poissons Ratio (x) = 0.12833 0.30578
# Poissons Ratio (y) = 0.07253 0.32327
# Poissons Ratio (z) = 0.15823 0.29599
#
# Static dielectric constant tensor:
#      x y z
#    x 3.315020 0.000000 0.000000 
#    y 0.000000 3.787950 0.000000 
#    z 0.000000 0.000000 3.644000 
# 
# 
# High freq. dielectric constant tensor:
#      x y z
#    x 1.731440 0.000000 0.000000 
#    y 0.000000 1.729880 0.000000 
#    z 0.000000 0.000000 1.751510 
# 
# From -- ./inp_files/20337.got.cif
#   From: 2010.03.12/outbox.cif.g09.slc.cpg/sg53_11_cif.got.tgz:20337.got - 2010.04.16 14:36:59.
