data_PCOD8221202
_publ_section_title
;
Structure prediction by ZEFSAII (Michael W. Deem and Ramdas Pophale) SiO2 
 PCOD8221202
Probable space group: P M N A
;
_chemical_formula_sum "Si O2"
_cell_formula_units_Z 64
_cell_length_a 18.919835
_cell_length_b 9.491648
_cell_length_c 17.535595
_cell_angle_alpha 90.000000
_cell_angle_beta 90.000000
_cell_angle_gamma 90.000000
_cell_volume 3149.049411
_symmetry_space_group_name_H-M "P M N A"
_symmetry_group_IT_number 53
_symmetry_cell_setting 'orthorhombic'
loop_
_space_group_symop_operation_xyz
x,y,z
1/2-x,-y,1/2+z
x,-y,-z
1/2-x,y,1/2-z
-x,-y,-z
1/2+x,y,1/2-z
-x,y,z
1/2+x,-y,1/2+z
loop_
_atom_site_type_symbol
_atom_site_label
_atom_site_fract_x
_atom_site_fract_y
_atom_site_fract_z
Si Si1 0.281431 0.480524 0.585337
Si Si2 0.919949 0.289137 0.627228
Si Si3 0.077568 0.521996 0.154994
Si Si4 0.918871 0.398437 0.318422
Si Si5 0.719403 0.020079 0.672539
Si Si6 0.079015 0.162443 0.789389
Si Si7 0.213302 0.252342 0.375146
Si Si8 0.714606 0.792533 0.052946
O O1 0.254134 0.500000 0.500000
O O2 0.365118 0.509149 0.590335
O O3 0.243619 0.591589 0.640637
O O4 0.257641 0.322292 0.604451
O O5 0.903361 0.454331 0.638801
O O6 0.905704 0.191967 0.700814
O O7 0.869269 0.229531 0.561852
O O8 0.000000 0.270944 0.599103
O O9 0.093777 0.427671 0.229095
O O10 0.083054 0.687242 0.170652
O O11 0.000000 0.484165 0.123201
O O12 0.868988 0.270120 0.349224
O O13 0.000000 0.351520 0.332573
O O14 0.750000 0.091541 0.750000
O O15 0.635090 0.052279 0.673477
O O16 0.757625 0.066791 0.593872
O O17 0.740744 0.854836 0.675951
O O18 0.000000 0.098152 0.800340
O O19 0.227395 0.207798 0.462966
#
# Coordination Sequence:
#
# PCOD8221202 Si02
#       8
#     8   8   8   8   8   8   8   8
#     4  10  21  36  58  86 117 155 194 244 296 350
#     4   9  17  33  61  93 116 147 199 246 285 341
#     4   9  18  34  60  88 114 149 194 251 302 346
#     4   9  19  36  59  89 123 155 192 243 302 356
#     4  12  24  39  61  89 113 161 202 241 301 352
#     4   9  18  36  61  88 113 145 202 254 284 338
#     4  11  25  38  55  88 129 155 193 244 302 358
#     4  11  21  40  60  85 119 160 201 246 288 350
#
# _framework density 20.323594
#
# number of rings (size 3 to 8) (size 9 to 14) (size 15 to 20)
#    0.000    2.000    3.750    1.875    1.750    0.750 
#    0.000    3.125    0.000    3.750    0.000    0.000 
#    0.000    0.000    0.000    0.000    0.000    0.000 
#
# Total GULP energy -792990.925466 kJ/mol
# GULP energy per Si atom -12390.483210 kJ/mol
# Density = 2.027734 g / cm^3
# Si number density = 20.323594 Si / 1000 Ang^3
#
#
#
# Elastic Constant Matrix: (Units=GPa)
#
#
# Indices 1 2 3 4 5 6 
#
# 1 132.5886 35.6546 26.9834 0.0000 0.0000 0.0000
# 2 35.6546 72.5109 16.8860 0.0000 0.0000 0.0000
# 3 26.9834 16.8860 41.4960 0.0000 0.0000 0.0000
# 4 0.0000 0.0000 0.0000 20.5632 0.0000 0.0000
# 5 0.0000 0.0000 0.0000 0.0000 27.9505 0.0000
# 6 0.0000 0.0000 0.0000 0.0000 0.0000 31.7423
#
#
#
# Elastic Compliance Matrix: (Units=1/GPa)
#
#
# Indices 1 2 3 4 5 6 
#
# 1 0.009455 -0.003554 -0.004702 0.000000 0.000000 0.000000
# 2 -0.003554 0.016571 -0.004432 0.000000 0.000000 0.000000
# 3 -0.004702 -0.004432 0.028960 0.000000 0.000000 0.000000
# 4 0.000000 0.000000 0.000000 0.048631 0.000000 0.000000
# 5 0.000000 0.000000 0.000000 0.000000 0.035777 0.000000
# 6 0.000000 0.000000 0.000000 0.000000 0.000000 0.031504
#
#
# Mechanical properties :
#
#
# Convention : Reuss Voigt Hill
#
# Bulk Modulus (GPa) = 33.77326 45.07149 39.42238
# Shear Modulus (GPa) = 24.25506 27.18931 25.72218
#
# Velocity S-wave (km/s) = 3.45837 3.66159 3.56143
# Velocity P-wave (km/s) = 5.70972 6.33257 6.02919
#
# Compressibility (1/GPa) = 0.02960922
#
# Stress axis : x y z
#
# Youngs Moduli (GPa) = 105.76713 60.34733 34.53081
#
# Poissons Ratio (x) = 0.21448 0.16236
# Poissons Ratio (y) = 0.37590 0.15304
# Poissons Ratio (z) = 0.49730 0.26746
#
# Static dielectric constant tensor:
#      x y z
#    x 3.852620 0.000000 0.000000 
#    y 0.000000 3.544620 0.000000 
#    z 0.000000 0.000000 3.331820 
# 
# 
# High freq. dielectric constant tensor:
#      x y z
#    x 1.802740 0.000000 0.000000 
#    y 0.000000 1.773380 0.000000 
#    z 0.000000 0.000000 1.773640 
# 
# From -- ./inp_files/32828.got.cif
#   From: 2010.03.12/outbox.cif.g09.slc.cpg/sg53_17_cif.got.tgz:32828.got - 2010.04.16 14:36:59.
