data_PCOD8221243
_publ_section_title
;
Structure prediction by ZEFSAII (Michael W. Deem and Ramdas Pophale) SiO2 
 PCOD8221243
Probable space group: P M N A
;
_chemical_formula_sum "Si O2"
_cell_formula_units_Z 40
_cell_length_a 24.318651
_cell_length_b 15.304954
_cell_length_c 5.145091
_cell_angle_alpha 90.000000
_cell_angle_beta 90.000000
_cell_angle_gamma 90.000000
_cell_volume 1914.981440
_symmetry_space_group_name_H-M "P M N A"
_symmetry_group_IT_number 53
_symmetry_cell_setting 'orthorhombic'
loop_
_space_group_symop_operation_xyz
x,y,z
1/2-x,-y,1/2+z
x,-y,-z
1/2-x,y,1/2-z
-x,-y,-z
1/2+x,y,1/2-z
-x,y,z
1/2+x,-y,1/2+z
loop_
_atom_site_type_symbol
_atom_site_label
_atom_site_fract_x
_atom_site_fract_y
_atom_site_fract_z
Si Si1 0.786924 0.405384 0.496376
Si Si2 0.062323 0.763355 0.076328
Si Si3 0.129372 0.747593 0.544810
Si Si4 0.937652 0.040567 0.753703
Si Si5 0.285924 0.101639 0.000063
O O1 0.818029 0.500000 0.500000
O O2 0.750000 0.383165 0.750000
O O3 0.826805 0.327605 0.416882
O O4 0.750000 0.416684 0.250000
O O5 0.094578 0.709971 0.297923
O O6 0.062982 0.856406 0.221782
O O7 0.000000 0.730130 0.037122
O O8 0.091711 0.759996 0.799084
O O9 0.158829 0.840464 0.488432
O O10 0.000000 0.003273 0.753808
O O11 0.908176 0.000000 0.500000
O O12 0.905378 0.000000 0.000000
O O13 0.250000 0.127042 0.250000
O O14 0.250000 0.125337 0.750000
O O15 0.302925 0.000000 0.000000
#
# Coordination Sequence:
#
# PCOD8221243 Si02
#       5
#     8   8   8   8   8
#     4  10  21  39  65  96 123 145 182 243 309 369
#     4  11  24  38  54  81 117 158 202 248 289 333
#     4  12  22  37  62  85 115 157 198 238 293 358
#     4   9  17  31  49  68  97 141 193 246 289 319
#     4  10  21  37  56  82 116 149 186 234 289 356
#
# _framework density 20.887930000000001
#
# number of rings (size 3 to 8) (size 9 to 14) (size 15 to 20)
#    0.000    1.600    0.000    5.400    0.000    5.600 
#    0.000    0.000    0.000    4.200    0.000    0.000 
#    0.000    0.000    0.000    0.000    0.000    0.000 
#
# Total GULP energy -495664.984531 kJ/mol
# GULP energy per Si atom -12391.624613 kJ/mol
# Density = 2.084039 g / cm^3
# Si number density = 20.887930 Si / 1000 Ang^3
#
#
#
# Elastic Constant Matrix: (Units=GPa)
#
#
# Indices 1 2 3 4 5 6 
#
# 1 93.0053 26.2878 38.2482 0.0000 0.0000 0.0000
# 2 26.2878 81.8812 9.0065 0.0000 0.0000 0.0000
# 3 38.2482 9.0065 166.2958 0.0000 0.0000 0.0000
# 4 0.0000 0.0000 0.0000 31.0501 0.0000 0.0000
# 5 0.0000 0.0000 0.0000 0.0000 15.5866 0.0000
# 6 0.0000 0.0000 0.0000 0.0000 0.0000 4.2233
#
#
#
# Elastic Compliance Matrix: (Units=1/GPa)
#
#
# Indices 1 2 3 4 5 6 
#
# 1 0.012986 -0.003864 -0.002778 0.000000 0.000000 0.000000
# 2 -0.003864 0.013436 0.000161 0.000000 0.000000 0.000000
# 3 -0.002778 0.000161 0.006644 0.000000 0.000000 0.000000
# 4 0.000000 0.000000 0.000000 0.032206 0.000000 0.000000
# 5 0.000000 0.000000 0.000000 0.000000 0.064158 0.000000
# 6 0.000000 0.000000 0.000000 0.000000 0.000000 0.236784
#
#
# Mechanical properties :
#
#
# Convention : Reuss Voigt Hill
#
# Bulk Modulus (GPa) = 49.73947 54.25193 51.99570
# Shear Modulus (GPa) = 12.95754 28.01464 20.48609
#
# Velocity S-wave (km/s) = 2.49336 3.66620 3.13511
# Velocity P-wave (km/s) = 5.67039 6.62952 6.16863
#
# Compressibility (1/GPa) = 0.02010476
#
# Stress axis : x y z
#
# Youngs Moduli (GPa) = 77.00330 74.42942 150.52259
#
# Poissons Ratio (x) = 0.28758 0.41810
# Poissons Ratio (y) = 0.29752 -0.02423
# Poissons Ratio (z) = 0.21389 -0.01198
#
# Static dielectric constant tensor:
#      x y z
#    x 3.797680 0.000000 0.000000 
#    y 0.000000 3.828040 0.000000 
#    z 0.000000 0.000000 3.872030 
# 
# 
# High freq. dielectric constant tensor:
#      x y z
#    x 1.812920 0.000000 0.000000 
#    y 0.000000 1.789320 0.000000 
#    z 0.000000 0.000000 1.849290 
# 
# From -- ./inp_files/3638.got.cif
#   From: 2010.03.12/outbox.cif.g09.slc.cpg/sg53_2_cif.got.tgz:3638.got - 2010.04.16 14:36:59.
