data_PCOD8221560
_publ_section_title
;
Structure prediction by ZEFSAII (Michael W. Deem and Ramdas Pophale) SiO2 
 PCOD8221560
Probable space group: P M N A
;
_chemical_formula_sum "Si O2"
_cell_formula_units_Z 56
_cell_length_a 18.215801
_cell_length_b 9.776163
_cell_length_c 15.190597
_cell_angle_alpha 90.000000
_cell_angle_beta 90.000000
_cell_angle_gamma 90.000000
_cell_volume 2705.151232
_symmetry_space_group_name_H-M "P M N A"
_symmetry_group_IT_number 53
_symmetry_cell_setting 'orthorhombic'
loop_
_space_group_symop_operation_xyz
x,y,z
1/2-x,-y,1/2+z
x,-y,-z
1/2-x,y,1/2-z
-x,-y,-z
1/2+x,y,1/2-z
-x,y,z
1/2+x,-y,1/2+z
loop_
_atom_site_type_symbol
_atom_site_label
_atom_site_fract_x
_atom_site_fract_y
_atom_site_fract_z
Si Si1 0.326131 0.650160 0.002219
Si Si2 0.163246 0.641352 0.958959
Si Si3 0.913639 0.945172 0.256532
Si Si4 0.820347 0.297094 0.701590
Si Si5 0.086961 0.790662 0.637669
Si Si6 0.582039 0.125600 0.563802
Si Si7 0.334216 0.596829 0.735607
O O1 0.300689 0.677558 0.101029
O O2 0.364933 0.500000 0.000000
O O3 0.250961 0.645095 0.947357
O O4 0.377956 0.768530 0.959966
O O5 0.134471 0.648144 0.858534
O O6 0.135544 0.500000 0.000000
O O7 0.134423 0.761591 0.021267
O O8 0.888477 0.805878 0.302172
O O9 0.885664 0.934410 0.155481
O O10 0.000000 0.957382 0.259460
O O11 0.881901 0.075040 0.311286
O O12 0.750000 0.229332 0.750000
O O13 0.841265 0.433157 0.755682
O O14 0.111519 0.658750 0.692257
O O15 0.000000 0.797039 0.626568
O O16 0.500000 0.187317 0.577885
O O17 0.577686 0.000000 0.500000
O O18 0.250000 0.643017 0.750000
#
# Coordination Sequence:
#
# PCOD8221560 Si02
#       7
#     8   8   8   8   8   8   8
#     4  11  21  42  64  93 128 160 208 268 318 377
#     4  11  21  37  65  92 125 163 210 264 322 381
#     4  10  23  42  60  87 127 166 208 259 315 373
#     4  11  22  40  65  91 126 165 209 258 322 379
#     4  11  24  42  65  93 125 171 218 260 317 386
#     4  10  21  40  62  89 127 167 208 261 320 377
#     4  11  20  39  63  91 126 162 210 268 318 376
#
# _framework density 20.701245
#
# number of rings (size 3 to 8) (size 9 to 14) (size 15 to 20)
#    0.000    1.286    2.857    5.143    0.000    4.571 
#    5.143    1.429    0.000    0.000    0.000    0.000 
#    0.000    0.000    0.000    0.000    0.000    0.000 
#
# Total GULP energy -694265.573988 kJ/mol
# GULP energy per Si atom -12397.599535 kJ/mol
# Density = 2.065413 g / cm^3
# Si number density = 20.701245 Si / 1000 Ang^3
#
#
#
# Elastic Constant Matrix: (Units=GPa)
#
#
# Indices 1 2 3 4 5 6 
#
# 1 41.4748 35.6488 30.6799 0.0000 0.0000 0.0000
# 2 35.6488 102.2364 40.8270 0.0000 0.0000 0.0000
# 3 30.6799 40.8270 134.2856 0.0000 0.0000 0.0000
# 4 0.0000 0.0000 0.0000 35.8748 0.0000 0.0000
# 5 0.0000 0.0000 0.0000 0.0000 30.5684 0.0000
# 6 0.0000 0.0000 0.0000 0.0000 0.0000 29.3140
#
#
#
# Elastic Compliance Matrix: (Units=1/GPa)
#
#
# Indices 1 2 3 4 5 6 
#
# 1 0.037380 -0.010953 -0.005210 0.000000 0.000000 0.000000
# 2 -0.010953 0.014343 -0.001858 0.000000 0.000000 0.000000
# 3 -0.005210 -0.001858 0.009202 0.000000 0.000000 0.000000
# 4 0.000000 0.000000 0.000000 0.027875 0.000000 0.000000
# 5 0.000000 0.000000 0.000000 0.000000 0.032713 0.000000
# 6 0.000000 0.000000 0.000000 0.000000 0.000000 0.034113
#
#
# Mechanical properties :
#
#
# Convention : Reuss Voigt Hill
#
# Bulk Modulus (GPa) = 40.19042 54.70090 47.44566
# Shear Modulus (GPa) = 25.00469 30.54086 27.77277
#
# Velocity S-wave (km/s) = 3.47923 3.84515 3.66676
# Velocity P-wave (km/s) = 5.96630 6.79668 6.39498
#
# Compressibility (1/GPa) = 0.02488155
#
# Stress axis : x y z
#
# Youngs Moduli (GPa) = 26.75250 69.72235 108.67179
#
# Poissons Ratio (x) = 0.76370 0.56617
# Poissons Ratio (y) = 0.29303 0.20192
# Poissons Ratio (z) = 0.13938 0.12955
#
# Static dielectric constant tensor:
#      x y z
#    x 3.602900 0.000000 0.000000 
#    y 0.000000 3.704580 0.000000 
#    z 0.000000 0.000000 4.180220 
# 
# 
# High freq. dielectric constant tensor:
#      x y z
#    x 1.787840 0.000000 0.000000 
#    y 0.000000 1.803820 0.000000 
#    z 0.000000 0.000000 1.832190 
# 
# From -- ./inp_files/24308.got.cif
#   From: 2010.03.12/outbox.cif.g09.slc.cpg/sg53_13_cif.got.tgz:24308.got - 2010.04.16 14:36:59.
