data_PCOD8221179
_publ_section_title
;
Structure prediction by ZEFSAII (Michael W. Deem and Ramdas Pophale) SiO2 
 PCOD8221179
Probable space group: P M N A
;
_chemical_formula_sum "Si O2"
_cell_formula_units_Z 40
_cell_length_a 8.621049
_cell_length_b 25.332328
_cell_length_c 9.605282
_cell_angle_alpha 90.000000
_cell_angle_beta 90.000000
_cell_angle_gamma 90.000000
_cell_volume 2097.709456
_symmetry_space_group_name_H-M "P M N A"
_symmetry_group_IT_number 53
_symmetry_cell_setting 'orthorhombic'
loop_
_space_group_symop_operation_xyz
x,y,z
1/2-x,-y,1/2+z
x,-y,-z
1/2-x,y,1/2-z
-x,-y,-z
1/2+x,y,1/2-z
-x,y,z
1/2+x,-y,1/2+z
loop_
_atom_site_type_symbol
_atom_site_label
_atom_site_fract_x
_atom_site_fract_y
_atom_site_fract_z
Si Si1 0.317263 0.157434 0.400244
Si Si2 0.681606 0.546699 0.604565
Si Si3 0.183278 0.658603 0.598983
Si Si4 0.316613 0.046573 0.100217
Si Si5 0.183126 0.253306 0.903623
O O1 0.250000 0.173156 0.250000
O O2 0.500000 0.152350 0.384628
O O3 0.249696 0.102052 0.454913
O O4 0.268023 0.201261 0.511561
O O5 0.719321 0.500000 0.500000
O O6 0.750000 0.527336 0.750000
O O7 0.500000 0.558679 0.618190
O O8 0.766148 0.599867 0.555185
O O9 0.250000 0.674493 0.750000
O O10 0.245604 0.696405 0.479518
O O11 0.000000 0.662582 0.607106
O O12 0.250000 0.032701 0.250000
O O13 0.500000 0.050905 0.108147
O O14 0.260556 0.000000 0.000000
O O15 0.250000 0.248300 0.750000
O O16 0.000000 0.260199 0.896489
#
# Coordination Sequence:
#
# PCOD8221179 Si02
#       5
#     8   8   8   8   8
#     4  10  21  37  59  83 109 145 186 228 274 329
#     4  10  21  37  58  84 114 148 188 232 278 331
#     4  11  22  38  61  85 113 150 190 232 278 333
#     4  10  21  36  56  82 111 145 184 226 273 326
#     4  11  24  40  58  84 115 147 186 232 284 335
#
# _framework density 19.068417
#
# number of rings (size 3 to 8) (size 9 to 14) (size 15 to 20)
#    0.000    1.600    0.000    7.200    0.000    9.600 
#    0.000    6.000    0.000    0.000    0.000    0.000 
#    0.000    0.000    0.000    0.000    0.000    0.000 
#
# Total GULP energy -496152.106020 kJ/mol
# GULP energy per Si atom -12403.802650 kJ/mol
# Density = 1.902502 g / cm^3
# Si number density = 19.068417 Si / 1000 Ang^3
#
#
#
# Elastic Constant Matrix: (Units=GPa)
#
#
# Indices 1 2 3 4 5 6 
#
# 1 110.1802 65.5032 63.9514 0.0000 0.0000 0.0000
# 2 65.5032 145.0257 110.6350 0.0000 0.0000 0.0000
# 3 63.9514 110.6350 143.1480 0.0000 0.0000 0.0000
# 4 0.0000 0.0000 0.0000 43.8802 0.0000 0.0000
# 5 0.0000 0.0000 0.0000 0.0000 26.3486 0.0000
# 6 0.0000 0.0000 0.0000 0.0000 0.0000 -385.7870
#
#
#
# Elastic Compliance Matrix: (Units=1/GPa)
#
#
# Indices 1 2 3 4 5 6 
#
# 1 0.012942 -0.003496 -0.003080 0.000000 0.000000 0.000000
# 2 -0.003496 0.017746 -0.012153 0.000000 0.000000 0.000000
# 3 -0.003080 -0.012153 0.017755 0.000000 0.000000 0.000000
# 4 0.000000 0.000000 0.000000 0.022789 0.000000 0.000000
# 5 0.000000 0.000000 0.000000 0.000000 0.037953 0.000000
# 6 0.000000 0.000000 0.000000 0.000000 0.000000 -0.002592
#
#
# Mechanical properties :
#
#
# Convention : Reuss Voigt Hill
#
# Bulk Modulus (GPa) = 91.04118 97.61480 94.32799
# Shear Modulus (GPa) = 33.84963 -52.56069 -9.35553
#
# Velocity S-wave (km/s) = 4.21784 -5.25586 -2.21742
# Velocity P-wave (km/s) = 8.45981 3.80406 6.55894
#
# Compressibility (1/GPa) = 0.01098404
#
# Stress axis : x y z
#
# Youngs Moduli (GPa) = 77.26720 56.35194 56.32300
#
# Poissons Ratio (x) = 0.19700 0.17348
# Poissons Ratio (y) = 0.27011 0.68451
# Poissons Ratio (z) = 0.23799 0.68486
#
# Static dielectric constant tensor:
#      x y z
#    x 3.662570 0.000000 0.000000 
#    y 0.000000 3.697370 0.000000 
#    z 0.000000 0.000000 3.566180 
# 
# 
# High freq. dielectric constant tensor:
#      x y z
#    x 1.762010 0.000000 0.000000 
#    y 0.000000 1.754920 0.000000 
#    z 0.000000 0.000000 1.739630 
# 
# From -- ./inp_files/6311.got.cif
#   From: 2010.03.12/outbox.cif.g09.slc.cpg/sg53_4_cif.got.tgz:6311.got - 2010.04.16 14:36:59.
