data_PCOD8221914
_publ_section_title
;
Structure prediction by ZEFSAII (Michael W. Deem and Ramdas Pophale) SiO2 
 PCOD8221914
Probable space group: P M N A
;
_chemical_formula_sum "Si O2"
_cell_formula_units_Z 24
_cell_length_a 16.757057
_cell_length_b 8.442171
_cell_length_c 7.655549
_cell_angle_alpha 90.000000
_cell_angle_beta 90.000000
_cell_angle_gamma 90.000000
_cell_volume 1082.999440
_symmetry_space_group_name_H-M "P M N A"
_symmetry_group_IT_number 53
_symmetry_cell_setting 'orthorhombic'
loop_
_space_group_symop_operation_xyz
x,y,z
1/2-x,-y,1/2+z
x,-y,-z
1/2-x,y,1/2-z
-x,-y,-z
1/2+x,y,1/2-z
-x,y,z
1/2+x,-y,1/2+z
loop_
_atom_site_type_symbol
_atom_site_label
_atom_site_fract_x
_atom_site_fract_y
_atom_site_fract_z
Si Si1 0.683361 0.680250 0.973125
Si Si2 0.909307 0.852068 0.224013
Si Si3 0.650038 0.808503 0.630354
O O1 0.867594 0.738951 0.363553
O O2 0.710063 0.500000 0.000000
O O3 0.632476 0.690348 0.792345
O O4 0.760481 0.790185 0.945643
O O5 0.000000 0.882881 0.283220
O O6 0.861110 0.015227 0.207072
O O7 0.909144 0.771374 0.031079
#
# Coordination Sequence:
#
# PCOD8221914 Si02
#       3
#     8   8   8
#     4  11  26  42  69 104 138 179 227 284 342 405
#     4  11  25  45  72 102 136 177 226 286 345 403
#     4  10  24  41  71  98 131 179 234 281 325 406
#
# _framework density 22.160677
#
# number of rings (size 3 to 8) (size 9 to 14) (size 15 to 20)
#    0.000    1.333    0.000    4.000   28.000    4.667 
#    0.000    1.667    0.000    0.000    0.000    0.000 
#    0.000    0.000    0.000    0.000    0.000    0.000 
#
# Total GULP energy -297496.965941 kJ/mol
# GULP energy per Si atom -12395.706914 kJ/mol
# Density = 2.211024 g / cm^3
# Si number density = 22.160677 Si / 1000 Ang^3
#
#
#
# Elastic Constant Matrix: (Units=GPa)
#
#
# Indices 1 2 3 4 5 6 
#
# 1 106.3966 67.9605 21.5367 0.0000 0.0000 0.0000
# 2 67.9605 107.5151 44.6323 0.0000 0.0000 0.0000
# 3 21.5367 44.6323 134.2441 0.0000 0.0000 0.0000
# 4 0.0000 0.0000 0.0000 29.9366 0.0000 0.0000
# 5 0.0000 0.0000 0.0000 0.0000 17.6822 0.0000
# 6 0.0000 0.0000 0.0000 0.0000 0.0000 3.1905
#
#
#
# Elastic Compliance Matrix: (Units=1/GPa)
#
#
# Indices 1 2 3 4 5 6 
#
# 1 0.015860 -0.010405 0.000915 0.000000 0.000000 0.000000
# 2 -0.010405 0.017616 -0.004188 0.000000 0.000000 0.000000
# 3 0.000915 -0.004188 0.008695 0.000000 0.000000 0.000000
# 4 0.000000 0.000000 0.000000 0.033404 0.000000 0.000000
# 5 0.000000 0.000000 0.000000 0.000000 0.056554 0.000000
# 6 0.000000 0.000000 0.000000 0.000000 0.000000 0.313434
#
#
# Mechanical properties :
#
#
# Convention : Reuss Voigt Hill
#
# Bulk Modulus (GPa) = 67.49663 68.49055 67.99359
# Shear Modulus (GPa) = 10.46342 24.43026 17.44684
#
# Velocity S-wave (km/s) = 2.17528 3.32387 2.80891
# Velocity P-wave (km/s) = 6.06903 6.76049 6.42407
#
# Compressibility (1/GPa) = 0.01481555
#
# Stress axis : x y z
#
# Youngs Moduli (GPa) = 63.05353 56.76588 115.01368
#
# Poissons Ratio (x) = 0.59063 -0.10523
# Poissons Ratio (y) = 0.65605 0.48164
# Poissons Ratio (z) = -0.05769 0.23772
#
# Static dielectric constant tensor:
#      x y z
#    x 3.811520 0.000000 0.000000 
#    y 0.000000 3.771910 0.000000 
#    z 0.000000 0.000000 4.859900 
# 
# 
# High freq. dielectric constant tensor:
#      x y z
#    x 1.851630 0.000000 0.000000 
#    y 0.000000 1.851950 0.000000 
#    z 0.000000 0.000000 1.907110 
# 
# From -- ./inp_files/9290.got.cif
#   From: 2010.03.12/outbox.cif.g09.slc.cpg/sg53_5_cif.got.tgz:9290.got - 2010.04.16 14:36:59.
