data_PCOD8221662
_publ_section_title
;
Structure prediction by ZEFSAII (Michael W. Deem and Ramdas Pophale) SiO2 
 PCOD8221662
Probable space group: P M N A
;
_chemical_formula_sum "Si O2"
_cell_formula_units_Z 44
_cell_length_a 23.307246
_cell_length_b 6.690733
_cell_length_c 13.887517
_cell_angle_alpha 90.000000
_cell_angle_beta 90.000000
_cell_angle_gamma 90.000000
_cell_volume 2165.654952
_symmetry_space_group_name_H-M "P M N A"
_symmetry_group_IT_number 53
_symmetry_cell_setting 'orthorhombic'
loop_
_space_group_symop_operation_xyz
x,y,z
1/2-x,-y,1/2+z
x,-y,-z
1/2-x,y,1/2-z
-x,-y,-z
1/2+x,y,1/2-z
-x,y,z
1/2+x,-y,1/2+z
loop_
_atom_site_type_symbol
_atom_site_label
_atom_site_fract_x
_atom_site_fract_y
_atom_site_fract_z
Si Si1 0.500000 0.429657 0.108006
Si Si2 0.000000 0.198317 0.937592
Si Si3 0.204889 0.572504 0.898156
Si Si4 0.750000 0.728362 0.250000
Si Si5 0.716531 0.060257 0.107966
Si Si6 0.904632 0.500000 0.000000
Si Si7 0.914079 0.089846 0.395595
Si Si8 0.500000 0.166982 0.784287
O O1 0.556851 0.301313 0.123311
O O2 0.500000 0.601616 0.187346
O O3 0.500000 0.500000 0.000000
O O4 0.000000 0.133430 0.828306
O O5 0.057053 0.324601 0.957254
O O6 0.000000 0.000000 0.000000
O O7 0.208190 0.408426 0.813899
O O8 0.236478 0.773650 0.861165
O O9 0.136606 0.600780 0.918040
O O10 0.234085 0.500000 0.000000
O O11 0.715784 0.867758 0.176294
O O12 0.652409 0.142352 0.117906
O O13 0.732201 0.000000 0.000000
O O14 0.927489 0.000000 0.500000
O O15 0.941102 0.931134 0.322138
#
# Coordination Sequence:
#
# PCOD8221662 Si02
#       8
#     4   4   8   4   8   4   8   4
#     4  11  19  39  64  91 137 172 203 268 330 386
#     4  11  26  48  72  96 131 182 240 289 347 389
#     4  10  23  45  67  98 138 173 225 285 345 407
#     4  12  24  42  68  94 130 182 226 270 350 416
#     4  11  23  43  67  99 137 178 224 277 341 418
#     4   9  24  48  72  96 134 175 234 296 344 397
#     4  10  22  37  63 100 135 171 219 263 333 416
#     4  11  23  42  64 100 129 179 226 273 338 397
#
# _framework density 20.317177999999998
#
# number of rings (size 3 to 8) (size 9 to 14) (size 15 to 20)
#    0.545    0.909    3.636    1.091    2.545    7.273 
#    6.545    0.000    0.000    0.000    0.000    0.000 
#    0.000    0.000    0.000    0.000    0.000    0.000 
#
# Total GULP energy -545450.670604 kJ/mol
# GULP energy per Si atom -12396.606150 kJ/mol
# Density = 2.027094 g / cm^3
# Si number density = 20.317178 Si / 1000 Ang^3
#
#
#
# Elastic Constant Matrix: (Units=GPa)
#
#
# Indices 1 2 3 4 5 6 
#
# 1 143.5452 67.5628 44.2039 0.0000 0.0000 0.0000
# 2 67.5628 137.3064 59.3367 0.0000 0.0000 0.0000
# 3 44.2039 59.3367 143.1085 0.0000 0.0000 0.0000
# 4 0.0000 0.0000 0.0000 42.4078 0.0000 0.0000
# 5 0.0000 0.0000 0.0000 0.0000 -87.7877 0.0000
# 6 0.0000 0.0000 0.0000 0.0000 0.0000 24.3300
#
#
#
# Elastic Compliance Matrix: (Units=1/GPa)
#
#
# Indices 1 2 3 4 5 6 
#
# 1 0.009227 -0.004031 -0.001179 0.000000 0.000000 0.000000
# 2 -0.004031 0.010634 -0.003164 0.000000 0.000000 0.000000
# 3 -0.001179 -0.003164 0.008664 0.000000 0.000000 0.000000
# 4 0.000000 0.000000 0.000000 0.023581 0.000000 0.000000
# 5 0.000000 0.000000 0.000000 0.000000 -0.011391 0.000000
# 6 0.000000 0.000000 0.000000 0.000000 0.000000 0.041101
#
#
# Mechanical properties :
#
#
# Convention : Reuss Voigt Hill
#
# Bulk Modulus (GPa) = 84.91023 85.12966 85.01994
# Shear Modulus (GPa) = 48.78666 12.64715 30.71691
#
# Velocity S-wave (km/s) = 4.90557 2.49767 3.89249
# Velocity P-wave (km/s) = 8.60054 7.09289 7.88284
#
# Compressibility (1/GPa) = 0.01177714
#
# Stress axis : x y z
#
# Youngs Moduli (GPa) = 108.38323 94.04165 115.42452
#
# Poissons Ratio (x) = 0.37904 0.13605
# Poissons Ratio (y) = 0.43685 0.36520
# Poissons Ratio (z) = 0.12775 0.29755
#
# Static dielectric constant tensor:
#      x y z
#    x 3.569760 0.000000 0.000000 
#    y 0.000000 3.492870 0.000000 
#    z 0.000000 0.000000 3.719660 
# 
# 
# High freq. dielectric constant tensor:
#      x y z
#    x 1.789120 0.000000 0.000000 
#    y 0.000000 1.797970 0.000000 
#    z 0.000000 0.000000 1.799350 
# 
# From -- ./inp_files/24886.got.cif
#   From: 2010.03.12/outbox.cif.g09.slc.cpg/sg53_13_cif.got.tgz:24886.got - 2010.04.16 14:36:59.
