data_PCOD8221655
_publ_section_title
;
Structure prediction by ZEFSAII (Michael W. Deem and Ramdas Pophale) SiO2 
 PCOD8221655
Probable space group: P M N A
;
_chemical_formula_sum "Si O2"
_cell_formula_units_Z 40
_cell_length_a 13.352504
_cell_length_b 5.126233
_cell_length_c 28.624611
_cell_angle_alpha 90.000000
_cell_angle_beta 90.000000
_cell_angle_gamma 90.000000
_cell_volume 1959.298709
_symmetry_space_group_name_H-M "P M N A"
_symmetry_group_IT_number 53
_symmetry_cell_setting 'orthorhombic'
loop_
_space_group_symop_operation_xyz
x,y,z
1/2-x,-y,1/2+z
x,-y,-z
1/2-x,y,1/2-z
-x,-y,-z
1/2+x,y,1/2-z
-x,y,z
1/2+x,-y,1/2+z
loop_
_atom_site_type_symbol
_atom_site_label
_atom_site_fract_x
_atom_site_fract_y
_atom_site_fract_z
Si Si1 0.887314 0.420098 0.286065
Si Si2 0.884680 0.770694 0.817706
Si Si3 0.265016 0.284434 0.664130
Si Si4 0.114387 0.061329 0.375659
Si Si5 0.117616 0.250950 0.474855
O O1 0.868741 0.286152 0.236768
O O2 0.865828 0.214884 0.327576
O O3 0.000000 0.531783 0.289548
O O4 0.809412 0.657875 0.291865
O O5 0.845423 0.061208 0.825553
O O6 0.000000 0.760981 0.832692
O O7 0.825361 0.551447 0.848058
O O8 0.189545 0.187918 0.622970
O O9 0.139986 0.246998 0.419439
O O10 0.000000 0.958773 0.379180
O O11 0.167798 0.500000 0.500000
O O12 0.000000 0.255486 0.484535
O O13 0.165493 0.000000 0.500000
#
# Coordination Sequence:
#
# PCOD8221655 Si02
#       5
#     8   8   8   8   8
#     4  10  23  38  56  83 114 152 192 234 277 333
#     4  11  26  41  56  78 113 155 202 242 282 325
#     4  12  23  39  59  81 111 152 198 236 286 324
#     4  10  22  37  57  87 119 151 192 231 276 340
#     4   9  19  34  53  77 113 154 182 215 272 340
#
# _framework density 20.415469000000002
#
# number of rings (size 3 to 8) (size 9 to 14) (size 15 to 20)
#    0.000    1.600    2.000    1.800    8.400    0.000 
#    0.000    0.000    0.000    0.000    0.000    0.000 
#    0.000   16.000    0.000    0.000    0.000    0.000 
#
# Total GULP energy -495734.721317 kJ/mol
# GULP energy per Si atom -12393.368033 kJ/mol
# Density = 2.036900 g / cm^3
# Si number density = 20.415469 Si / 1000 Ang^3
#
#
#
# Elastic Constant Matrix: (Units=GPa)
#
#
# Indices 1 2 3 4 5 6 
#
# 1 98.1389 29.8883 -4.8547 0.0000 0.0000 0.0000
# 2 29.8883 106.6307 7.6375 0.0000 0.0000 0.0000
# 3 -4.8547 7.6375 51.9394 0.0000 0.0000 0.0000
# 4 0.0000 0.0000 0.0000 27.1305 0.0000 0.0000
# 5 0.0000 0.0000 0.0000 0.0000 8.6799 0.0000
# 6 0.0000 0.0000 0.0000 0.0000 0.0000 34.0463
#
#
#
# Elastic Compliance Matrix: (Units=1/GPa)
#
#
# Indices 1 2 3 4 5 6 
#
# 1 0.011260 -0.003266 0.001533 0.000000 0.000000 0.000000
# 2 -0.003266 0.010425 -0.001838 0.000000 0.000000 0.000000
# 3 0.001533 -0.001838 0.019667 0.000000 0.000000 0.000000
# 4 0.000000 0.000000 0.000000 0.036859 0.000000 0.000000
# 5 0.000000 0.000000 0.000000 0.000000 0.115208 0.000000
# 6 0.000000 0.000000 0.000000 0.000000 0.000000 0.029372
#
#
# Mechanical properties :
#
#
# Convention : Reuss Voigt Hill
#
# Bulk Modulus (GPa) = 29.23196 35.78347 32.50771
# Shear Modulus (GPa) = 20.71791 28.90722 24.81257
#
# Velocity S-wave (km/s) = 3.18907 3.76699 3.49001
# Velocity P-wave (km/s) = 5.28298 6.04036 5.67432
#
# Compressibility (1/GPa) = 0.03420914
#
# Stress axis : x y z
#
# Youngs Moduli (GPa) = 88.80908 95.92075 50.84720
#
# Poissons Ratio (x) = 0.31327 -0.07793
# Poissons Ratio (y) = 0.29005 0.09347
# Poissons Ratio (z) = -0.13612 0.17633
#
# Static dielectric constant tensor:
#      x y z
#    x 3.883650 0.000000 0.000000 
#    y 0.000000 3.954010 0.000000 
#    z 0.000000 0.000000 3.429850 
# 
# 
# High freq. dielectric constant tensor:
#      x y z
#    x 1.784550 0.000000 0.000000 
#    y 0.000000 1.809660 0.000000 
#    z 0.000000 0.000000 1.757010 
# 
# From -- ./inp_files/35151.got.cif
#   From: 2010.03.12/outbox.cif.g09.slc.cpg/sg53_18_cif.got.tgz:35151.got - 2010.04.16 14:36:59.
