data_PCOD8221379
_publ_section_title
;
Structure prediction by ZEFSAII (Michael W. Deem and Ramdas Pophale) SiO2 
 PCOD8221379
Probable space group: P M N A
;
_chemical_formula_sum "Si O2"
_cell_formula_units_Z 64
_cell_length_a 9.017837
_cell_length_b 12.746169
_cell_length_c 27.917591
_cell_angle_alpha 90.000000
_cell_angle_beta 90.000000
_cell_angle_gamma 90.000000
_cell_volume 3208.928156
_symmetry_space_group_name_H-M "P M N A"
_symmetry_group_IT_number 53
_symmetry_cell_setting 'orthorhombic'
loop_
_space_group_symop_operation_xyz
x,y,z
1/2-x,-y,1/2+z
x,-y,-z
1/2-x,y,1/2-z
-x,-y,-z
1/2+x,y,1/2-z
-x,y,z
1/2+x,-y,1/2+z
loop_
_atom_site_type_symbol
_atom_site_label
_atom_site_fract_x
_atom_site_fract_y
_atom_site_fract_z
Si Si1 0.823947 0.229102 0.801697
Si Si2 0.170517 0.363648 0.366005
Si Si3 0.671088 0.399647 0.866194
Si Si4 0.671580 0.952535 0.951133
Si Si5 0.168914 0.737067 0.948449
Si Si6 0.830173 0.405011 0.965921
Si Si7 0.169768 0.038306 0.648973
Si Si8 0.172353 0.822221 0.699956
O O1 0.750000 0.234559 0.750000
O O2 0.770900 0.327059 0.832922
O O3 0.779667 0.121760 0.827876
O O4 0.000000 0.233020 0.795996
O O5 0.189221 0.481860 0.346681
O O6 0.261663 0.353191 0.415029
O O7 0.232515 0.281834 0.326727
O O8 0.000000 0.337550 0.377626
O O9 0.500000 0.362990 0.863765
O O10 0.722909 0.392749 0.920970
O O11 0.500000 0.924754 0.957903
O O12 0.694528 0.036124 0.908343
O O13 0.751629 0.845671 0.938168
O O14 0.738802 0.000000 0.000000
O O15 0.000000 0.750605 0.933338
O O16 0.184193 0.702190 0.003641
O O17 0.000000 0.423050 0.948862
O O18 0.778662 0.500000 0.000000
O O19 0.000000 0.068777 0.661430
O O20 0.209219 0.923431 0.668267
O O21 0.250000 0.835657 0.750000
O O22 0.000000 0.810773 0.710003
#
# Coordination Sequence:
#
# PCOD8221379 Si02
#       8
#     8   8   8   8   8   8   8   8
#     4  12  27  47  69  92 126 166 215 271 324 380
#     4  10  21  40  62  89 124 162 205 254 309 371
#     4  11  24  41  66  95 125 166 219 265 315 379
#     4  10  22  40  62  90 126 167 204 249 308 372
#     4  11  22  36  59  88 124 165 205 251 306 371
#     4  10  21  38  58  88 129 166 204 251 308 366
#     4  10  21  41  66  93 126 162 207 255 308 373
#     4  10  21  38  61  89 121 152 191 248 306 364
#
# _framework density 19.944353
#
# number of rings (size 3 to 8) (size 9 to 14) (size 15 to 20)
#    0.000    1.500    2.500    2.250    1.750    5.000 
#    0.000    1.250    0.000    0.000    0.000    0.000 
#    0.000    0.000    0.000    0.000    0.000    0.000 
#
# Total GULP energy -793848.283906 kJ/mol
# GULP energy per Si atom -12403.879436 kJ/mol
# Density = 1.989896 g / cm^3
# Si number density = 19.944353 Si / 1000 Ang^3
#
#
#
# Elastic Constant Matrix: (Units=GPa)
#
#
# Indices 1 2 3 4 5 6 
#
# 1 105.1324 52.5542 54.6337 0.0000 0.0000 0.0000
# 2 52.5542 94.3402 41.3726 0.0000 0.0000 0.0000
# 3 54.6337 41.3726 125.1063 0.0000 0.0000 0.0000
# 4 0.0000 0.0000 0.0000 18.7531 0.0000 0.0000
# 5 0.0000 0.0000 0.0000 0.0000 30.4209 0.0000
# 6 0.0000 0.0000 0.0000 0.0000 0.0000 18.9454
#
#
#
# Elastic Compliance Matrix: (Units=1/GPa)
#
#
# Indices 1 2 3 4 5 6 
#
# 1 0.015031 -0.006427 -0.004439 0.000000 0.000000 0.000000
# 2 -0.006427 0.015146 -0.002202 0.000000 0.000000 0.000000
# 3 -0.004439 -0.002202 0.010660 0.000000 0.000000 0.000000
# 4 0.000000 0.000000 0.000000 0.053324 0.000000 0.000000
# 5 0.000000 0.000000 0.000000 0.000000 0.032872 0.000000
# 6 0.000000 0.000000 0.000000 0.000000 0.000000 0.052783
#
#
# Mechanical properties :
#
#
# Convention : Reuss Voigt Hill
#
# Bulk Modulus (GPa) = 68.02049 69.07777 68.54913
# Shear Modulus (GPa) = 23.71323 25.35844 24.53584
#
# Velocity S-wave (km/s) = 3.45188 3.56962 3.51125
# Velocity P-wave (km/s) = 7.07577 7.19027 7.13325
#
# Compressibility (1/GPa) = 0.01470145
#
# Stress axis : x y z
#
# Youngs Moduli (GPa) = 66.52852 66.02459 93.81007
#
# Poissons Ratio (x) = 0.42433 0.41640
# Poissons Ratio (y) = 0.42757 0.20658
# Poissons Ratio (z) = 0.29530 0.14540
#
# Static dielectric constant tensor:
#      x y z
#    x 3.587270 0.000000 0.000000 
#    y 0.000000 3.723150 0.000000 
#    z 0.000000 0.000000 3.746820 
# 
# 
# High freq. dielectric constant tensor:
#      x y z
#    x 1.774500 0.000000 0.000000 
#    y 0.000000 1.785620 0.000000 
#    z 0.000000 0.000000 1.781400 
# 
# From -- ./inp_files/38165.got.cif
#   From: 2010.03.12/outbox.cif.g09.slc.cpg/sg53_20_cif.got.tgz:38165.got - 2010.04.16 14:36:59.
