data_PCOD8221718
_publ_section_title
;
Structure prediction by ZEFSAII (Michael W. Deem and Ramdas Pophale) SiO2 
 PCOD8221718
Probable space group: P M N A
;
_chemical_formula_sum "Si O2"
_cell_formula_units_Z 56
_cell_length_a 18.293364
_cell_length_b 16.106799
_cell_length_c 9.714653
_cell_angle_alpha 90.000000
_cell_angle_beta 90.000000
_cell_angle_gamma 90.000000
_cell_volume 2862.398579
_symmetry_space_group_name_H-M "P M N A"
_symmetry_group_IT_number 53
_symmetry_cell_setting 'orthorhombic'
loop_
_space_group_symop_operation_xyz
x,y,z
1/2-x,-y,1/2+z
x,-y,-z
1/2-x,y,1/2-z
-x,-y,-z
1/2+x,y,1/2-z
-x,y,z
1/2+x,-y,1/2+z
loop_
_atom_site_type_symbol
_atom_site_label
_atom_site_fract_x
_atom_site_fract_y
_atom_site_fract_z
Si Si1 0.084532 0.729573 0.513214
Si Si2 0.583975 0.857277 0.219711
Si Si3 0.177938 0.987307 0.661371
Si Si4 0.836372 0.193293 0.248983
Si Si5 0.587238 0.251634 0.522583
Si Si6 0.834133 0.579342 0.087936
Si Si7 0.166984 0.423609 0.595356
O O1 0.099196 0.811253 0.423242
O O2 0.128233 0.736727 0.654984
O O3 0.111782 0.650691 0.430347
O O4 0.000000 0.717916 0.547397
O O5 0.500000 0.877347 0.241601
O O6 0.611727 0.799045 0.342849
O O7 0.622646 0.945224 0.219004
O O8 0.250000 0.998342 0.750000
O O9 0.143207 0.897319 0.691651
O O10 0.194740 0.000000 0.500000
O O11 0.750000 0.207312 0.250000
O O12 0.870714 0.204925 0.099287
O O13 0.500000 0.251495 0.498604
O O14 0.614253 0.345538 0.541685
O O15 0.843480 0.552165 0.245928
O O16 0.749786 0.604296 0.060487
O O17 0.857826 0.500000 0.000000
O O18 0.143388 0.500000 0.500000
#
# Coordination Sequence:
#
# PCOD8221718 Si02
#       7
#     8   8   8   8   8   8   8
#     4  11  22  41  64  92 125 165 211 257 312 372
#     4  10  23  41  65  90 125 167 206 251 309 379
#     4  11  25  42  65  94 126 162 211 263 315 370
#     4  11  25  42  63  94 126 163 209 261 315 372
#     4  11  24  43  64  93 127 166 211 257 313 378
#     4  10  22  40  62  90 127 168 207 254 313 372
#     4  10  22  39  62  93 125 164 212 258 307 370
#
# _framework density 19.564011000000001
#
# number of rings (size 3 to 8) (size 9 to 14) (size 15 to 20)
#    0.000    1.429    2.857    1.286    6.000    3.143 
#    0.000    1.429    0.000    0.000    0.000    0.000 
#    0.000    0.000    0.000    0.000    0.000    0.000 
#
# Total GULP energy -694609.983851 kJ/mol
# GULP energy per Si atom -12403.749712 kJ/mol
# Density = 1.951948 g / cm^3
# Si number density = 19.564011 Si / 1000 Ang^3
#
#
#
# Elastic Constant Matrix: (Units=GPa)
#
#
# Indices 1 2 3 4 5 6 
#
# 1 90.2605 54.4257 51.5254 0.0000 0.0000 0.0000
# 2 54.4257 107.0691 52.7250 0.0000 0.0000 0.0000
# 3 51.5254 52.7250 110.9235 0.0000 0.0000 0.0000
# 4 0.0000 0.0000 0.0000 14.7691 0.0000 0.0000
# 5 0.0000 0.0000 0.0000 0.0000 31.0732 0.0000
# 6 0.0000 0.0000 0.0000 0.0000 0.0000 17.1983
#
#
#
# Elastic Compliance Matrix: (Units=1/GPa)
#
#
# Indices 1 2 3 4 5 6 
#
# 1 0.018051 -0.006589 -0.005253 0.000000 0.000000 0.000000
# 2 -0.006589 0.014599 -0.003879 0.000000 0.000000 0.000000
# 3 -0.005253 -0.003879 0.013299 0.000000 0.000000 0.000000
# 4 0.000000 0.000000 0.000000 0.067709 0.000000 0.000000
# 5 0.000000 0.000000 0.000000 0.000000 0.032182 0.000000
# 6 0.000000 0.000000 0.000000 0.000000 0.000000 0.058145
#
#
# Mechanical properties :
#
#
# Convention : Reuss Voigt Hill
#
# Bulk Modulus (GPa) = 68.92895 69.51170 69.22032
# Shear Modulus (GPa) = 20.81065 22.57993 21.69529
#
# Velocity S-wave (km/s) = 3.26501 3.40097 3.33369
# Velocity P-wave (km/s) = 7.03724 7.14351 7.09057
#
# Compressibility (1/GPa) = 0.01450769
#
# Stress axis : x y z
#
# Youngs Moduli (GPa) = 55.39975 68.49758 75.19397
#
# Poissons Ratio (x) = 0.45132 0.39499
# Poissons Ratio (y) = 0.36502 0.29166
# Poissons Ratio (z) = 0.29101 0.26568
#
# Static dielectric constant tensor:
#      x y z
#    x 3.527230 0.000000 0.000000 
#    y 0.000000 3.093600 0.000000 
#    z 0.000000 0.000000 3.572940 
# 
# 
# High freq. dielectric constant tensor:
#      x y z
#    x 1.762540 0.000000 0.000000 
#    y 0.000000 1.766330 0.000000 
#    z 0.000000 0.000000 1.778830 
# 
# From -- ./inp_files/11101.got.cif
#   From: 2010.03.12/outbox.cif.g09.slc.cpg/sg53_6_cif.got.tgz:11101.got - 2010.04.16 14:36:59.
