data_PCOD8221969
_publ_section_title
;
Structure prediction by ZEFSAII (Michael W. Deem and Ramdas Pophale) SiO2 
 PCOD8221969
Probable space group: P M N A
;
_chemical_formula_sum "Si O2"
_cell_formula_units_Z 48
_cell_length_a 14.826089
_cell_length_b 9.504673
_cell_length_c 13.969009
_cell_angle_alpha 90.000000
_cell_angle_beta 90.000000
_cell_angle_gamma 90.000000
_cell_volume 1968.472627
_symmetry_space_group_name_H-M "P M N A"
_symmetry_group_IT_number 53
_symmetry_cell_setting 'orthorhombic'
loop_
_space_group_symop_operation_xyz
x,y,z
1/2-x,-y,1/2+z
x,-y,-z
1/2-x,y,1/2-z
-x,-y,-z
1/2+x,y,1/2-z
-x,y,z
1/2+x,-y,1/2+z
loop_
_atom_site_type_symbol
_atom_site_label
_atom_site_fract_x
_atom_site_fract_y
_atom_site_fract_z
Si Si1 0.852118 0.028571 0.774812
Si Si2 0.396743 0.725594 0.790277
Si Si3 0.854153 0.559563 0.227077
Si Si4 0.728569 0.334083 0.028369
Si Si5 0.602878 0.768090 0.438904
Si Si6 0.594602 0.238966 0.879120
O O1 0.750000 0.061806 0.750000
O O2 0.875396 0.865386 0.768540
O O3 0.876685 0.087061 0.880672
O O4 0.907061 0.107326 0.692429
O O5 0.500000 0.727278 0.829129
O O6 0.381246 0.602563 0.712638
O O7 0.322340 0.693197 0.872210
O O8 0.750000 0.585146 0.250000
O O9 0.882016 0.636178 0.130582
O O10 0.908464 0.618517 0.317288
O O11 0.828479 0.262817 0.027427
O O12 0.677160 0.238823 0.950919
O O13 0.729013 0.500000 0.000000
O O14 0.500000 0.772813 0.477165
O O15 0.500000 0.233378 0.937307
#
# Coordination Sequence:
#
# PCOD8221969 Si02
#       6
#     8   8   8   8   8   8
#     4  11  22  43  68  96 129 173 225 273 328 396
#     4  12  25  39  64 103 139 170 217 280 341 396
#     4  11  19  38  64  98 131 170 221 275 327 389
#     4  12  24  41  64 101 140 176 216 274 344 397
#     4  11  22  43  72  95 126 178 231 274 327 400
#     4  11  20  37  64  93 131 172 211 258 326 396
#
# _framework density 24.384387
#
# number of rings (size 3 to 8) (size 9 to 14) (size 15 to 20)
#    0.000    0.667    5.000    6.000    0.000    1.667 
#    0.000    1.667    0.000    4.000    0.000    0.000 
#    0.000    0.000    0.000    0.000    0.000    0.000 
#
# Total GULP energy -594944.350071 kJ/mol
# GULP energy per Si atom -12394.673960 kJ/mol
# Density = 2.432889 g / cm^3
# Si number density = 24.384387 Si / 1000 Ang^3
#
#
#
# Elastic Constant Matrix: (Units=GPa)
#
#
# Indices 1 2 3 4 5 6 
#
# 1 201.2999 25.8787 19.6311 0.0000 0.0000 0.0000
# 2 25.8787 171.7598 26.0584 0.0000 0.0000 0.0000
# 3 19.6311 26.0584 40.7807 0.0000 0.0000 0.0000
# 4 0.0000 0.0000 0.0000 9.1735 0.0000 0.0000
# 5 0.0000 0.0000 0.0000 0.0000 6.6842 0.0000
# 6 0.0000 0.0000 0.0000 0.0000 0.0000 26.2632
#
#
#
# Elastic Compliance Matrix: (Units=1/GPa)
#
#
# Indices 1 2 3 4 5 6 
#
# 1 0.005244 -0.000451 -0.002236 0.000000 0.000000 0.000000
# 2 -0.000451 0.006486 -0.003927 0.000000 0.000000 0.000000
# 3 -0.002236 -0.003927 0.028107 0.000000 0.000000 0.000000
# 4 0.000000 0.000000 0.000000 0.109010 0.000000 0.000000
# 5 0.000000 0.000000 0.000000 0.000000 0.149607 0.000000
# 6 0.000000 0.000000 0.000000 0.000000 0.000000 0.038076
#
#
# Mechanical properties :
#
#
# Convention : Reuss Voigt Hill
#
# Bulk Modulus (GPa) = 37.58231 61.88633 49.73432
# Shear Modulus (GPa) = 13.94203 31.24233 22.59218
#
# Velocity S-wave (km/s) = 2.39375 3.58333 3.04715
# Velocity P-wave (km/s) = 4.80478 6.52341 5.72891
#
# Compressibility (1/GPa) = 0.02660826
#
# Stress axis : x y z
#
# Youngs Moduli (GPa) = 190.70349 154.18191 35.57781
#
# Poissons Ratio (x) = 0.06951 0.07956
# Poissons Ratio (y) = 0.08597 0.13973
# Poissons Ratio (z) = 0.42645 0.60553
#
# Static dielectric constant tensor:
#      x y z
#    x 4.042770 0.000000 0.000000 
#    y 0.000000 4.490650 0.000000 
#    z 0.000000 0.000000 4.179130 
# 
# 
# High freq. dielectric constant tensor:
#      x y z
#    x 1.993600 0.000000 0.000000 
#    y 0.000000 1.972520 0.000000 
#    z 0.000000 0.000000 1.939090 
# 
# From -- ./inp_files/28276.got.cif
#   From: 2010.03.12/outbox.cif.g09.slc.cpg/sg53_15_cif.got.tgz:28276.got - 2010.04.16 14:36:59.
