data_PCOD8221993
_publ_section_title
;
Structure prediction by ZEFSAII (Michael W. Deem and Ramdas Pophale) SiO2 
 PCOD8221993
Probable space group: P M N A
;
_chemical_formula_sum "Si O2"
_cell_formula_units_Z 32
_cell_length_a 11.791895
_cell_length_b 7.402045
_cell_length_c 18.826243
_cell_angle_alpha 90.000000
_cell_angle_beta 90.000000
_cell_angle_gamma 90.000000
_cell_volume 1643.232381
_symmetry_space_group_name_H-M "P M N A"
_symmetry_group_IT_number 53
_symmetry_cell_setting 'orthorhombic'
loop_
_space_group_symop_operation_xyz
x,y,z
1/2-x,-y,1/2+z
x,-y,-z
1/2-x,y,1/2-z
-x,-y,-z
1/2+x,y,1/2-z
-x,y,z
1/2+x,-y,1/2+z
loop_
_atom_site_type_symbol
_atom_site_label
_atom_site_fract_x
_atom_site_fract_y
_atom_site_fract_z
Si Si1 0.240805 0.075264 0.576923
Si Si2 0.500000 0.231888 0.947072
Si Si3 0.500000 0.641165 0.897880
Si Si4 0.762900 0.268858 0.333397
Si Si5 0.634316 0.441749 0.577835
O O1 0.109062 0.127439 0.581439
O O2 0.318018 0.245534 0.596111
O O3 0.274683 0.000000 0.500000
O O4 0.269646 0.925436 0.635203
O O5 0.500000 0.433733 0.919156
O O6 0.500000 0.231007 0.032743
O O7 0.608889 0.681220 0.851225
O O8 0.750000 0.261402 0.250000
O O9 0.677901 0.417440 0.364354
O O10 0.679720 0.500000 0.500000
O O11 0.500000 0.435987 0.580328
#
# Coordination Sequence:
#
# PCOD8221993 Si02
#       5
#     8   4   4   8   8
#     4  12  22  41  70 103 130 166 223 278 325 390
#     4  11  20  39  76 105 123 159 231 286 326 382
#     4  11  21  42  73  97 130 174 213 277 340 387
#     4  12  27  44  65  98 138 175 213 272 340 393
#     4  11  24  44  69  95 129 177 225 266 318 394
#
# _framework density 19.473813
#
# number of rings (size 3 to 8) (size 9 to 14) (size 15 to 20)
#    0.000    0.500    7.500    1.125    1.750    2.500 
#    0.000    0.000    0.000    0.000    0.000    0.000 
#    0.000    0.000    0.000    0.000    0.000    0.000 
#
# Total GULP energy -397047.728744 kJ/mol
# GULP energy per Si atom -12407.741523 kJ/mol
# Density = 1.942949 g / cm^3
# Si number density = 19.473813 Si / 1000 Ang^3
#
#
#
# Elastic Constant Matrix: (Units=GPa)
#
#
# Indices 1 2 3 4 5 6 
#
# 1 100.5936 55.0959 46.4011 0.0000 0.0000 0.0000
# 2 55.0959 153.2580 69.7839 0.0000 0.0000 0.0000
# 3 46.4011 69.7839 158.6771 0.0000 0.0000 0.0000
# 4 0.0000 0.0000 0.0000 29.7755 0.0000 0.0000
# 5 0.0000 0.0000 0.0000 0.0000 22.8249 0.0000
# 6 0.0000 0.0000 0.0000 0.0000 0.0000 -17.3318
#
#
#
# Elastic Compliance Matrix: (Units=1/GPa)
#
#
# Indices 1 2 3 4 5 6 
#
# 1 0.012952 -0.003666 -0.002175 0.000000 0.000000 0.000000
# 2 -0.003666 0.009196 -0.002972 0.000000 0.000000 0.000000
# 3 -0.002175 -0.002972 0.008245 0.000000 0.000000 0.000000
# 4 0.000000 0.000000 0.000000 0.033585 0.000000 0.000000
# 5 0.000000 0.000000 0.000000 0.000000 0.043812 0.000000
# 6 0.000000 0.000000 0.000000 0.000000 0.000000 -0.057697
#
#
# Mechanical properties :
#
#
# Convention : Reuss Voigt Hill
#
# Bulk Modulus (GPa) = 78.32831 83.89893 81.11362
# Shear Modulus (GPa) = 69.46775 23.13689 46.30232
#
# Velocity S-wave (km/s) = 5.97912 3.45063 4.88143
# Velocity P-wave (km/s) = 9.37956 7.68455 8.57404
#
# Compressibility (1/GPa) = 0.01276678
#
# Stress axis : x y z
#
# Youngs Moduli (GPa) = 77.20693 108.74039 121.27869
#
# Poissons Ratio (x) = 0.39861 0.26383
# Poissons Ratio (y) = 0.28302 0.36049
# Poissons Ratio (z) = 0.16796 0.32322
#
# Static dielectric constant tensor:
#      x y z
#    x 3.611640 0.000000 0.000000 
#    y 0.000000 4.169820 0.000000 
#    z 0.000000 0.000000 3.390210 
# 
# 
# High freq. dielectric constant tensor:
#      x y z
#    x 1.767520 0.000000 0.000000 
#    y 0.000000 1.785240 0.000000 
#    z 0.000000 0.000000 1.738690 
# 
# From -- ./inp_files/27295.got.cif
#   From: 2010.03.12/outbox.cif.g09.slc.cpg/sg53_14_cif.got.tgz:27295.got - 2010.04.16 14:36:59.
