data_PCOD8221495
_publ_section_title
;
Structure prediction by ZEFSAII (Michael W. Deem and Ramdas Pophale) SiO2 
 PCOD8221495
Probable space group: P M N A
;
_chemical_formula_sum "Si O2"
_cell_formula_units_Z 32
_cell_length_a 10.031484
_cell_length_b 19.130780
_cell_length_c 8.734494
_cell_angle_alpha 90.000000
_cell_angle_beta 90.000000
_cell_angle_gamma 90.000000
_cell_volume 1676.237735
_symmetry_space_group_name_H-M "P M N A"
_symmetry_group_IT_number 53
_symmetry_cell_setting 'orthorhombic'
loop_
_space_group_symop_operation_xyz
x,y,z
1/2-x,-y,1/2+z
x,-y,-z
1/2-x,y,1/2-z
-x,-y,-z
1/2+x,y,1/2-z
-x,y,z
1/2+x,-y,1/2+z
loop_
_atom_site_type_symbol
_atom_site_label
_atom_site_fract_x
_atom_site_fract_y
_atom_site_fract_z
Si Si1 0.000000 0.921449 0.564171
Si Si2 0.254424 0.846102 0.431000
Si Si3 0.000000 0.924863 0.928521
Si Si4 0.149455 0.439303 0.115778
Si Si5 0.343700 0.717648 0.602507
O O1 0.122942 0.876507 0.505997
O O2 0.000000 0.926890 0.746069
O O3 0.000000 0.000000 0.500000
O O4 0.250000 0.857372 0.250000
O O5 0.371236 0.887294 0.510537
O O6 0.280436 0.764592 0.467955
O O7 0.000000 0.000000 0.000000
O O8 0.250000 0.450464 0.250000
O O9 0.166344 0.362118 0.042934
O O10 0.000000 0.448128 0.179532
O O11 0.185412 0.500000 0.000000
O O12 0.250000 0.729261 0.750000
O O13 0.500000 0.737051 0.637765
#
# Coordination Sequence:
#
# PCOD8221495 Si02
#       5
#     4   8   4   8   8
#     4  12  26  44  66  92 121 160 203 250 308 368
#     4  12  25  41  62  92 124 158 202 256 304 362
#     4  12  24  44  66  88 121 160 201 248 306 366
#     4   9  19  36  59  87 122 162 204 251 300 358
#     4  10  21  39  62  89 121 163 208 252 306 366
#
# _framework density 19.090371999999999
#
# number of rings (size 3 to 8) (size 9 to 14) (size 15 to 20)
#    0.000    1.250    1.250    5.250    1.750    1.500 
#    0.000    0.000    0.000    0.000    0.000    0.000 
#    0.000    0.000    0.000    0.000    0.000    0.000 
#
# Total GULP energy -396693.344640 kJ/mol
# GULP energy per Si atom -12396.667020 kJ/mol
# Density = 1.904692 g / cm^3
# Si number density = 19.090372 Si / 1000 Ang^3
#
#
#
# Elastic Constant Matrix: (Units=GPa)
#
#
# Indices 1 2 3 4 5 6 
#
# 1 128.8731 82.9987 62.0551 0.0000 0.0000 0.0000
# 2 82.9987 151.8642 78.9653 0.0000 0.0000 0.0000
# 3 62.0551 78.9653 158.9882 0.0000 0.0000 0.0000
# 4 0.0000 0.0000 0.0000 43.1734 0.0000 0.0000
# 5 0.0000 0.0000 0.0000 0.0000 29.9558 0.0000
# 6 0.0000 0.0000 0.0000 0.0000 0.0000 41.0712
#
#
#
# Elastic Compliance Matrix: (Units=1/GPa)
#
#
# Indices 1 2 3 4 5 6 
#
# 1 0.012425 -0.005755 -0.001991 0.000000 0.000000 0.000000
# 2 -0.005755 0.011543 -0.003487 0.000000 0.000000 0.000000
# 3 -0.001991 -0.003487 0.008799 0.000000 0.000000 0.000000
# 4 0.000000 0.000000 0.000000 0.023162 0.000000 0.000000
# 5 0.000000 0.000000 0.000000 0.000000 0.033382 0.000000
# 6 0.000000 0.000000 0.000000 0.000000 0.000000 0.024348
#
#
# Mechanical properties :
#
#
# Convention : Reuss Voigt Hill
#
# Bulk Modulus (GPa) = 97.08317 98.64043 97.86180
# Shear Modulus (GPa) = 35.82684 37.22052 36.52368
#
# Velocity S-wave (km/s) = 4.33679 4.42033 4.37876
# Velocity P-wave (km/s) = 8.72020 8.82241 8.77145
#
# Compressibility (1/GPa) = 0.01030045
#
# Stress axis : x y z
#
# Youngs Moduli (GPa) = 80.48327 86.62949 113.65189
#
# Poissons Ratio (x) = 0.49858 0.22629
# Poissons Ratio (y) = 0.46321 0.39630
# Poissons Ratio (z) = 0.16025 0.30207
#
# Static dielectric constant tensor:
#      x y z
#    x 3.794730 0.000000 0.000000 
#    y 0.000000 3.699740 0.000000 
#    z 0.000000 0.000000 3.692440 
# 
# 
# High freq. dielectric constant tensor:
#      x y z
#    x 1.766640 0.000000 0.000000 
#    y 0.000000 1.766240 0.000000 
#    z 0.000000 0.000000 1.729610 
# 
# From -- ./inp_files/6052.got.cif
#   From: 2010.03.12/outbox.cif.g09.slc.cpg/sg53_4_cif.got.tgz:6052.got - 2010.04.16 14:36:59.
