data_PCOD8221667
_publ_section_title
;
Structure prediction by ZEFSAII (Michael W. Deem and Ramdas Pophale) SiO2 
 PCOD8221667
Probable space group: P M N A
;
_chemical_formula_sum "Si O2"
_cell_formula_units_Z 48
_cell_length_a 17.747416
_cell_length_b 9.724004
_cell_length_c 14.141204
_cell_angle_alpha 90.000000
_cell_angle_beta 90.000000
_cell_angle_gamma 90.000000
_cell_volume 2440.431632
_symmetry_space_group_name_H-M "P M N A"
_symmetry_group_IT_number 53
_symmetry_cell_setting 'orthorhombic'
loop_
_space_group_symop_operation_xyz
x,y,z
1/2-x,-y,1/2+z
x,-y,-z
1/2-x,y,1/2-z
-x,-y,-z
1/2+x,y,1/2-z
-x,y,z
1/2+x,-y,1/2+z
loop_
_atom_site_type_symbol
_atom_site_label
_atom_site_fract_x
_atom_site_fract_y
_atom_site_fract_z
Si Si1 0.637137 0.637739 0.050379
Si Si2 0.730574 0.947706 0.857982
Si Si3 0.085952 0.790738 0.616864
Si Si4 0.781310 0.789916 0.035227
Si Si5 0.088350 0.514328 0.719339
Si Si6 0.413789 0.604528 0.415221
O O1 0.726729 0.658635 0.041211
O O2 0.614368 0.619243 0.159401
O O3 0.610968 0.500000 0.000000
O O4 0.591694 0.757733 0.995605
O O5 0.750000 0.918559 0.750000
O O6 0.640803 0.920156 0.866211
O O7 0.749361 0.102917 0.887513
O O8 0.779116 0.850053 0.928502
O O9 0.118345 0.661123 0.679041
O O10 0.000000 0.830121 0.643262
O O11 0.865056 0.741269 0.063311
O O12 0.116757 0.480828 0.824820
O O13 0.000000 0.527318 0.715856
O O14 0.406794 0.500000 0.500000
O O15 0.500000 0.654150 0.400365
#
# Coordination Sequence:
#
# PCOD8221667 Si02
#       6
#     8   8   8   8   8   8
#     4   9  17  32  56  89 116 143 178 230 295 351
#     4  10  23  40  58  81 114 155 197 238 274 338
#     4   9  18  36  59  85 117 149 185 232 288 345
#     4  10  22  40  57  81 116 150 194 237 286 336
#     4   9  18  32  55  88 117 146 183 229 289 345
#     4  10  22  38  58  86 117 151 194 243 287 338
#
# _framework density 19.668652999999999
#
# number of rings (size 3 to 8) (size 9 to 14) (size 15 to 20)
#    0.000    2.500    0.000    1.000    4.667    2.000 
#    0.000   10.000    0.000    0.000    0.000    0.000 
#    0.000    0.000    0.000    0.000    0.000    0.000 
#
# Total GULP energy -594921.045908 kJ/mol
# GULP energy per Si atom -12394.188456 kJ/mol
# Density = 1.962389 g / cm^3
# Si number density = 19.668653 Si / 1000 Ang^3
#
#
#
# Elastic Constant Matrix: (Units=GPa)
#
#
# Indices 1 2 3 4 5 6 
#
# 1 89.7039 42.8687 31.5329 0.0000 0.0000 0.0000
# 2 42.8687 67.8637 31.7811 0.0000 0.0000 0.0000
# 3 31.5329 31.7811 138.6483 0.0000 0.0000 0.0000
# 4 0.0000 0.0000 0.0000 2.4631 0.0000 0.0000
# 5 0.0000 0.0000 0.0000 0.0000 23.3773 0.0000
# 6 0.0000 0.0000 0.0000 0.0000 0.0000 33.8294
#
#
#
# Elastic Compliance Matrix: (Units=1/GPa)
#
#
# Indices 1 2 3 4 5 6 
#
# 1 0.016243 -0.009557 -0.001504 0.000000 0.000000 0.000000
# 2 -0.009557 0.022130 -0.002899 0.000000 0.000000 0.000000
# 3 -0.001504 -0.002899 0.008219 0.000000 0.000000 0.000000
# 4 0.000000 0.000000 0.000000 0.405991 0.000000 0.000000
# 5 0.000000 0.000000 0.000000 0.000000 0.042776 0.000000
# 6 0.000000 0.000000 0.000000 0.000000 0.000000 0.029560
#
#
# Mechanical properties :
#
#
# Convention : Reuss Voigt Hill
#
# Bulk Modulus (GPa) = 53.55194 56.50902 55.03048
# Shear Modulus (GPa) = 8.94354 24.60285 16.77320
#
# Velocity S-wave (km/s) = 2.13471 3.54060 2.92342
# Velocity P-wave (km/s) = 5.77600 6.74591 6.27971
#
# Compressibility (1/GPa) = 0.01867346
#
# Stress axis : x y z
#
# Youngs Moduli (GPa) = 61.56368 45.18780 121.66892
#
# Poissons Ratio (x) = 0.43184 0.18295
# Poissons Ratio (y) = 0.58834 0.35274
# Poissons Ratio (z) = 0.09257 0.13101
#
# Static dielectric constant tensor:
#      x y z
#    x 3.484400 0.000000 0.000000 
#    y 0.000000 3.460400 0.000000 
#    z 0.000000 0.000000 3.870600 
# 
# 
# High freq. dielectric constant tensor:
#      x y z
#    x 1.755640 0.000000 0.000000 
#    y 0.000000 1.746170 0.000000 
#    z 0.000000 0.000000 1.774320 
# 
# From -- ./inp_files/23617.got.cif
#   From: 2010.03.12/outbox.cif.g09.slc.cpg/sg53_12_cif.got.tgz:23617.got - 2010.04.16 14:36:59.
