data_PCOD8221000
_publ_section_title
;
Structure prediction by ZEFSAII (Michael W. Deem and Ramdas Pophale) SiO2 
 PCOD8221000
Probable space group: P M N A
;
_chemical_formula_sum "Si O2"
_cell_formula_units_Z 56
_cell_length_a 14.176825
_cell_length_b 11.752542
_cell_length_c 17.549840
_cell_angle_alpha 90.000000
_cell_angle_beta 90.000000
_cell_angle_gamma 90.000000
_cell_volume 2924.044325
_symmetry_space_group_name_H-M "P M N A"
_symmetry_group_IT_number 53
_symmetry_cell_setting 'orthorhombic'
loop_
_space_group_symop_operation_xyz
x,y,z
1/2-x,-y,1/2+z
x,-y,-z
1/2-x,y,1/2-z
-x,-y,-z
1/2+x,y,1/2-z
-x,y,z
1/2+x,-y,1/2+z
loop_
_atom_site_type_symbol
_atom_site_label
_atom_site_fract_x
_atom_site_fract_y
_atom_site_fract_z
Si Si1 0.890632 0.648122 0.421534
Si Si2 0.609840 0.917654 0.317948
Si Si3 0.762347 0.950785 0.921495
Si Si4 0.755570 0.503453 0.161677
Si Si5 0.892163 0.897076 0.355110
Si Si6 0.243510 0.691434 0.955160
Si Si7 0.111236 0.313750 0.904009
O O1 0.843811 0.556867 0.365089
O O2 0.875445 0.770772 0.384676
O O3 0.837774 0.646491 0.502723
O O4 0.000000 0.617397 0.433527
O O5 0.500000 0.943970 0.322016
O O6 0.644026 0.901373 0.231585
O O7 0.636951 0.805712 0.365251
O O8 0.663319 0.024922 0.354306
O O9 0.741533 0.817848 0.924541
O O10 0.664105 0.014470 0.906526
O O11 0.805309 0.000000 0.000000
O O12 0.750000 0.472681 0.250000
O O13 0.776804 0.387677 0.116742
O O14 0.842283 0.588764 0.147305
O O15 0.000000 0.933964 0.361293
O O16 0.153998 0.684636 0.011377
O O17 0.000000 0.334842 0.908506
#
# Coordination Sequence:
#
# PCOD8221000 Si02
#       7
#     8   8   8   8   8   8   8
#     4  10  20  39  65  88 112 146 194 247 293 337
#     4  10  21  36  59  89 115 146 194 247 292 337
#     4  12  21  37  58  84 118 160 190 230 287 343
#     4  11  24  39  56  84 121 154 190 233 287 353
#     4  10  21  36  59  89 115 146 194 247 292 337
#     4  11  24  38  57  88 117 156 196 233 285 344
#     4  10  20  39  65  88 112 146 194 247 293 337
#
# _framework density 19.151555999999999
#
# number of rings (size 3 to 8) (size 9 to 14) (size 15 to 20)
#    0.000    1.429    2.857    3.857    0.000    6.857 
#    0.000    0.000    0.000    0.000    0.000    0.000 
#    0.000    0.000    0.000    0.000    0.000    0.000 
#
# Total GULP energy -694670.120126 kJ/mol
# GULP energy per Si atom -12404.823574 kJ/mol
# Density = 1.910797 g / cm^3
# Si number density = 19.151556 Si / 1000 Ang^3
#
#
#
# Elastic Constant Matrix: (Units=GPa)
#
#
# Indices 1 2 3 4 5 6 
#
# 1 76.5426 12.5803 19.9760 0.0000 0.0000 0.0000
# 2 12.5803 73.2768 34.5351 0.0000 0.0000 0.0000
# 3 19.9760 34.5351 118.4513 0.0000 0.0000 0.0000
# 4 0.0000 0.0000 0.0000 28.5786 0.0000 0.0000
# 5 0.0000 0.0000 0.0000 0.0000 22.1275 0.0000
# 6 0.0000 0.0000 0.0000 0.0000 0.0000 14.6336
#
#
#
# Elastic Compliance Matrix: (Units=1/GPa)
#
#
# Indices 1 2 3 4 5 6 
#
# 1 0.013802 -0.001475 -0.001898 0.000000 0.000000 0.000000
# 2 -0.001475 0.015979 -0.004410 0.000000 0.000000 0.000000
# 3 -0.001898 -0.004410 0.010048 0.000000 0.000000 0.000000
# 4 0.000000 0.000000 0.000000 0.034991 0.000000 0.000000
# 5 0.000000 0.000000 0.000000 0.000000 0.045193 0.000000
# 6 0.000000 0.000000 0.000000 0.000000 0.000000 0.068336
#
#
# Mechanical properties :
#
#
# Convention : Reuss Voigt Hill
#
# Bulk Modulus (GPa) = 41.21416 44.71704 42.96560
# Shear Modulus (GPa) = 23.58474 26.47991 25.03232
#
# Velocity S-wave (km/s) = 3.51305 3.72243 3.61926
# Velocity P-wave (km/s) = 6.16621 6.47110 6.32049
#
# Compressibility (1/GPa) = 0.02426351
#
# Stress axis : x y z
#
# Youngs Moduli (GPa) = 72.45167 62.58408 99.52231
#
# Poissons Ratio (x) = 0.09233 0.18885
# Poissons Ratio (y) = 0.10689 0.43887
# Poissons Ratio (z) = 0.13748 0.27598
#
# Static dielectric constant tensor:
#      x y z
#    x 3.560240 0.000000 0.000000 
#    y 0.000000 3.411650 0.000000 
#    z 0.000000 0.000000 3.568620 
# 
# 
# High freq. dielectric constant tensor:
#      x y z
#    x 1.751170 0.000000 0.000000 
#    y 0.000000 1.740260 0.000000 
#    z 0.000000 0.000000 1.749530 
# 
# From -- ./inp_files/22761.got.cif
#   From: 2010.03.12/outbox.cif.g09.slc.cpg/sg53_12_cif.got.tgz:22761.got - 2010.04.16 14:36:59.
