data_PCOD8221092
_publ_section_title
;
Structure prediction by ZEFSAII (Michael W. Deem and Ramdas Pophale) SiO2 
 PCOD8221092
Probable space group: P M N A
;
_chemical_formula_sum "Si O2"
_cell_formula_units_Z 48
_cell_length_a 19.993260
_cell_length_b 15.130915
_cell_length_c 8.310044
_cell_angle_alpha 90.000000
_cell_angle_beta 90.000000
_cell_angle_gamma 90.000000
_cell_volume 2513.923910
_symmetry_space_group_name_H-M "P M N A"
_symmetry_group_IT_number 53
_symmetry_cell_setting 'orthorhombic'
loop_
_space_group_symop_operation_xyz
x,y,z
1/2-x,-y,1/2+z
x,-y,-z
1/2-x,y,1/2-z
-x,-y,-z
1/2+x,y,1/2-z
-x,y,z
1/2+x,-y,1/2+z
loop_
_atom_site_type_symbol
_atom_site_label
_atom_site_fract_x
_atom_site_fract_y
_atom_site_fract_z
Si Si1 0.689544 0.922088 0.872471
Si Si2 0.577642 0.081182 0.385981
Si Si3 0.576550 0.433135 0.638371
Si Si4 0.309380 0.426545 0.873567
Si Si5 0.576388 0.768886 0.366939
Si Si6 0.690396 0.228753 0.876637
O O1 0.750000 0.937306 0.750000
O O2 0.619856 0.920657 0.777047
O O3 0.700551 0.831281 0.967752
O O4 0.687722 0.000000 0.000000
O O5 0.500000 0.074830 0.337066
O O6 0.594090 0.171822 0.479128
O O7 0.598426 0.000000 0.500000
O O8 0.599335 0.500000 0.500000
O O9 0.500000 0.449378 0.687176
O O10 0.620340 0.453685 0.794376
O O11 0.589180 0.332524 0.580083
O O12 0.250000 0.425413 0.750000
O O13 0.313890 0.328153 0.947110
O O14 0.290133 0.500000 0.000000
O O15 0.500000 0.784693 0.312513
O O16 0.621767 0.795834 0.215325
O O17 0.750000 0.215625 0.750000
#
# Coordination Sequence:
#
# PCOD8221092 Si02
#       6
#     8   8   8   8   8   8
#     4  12  24  37  56  80 106 137 174 215 260 309
#     4  10  21  37  57  80 106 137 172 211 257 309
#     4   9  18  33  54  78 105 139 174 210 256 308
#     4  10  21  35  53  77 105 139 175 215 261 306
#     4   9  18  35  56  77 105 139 173 211 257 307
#     4  10  21  37  55  76 105 139 175 215 260 307
#
# _framework density 19.093654999999998
#
# number of rings (size 3 to 8) (size 9 to 14) (size 15 to 20)
#    0.000    2.000    0.000    3.500    0.000    3.333 
#    0.000    0.000    0.000    0.000    0.000    0.000 
#    0.000    0.000    0.000    0.000    0.000    0.000 
#
# Total GULP energy -595313.629463 kJ/mol
# GULP energy per Si atom -12402.367280 kJ/mol
# Density = 1.905020 g / cm^3
# Si number density = 19.093655 Si / 1000 Ang^3
#
#
#
# Elastic Constant Matrix: (Units=GPa)
#
#
# Indices 1 2 3 4 5 6 
#
# 1 78.5663 25.6878 31.3051 0.0000 0.0000 0.0000
# 2 25.6878 87.6713 39.1108 0.0000 0.0000 0.0000
# 3 31.3051 39.1108 73.4770 0.0000 0.0000 0.0000
# 4 0.0000 0.0000 0.0000 41.2716 0.0000 0.0000
# 5 0.0000 0.0000 0.0000 0.0000 28.0432 0.0000
# 6 0.0000 0.0000 0.0000 0.0000 0.0000 25.2156
#
#
#
# Elastic Compliance Matrix: (Units=1/GPa)
#
#
# Indices 1 2 3 4 5 6 
#
# 1 0.015622 -0.002109 -0.005533 0.000000 0.000000 0.000000
# 2 -0.002109 0.015243 -0.007215 0.000000 0.000000 0.000000
# 3 -0.005533 -0.007215 0.019808 0.000000 0.000000 0.000000
# 4 0.000000 0.000000 0.000000 0.024230 0.000000 0.000000
# 5 0.000000 0.000000 0.000000 0.000000 0.035659 0.000000
# 6 0.000000 0.000000 0.000000 0.000000 0.000000 0.039658
#
#
# Mechanical properties :
#
#
# Convention : Reuss Voigt Hill
#
# Bulk Modulus (GPa) = 47.71399 47.99132 47.85265
# Shear Modulus (GPa) = 26.74927 28.48013 27.61470
#
# Velocity S-wave (km/s) = 3.74699 3.86632 3.80712
# Velocity P-wave (km/s) = 6.61541 6.71718 6.66649
#
# Compressibility (1/GPa) = 0.02095821
#
# Stress axis : x y z
#
# Youngs Moduli (GPa) = 64.01049 65.60457 50.48530
#
# Poissons Ratio (x) = 0.13835 0.27936
# Poissons Ratio (y) = 0.13499 0.36425
# Poissons Ratio (z) = 0.35420 0.47334
#
# Static dielectric constant tensor:
#      x y z
#    x 3.710960 0.000000 0.000000 
#    y 0.000000 3.941150 0.000000 
#    z 0.000000 0.000000 3.166990 
# 
# 
# High freq. dielectric constant tensor:
#      x y z
#    x 1.760660 0.000000 0.000000 
#    y 0.000000 1.758690 0.000000 
#    z 0.000000 0.000000 1.719700 
# 
# From -- ./inp_files/10937.got.cif
#   From: 2010.03.12/outbox.cif.g09.slc.cpg/sg53_6_cif.got.tgz:10937.got - 2010.04.16 14:36:59.
