data_PCOD8221196
_publ_section_title
;
Structure prediction by ZEFSAII (Michael W. Deem and Ramdas Pophale) SiO2 
 PCOD8221196
Probable space group: P M N A
;
_chemical_formula_sum "Si O2"
_cell_formula_units_Z 64
_cell_length_a 9.003533
_cell_length_b 15.129365
_cell_length_c 23.136380
_cell_angle_alpha 90.000000
_cell_angle_beta 90.000000
_cell_angle_gamma 90.000000
_cell_volume 3151.585327
_symmetry_space_group_name_H-M "P M N A"
_symmetry_group_IT_number 53
_symmetry_cell_setting 'orthorhombic'
loop_
_space_group_symop_operation_xyz
x,y,z
1/2-x,-y,1/2+z
x,-y,-z
1/2-x,y,1/2-z
-x,-y,-z
1/2+x,y,1/2-z
-x,y,z
1/2+x,-y,1/2+z
loop_
_atom_site_type_symbol
_atom_site_label
_atom_site_fract_x
_atom_site_fract_y
_atom_site_fract_z
Si Si1 0.172547 0.440284 0.872718
Si Si2 0.825214 0.109564 0.617715
Si Si3 0.833309 0.170236 0.495472
Si Si4 0.330744 0.792972 0.616395
Si Si5 0.171052 0.611805 0.612635
Si Si6 0.328006 0.960996 0.689157
Si Si7 0.323979 0.261744 0.689059
Si Si8 0.165897 0.628168 0.480073
O O1 0.255761 0.529988 0.853048
O O2 0.217046 0.361583 0.829317
O O3 0.214889 0.414541 0.937900
O O4 0.000000 0.460341 0.870771
O O5 0.798190 0.104168 0.548392
O O6 0.743355 0.195197 0.642599
O O7 0.000000 0.115393 0.631992
O O8 0.754830 0.021141 0.642713
O O9 0.723720 0.157504 0.441748
O O10 0.817379 0.267200 0.522252
O O11 0.000000 0.155687 0.471682
O O12 0.500000 0.765506 0.606412
O O13 0.240571 0.704923 0.631493
O O14 0.312515 0.859476 0.669866
O O15 0.196106 0.593783 0.544693
O O16 0.000000 0.617300 0.629424
O O17 0.250000 0.974973 0.750000
O O18 0.500000 0.989444 0.693753
O O19 0.250000 0.240212 0.750000
O O20 0.500000 0.247550 0.692750
O O21 0.000000 0.600052 0.460083
#
# Coordination Sequence:
#
# PCOD8221196 Si02
#       8
#     8   8   8   8   8   8   8   8
#     4  11  22  34  53  83 115 151 196 242 290 342
#     4  11  22  39  64  91 121 157 195 240 292 355
#     4   9  19  35  58  89 124 161 196 232 289 358
#     4  10  22  40  62  88 121 155 194 248 301 349
#     4  10  21  36  57  84 116 154 195 237 288 349
#     4  11  25  44  65  90 117 152 198 248 299 352
#     4  11  24  40  58  83 117 158 201 248 298 353
#     4   9  17  32  52  80 117 155 193 231 277 342
#
# _framework density 20.307238999999999
#
# number of rings (size 3 to 8) (size 9 to 14) (size 15 to 20)
#    0.000    1.750    1.250    3.750    0.000    9.000 
#    0.000    3.125    0.000    0.000    0.000    0.000 
#    0.000    0.000    0.000    0.000    0.000    0.000 
#
# Total GULP energy -793754.581027 kJ/mol
# GULP energy per Si atom -12402.415329 kJ/mol
# Density = 2.026102 g / cm^3
# Si number density = 20.307239 Si / 1000 Ang^3
#
#
#
# Elastic Constant Matrix: (Units=GPa)
#
#
# Indices 1 2 3 4 5 6 
#
# 1 107.6401 43.0581 12.1493 0.0000 0.0000 0.0000
# 2 43.0581 61.5096 15.6813 0.0000 0.0000 0.0000
# 3 12.1493 15.6813 22.6486 0.0000 0.0000 0.0000
# 4 0.0000 0.0000 0.0000 23.1511 0.0000 0.0000
# 5 0.0000 0.0000 0.0000 0.0000 29.3730 0.0000
# 6 0.0000 0.0000 0.0000 0.0000 0.0000 23.7525
#
#
#
# Elastic Compliance Matrix: (Units=1/GPa)
#
#
# Indices 1 2 3 4 5 6 
#
# 1 0.012916 -0.008834 -0.000812 0.000000 0.000000 0.000000
# 2 -0.008834 0.025785 -0.013114 0.000000 0.000000 0.000000
# 3 -0.000812 -0.013114 0.053668 0.000000 0.000000 0.000000
# 4 0.000000 0.000000 0.000000 0.043194 0.000000 0.000000
# 5 0.000000 0.000000 0.000000 0.000000 0.034045 0.000000
# 6 0.000000 0.000000 0.000000 0.000000 0.000000 0.042101
#
#
# Mechanical properties :
#
#
# Convention : Reuss Voigt Hill
#
# Bulk Modulus (GPa) = 21.34525 37.06398 29.20461
# Shear Modulus (GPa) = 18.32540 23.31595 20.82068
#
# Velocity S-wave (km/s) = 3.00727 3.39213 3.20548
# Velocity P-wave (km/s) = 4.75312 5.79942 5.30214
#
# Compressibility (1/GPa) = 0.04684883
#
# Stress axis : x y z
#
# Youngs Moduli (GPa) = 77.42478 38.78198 18.63312
#
# Poissons Ratio (x) = 0.34262 0.01512
# Poissons Ratio (y) = 0.68400 0.24435
# Poissons Ratio (z) = 0.06284 0.50858
#
# Static dielectric constant tensor:
#      x y z
#    x 3.781540 0.000000 0.000000 
#    y 0.000000 3.756580 0.000000 
#    z 0.000000 0.000000 3.403210 
# 
# 
# High freq. dielectric constant tensor:
#      x y z
#    x 1.802040 0.000000 0.000000 
#    y 0.000000 1.802440 0.000000 
#    z 0.000000 0.000000 1.772300 
# 
# From -- ./inp_files/34175.got.cif
#   From: 2010.03.12/outbox.cif.g09.slc.cpg/sg53_18_cif.got.tgz:34175.got - 2010.04.16 14:36:59.
