data_PCOD8221535
_publ_section_title
;
Structure prediction by ZEFSAII (Michael W. Deem and Ramdas Pophale) SiO2 
 PCOD8221535
Probable space group: P M N A
;
_chemical_formula_sum "Si O2"
_cell_formula_units_Z 48
_cell_length_a 7.492903
_cell_length_b 10.032113
_cell_length_c 31.025550
_cell_angle_alpha 90.000000
_cell_angle_beta 90.000000
_cell_angle_gamma 90.000000
_cell_volume 2332.179722
_symmetry_space_group_name_H-M "P M N A"
_symmetry_group_IT_number 53
_symmetry_cell_setting 'orthorhombic'
loop_
_space_group_symop_operation_xyz
x,y,z
1/2-x,-y,1/2+z
x,-y,-z
1/2-x,y,1/2-z
-x,-y,-z
1/2+x,y,1/2-z
-x,y,z
1/2+x,-y,1/2+z
loop_
_atom_site_type_symbol
_atom_site_label
_atom_site_fract_x
_atom_site_fract_y
_atom_site_fract_z
Si Si1 0.207989 0.467927 0.702493
Si Si2 0.290400 0.030423 0.132207
Si Si3 0.791350 0.086991 0.541695
Si Si4 0.790703 0.171457 0.702202
Si Si5 0.000000 0.301826 0.969575
Si Si6 0.287880 0.669095 0.869762
Si Si7 0.000000 0.587143 0.935527
O O1 0.250000 0.523371 0.750000
O O2 0.293716 0.320106 0.696479
O O3 0.284247 0.572451 0.668002
O O4 0.000000 0.457793 0.695064
O O5 0.500000 0.016713 0.135643
O O6 0.232925 0.180778 0.143400
O O7 0.229385 0.994913 0.083828
O O8 0.203602 0.928843 0.167116
O O9 0.680180 0.222001 0.540494
O O10 0.000000 0.124618 0.543109
O O11 0.744001 0.000000 0.500000
O O12 0.750000 0.116683 0.750000
O O13 0.000000 0.180340 0.694891
O O14 0.000000 0.428107 0.938383
O O15 0.000000 0.343184 0.018790
O O16 0.500000 0.657063 0.878669
O O17 0.182595 0.631040 0.912639
#
# Coordination Sequence:
#
# PCOD8221535 Si02
#       7
#     8   8   8   8   4   8   4
#     4   9  19  34  57  84 116 159 201 246 301 359
#     4   9  19  36  60  87 117 155 202 249 303 361
#     4  10  21  39  65  92 121 161 205 253 309 372
#     4   9  18  35  54  83 119 150 197 251 296 358
#     4  11  25  42  60  92 125 160 203 262 309 360
#     4  10  22  41  62  86 121 165 201 251 305 362
#     4  11  26  42  60  90 126 159 208 257 302 370
#
# _framework density 20.581605
#
# number of rings (size 3 to 8) (size 9 to 14) (size 15 to 20)
#    0.000    2.333    0.000    1.250    3.500    4.000 
#    3.000    1.667    0.000    0.000    0.000    0.000 
#    0.000    0.000    0.000    0.000    0.000    0.000 
#
# Total GULP energy -595138.652644 kJ/mol
# GULP energy per Si atom -12398.721930 kJ/mol
# Density = 2.053476 g / cm^3
# Si number density = 20.581605 Si / 1000 Ang^3
#
#
#
# Elastic Constant Matrix: (Units=GPa)
#
#
# Indices 1 2 3 4 5 6 
#
# 1 59.7055 33.6389 15.2030 0.0000 0.0000 0.0000
# 2 33.6389 161.4836 86.7894 0.0000 0.0000 0.0000
# 3 15.2030 86.7894 142.6891 0.0000 0.0000 0.0000
# 4 0.0000 0.0000 0.0000 46.6917 0.0000 0.0000
# 5 0.0000 0.0000 0.0000 0.0000 24.2591 0.0000
# 6 0.0000 0.0000 0.0000 0.0000 0.0000 25.5684
#
#
#
# Elastic Compliance Matrix: (Units=1/GPa)
#
#
# Indices 1 2 3 4 5 6 
#
# 1 0.019007 -0.004265 0.000569 0.000000 0.000000 0.000000
# 2 -0.004265 0.010157 -0.005724 0.000000 0.000000 0.000000
# 3 0.000569 -0.005724 0.010429 0.000000 0.000000 0.000000
# 4 0.000000 0.000000 0.000000 0.021417 0.000000 0.000000
# 5 0.000000 0.000000 0.000000 0.000000 0.041222 0.000000
# 6 0.000000 0.000000 0.000000 0.000000 0.000000 0.039111
#
#
# Mechanical properties :
#
#
# Convention : Reuss Voigt Hill
#
# Bulk Modulus (GPa) = 48.18389 70.57120 59.37755
# Shear Modulus (GPa) = 29.92217 34.52029 32.22123
#
# Velocity S-wave (km/s) = 3.81705 4.09986 3.96098
# Velocity P-wave (km/s) = 6.54893 7.53490 7.05915
#
# Compressibility (1/GPa) = 0.02075382
#
# Stress axis : x y z
#
# Youngs Moduli (GPa) = 52.61201 98.45187 95.88711
#
# Poissons Ratio (x) = 0.41993 -0.05458
# Poissons Ratio (y) = 0.22441 0.54882
# Poissons Ratio (z) = -0.02995 0.56350
#
# Static dielectric constant tensor:
#      x y z
#    x 3.596610 0.000000 0.000000 
#    y 0.000000 4.110670 0.000000 
#    z 0.000000 0.000000 3.823850 
# 
# 
# High freq. dielectric constant tensor:
#      x y z
#    x 1.797830 0.000000 0.000000 
#    y 0.000000 1.809400 0.000000 
#    z 0.000000 0.000000 1.810060 
# 
# From -- ./inp_files/37836.got.cif
#   From: 2010.03.12/outbox.cif.g09.slc.cpg/sg53_19_cif.got.tgz:37836.got - 2010.04.16 14:36:59.
