data_PCOD8221515
_publ_section_title
;
Structure prediction by ZEFSAII (Michael W. Deem and Ramdas Pophale) SiO2 
 PCOD8221515
Probable space group: P M N A
;
_chemical_formula_sum "Si O2"
_cell_formula_units_Z 48
_cell_length_a 18.539400
_cell_length_b 14.459426
_cell_length_c 8.768863
_cell_angle_alpha 90.000000
_cell_angle_beta 90.000000
_cell_angle_gamma 90.000000
_cell_volume 2350.661058
_symmetry_space_group_name_H-M "P M N A"
_symmetry_group_IT_number 53
_symmetry_cell_setting 'orthorhombic'
loop_
_space_group_symop_operation_xyz
x,y,z
1/2-x,-y,1/2+z
x,-y,-z
1/2-x,y,1/2-z
-x,-y,-z
1/2+x,y,1/2-z
-x,y,z
1/2+x,-y,1/2+z
loop_
_atom_site_type_symbol
_atom_site_label
_atom_site_fract_x
_atom_site_fract_y
_atom_site_fract_z
Si Si1 0.583410 0.708619 0.627483
Si Si2 0.921056 0.219409 0.797639
Si Si3 0.216447 0.403959 0.083479
Si Si4 0.582655 0.007798 0.674881
Si Si5 0.670959 0.849553 0.818425
Si Si6 0.295962 0.754193 0.108998
O O1 0.500000 0.682589 0.663039
O O2 0.591192 0.771072 0.477692
O O3 0.630976 0.616437 0.600870
O O4 0.618369 0.767026 0.763967
O O5 0.868603 0.282003 0.693321
O O6 0.000000 0.254416 0.752677
O O7 0.910588 0.111244 0.762335
O O8 0.250000 0.407920 0.250000
O O9 0.227659 0.500000 0.000000
O O10 0.256095 0.326585 0.981975
O O11 0.500000 0.971709 0.687851
O O12 0.634795 0.947077 0.780799
O O13 0.608557 0.000000 0.500000
O O14 0.750000 0.838250 0.750000
O O15 0.681950 0.838710 0.999446
O O16 0.250000 0.795178 0.250000
#
# Coordination Sequence:
#
# PCOD8221515 Si02
#       6
#     8   8   8   8   8   8
#     4  11  21  42  71  98 131 174 224 272 331 400
#     4  10  22  39  63  94 132 178 226 276 330 389
#     4  12  25  46  73 100 129 168 214 269 339 413
#     4  10  21  39  63  92 130 179 229 277 333 385
#     4  12  22  40  63  95 130 174 230 276 326 391
#     4  12  23  42  66  93 133 174 223 276 331 401
#
# _framework density 20.419789000000002
#
# number of rings (size 3 to 8) (size 9 to 14) (size 15 to 20)
#    0.000    0.833    6.667    1.000    0.000    3.000 
#    0.000    1.667    0.000    1.000    0.000    0.000 
#    0.000    0.000    0.000    0.000    0.000    0.000 
#
# Total GULP energy -595062.638428 kJ/mol
# GULP energy per Si atom -12397.138301 kJ/mol
# Density = 2.037331 g / cm^3
# Si number density = 20.419789 Si / 1000 Ang^3
#
#
#
# Elastic Constant Matrix: (Units=GPa)
#
#
# Indices 1 2 3 4 5 6 
#
# 1 157.9992 41.7255 72.0694 0.0000 0.0000 0.0000
# 2 41.7255 64.9591 38.2224 0.0000 0.0000 0.0000
# 3 72.0694 38.2224 135.3748 0.0000 0.0000 0.0000
# 4 0.0000 0.0000 0.0000 30.1200 0.0000 0.0000
# 5 0.0000 0.0000 0.0000 0.0000 35.6114 0.0000
# 6 0.0000 0.0000 0.0000 0.0000 0.0000 19.7635
#
#
#
# Elastic Compliance Matrix: (Units=1/GPa)
#
#
# Indices 1 2 3 4 5 6 
#
# 1 0.008993 -0.003549 -0.003786 0.000000 0.000000 0.000000
# 2 -0.003549 0.019862 -0.003718 0.000000 0.000000 0.000000
# 3 -0.003786 -0.003718 0.010452 0.000000 0.000000 0.000000
# 4 0.000000 0.000000 0.000000 0.033201 0.000000 0.000000
# 5 0.000000 0.000000 0.000000 0.000000 0.028081 0.000000
# 6 0.000000 0.000000 0.000000 0.000000 0.000000 0.050598
#
#
# Mechanical properties :
#
#
# Convention : Reuss Voigt Hill
#
# Bulk Modulus (GPa) = 58.13665 73.59642 65.86653
# Shear Modulus (GPa) = 27.92872 30.85337 29.39105
#
# Velocity S-wave (km/s) = 3.70229 3.89132 3.79798
# Velocity P-wave (km/s) = 6.84167 7.50398 7.18047
#
# Compressibility (1/GPa) = 0.01720085
#
# Stress axis : x y z
#
# Youngs Moduli (GPa) = 111.19522 50.34734 95.67420
#
# Poissons Ratio (x) = 0.17869 0.36219
# Poissons Ratio (y) = 0.39465 0.35576
# Poissons Ratio (z) = 0.42094 0.18722
#
# Static dielectric constant tensor:
#      x y z
#    x 4.117240 0.000000 0.000000 
#    y 0.000000 3.432570 0.000000 
#    z 0.000000 0.000000 3.917080 
# 
# 
# High freq. dielectric constant tensor:
#      x y z
#    x 1.816680 0.000000 0.000000 
#    y 0.000000 1.764980 0.000000 
#    z 0.000000 0.000000 1.805580 
# 
# From -- ./inp_files/9951.got.cif
#   From: 2010.03.12/outbox.cif.g09.slc.cpg/sg53_5_cif.got.tgz:9951.got - 2010.04.16 14:36:59.
