data_PCOD8221928
_publ_section_title
;
Structure prediction by ZEFSAII (Michael W. Deem and Ramdas Pophale) SiO2 
 PCOD8221928
Probable space group: P M N A
;
_chemical_formula_sum "Si O2"
_cell_formula_units_Z 64
_cell_length_a 8.542103
_cell_length_b 11.865799
_cell_length_c 30.702217
_cell_angle_alpha 90.000000
_cell_angle_beta 90.000000
_cell_angle_gamma 90.000000
_cell_volume 3111.942244
_symmetry_space_group_name_H-M "P M N A"
_symmetry_group_IT_number 53
_symmetry_cell_setting 'orthorhombic'
loop_
_space_group_symop_operation_xyz
x,y,z
1/2-x,-y,1/2+z
x,-y,-z
1/2-x,y,1/2-z
-x,-y,-z
1/2+x,y,1/2-z
-x,y,z
1/2+x,-y,1/2+z
loop_
_atom_site_type_symbol
_atom_site_label
_atom_site_fract_x
_atom_site_fract_y
_atom_site_fract_z
Si Si1 0.680433 0.242327 0.704063
Si Si2 0.182896 0.379826 0.374556
Si Si3 0.684327 0.367045 0.877465
Si Si4 0.680772 0.991338 0.921996
Si Si5 0.178604 0.761385 0.949505
Si Si6 0.819445 0.217137 0.952332
Si Si7 0.320042 0.996367 0.671607
Si Si8 0.186337 0.769917 0.704795
O O1 0.750000 0.282006 0.750000
O O2 0.500000 0.279171 0.700382
O O3 0.779649 0.302871 0.666920
O O4 0.699219 0.108351 0.700030
O O5 0.251288 0.505936 0.374094
O O6 0.216276 0.319823 0.420264
O O7 0.252611 0.307242 0.334513
O O8 0.000000 0.387395 0.367520
O O9 0.500000 0.363531 0.886683
O O10 0.772526 0.310515 0.917606
O O11 0.500000 0.959267 0.927291
O O12 0.783190 0.891778 0.941880
O O13 0.715697 0.105451 0.947882
O O14 0.717759 0.009657 0.871544
O O15 0.000000 0.739996 0.936313
O O16 0.208846 0.731015 0.999891
O O17 0.000000 0.183365 0.945065
O O18 0.500000 0.975676 0.658524
O O19 0.256222 0.894433 0.700306
O O20 0.250000 0.718094 0.750000
O O21 0.000000 0.776046 0.704936
#
# Coordination Sequence:
#
# PCOD8221928 Si02
#       8
#     8   8   8   8   8   8   8   8
#     4  11  24  41  64  93 128 165 206 258 309 372
#     4  10  24  44  64  90 124 163 212 262 311 368
#     4  11  24  43  66  91 123 165 212 263 314 368
#     4  12  23  37  63  95 128 165 203 251 311 374
#     4  11  24  41  65  93 126 166 207 255 311 371
#     4  11  24  42  63  93 128 164 209 257 308 373
#     4  11  22  38  63  94 128 163 202 251 308 371
#     4  11  23  40  63  92 126 164 206 256 308 369
#
# _framework density 20.565935
#
# number of rings (size 3 to 8) (size 9 to 14) (size 15 to 20)
#    0.000    1.000    2.500    4.125    0.000    8.500 
#    0.000    3.750    0.000    0.000    0.000    0.000 
#    0.000    0.000    0.000    0.000    0.000    0.000 
#
# Total GULP energy -794016.813496 kJ/mol
# GULP energy per Si atom -12406.512711 kJ/mol
# Density = 2.051913 g / cm^3
# Si number density = 20.565935 Si / 1000 Ang^3
#
#
#
# Elastic Constant Matrix: (Units=GPa)
#
#
# Indices 1 2 3 4 5 6 
#
# 1 35.4202 11.8217 22.0607 0.0000 0.0000 0.0000
# 2 11.8217 111.3376 39.4218 0.0000 0.0000 0.0000
# 3 22.0607 39.4218 134.9875 0.0000 0.0000 0.0000
# 4 0.0000 0.0000 0.0000 -10.5095 0.0000 0.0000
# 5 0.0000 0.0000 0.0000 0.0000 34.4445 0.0000
# 6 0.0000 0.0000 0.0000 0.0000 0.0000 19.5725
#
#
#
# Elastic Compliance Matrix: (Units=1/GPa)
#
#
# Indices 1 2 3 4 5 6 
#
# 1 0.031721 -0.001709 -0.004685 0.000000 0.000000 0.000000
# 2 -0.001709 0.010110 -0.002673 0.000000 0.000000 0.000000
# 3 -0.004685 -0.002673 0.008954 0.000000 0.000000 0.000000
# 4 0.000000 0.000000 0.000000 -0.095152 0.000000 0.000000
# 5 0.000000 0.000000 0.000000 0.000000 0.029032 0.000000
# 6 0.000000 0.000000 0.000000 0.000000 0.000000 0.051092
#
#
# Mechanical properties :
#
#
# Convention : Reuss Voigt Hill
#
# Bulk Modulus (GPa) = 30.62752 47.59486 39.11119
# Shear Modulus (GPa) = 77.18975 22.59756 49.89366
#
# Velocity S-wave (km/s) = 6.13305 3.31839 4.93082
# Velocity P-wave (km/s) = 8.06704 6.15427 7.17468
#
# Compressibility (1/GPa) = 0.03265037
#
# Stress axis : x y z
#
# Youngs Moduli (GPa) = 31.52501 98.91535 111.67719
#
# Poissons Ratio (x) = 0.16907 0.52319
# Poissons Ratio (y) = 0.05389 0.29852
# Poissons Ratio (z) = 0.14769 0.26441
#
# Static dielectric constant tensor:
#      x y z
#    x 3.793210 0.000000 0.000000 
#    y 0.000000 3.798130 0.000000 
#    z 0.000000 0.000000 3.835340 
# 
# 
# High freq. dielectric constant tensor:
#      x y z
#    x 1.810400 0.000000 0.000000 
#    y 0.000000 1.799690 0.000000 
#    z 0.000000 0.000000 1.817900 
# 
# From -- ./inp_files/38164.got.cif
#   From: 2010.03.12/outbox.cif.g09.slc.cpg/sg53_20_cif.got.tgz:38164.got - 2010.04.16 14:36:59.
