data_PCOD8221784
_publ_section_title
;
Structure prediction by ZEFSAII (Michael W. Deem and Ramdas Pophale) SiO2 
 PCOD8221784
Probable space group: P M N A
;
_chemical_formula_sum "Si O2"
_cell_formula_units_Z 24
_cell_length_a 27.104831
_cell_length_b 8.131006
_cell_length_c 4.968490
_cell_angle_alpha 90.000000
_cell_angle_beta 90.000000
_cell_angle_gamma 90.000000
_cell_volume 1095.003243
_symmetry_space_group_name_H-M "P M N A"
_symmetry_group_IT_number 53
_symmetry_cell_setting 'orthorhombic'
loop_
_space_group_symop_operation_xyz
x,y,z
1/2-x,-y,1/2+z
x,-y,-z
1/2-x,y,1/2-z
-x,-y,-z
1/2+x,y,1/2-z
-x,y,z
1/2+x,-y,1/2+z
loop_
_atom_site_type_symbol
_atom_site_label
_atom_site_fract_x
_atom_site_fract_y
_atom_site_fract_z
Si Si1 0.945247 0.389730 0.742238
Si Si2 0.129167 0.895130 0.266455
Si Si3 0.784945 0.680740 0.496103
O O1 0.923664 0.500000 0.500000
O O2 0.908739 0.243776 0.823543
O O3 0.000000 0.322058 0.665325
O O4 0.949543 0.500000 0.000000
O O5 0.175934 0.822463 0.430363
O O6 0.102142 0.000000 0.500000
O O7 0.144169 0.000000 0.000000
O O8 0.811246 0.500000 0.500000
O O9 0.750000 0.664784 0.250000
O O10 0.750000 0.726016 0.750000
#
# Coordination Sequence:
#
# PCOD8221784 Si02
#       3
#     8   8   8
#     4  10  22  42  67  93 126 171 217 258 304 371
#     4  12  25  39  62  96 131 165 203 260 326 377
#     4  10  22  41  64  87 116 161 213 258 303 367
#
# _framework density 21.917745
#
# number of rings (size 3 to 8) (size 9 to 14) (size 15 to 20)
#    0.000    1.333    0.000    5.000    0.000    8.000 
#    0.000    0.000    0.000    0.000    0.000    0.000 
#    0.000    0.000    0.000    0.000    0.000    0.000 
#
# Total GULP energy -297394.919829 kJ/mol
# GULP energy per Si atom -12391.454993 kJ/mol
# Density = 2.186786 g / cm^3
# Si number density = 21.917745 Si / 1000 Ang^3
#
#
#
# Elastic Constant Matrix: (Units=GPa)
#
#
# Indices 1 2 3 4 5 6 
#
# 1 90.0041 66.0232 31.8290 0.0000 0.0000 0.0000
# 2 66.0232 111.7473 52.9328 0.0000 0.0000 0.0000
# 3 31.8290 52.9328 157.2049 0.0000 0.0000 0.0000
# 4 0.0000 0.0000 0.0000 43.7220 0.0000 0.0000
# 5 0.0000 0.0000 0.0000 0.0000 54.5558 0.0000
# 6 0.0000 0.0000 0.0000 0.0000 0.0000 4.1257
#
#
#
# Elastic Compliance Matrix: (Units=1/GPa)
#
#
# Indices 1 2 3 4 5 6 
#
# 1 0.019610 -0.011547 -0.000082 0.000000 0.000000 0.000000
# 2 -0.011547 0.017446 -0.003536 0.000000 0.000000 0.000000
# 3 -0.000082 -0.003536 0.007569 0.000000 0.000000 0.000000
# 4 0.000000 0.000000 0.000000 0.022872 0.000000 0.000000
# 5 0.000000 0.000000 0.000000 0.000000 0.018330 0.000000
# 6 0.000000 0.000000 0.000000 0.000000 0.000000 0.242384
#
#
# Mechanical properties :
#
#
# Convention : Reuss Voigt Hill
#
# Bulk Modulus (GPa) = 69.96392 73.39180 71.67786
# Shear Modulus (GPa) = 13.76245 34.35876 24.06061
#
# Velocity S-wave (km/s) = 2.50854 3.96362 3.31685
# Velocity P-wave (km/s) = 6.35459 7.38274 6.88787
#
# Compressibility (1/GPa) = 0.01429308
#
# Stress axis : x y z
#
# Youngs Moduli (GPa) = 50.99352 57.31859 132.12549
#
# Poissons Ratio (x) = 0.66187 0.01088
# Poissons Ratio (y) = 0.58884 0.46725
# Poissons Ratio (z) = 0.00420 0.20270
#
# Static dielectric constant tensor:
#      x y z
#    x 3.819710 0.000000 0.000000 
#    y 0.000000 2.201440 0.000000 
#    z 0.000000 0.000000 4.017340 
# 
# 
# High freq. dielectric constant tensor:
#      x y z
#    x 1.850640 0.000000 0.000000 
#    y 0.000000 1.866980 0.000000 
#    z 0.000000 0.000000 1.885530 
# 
# From -- ./inp_files/3239.got.cif
#   From: 2010.03.12/outbox.cif.g09.slc.cpg/sg53_2_cif.got.tgz:3239.got - 2010.04.16 14:36:59.
