data_PCOD8221488
_publ_section_title
;
Structure prediction by ZEFSAII (Michael W. Deem and Ramdas Pophale) SiO2 
 PCOD8221488
Probable space group: P M N A
;
_chemical_formula_sum "Si O2"
_cell_formula_units_Z 56
_cell_length_a 8.760322
_cell_length_b 14.731048
_cell_length_c 20.281375
_cell_angle_alpha 90.000000
_cell_angle_beta 90.000000
_cell_angle_gamma 90.000000
_cell_volume 2617.285562
_symmetry_space_group_name_H-M "P M N A"
_symmetry_group_IT_number 53
_symmetry_cell_setting 'orthorhombic'
loop_
_space_group_symop_operation_xyz
x,y,z
1/2-x,-y,1/2+z
x,-y,-z
1/2-x,y,1/2-z
-x,-y,-z
1/2+x,y,1/2-z
-x,y,z
1/2+x,-y,1/2+z
loop_
_atom_site_type_symbol
_atom_site_label
_atom_site_fract_x
_atom_site_fract_y
_atom_site_fract_z
Si Si1 0.677220 0.003625 0.688026
Si Si2 0.327373 0.901059 0.986649
Si Si3 0.678410 0.637603 0.683124
Si Si4 0.180007 0.491647 0.923390
Si Si5 0.320433 0.175002 0.146431
Si Si6 0.819013 0.352283 0.678676
Si Si7 0.671930 0.159442 0.875094
O O1 0.750000 0.057952 0.750000
O O2 0.500000 0.980384 0.691701
O O3 0.712791 0.074441 0.630391
O O4 0.778649 0.912893 0.688553
O O5 0.500000 0.923300 0.963769
O O6 0.324944 0.828561 0.046038
O O7 0.250702 0.847694 0.925941
O O8 0.248979 0.000000 0.000000
O O9 0.750000 0.594311 0.750000
O O10 0.500000 0.635823 0.694037
O O11 0.724161 0.582412 0.617177
O O12 0.733938 0.739749 0.675904
O O13 0.258213 0.410445 0.882930
O O14 0.000000 0.473656 0.923419
O O15 0.238002 0.500000 0.000000
O O16 0.500000 0.195608 0.148109
O O17 0.750000 0.380335 0.750000
O O18 0.769963 0.249105 0.662039
O O19 0.000000 0.363377 0.682345
O O20 0.500000 0.134772 0.851599
#
# Coordination Sequence:
#
# PCOD8221488 Si02
#       7
#     8   8   8   8   8   8   8
#     4  12  24  38  57  84 120 162 209 258 308 368
#     4   9  17  34  60  86 119 163 205 251 308 368
#     4  11  24  43  66  94 127 165 211 260 316 378
#     4  10  24  46  70  97 133 169 204 258 325 386
#     4  11  22  38  63  90 123 164 206 256 312 372
#     4  11  24  41  67  97 130 168 215 267 317 383
#     4  10  21  39  61  90 125 163 209 257 312 372
#
# _framework density 21.396211999999998
#
# number of rings (size 3 to 8) (size 9 to 14) (size 15 to 20)
#    0.000    1.429    1.429    3.857    2.000    4.857 
#    0.000    2.143    0.000    0.000    0.000    0.000 
#    0.000    0.000    0.000    0.000    0.000    0.000 
#
# Total GULP energy -694018.045127 kJ/mol
# GULP energy per Si atom -12393.179377 kJ/mol
# Density = 2.134751 g / cm^3
# Si number density = 21.396212 Si / 1000 Ang^3
#
#
#
# Elastic Constant Matrix: (Units=GPa)
#
#
# Indices 1 2 3 4 5 6 
#
# 1 62.1112 35.5130 40.2484 0.0000 0.0000 0.0000
# 2 35.5130 108.5780 46.6192 0.0000 0.0000 0.0000
# 3 40.2484 46.6192 155.0744 0.0000 0.0000 0.0000
# 4 0.0000 0.0000 0.0000 33.9270 0.0000 0.0000
# 5 0.0000 0.0000 0.0000 0.0000 27.8730 0.0000
# 6 0.0000 0.0000 0.0000 0.0000 0.0000 14.5857
#
#
#
# Elastic Compliance Matrix: (Units=1/GPa)
#
#
# Indices 1 2 3 4 5 6 
#
# 1 0.021802 -0.005398 -0.004036 0.000000 0.000000 0.000000
# 2 -0.005398 0.011911 -0.002180 0.000000 0.000000 0.000000
# 3 -0.004036 -0.002180 0.008151 0.000000 0.000000 0.000000
# 4 0.000000 0.000000 0.000000 0.029475 0.000000 0.000000
# 5 0.000000 0.000000 0.000000 0.000000 0.035877 0.000000
# 6 0.000000 0.000000 0.000000 0.000000 0.000000 0.068560
#
#
# Mechanical properties :
#
#
# Convention : Reuss Voigt Hill
#
# Bulk Modulus (GPa) = 53.65582 63.39166 58.52374
# Shear Modulus (GPa) = 24.36455 28.83603 26.60029
#
# Velocity S-wave (km/s) = 3.37817 3.67511 3.52976
# Velocity P-wave (km/s) = 6.35199 6.90655 6.63506
#
# Compressibility (1/GPa) = 0.01863731
#
# Stress axis : x y z
#
# Youngs Moduli (GPa) = 45.86803 83.95278 122.68020
#
# Poissons Ratio (x) = 0.45318 0.49510
# Poissons Ratio (y) = 0.24760 0.26743
# Poissons Ratio (z) = 0.18511 0.18301
#
# Static dielectric constant tensor:
#      x y z
#    x 3.655300 0.000000 0.000000 
#    y 0.000000 3.804360 0.000000 
#    z 0.000000 0.000000 5.076840 
# 
# 
# High freq. dielectric constant tensor:
#      x y z
#    x 1.818370 0.000000 0.000000 
#    y 0.000000 1.834570 0.000000 
#    z 0.000000 0.000000 1.863580 
# 
# From -- ./inp_files/30813.got.cif
#   From: 2010.03.12/outbox.cif.g09.slc.cpg/sg53_16_cif.got.tgz:30813.got - 2010.04.16 14:36:59.
