data_PCOD8221586
_publ_section_title
;
Structure prediction by ZEFSAII (Michael W. Deem and Ramdas Pophale) SiO2 
 PCOD8221586
Probable space group: P M N A
;
_chemical_formula_sum "Si O2"
_cell_formula_units_Z 48
_cell_length_a 16.822261
_cell_length_b 15.179580
_cell_length_c 8.702869
_cell_angle_alpha 90.000000
_cell_angle_beta 90.000000
_cell_angle_gamma 90.000000
_cell_volume 2222.319866
_symmetry_space_group_name_H-M "P M N A"
_symmetry_group_IT_number 53
_symmetry_cell_setting 'orthorhombic'
loop_
_space_group_symop_operation_xyz
x,y,z
1/2-x,-y,1/2+z
x,-y,-z
1/2-x,y,1/2-z
-x,-y,-z
1/2+x,y,1/2-z
-x,y,z
1/2+x,-y,1/2+z
loop_
_atom_site_type_symbol
_atom_site_label
_atom_site_fract_x
_atom_site_fract_y
_atom_site_fract_z
Si Si1 0.908133 0.507707 0.176152
Si Si2 0.092102 0.173012 0.166662
Si Si3 0.406367 0.682610 0.137130
Si Si4 0.665351 0.011318 0.180121
Si Si5 0.337877 0.338384 0.192058
Si Si6 0.908161 0.152398 0.826957
O O1 0.891174 0.604502 0.241681
O O2 0.856579 0.439312 0.272141
O O3 0.000000 0.482245 0.194546
O O4 0.881032 0.500000 0.000000
O O5 0.139557 0.110645 0.283676
O O6 0.102344 0.273803 0.217856
O O7 0.000000 0.147109 0.172827
O O8 0.129566 0.158013 0.997241
O O9 0.500000 0.686943 0.090169
O O10 0.374148 0.771686 0.216501
O O11 0.350198 0.671814 0.989858
O O12 0.750000 0.987661 0.250000
O O13 0.603329 0.943463 0.254635
O O14 0.667317 0.000000 0.000000
O O15 0.250000 0.314058 0.250000
O O16 0.000000 0.173275 0.847900
#
# Coordination Sequence:
#
# PCOD8221586 Si02
#       6
#     8   8   8   8   8   8
#     4  10  21  40  65  91 121 161 208 255 304 361
#     4  11  23  42  66  90 121 161 207 255 302 359
#     4  10  21  40  66  92 121 161 208 253 300 361
#     4  12  25  41  62  91 127 163 200 247 306 367
#     4  12  25  39  58  90 127 163 204 253 309 363
#     4  10  22  41  65  92 120 157 205 255 305 359
#
# _framework density 21.599049999999998
#
# number of rings (size 3 to 8) (size 9 to 14) (size 15 to 20)
#    0.000    1.167    0.000    6.500    0.000   10.667 
#    0.000    2.500    0.000    0.000    0.000    0.000 
#    0.000    0.000    0.000    0.000    0.000    0.000 
#
# Total GULP energy -595472.932455 kJ/mol
# GULP energy per Si atom -12405.686093 kJ/mol
# Density = 2.154989 g / cm^3
# Si number density = 21.599050 Si / 1000 Ang^3
#
#
#
# Elastic Constant Matrix: (Units=GPa)
#
#
# Indices 1 2 3 4 5 6 
#
# 1 56.6084 16.9133 43.0512 0.0000 0.0000 0.0000
# 2 16.9133 90.5831 10.8518 0.0000 0.0000 0.0000
# 3 43.0512 10.8518 133.5404 0.0000 0.0000 0.0000
# 4 0.0000 0.0000 0.0000 46.0494 0.0000 0.0000
# 5 0.0000 0.0000 0.0000 0.0000 25.2982 0.0000
# 6 0.0000 0.0000 0.0000 0.0000 0.0000 9.6251
#
#
#
# Elastic Compliance Matrix: (Units=1/GPa)
#
#
# Indices 1 2 3 4 5 6 
#
# 1 0.024556 -0.003672 -0.007618 0.000000 0.000000 0.000000
# 2 -0.003672 0.011697 0.000233 0.000000 0.000000 0.000000
# 3 -0.007618 0.000233 0.009925 0.000000 0.000000 0.000000
# 4 0.000000 0.000000 0.000000 0.021716 0.000000 0.000000
# 5 0.000000 0.000000 0.000000 0.000000 0.039529 0.000000
# 6 0.000000 0.000000 0.000000 0.000000 0.000000 0.103895
#
#
# Mechanical properties :
#
#
# Convention : Reuss Voigt Hill
#
# Bulk Modulus (GPa) = 41.55480 46.92939 44.24210
# Shear Modulus (GPa) = 20.70790 30.18890 25.44840
#
# Velocity S-wave (km/s) = 3.09971 3.74263 3.43624
# Velocity P-wave (km/s) = 5.66497 6.36012 6.02258
#
# Compressibility (1/GPa) = 0.02406461
#
# Stress axis : x y z
#
# Youngs Moduli (GPa) = 40.72313 85.48964 100.75215
#
# Poissons Ratio (x) = 0.31395 0.76754
# Poissons Ratio (y) = 0.14955 -0.02351
# Poissons Ratio (z) = 0.31023 -0.01995
#
# Static dielectric constant tensor:
#      x y z
#    x 3.643100 0.000000 0.000000 
#    y 0.000000 3.909330 0.000000 
#    z 0.000000 0.000000 4.068410 
# 
# 
# High freq. dielectric constant tensor:
#      x y z
#    x 1.830130 0.000000 0.000000 
#    y 0.000000 1.861910 0.000000 
#    z 0.000000 0.000000 1.864430 
# 
# From -- ./inp_files/9954.got.cif
#   From: 2010.03.12/outbox.cif.g09.slc.cpg/sg53_5_cif.got.tgz:9954.got - 2010.04.16 14:36:59.
