data_PCOD8221358
_publ_section_title
;
Structure prediction by ZEFSAII (Michael W. Deem and Ramdas Pophale) SiO2 
 PCOD8221358
Probable space group: P M N A
;
_chemical_formula_sum "Si O2"
_cell_formula_units_Z 48
_cell_length_a 9.113110
_cell_length_b 9.604158
_cell_length_c 27.577025
_cell_angle_alpha 90.000000
_cell_angle_beta 90.000000
_cell_angle_gamma 90.000000
_cell_volume 2413.644595
_symmetry_space_group_name_H-M "P M N A"
_symmetry_group_IT_number 53
_symmetry_cell_setting 'orthorhombic'
loop_
_space_group_symop_operation_xyz
x,y,z
1/2-x,-y,1/2+z
x,-y,-z
1/2-x,y,1/2-z
-x,-y,-z
1/2+x,y,1/2-z
-x,y,z
1/2+x,-y,1/2+z
loop_
_atom_site_type_symbol
_atom_site_label
_atom_site_fract_x
_atom_site_fract_y
_atom_site_fract_z
Si Si1 0.831778 0.008482 0.147894
Si Si2 0.825896 0.092331 0.956178
Si Si3 0.167655 0.482310 0.641657
Si Si4 0.666276 0.783006 0.203522
Si Si5 0.170374 0.590238 0.047471
Si Si6 0.830256 0.711087 0.799242
O O1 0.771504 0.977175 0.093977
O O2 0.738307 0.927130 0.187556
O O3 0.000000 0.959146 0.152081
O O4 0.814931 0.170992 0.159628
O O5 0.771082 0.252122 0.960352
O O6 0.000000 0.088785 0.959519
O O7 0.758703 0.000000 0.000000
O O8 0.177008 0.323964 0.659394
O O9 0.240783 0.488907 0.589130
O O10 0.255254 0.573868 0.680082
O O11 0.000000 0.534426 0.638472
O O12 0.750000 0.721450 0.250000
O O13 0.500000 0.812960 0.218739
O O14 0.000000 0.592446 0.062432
O O15 0.197784 0.500000 0.000000
O O16 0.750000 0.757751 0.750000
O O17 0.000000 0.679843 0.787521
#
# Coordination Sequence:
#
# PCOD8221358 Si02
#       6
#     8   8   8   8   8   8
#     4  10  21  38  62  90 121 158 197 247 302 356
#     4   9  18  34  59  90 122 153 194 245 296 353
#     4  11  24  41  61  87 123 163 202 249 303 358
#     4  11  23  38  60  87 117 154 199 245 297 360
#     4  10  21  37  63  93 121 157 202 250 301 360
#     4  11  24  40  61  89 122 159 206 250 302 364
#
# _framework density 19.886937
#
# number of rings (size 3 to 8) (size 9 to 14) (size 15 to 20)
#    0.000    1.667    1.667    2.500    2.333    6.333 
#    0.000    0.000    0.000    1.000    0.000    0.000 
#    0.000    0.000    0.000    0.000    0.000    0.000 
#
# Total GULP energy -595411.988118 kJ/mol
# GULP energy per Si atom -12404.416419 kJ/mol
# Density = 1.984167 g / cm^3
# Si number density = 19.886937 Si / 1000 Ang^3
#
#
#
# Elastic Constant Matrix: (Units=GPa)
#
#
# Indices 1 2 3 4 5 6 
#
# 1 106.4289 33.6425 49.9257 0.0000 0.0000 0.0000
# 2 33.6425 83.8792 36.5494 0.0000 0.0000 0.0000
# 3 49.9257 36.5494 124.0145 0.0000 0.0000 0.0000
# 4 0.0000 0.0000 0.0000 39.7913 0.0000 0.0000
# 5 0.0000 0.0000 0.0000 0.0000 30.9963 0.0000
# 6 0.0000 0.0000 0.0000 0.0000 0.0000 21.5815
#
#
#
# Elastic Compliance Matrix: (Units=1/GPa)
#
#
# Indices 1 2 3 4 5 6 
#
# 1 0.012281 -0.003180 -0.004007 0.000000 0.000000 0.000000
# 2 -0.003180 0.014502 -0.002994 0.000000 0.000000 0.000000
# 3 -0.004007 -0.002994 0.010559 0.000000 0.000000 0.000000
# 4 0.000000 0.000000 0.000000 0.025131 0.000000 0.000000
# 5 0.000000 0.000000 0.000000 0.000000 0.032262 0.000000
# 6 0.000000 0.000000 0.000000 0.000000 0.000000 0.046336
#
#
# Mechanical properties :
#
#
# Convention : Reuss Voigt Hill
#
# Bulk Modulus (GPa) = 58.89040 61.61753 60.25396
# Shear Modulus (GPa) = 29.92376 31.42083 30.67229
#
# Velocity S-wave (km/s) = 3.88325 3.97920 3.93152
# Velocity P-wave (km/s) = 7.05571 7.22241 7.13955
#
# Compressibility (1/GPa) = 0.01698070
#
# Stress axis : x y z
#
# Youngs Moduli (GPa) = 81.42900 68.95723 94.70597
#
# Poissons Ratio (x) = 0.21926 0.37947
# Poissons Ratio (y) = 0.25891 0.28354
# Poissons Ratio (z) = 0.32627 0.20645
#
# Static dielectric constant tensor:
#      x y z
#    x 3.521640 0.000000 0.000000 
#    y 0.000000 3.529990 0.000000 
#    z 0.000000 0.000000 3.685080 
# 
# 
# High freq. dielectric constant tensor:
#      x y z
#    x 1.759020 0.000000 0.000000 
#    y 0.000000 1.778630 0.000000 
#    z 0.000000 0.000000 1.785560 
# 
# From -- ./inp_files/37724.got.cif
#   From: 2010.03.12/outbox.cif.g09.slc.cpg/sg53_19_cif.got.tgz:37724.got - 2010.04.16 14:36:59.
