data_PCOD8221053
_publ_section_title
;
Structure prediction by ZEFSAII (Michael W. Deem and Ramdas Pophale) SiO2 
 PCOD8221053
Probable space group: P M N A
;
_chemical_formula_sum "Si O2"
_cell_formula_units_Z 64
_cell_length_a 9.053463
_cell_length_b 18.962885
_cell_length_c 23.132118
_cell_angle_alpha 90.000000
_cell_angle_beta 90.000000
_cell_angle_gamma 90.000000
_cell_volume 3971.316876
_symmetry_space_group_name_H-M "P M N A"
_symmetry_group_IT_number 53
_symmetry_cell_setting 'orthorhombic'
loop_
_space_group_symop_operation_xyz
x,y,z
1/2-x,-y,1/2+z
x,-y,-z
1/2-x,y,1/2-z
-x,-y,-z
1/2+x,y,1/2-z
-x,y,z
1/2+x,-y,1/2+z
loop_
_atom_site_type_symbol
_atom_site_label
_atom_site_fract_x
_atom_site_fract_y
_atom_site_fract_z
Si Si1 0.175323 0.381282 0.190055
Si Si2 0.328759 0.976540 0.591855
Si Si3 0.672444 0.102055 0.188661
Si Si4 0.325271 0.610220 0.474487
Si Si5 0.828899 0.110519 0.979959
Si Si6 0.173957 0.473014 0.085203
Si Si7 0.671992 0.251559 0.131965
Si Si8 0.673547 0.250782 0.998227
O O1 0.250000 0.400852 0.250000
O O2 0.227423 0.443427 0.146673
O O3 0.230027 0.306186 0.167498
O O4 0.000000 0.377890 0.197185
O O5 0.500000 0.964206 0.606257
O O6 0.232763 0.960757 0.648449
O O7 0.278712 0.925583 0.539768
O O8 0.300360 0.057213 0.573071
O O9 0.750000 0.099122 0.250000
O O10 0.500000 0.090946 0.198005
O O11 0.708988 0.175493 0.157659
O O12 0.500000 0.623821 0.475419
O O13 0.264499 0.577392 0.534558
O O14 0.279072 0.554669 0.423924
O O15 0.243338 0.683700 0.463693
O O16 0.000000 0.131476 0.983362
O O17 0.732997 0.179843 0.968780
O O18 0.000000 0.468453 0.079412
O O19 0.500000 0.270750 0.139250
O O20 0.721235 0.253150 0.065313
O O21 0.500000 0.252986 0.990737
#
# Coordination Sequence:
#
# PCOD8221053 Si02
#       8
#     8   8   8   8   8   8   8   8
#     4  11  21  33  49  69  93 128 165 201 238 278
#     4   9  18  33  51  72  95 123 163 205 240 284
#     4  11  22  35  49  68  96 133 170 204 240 280
#     4   9  16  31  51  69  90 122 161 198 236 287
#     4   9  18  32  51  72  96 127 161 196 240 292
#     4   8  16  30  49  69  90 120 162 200 235 282
#     4  10  21  34  45  66  99 133 168 199 229 278
#     4  11  20  30  46  74 104 128 157 196 242 289
#
# _framework density 16.115561
#
# number of rings (size 3 to 8) (size 9 to 14) (size 15 to 20)
#    0.000    2.250    2.500    3.000    0.000    3.000 
#    0.000    3.750    0.000    0.000    0.000    0.875 
#    0.000    2.000    0.000    0.000    0.000    0.000 
#
# Total GULP energy -793587.973441 kJ/mol
# GULP energy per Si atom -12399.812085 kJ/mol
# Density = 1.607888 g / cm^3
# Si number density = 16.115561 Si / 1000 Ang^3
#
#
#
# Elastic Constant Matrix: (Units=GPa)
#
#
# Indices 1 2 3 4 5 6 
#
# 1 64.3335 48.4882 39.4167 0.0000 0.0000 0.0000
# 2 48.4882 116.2746 45.2579 0.0000 0.0000 0.0000
# 3 39.4167 45.2579 74.6783 0.0000 0.0000 0.0000
# 4 0.0000 0.0000 0.0000 21.7055 0.0000 0.0000
# 5 0.0000 0.0000 0.0000 0.0000 23.6725 0.0000
# 6 0.0000 0.0000 0.0000 0.0000 0.0000 20.5481
#
#
#
# Elastic Compliance Matrix: (Units=1/GPa)
#
#
# Indices 1 2 3 4 5 6 
#
# 1 0.027235 -0.007541 -0.009805 0.000000 0.000000 0.000000
# 2 -0.007541 0.013343 -0.004106 0.000000 0.000000 0.000000
# 3 -0.009805 -0.004106 0.021055 0.000000 0.000000 0.000000
# 4 0.000000 0.000000 0.000000 0.046071 0.000000 0.000000
# 5 0.000000 0.000000 0.000000 0.000000 0.042243 0.000000
# 6 0.000000 0.000000 0.000000 0.000000 0.000000 0.048666
#
#
# Mechanical properties :
#
#
# Convention : Reuss Voigt Hill
#
# Bulk Modulus (GPa) = 53.39494 57.95690 55.67592
# Shear Modulus (GPa) = 20.18069 21.32679 20.75374
#
# Velocity S-wave (km/s) = 3.54255 3.64176 3.59250
# Velocity P-wave (km/s) = 7.06664 7.32971 7.19937
#
# Compressibility (1/GPa) = 0.01872837
#
# Stress axis : x y z
#
# Youngs Moduli (GPa) = 36.71713 74.94381 47.49530
#
# Poissons Ratio (x) = 0.56515 0.46570
# Poissons Ratio (y) = 0.27688 0.19503
# Poissons Ratio (z) = 0.36002 0.30774
#
# Static dielectric constant tensor:
#      x y z
#    x 2.930550 0.000000 0.000000 
#    y 0.000000 3.095760 0.000000 
#    z 0.000000 0.000000 3.050110 
# 
# 
# High freq. dielectric constant tensor:
#      x y z
#    x 1.615460 0.000000 0.000000 
#    y 0.000000 1.617200 0.000000 
#    z 0.000000 0.000000 1.594570 
# 
# From -- ./inp_files/34522.got.cif
#   From: 2010.03.12/outbox.cif.g09.slc.cpg/sg53_18_cif.got.tgz:34522.got - 2010.04.16 14:36:59.
