data_PCOD8221970
_publ_section_title
;
Structure prediction by ZEFSAII (Michael W. Deem and Ramdas Pophale) SiO2 
 PCOD8221970
Probable space group: P M N A
;
_chemical_formula_sum "Si O2"
_cell_formula_units_Z 40
_cell_length_a 14.929162
_cell_length_b 7.669419
_cell_length_c 17.688717
_cell_angle_alpha 90.000000
_cell_angle_beta 90.000000
_cell_angle_gamma 90.000000
_cell_volume 2025.322696
_symmetry_space_group_name_H-M "P M N A"
_symmetry_group_IT_number 53
_symmetry_cell_setting 'orthorhombic'
loop_
_space_group_symop_operation_xyz
x,y,z
1/2-x,-y,1/2+z
x,-y,-z
1/2-x,y,1/2-z
-x,-y,-z
1/2+x,y,1/2-z
-x,y,z
1/2+x,-y,1/2+z
loop_
_atom_site_type_symbol
_atom_site_label
_atom_site_fract_x
_atom_site_fract_y
_atom_site_fract_z
Si Si1 0.600203 0.631257 0.068535
Si Si2 0.259688 0.917422 0.075810
Si Si3 0.402232 0.202175 0.681664
Si Si4 0.343813 0.089720 0.211163
Si Si5 0.852549 0.472607 0.272718
O O1 0.500000 0.706671 0.082489
O O2 0.670872 0.776439 0.045511
O O3 0.636857 0.542814 0.143661
O O4 0.597412 0.500000 0.000000
O O5 0.177509 0.835526 0.123222
O O6 0.320623 0.053413 0.123413
O O7 0.217457 0.000000 0.000000
O O8 0.500000 0.177628 0.642734
O O9 0.399998 0.400520 0.712461
O O10 0.398502 0.071183 0.753405
O O11 0.250000 0.101389 0.250000
O O12 0.393704 0.275320 0.225790
O O13 0.750000 0.467728 0.250000
#
# Coordination Sequence:
#
# PCOD8221970 Si02
#       5
#     8   8   8   8   8
#     4  11  23  38  60  93 127 162 205 258 320 373
#     4  11  22  41  61  89 129 168 209 258 314 372
#     4  11  22  39  63  91 126 165 209 259 308 369
#     4   9  20  36  61  91 116 161 209 252 303 362
#     4  11  19  38  65  90 124 166 209 254 309 372
#
# _framework density 19.749939000000001
#
# number of rings (size 3 to 8) (size 9 to 14) (size 15 to 20)
#    0.000    1.400    4.000    2.400    0.000    2.400 
#    0.000    0.000    0.000    0.600    0.000    0.000 
#    0.000    0.000    0.000    0.000    0.000    0.000 
#
# Total GULP energy -495638.045168 kJ/mol
# GULP energy per Si atom -12390.951129 kJ/mol
# Density = 1.970499 g / cm^3
# Si number density = 19.749939 Si / 1000 Ang^3
#
#
#
# Elastic Constant Matrix: (Units=GPa)
#
#
# Indices 1 2 3 4 5 6 
#
# 1 114.4561 40.0352 42.1830 0.0000 0.0000 0.0000
# 2 40.0352 125.3801 32.8364 0.0000 0.0000 0.0000
# 3 42.1830 32.8364 107.7164 0.0000 0.0000 0.0000
# 4 0.0000 0.0000 0.0000 34.9904 0.0000 0.0000
# 5 0.0000 0.0000 0.0000 0.0000 -1.3370 0.0000
# 6 0.0000 0.0000 0.0000 0.0000 0.0000 -5.1873
#
#
#
# Elastic Compliance Matrix: (Units=1/GPa)
#
#
# Indices 1 2 3 4 5 6 
#
# 1 0.010925 -0.002573 -0.003494 0.000000 0.000000 0.000000
# 2 -0.002573 0.009274 -0.001819 0.000000 0.000000 0.000000
# 3 -0.003494 -0.001819 0.011206 0.000000 0.000000 0.000000
# 4 0.000000 0.000000 0.000000 0.028579 0.000000 0.000000
# 5 0.000000 0.000000 0.000000 0.000000 -0.747936 0.000000
# 6 0.000000 0.000000 0.000000 0.000000 0.000000 -0.192778
#
#
# Mechanical properties :
#
#
# Convention : Reuss Voigt Hill
#
# Bulk Modulus (GPa) = 63.97069 64.18466 64.07768
# Shear Modulus (GPa) = -5.81567 21.19307 7.68870
#
# Velocity S-wave (km/s) = -1.71786 3.27933 1.97522
# Velocity P-wave (km/s) = 5.34097 6.84893 6.14141
#
# Compressibility (1/GPa) = 0.01563216
#
# Stress axis : x y z
#
# Youngs Moduli (GPa) = 91.53521 107.82919 89.23434
#
# Poissons Ratio (x) = 0.27749 0.31177
# Poissons Ratio (y) = 0.23556 0.16234
# Poissons Ratio (z) = 0.31980 0.19617
#
# Static dielectric constant tensor:
#      x y z
#    x 3.605290 0.000000 0.000000 
#    y 0.000000 4.701200 0.000000 
#    z 0.000000 0.000000 3.309070 
# 
# 
# High freq. dielectric constant tensor:
#      x y z
#    x 1.768380 0.000000 0.000000 
#    y 0.000000 1.777940 0.000000 
#    z 0.000000 0.000000 1.760830 
# 
# From -- ./inp_files/22403.got.cif
#   From: 2010.03.12/outbox.cif.g09.slc.cpg/sg53_12_cif.got.tgz:22403.got - 2010.04.16 14:36:59.
