data_PCOD8221853
_publ_section_title
;
Structure prediction by ZEFSAII (Michael W. Deem and Ramdas Pophale) SiO2 
 PCOD8221853
Probable space group: P M N A
;
_chemical_formula_sum "Si O2"
_cell_formula_units_Z 32
_cell_length_a 14.879931
_cell_length_b 11.530518
_cell_length_c 7.949953
_cell_angle_alpha 90.000000
_cell_angle_beta 90.000000
_cell_angle_gamma 90.000000
_cell_volume 1363.999768
_symmetry_space_group_name_H-M "P M N A"
_symmetry_group_IT_number 53
_symmetry_cell_setting 'orthorhombic'
loop_
_space_group_symop_operation_xyz
x,y,z
1/2-x,-y,1/2+z
x,-y,-z
1/2-x,y,1/2-z
-x,-y,-z
1/2+x,y,1/2-z
-x,y,z
1/2+x,-y,1/2+z
loop_
_atom_site_type_symbol
_atom_site_label
_atom_site_fract_x
_atom_site_fract_y
_atom_site_fract_z
Si Si1 0.152484 0.500000 0.000000
Si Si2 0.000000 0.711346 0.296714
Si Si3 0.500000 0.812110 0.856445
Si Si4 0.315288 0.267611 0.612038
Si Si5 0.000000 0.449086 0.248507
Si Si6 0.836090 0.085869 0.150904
O O1 0.215565 0.400196 0.922755
O O2 0.089605 0.558776 0.861124
O O3 0.000000 0.812139 0.439794
O O4 0.083108 0.736688 0.175373
O O5 0.000000 0.573244 0.352669
O O6 0.500000 0.672140 0.845495
O O7 0.585258 0.880352 0.781126
O O8 0.250000 0.211899 0.750000
O O9 0.302826 0.202549 0.437344
O O10 0.750000 0.032891 0.250000
O O11 0.868876 0.000000 0.000000
#
# Coordination Sequence:
#
# PCOD8221853 Si02
#       6
#     4   4   4   8   4   8
#     4   9  18  36  62  93 134 174 212 275 328 405
#     4  10  23  40  66 103 141 174 215 277 334 410
#     4  12  22  43  70 102 132 180 229 269 340 413
#     4  11  22  42  65  94 135 178 225 276 338 400
#     4   9  17  37  63  95 137 176 211 268 336 398
#     4  12  27  47  70  96 133 176 229 287 338 392
#
# _framework density 23.460412999999999
#
# number of rings (size 3 to 8) (size 9 to 14) (size 15 to 20)
#    0.000    1.250    2.500    4.500    0.000    1.000 
#    9.000    1.875    0.000    0.000    0.000    0.000 
#    0.000    0.000    0.000    0.000    0.000    0.000 
#
# Total GULP energy -396500.718356 kJ/mol
# GULP energy per Si atom -12390.647449 kJ/mol
# Density = 2.340702 g / cm^3
# Si number density = 23.460413 Si / 1000 Ang^3
#
#
#
# Elastic Constant Matrix: (Units=GPa)
#
#
# Indices 1 2 3 4 5 6 
#
# 1 87.5336 19.1451 20.1581 0.0000 0.0000 0.0000
# 2 19.1451 81.2287 36.0675 0.0000 0.0000 0.0000
# 3 20.1581 36.0675 91.7316 0.0000 0.0000 0.0000
# 4 0.0000 0.0000 0.0000 45.9121 0.0000 0.0000
# 5 0.0000 0.0000 0.0000 0.0000 28.7834 0.0000
# 6 0.0000 0.0000 0.0000 0.0000 0.0000 25.0980
#
#
#
# Elastic Compliance Matrix: (Units=1/GPa)
#
#
# Indices 1 2 3 4 5 6 
#
# 1 0.012311 -0.002060 -0.001895 0.000000 0.000000 0.000000
# 2 -0.002060 0.015260 -0.005547 0.000000 0.000000 0.000000
# 3 -0.001895 -0.005547 0.013499 0.000000 0.000000 0.000000
# 4 0.000000 0.000000 0.000000 0.021781 0.000000 0.000000
# 5 0.000000 0.000000 0.000000 0.000000 0.034742 0.000000
# 6 0.000000 0.000000 0.000000 0.000000 0.000000 0.039844
#
#
# Mechanical properties :
#
#
# Convention : Reuss Voigt Hill
#
# Bulk Modulus (GPa) = 45.32170 45.69282 45.50726
# Shear Modulus (GPa) = 30.52570 32.30027 31.41299
#
# Velocity S-wave (km/s) = 3.61107 3.71455 3.66318
# Velocity P-wave (km/s) = 6.06191 6.15760 6.10994
#
# Compressibility (1/GPa) = 0.02206448
#
# Stress axis : x y z
#
# Youngs Moduli (GPa) = 81.22653 65.53288 74.07994
#
# Poissons Ratio (x) = 0.13500 0.14041
# Poissons Ratio (y) = 0.16733 0.41093
# Poissons Ratio (z) = 0.15396 0.36352
#
# Static dielectric constant tensor:
#      x y z
#    x 4.083710 0.000000 0.000000 
#    y 0.000000 4.403050 0.000000 
#    z 0.000000 0.000000 4.283710 
# 
# 
# High freq. dielectric constant tensor:
#      x y z
#    x 1.910330 0.000000 0.000000 
#    y 0.000000 1.936270 0.000000 
#    z 0.000000 0.000000 1.932130 
# 
# From -- ./inp_files/8112.got.cif
#   From: 2010.03.12/outbox.cif.g09.slc.cpg/sg53_5_cif.got.tgz:8112.got - 2010.04.16 14:36:59.
