data_PCOD8221955
_publ_section_title
;
Structure prediction by ZEFSAII (Michael W. Deem and Ramdas Pophale) SiO2 
 PCOD8221955
Probable space group: P M N A
;
_chemical_formula_sum "Si O2"
_cell_formula_units_Z 48
_cell_length_a 9.938357
_cell_length_b 13.491700
_cell_length_c 19.750242
_cell_angle_alpha 90.000000
_cell_angle_beta 90.000000
_cell_angle_gamma 90.000000
_cell_volume 2648.217739
_symmetry_space_group_name_H-M "P M N A"
_symmetry_group_IT_number 53
_symmetry_cell_setting 'orthorhombic'
loop_
_space_group_symop_operation_xyz
x,y,z
1/2-x,-y,1/2+z
x,-y,-z
1/2-x,y,1/2-z
-x,-y,-z
1/2+x,y,1/2-z
-x,y,z
1/2+x,-y,1/2+z
loop_
_atom_site_type_symbol
_atom_site_label
_atom_site_fract_x
_atom_site_fract_y
_atom_site_fract_z
Si Si1 0.159381 0.657655 0.904967
Si Si2 0.653294 0.482386 0.920370
Si Si3 0.763803 0.154275 0.170716
Si Si4 0.000000 0.077305 0.398811
Si Si5 0.500000 0.843848 0.454616
Si Si6 0.000000 0.065117 0.096434
Si Si7 0.752947 0.274429 0.550492
Si Si8 0.500000 0.132756 0.946634
O O1 0.243137 0.558776 0.885149
O O2 0.182204 0.735219 0.844512
O O3 0.000000 0.633422 0.915006
O O4 0.228303 0.701331 0.971979
O O5 0.500000 0.492057 0.891339
O O6 0.714961 0.373393 0.906860
O O7 0.648416 0.500000 0.000000
O O8 0.750000 0.140417 0.250000
O O9 0.624903 0.131177 0.134817
O O10 0.869554 0.075148 0.142678
O O11 0.000000 0.093594 0.477947
O O12 0.000000 0.957359 0.391718
O O13 0.500000 0.849131 0.537566
O O14 0.623350 0.783791 0.422977
O O15 0.500000 0.956467 0.432951
O O16 0.871602 0.199447 0.564112
#
# Coordination Sequence:
#
# PCOD8221955 Si02
#       8
#     8   8   8   4   4   4   8   4
#     4  11  21  35  51  78 112 147 187 222 270 339
#     4   9  20  31  50  76 114 144 172 217 270 328
#     4  12  23  38  56  78 113 149 189 234 275 329
#     4  11  23  34  55  83 108 151 185 229 278 337
#     4  11  20  32  62  78 116 153 182 233 281 343
#     4  11  21  40  51  83 114 151 193 229 282 329
#     4  11  18  33  52  82 114 147 175 221 282 340
#     4  11  20  34  54  82 116 143 182 227 287 343
#
# _framework density 18.125398000000001
#
# number of rings (size 3 to 8) (size 9 to 14) (size 15 to 20)
#    0.000    1.167    5.833    1.500    3.500    3.667 
#    0.000    0.000    0.000    0.000    0.000    7.000 
#    0.000    0.000    0.000    0.000    0.000    0.000 
#
# Total GULP energy -595041.849983 kJ/mol
# GULP energy per Si atom -12396.705208 kJ/mol
# Density = 1.808414 g / cm^3
# Si number density = 18.125398 Si / 1000 Ang^3
#
#
#
# Elastic Constant Matrix: (Units=GPa)
#
#
# Indices 1 2 3 4 5 6 
#
# 1 156.1056 57.1640 16.1956 0.0000 0.0000 0.0000
# 2 57.1640 118.4262 11.4275 0.0000 0.0000 0.0000
# 3 16.1956 11.4275 44.7516 0.0000 0.0000 0.0000
# 4 0.0000 0.0000 0.0000 14.6213 0.0000 0.0000
# 5 0.0000 0.0000 0.0000 0.0000 -15.0791 0.0000
# 6 0.0000 0.0000 0.0000 0.0000 0.0000 49.9599
#
#
#
# Elastic Compliance Matrix: (Units=1/GPa)
#
#
# Indices 1 2 3 4 5 6 
#
# 1 0.007943 -0.003646 -0.001943 0.000000 0.000000 0.000000
# 2 -0.003646 0.010331 -0.001319 0.000000 0.000000 0.000000
# 3 -0.001943 -0.001319 0.023386 0.000000 0.000000 0.000000
# 4 0.000000 0.000000 0.000000 0.068393 0.000000 0.000000
# 5 0.000000 0.000000 0.000000 0.000000 -0.066317 0.000000
# 6 0.000000 0.000000 0.000000 0.000000 0.000000 0.020016
#
#
# Mechanical properties :
#
#
# Convention : Reuss Voigt Hill
#
# Bulk Modulus (GPa) = 35.91554 54.31753 45.11653
# Shear Modulus (GPa) = 57.57049 25.53349 41.55199
#
# Velocity S-wave (km/s) = 5.64192 3.75735 4.79317
# Velocity P-wave (km/s) = 7.89302 6.98973 7.45507
#
# Compressibility (1/GPa) = 0.02784310
#
# Stress axis : x y z
#
# Youngs Moduli (GPa) = 125.89966 96.79184 42.76146
#
# Poissons Ratio (x) = 0.35295 0.08310
# Poissons Ratio (y) = 0.45909 0.05638
# Poissons Ratio (z) = 0.24467 0.12762
#
# Static dielectric constant tensor:
#      x y z
#    x 3.593790 0.000000 0.000000 
#    y 0.000000 3.740720 0.000000 
#    z 0.000000 0.000000 2.711260 
# 
# 
# High freq. dielectric constant tensor:
#      x y z
#    x 1.727940 0.000000 0.000000 
#    y 0.000000 1.718890 0.000000 
#    z 0.000000 0.000000 1.634100 
# 
# From -- ./inp_files/26366.got.cif
#   From: 2010.03.12/outbox.cif.g09.slc.cpg/sg53_14_cif.got.tgz:26366.got - 2010.04.16 14:36:59.
