data_PCOD8221376
_publ_section_title
;
Structure prediction by ZEFSAII (Michael W. Deem and Ramdas Pophale) SiO2 
 PCOD8221376
Probable space group: P M N A
;
_chemical_formula_sum "Si O2"
_cell_formula_units_Z 48
_cell_length_a 19.001791
_cell_length_b 13.640615
_cell_length_c 8.757380
_cell_angle_alpha 90.000000
_cell_angle_beta 90.000000
_cell_angle_gamma 90.000000
_cell_volume 2269.878877
_symmetry_space_group_name_H-M "P M N A"
_symmetry_group_IT_number 53
_symmetry_cell_setting 'orthorhombic'
loop_
_space_group_symop_operation_xyz
x,y,z
1/2-x,-y,1/2+z
x,-y,-z
1/2-x,y,1/2-z
-x,-y,-z
1/2+x,y,1/2-z
-x,y,z
1/2+x,-y,1/2+z
loop_
_atom_site_type_symbol
_atom_site_label
_atom_site_fract_x
_atom_site_fract_y
_atom_site_fract_z
Si Si1 0.575128 0.757372 0.591570
Si Si2 0.180455 0.259345 0.332914
Si Si3 0.915482 0.127396 0.816817
Si Si4 0.822377 0.972436 0.674619
Si Si5 0.422288 0.577604 0.376890
Si Si6 0.672030 0.301214 0.819956
O O1 0.500000 0.784516 0.664069
O O2 0.618141 0.704003 0.724402
O O3 0.604826 0.852351 0.496810
O O4 0.566713 0.681274 0.455216
O O5 0.250000 0.295633 0.250000
O O6 0.170576 0.143395 0.321499
O O7 0.178097 0.308583 0.497547
O O8 0.874684 0.205362 0.710708
O O9 0.000000 0.133148 0.792256
O O10 0.887498 0.020637 0.766755
O O11 0.750000 0.009736 0.750000
O O12 0.823968 0.000000 0.500000
O O13 0.391942 0.500000 0.500000
O O14 0.500000 0.542355 0.316184
O O15 0.365920 0.598758 0.241055
O O16 0.750000 0.290189 0.750000
#
# Coordination Sequence:
#
# PCOD8221376 Si02
#       6
#     8   8   8   8   8   8
#     4   9  20  37  58  83 114 152 193 244 307 372
#     4  11  23  36  56  85 120 160 205 256 308 365
#     4  10  21  38  58  82 118 163 211 261 315 367
#     4  11  24  37  56  83 117 165 214 267 308 363
#     4   9  19  40  67  91 118 155 197 245 308 379
#     4  11  21  38  63  89 119 160 202 252 310 374
#
# _framework density 21.146504
#
# number of rings (size 3 to 8) (size 9 to 14) (size 15 to 20)
#    0.000    1.833    1.667    4.000    4.667    2.333 
#    0.000    5.000    0.000    3.000    0.000    0.000 
#    0.000    0.000    0.000    0.000    0.000    0.000 
#
# Total GULP energy -594694.889863 kJ/mol
# GULP energy per Si atom -12389.476872 kJ/mol
# Density = 2.109837 g / cm^3
# Si number density = 21.146504 Si / 1000 Ang^3
#
#
#
# Elastic Constant Matrix: (Units=GPa)
#
#
# Indices 1 2 3 4 5 6 
#
# 1 135.1988 26.5652 75.7835 0.0000 0.0000 0.0000
# 2 26.5652 48.1617 27.2531 0.0000 0.0000 0.0000
# 3 75.7835 27.2531 163.3003 0.0000 0.0000 0.0000
# 4 0.0000 0.0000 0.0000 65.8200 0.0000 0.0000
# 5 0.0000 0.0000 0.0000 0.0000 36.8676 0.0000
# 6 0.0000 0.0000 0.0000 0.0000 0.0000 18.6943
#
#
#
# Elastic Compliance Matrix: (Units=1/GPa)
#
#
# Indices 1 2 3 4 5 6 
#
# 1 0.010462 -0.003338 -0.004298 0.000000 0.000000 0.000000
# 2 -0.003338 0.023994 -0.002455 0.000000 0.000000 0.000000
# 3 -0.004298 -0.002455 0.008528 0.000000 0.000000 0.000000
# 4 0.000000 0.000000 0.000000 0.015193 0.000000 0.000000
# 5 0.000000 0.000000 0.000000 0.000000 0.027124 0.000000
# 6 0.000000 0.000000 0.000000 0.000000 0.000000 0.053492
#
#
# Mechanical properties :
#
#
# Convention : Reuss Voigt Hill
#
# Bulk Modulus (GPa) = 43.85790 67.31828 55.58809
# Shear Modulus (GPa) = 30.01640 38.74699 34.38169
#
# Velocity S-wave (km/s) = 3.77165 4.28520 4.03660
# Velocity P-wave (km/s) = 6.30493 7.50914 6.93323
#
# Compressibility (1/GPa) = 0.02280091
#
# Stress axis : x y z
#
# Youngs Moduli (GPa) = 95.58818 41.67699 117.26214
#
# Poissons Ratio (x) = 0.13914 0.50397
# Poissons Ratio (y) = 0.31912 0.28789
# Poissons Ratio (z) = 0.41082 0.10232
#
# Static dielectric constant tensor:
#      x y z
#    x 4.049610 0.000000 0.000000 
#    y 0.000000 3.604440 0.000000 
#    z 0.000000 0.000000 3.742190 
# 
# 
# High freq. dielectric constant tensor:
#      x y z
#    x 1.837140 0.000000 0.000000 
#    y 0.000000 1.809840 0.000000 
#    z 0.000000 0.000000 1.825670 
# 
# From -- ./inp_files/9923.got.cif
#   From: 2010.03.12/outbox.cif.g09.slc.cpg/sg53_5_cif.got.tgz:9923.got - 2010.04.16 14:36:59.
