data_PCOD8221155
_publ_section_title
;
Structure prediction by ZEFSAII (Michael W. Deem and Ramdas Pophale) SiO2 
 PCOD8221155
Probable space group: P M N A
;
_chemical_formula_sum "Si O2"
_cell_formula_units_Z 36
_cell_length_a 21.381409
_cell_length_b 7.512510
_cell_length_c 10.350253
_cell_angle_alpha 90.000000
_cell_angle_beta 90.000000
_cell_angle_gamma 90.000000
_cell_volume 1662.540945
_symmetry_space_group_name_H-M "P M N A"
_symmetry_group_IT_number 53
_symmetry_cell_setting 'orthorhombic'
loop_
_space_group_symop_operation_xyz
x,y,z
1/2-x,-y,1/2+z
x,-y,-z
1/2-x,y,1/2-z
-x,-y,-z
1/2+x,y,1/2-z
-x,y,z
1/2+x,-y,1/2+z
loop_
_atom_site_type_symbol
_atom_site_label
_atom_site_fract_x
_atom_site_fract_y
_atom_site_fract_z
Si Si1 0.364094 0.000000 0.000000
Si Si2 0.841515 0.722363 0.177396
Si Si3 0.430203 0.574633 0.645238
Si Si4 0.281832 0.308612 0.947536
Si Si5 0.426999 0.972151 0.726853
O O1 0.409534 0.993510 0.123503
O O2 0.317770 0.835323 0.965566
O O3 0.880288 0.546347 0.217929
O O4 0.794334 0.700757 0.054690
O O5 0.802100 0.750733 0.305399
O O6 0.887879 0.885025 0.143271
O O7 0.427287 0.500000 0.500000
O O8 0.500000 0.547921 0.701908
O O9 0.410416 0.779101 0.667726
O O10 0.302915 0.500000 0.000000
O O11 0.500000 0.013163 0.708238
#
# Coordination Sequence:
#
# PCOD8221155 Si02
#       5
#     4   8   8   8   8
#     4  10  21  38  60  86 113 148 196 246 300 354
#     4  10  21  36  55  81 111 146 188 233 287 350
#     4  10  21  36  55  80 110 146 187 231 284 346
#     4  10  21  36  55  80 111 146 186 234 287 348
#     4  10  21  38  60  85 115 151 194 246 299 354
#
# _framework density 21.653601999999999
#
# number of rings (size 3 to 8) (size 9 to 14) (size 15 to 20)
#    0.000    2.000    0.000    3.000    0.000    4.444 
#    0.000    7.778    0.000   10.667    0.000    0.000 
#    0.000    0.000    0.000    0.000    0.000    0.000 
#
# Total GULP energy -446004.026236 kJ/mol
# GULP energy per Si atom -12389.000729 kJ/mol
# Density = 2.160432 g / cm^3
# Si number density = 21.653602 Si / 1000 Ang^3
#
#
#
# Elastic Constant Matrix: (Units=GPa)
#
#
# Indices 1 2 3 4 5 6 
#
# 1 118.1134 72.7921 5.1202 0.0000 0.0000 0.0000
# 2 72.7921 171.7979 12.0988 0.0000 0.0000 0.0000
# 3 5.1202 12.0988 35.8327 0.0000 0.0000 0.0000
# 4 0.0000 0.0000 0.0000 31.6514 0.0000 0.0000
# 5 0.0000 0.0000 0.0000 0.0000 12.9156 0.0000
# 6 0.0000 0.0000 0.0000 0.0000 0.0000 31.9972
#
#
#
# Elastic Compliance Matrix: (Units=1/GPa)
#
#
# Indices 1 2 3 4 5 6 
#
# 1 0.011459 -0.004855 0.000002 0.000000 0.000000 0.000000
# 2 -0.004855 0.008020 -0.002014 0.000000 0.000000 0.000000
# 3 0.000002 -0.002014 0.028587 0.000000 0.000000 0.000000
# 4 0.000000 0.000000 0.000000 0.031594 0.000000 0.000000
# 5 0.000000 0.000000 0.000000 0.000000 0.077426 0.000000
# 6 0.000000 0.000000 0.000000 0.000000 0.000000 0.031253
#
#
# Mechanical properties :
#
#
# Convention : Reuss Voigt Hill
#
# Bulk Modulus (GPa) = 29.12814 56.19624 42.66219
# Shear Modulus (GPa) = 23.41739 31.02836 27.22287
#
# Velocity S-wave (km/s) = 3.29212 3.78953 3.54955
# Velocity P-wave (km/s) = 5.28505 6.71983 6.04516
#
# Compressibility (1/GPa) = 0.03433106
#
# Stress axis : x y z
#
# Youngs Moduli (GPa) = 87.27083 124.69079 34.98060
#
# Poissons Ratio (x) = 0.60540 -0.00007
# Poissons Ratio (y) = 0.42372 0.07045
# Poissons Ratio (z) = -0.00018 0.25114
#
# Static dielectric constant tensor:
#      x y z
#    x 4.573610 0.000000 0.000000 
#    y 0.000000 3.988290 0.000000 
#    z 0.000000 0.000000 3.546850 
# 
# 
# High freq. dielectric constant tensor:
#      x y z
#    x 1.871300 0.000000 0.000000 
#    y 0.000000 1.858770 0.000000 
#    z 0.000000 0.000000 1.823690 
# 
# From -- ./inp_files/18110.got.cif
#   From: 2010.03.12/outbox.cif.g09.slc.cpg/sg53_10_cif.got.tgz:18110.got - 2010.04.16 14:36:59.
