data_PCOD8221541
_publ_section_title
;
Structure prediction by ZEFSAII (Michael W. Deem and Ramdas Pophale) SiO2 
 PCOD8221541
Probable space group: P M N A
;
_chemical_formula_sum "Si O2"
_cell_formula_units_Z 48
_cell_length_a 8.538784
_cell_length_b 14.928813
_cell_length_c 18.974289
_cell_angle_alpha 90.000000
_cell_angle_beta 90.000000
_cell_angle_gamma 90.000000
_cell_volume 2418.726800
_symmetry_space_group_name_H-M "P M N A"
_symmetry_group_IT_number 53
_symmetry_cell_setting 'orthorhombic'
loop_
_space_group_symop_operation_xyz
x,y,z
1/2-x,-y,1/2+z
x,-y,-z
1/2-x,y,1/2-z
-x,-y,-z
1/2+x,y,1/2-z
-x,y,z
1/2+x,-y,1/2+z
loop_
_atom_site_type_symbol
_atom_site_label
_atom_site_fract_x
_atom_site_fract_y
_atom_site_fract_z
Si Si1 0.683410 0.123102 0.672673
Si Si2 0.316852 0.534389 0.076790
Si Si3 0.682960 0.381912 0.327353
Si Si4 0.816800 0.722081 0.068011
Si Si5 0.683178 0.973667 0.923185
Si Si6 0.681373 0.767372 0.919312
O O1 0.750000 0.133473 0.750000
O O2 0.500000 0.122434 0.679095
O O3 0.740613 0.207106 0.626252
O O4 0.736223 0.030618 0.637629
O O5 0.500000 0.556362 0.078993
O O6 0.276500 0.459997 0.133823
O O7 0.219676 0.623023 0.096461
O O8 0.264752 0.500000 0.000000
O O9 0.750000 0.372832 0.250000
O O10 0.500000 0.404509 0.326339
O O11 0.710523 0.287981 0.366378
O O12 0.000000 0.732764 0.050883
O O13 0.715323 0.738972 0.998836
O O14 0.500000 0.994126 0.921431
O O15 0.722234 0.870877 0.907537
O O16 0.751522 0.000000 0.000000
O O17 0.500000 0.746802 0.903430
#
# Coordination Sequence:
#
# PCOD8221541 Si02
#       6
#     8   8   8   8   8   8
#     4  11  25  42  63  92 129 167 209 260 315 372
#     4  11  23  40  66  96 127 166 211 257 311 374
#     4  12  26  44  66  93 130 167 208 261 317 374
#     4  11  23  39  63  95 126 165 212 261 313 371
#     4  10  21  39  65  94 125 165 209 257 312 373
#     4  11  22  39  65  95 126 164 211 259 312 375
#
# _framework density 19.845151999999999
#
# number of rings (size 3 to 8) (size 9 to 14) (size 15 to 20)
#    0.000    1.000    3.333    3.500    0.000    5.667 
#    0.000    1.667    0.000    0.000    0.000    0.000 
#    0.000    0.000    0.000    0.000    0.000    0.000 
#
# Total GULP energy -595550.617225 kJ/mol
# GULP energy per Si atom -12407.304526 kJ/mol
# Density = 1.979998 g / cm^3
# Si number density = 19.845152 Si / 1000 Ang^3
#
#
#
# Elastic Constant Matrix: (Units=GPa)
#
#
# Indices 1 2 3 4 5 6 
#
# 1 42.6383 25.9290 20.3764 0.0000 0.0000 0.0000
# 2 25.9290 129.5386 59.2234 0.0000 0.0000 0.0000
# 3 20.3764 59.2234 140.7168 0.0000 0.0000 0.0000
# 4 0.0000 0.0000 0.0000 7.9758 0.0000 0.0000
# 5 0.0000 0.0000 0.0000 0.0000 34.0954 0.0000
# 6 0.0000 0.0000 0.0000 0.0000 0.0000 20.1657
#
#
#
# Elastic Compliance Matrix: (Units=1/GPa)
#
#
# Indices 1 2 3 4 5 6 
#
# 1 0.027167 -0.004506 -0.002037 0.000000 0.000000 0.000000
# 2 -0.004506 0.010307 -0.003685 0.000000 0.000000 0.000000
# 3 -0.002037 -0.003685 0.008952 0.000000 0.000000 0.000000
# 4 0.000000 0.000000 0.000000 0.125380 0.000000 0.000000
# 5 0.000000 0.000000 0.000000 0.000000 0.029329 0.000000
# 6 0.000000 0.000000 0.000000 0.000000 0.000000 0.049589
#
#
# Mechanical properties :
#
#
# Convention : Reuss Voigt Hill
#
# Bulk Modulus (GPa) = 38.50845 58.21680 48.36262
# Shear Modulus (GPa) = 17.86745 26.27170 22.06958
#
# Velocity S-wave (km/s) = 3.00383 3.64240 3.33842
# Velocity P-wave (km/s) = 5.61046 6.86212 6.26761
#
# Compressibility (1/GPa) = 0.02596833
#
# Stress axis : x y z
#
# Youngs Moduli (GPa) = 36.80915 97.02569 111.70131
#
# Poissons Ratio (x) = 0.43724 0.22757
# Poissons Ratio (y) = 0.16588 0.41164
# Poissons Ratio (z) = 0.07499 0.35755
#
# Static dielectric constant tensor:
#      x y z
#    x 3.609350 0.000000 0.000000 
#    y 0.000000 3.645250 0.000000 
#    z 0.000000 0.000000 3.575340 
# 
# 
# High freq. dielectric constant tensor:
#      x y z
#    x 1.781400 0.000000 0.000000 
#    y 0.000000 1.790510 0.000000 
#    z 0.000000 0.000000 1.772800 
# 
# From -- ./inp_files/26193.got.cif
#   From: 2010.03.12/outbox.cif.g09.slc.cpg/sg53_14_cif.got.tgz:26193.got - 2010.04.16 14:36:59.
