data_PCOD8221246
_publ_section_title
;
Structure prediction by ZEFSAII (Michael W. Deem and Ramdas Pophale) SiO2 
 PCOD8221246
Probable space group: P M N A
;
_chemical_formula_sum "Si O2"
_cell_formula_units_Z 40
_cell_length_a 8.461970
_cell_length_b 13.729515
_cell_length_c 18.035832
_cell_angle_alpha 90.000000
_cell_angle_beta 90.000000
_cell_angle_gamma 90.000000
_cell_volume 2095.380310
_symmetry_space_group_name_H-M "P M N A"
_symmetry_group_IT_number 53
_symmetry_cell_setting 'orthorhombic'
loop_
_space_group_symop_operation_xyz
x,y,z
1/2-x,-y,1/2+z
x,-y,-z
1/2-x,y,1/2-z
-x,-y,-z
1/2+x,y,1/2-z
-x,y,z
1/2+x,-y,1/2+z
loop_
_atom_site_type_symbol
_atom_site_label
_atom_site_fract_x
_atom_site_fract_y
_atom_site_fract_z
Si Si1 0.815610 0.074979 0.170856
Si Si2 0.682705 0.799774 0.531485
Si Si3 0.183111 0.125639 0.614679
Si Si4 0.815697 0.318116 0.828330
Si Si5 0.685208 0.605866 0.023421
O O1 0.750000 0.109231 0.250000
O O2 0.781134 0.162642 0.113977
O O3 0.000000 0.050275 0.175877
O O4 0.723378 0.980704 0.143241
O O5 0.500000 0.812529 0.510667
O O6 0.780466 0.864395 0.472726
O O7 0.728633 0.686423 0.527172
O O8 0.284660 0.203233 0.661211
O O9 0.000000 0.147920 0.628760
O O10 0.750000 0.354428 0.750000
O O11 0.723901 0.378839 0.890548
O O12 0.000000 0.340061 0.834298
O O13 0.500000 0.616157 0.009651
O O14 0.748021 0.500000 0.000000
#
# Coordination Sequence:
#
# PCOD8221246 Si02
#       5
#     8   8   8   8   8
#     4  11  23  37  53  77 110 146 184 222 263 313
#     4  10  21  37  57  80 107 141 181 224 268 319
#     4  11  21  34  55  81 110 144 181 220 266 319
#     4  11  21  35  56  82 113 143 177 223 272 320
#     4  10  21  38  60  84 109 139 178 223 271 325
#
# _framework density 19.089614000000001
#
# number of rings (size 3 to 8) (size 9 to 14) (size 15 to 20)
#    0.000    1.400    0.000    9.000    0.000    7.200 
#    0.000    1.000    0.000    2.400    0.000    0.000 
#    0.000    0.000    0.000    0.000    0.000    0.000 
#
# Total GULP energy -496205.233134 kJ/mol
# GULP energy per Si atom -12405.130828 kJ/mol
# Density = 1.904617 g / cm^3
# Si number density = 19.089614 Si / 1000 Ang^3
#
#
#
# Elastic Constant Matrix: (Units=GPa)
#
#
# Indices 1 2 3 4 5 6 
#
# 1 53.4880 4.5278 14.3235 0.0000 0.0000 0.0000
# 2 4.5278 97.6106 61.5824 0.0000 0.0000 0.0000
# 3 14.3235 61.5824 123.5012 0.0000 0.0000 0.0000
# 4 0.0000 0.0000 0.0000 13.4771 0.0000 0.0000
# 5 0.0000 0.0000 0.0000 0.0000 21.0090 0.0000
# 6 0.0000 0.0000 0.0000 0.0000 0.0000 10.4077
#
#
#
# Elastic Compliance Matrix: (Units=1/GPa)
#
#
# Indices 1 2 3 4 5 6 
#
# 1 0.019333 0.000756 -0.002619 0.000000 0.000000 0.000000
# 2 0.000756 0.014976 -0.007555 0.000000 0.000000 0.000000
# 3 -0.002619 -0.007555 0.012168 0.000000 0.000000 0.000000
# 4 0.000000 0.000000 0.000000 0.074200 0.000000 0.000000
# 5 0.000000 0.000000 0.000000 0.000000 0.047599 0.000000
# 6 0.000000 0.000000 0.000000 0.000000 0.000000 0.096082
#
#
# Mechanical properties :
#
#
# Convention : Reuss Voigt Hill
#
# Bulk Modulus (GPa) = 36.17933 48.38524 42.28229
# Shear Modulus (GPa) = 17.09926 21.92316 19.51121
#
# Velocity S-wave (km/s) = 2.99613 3.39253 3.20048
# Velocity P-wave (km/s) = 5.56440 6.38334 5.98789
#
# Compressibility (1/GPa) = 0.02764009
#
# Stress axis : x y z
#
# Youngs Moduli (GPa) = 51.72457 66.77138 82.18091
#
# Poissons Ratio (x) = -0.05045 0.21523
# Poissons Ratio (y) = -0.03908 0.62092
# Poissons Ratio (z) = 0.13546 0.50449
#
# Static dielectric constant tensor:
#      x y z
#    x 3.625570 0.000000 0.000000 
#    y 0.000000 3.401300 0.000000 
#    z 0.000000 0.000000 3.634570 
# 
# 
# High freq. dielectric constant tensor:
#      x y z
#    x 1.760100 0.000000 0.000000 
#    y 0.000000 1.724100 0.000000 
#    z 0.000000 0.000000 1.746000 
# 
# From -- ./inp_files/25988.got.cif
#   From: 2010.03.12/outbox.cif.g09.slc.cpg/sg53_13_cif.got.tgz:25988.got - 2010.04.16 14:36:59.
