data_PCOD8221473
_publ_section_title
;
Structure prediction by ZEFSAII (Michael W. Deem and Ramdas Pophale) SiO2 
 PCOD8221473
Probable space group: P M N A
;
_chemical_formula_sum "Si O2"
_cell_formula_units_Z 40
_cell_length_a 20.319632
_cell_length_b 13.180591
_cell_length_c 7.591707
_cell_angle_alpha 90.000000
_cell_angle_beta 90.000000
_cell_angle_gamma 90.000000
_cell_volume 2033.247095
_symmetry_space_group_name_H-M "P M N A"
_symmetry_group_IT_number 53
_symmetry_cell_setting 'orthorhombic'
loop_
_space_group_symop_operation_xyz
x,y,z
1/2-x,-y,1/2+z
x,-y,-z
1/2-x,y,1/2-z
-x,-y,-z
1/2+x,y,1/2-z
-x,y,z
1/2+x,-y,1/2+z
loop_
_atom_site_type_symbol
_atom_site_label
_atom_site_fract_x
_atom_site_fract_y
_atom_site_fract_z
Si Si1 0.426151 0.826511 0.547999
Si Si2 0.750000 0.140565 0.750000
Si Si3 0.832457 0.000000 0.000000
Si Si4 0.073750 0.335938 0.343436
Si Si5 0.363612 0.713680 0.215636
Si Si6 0.677252 0.504643 0.794723
O O1 0.500000 0.864067 0.508854
O O2 0.380304 0.921560 0.599049
O O3 0.424283 0.762987 0.725352
O O4 0.403356 0.765396 0.374155
O O5 0.714887 0.066285 0.617460
O O6 0.696658 0.213779 0.843464
O O7 0.092811 0.306214 0.542971
O O8 0.121443 0.414724 0.240822
O O9 0.000000 0.382235 0.349162
O O10 0.336078 0.605827 0.290124
O O11 0.750000 0.545194 0.750000
O O12 0.670369 0.500000 0.000000
#
# Coordination Sequence:
#
# PCOD8221473 Si02
#       6
#     8   4   4   8   8   8
#     4  10  22  40  61  85 116 156 197 245 300 352
#     4  10  22  38  60  88 114 152 200 244 306 352
#     4  10  23  38  60  86 117 150 198 256 292 354
#     4  10  23  39  60  91 122 160 201 241 296 357
#     4  10  21  39  60  85 121 154 196 244 296 354
#     4  10  22  36  59  87 121 159 197 245 292 356
#
# _framework density 19.672965999999999
#
# number of rings (size 3 to 8) (size 9 to 14) (size 15 to 20)
#    0.000    2.000    1.000    0.900    5.600    6.000 
#    0.000    2.000    0.000    6.000    0.000    0.000 
#    0.000    0.000    0.000    0.000    0.000    0.000 
#
# Total GULP energy -495728.886951 kJ/mol
# GULP energy per Si atom -12393.222174 kJ/mol
# Density = 1.962819 g / cm^3
# Si number density = 19.672966 Si / 1000 Ang^3
#
#
#
# Elastic Constant Matrix: (Units=GPa)
#
#
# Indices 1 2 3 4 5 6 
#
# 1 158.9385 53.1638 14.4466 0.0000 0.0000 0.0000
# 2 53.1638 84.9623 2.8006 0.0000 0.0000 0.0000
# 3 14.4466 2.8006 39.6525 0.0000 0.0000 0.0000
# 4 0.0000 0.0000 0.0000 14.4277 0.0000 0.0000
# 5 0.0000 0.0000 0.0000 0.0000 26.2051 0.0000
# 6 0.0000 0.0000 0.0000 0.0000 0.0000 57.0409
#
#
#
# Elastic Compliance Matrix: (Units=1/GPa)
#
#
# Indices 1 2 3 4 5 6 
#
# 1 0.008224 -0.005059 -0.002639 0.000000 0.000000 0.000000
# 2 -0.005059 0.014909 0.000790 0.000000 0.000000 0.000000
# 3 -0.002639 0.000790 0.026125 0.000000 0.000000 0.000000
# 4 0.000000 0.000000 0.000000 0.069311 0.000000 0.000000
# 5 0.000000 0.000000 0.000000 0.000000 0.038160 0.000000
# 6 0.000000 0.000000 0.000000 0.000000 0.000000 0.017531
#
#
# Mechanical properties :
#
#
# Convention : Reuss Voigt Hill
#
# Bulk Modulus (GPa) = 28.21469 47.15281 37.68375
# Shear Modulus (GPa) = 25.01369 33.74423 29.37896
#
# Velocity S-wave (km/s) = 3.56964 4.14606 3.86860
# Velocity P-wave (km/s) = 5.60025 6.85129 6.25711
#
# Compressibility (1/GPa) = 0.03544254
#
# Stress axis : x y z
#
# Youngs Moduli (GPa) = 121.59879 67.07176 38.27789
#
# Poissons Ratio (x) = 0.33931 0.10101
# Poissons Ratio (y) = 0.61516 -0.03024
# Poissons Ratio (z) = 0.32088 -0.05299
#
# Static dielectric constant tensor:
#      x y z
#    x 3.953010 0.000000 0.000000 
#    y 0.000000 4.119040 0.000000 
#    z 0.000000 0.000000 3.328720 
# 
# 
# High freq. dielectric constant tensor:
#      x y z
#    x 1.789050 0.000000 0.000000 
#    y 0.000000 1.775830 0.000000 
#    z 0.000000 0.000000 1.750150 
# 
# From -- ./inp_files/10813.got.cif
#   From: 2010.03.12/outbox.cif.g09.slc.cpg/sg53_6_cif.got.tgz:10813.got - 2010.04.16 14:36:59.
