data_PCOD8221074
_publ_section_title
;
Structure prediction by ZEFSAII (Michael W. Deem and Ramdas Pophale) SiO2 
 PCOD8221074
Probable space group: P M N A
;
_chemical_formula_sum "Si O2"
_cell_formula_units_Z 64
_cell_length_a 16.556391
_cell_length_b 20.717898
_cell_length_c 9.419807
_cell_angle_alpha 90.000000
_cell_angle_beta 90.000000
_cell_angle_gamma 90.000000
_cell_volume 3231.122099
_symmetry_space_group_name_H-M "P M N A"
_symmetry_group_IT_number 53
_symmetry_cell_setting 'orthorhombic'
loop_
_space_group_symop_operation_xyz
x,y,z
1/2-x,-y,1/2+z
x,-y,-z
1/2-x,y,1/2-z
-x,-y,-z
1/2+x,y,1/2-z
-x,y,z
1/2+x,-y,1/2+z
loop_
_atom_site_type_symbol
_atom_site_label
_atom_site_fract_x
_atom_site_fract_y
_atom_site_fract_z
Si Si1 0.594824 0.360520 0.642509
Si Si2 0.095924 0.894195 0.375228
Si Si3 0.092832 0.001258 0.157478
Si Si4 0.831202 0.507380 0.167638
Si Si5 0.094221 0.751218 0.336630
Si Si6 0.339201 0.882201 0.811099
Si Si7 0.096124 0.253399 0.346981
Si Si8 0.904399 0.374436 0.171125
O O1 0.500000 0.350984 0.638262
O O2 0.613788 0.430893 0.706964
O O3 0.634973 0.300932 0.730243
O O4 0.630488 0.357922 0.484078
O O5 0.129813 0.948477 0.267371
O O6 0.111004 0.825735 0.295177
O O7 0.147831 0.897334 0.521026
O O8 0.000000 0.902204 0.412296
O O9 0.000000 0.982225 0.139912
O O10 0.101360 0.071789 0.223549
O O11 0.133651 0.000000 0.000000
O O12 0.750000 0.519534 0.250000
O O13 0.872418 0.442774 0.228409
O O14 0.817255 0.500000 0.000000
O O15 0.128530 0.739680 0.493589
O O16 0.000000 0.736605 0.338714
O O17 0.250000 0.896093 0.750000
O O18 0.363508 0.808953 0.774585
O O19 0.127163 0.317565 0.270799
O O20 0.000000 0.244565 0.338879
O O21 0.000000 0.378729 0.168957
#
# Coordination Sequence:
#
# PCOD8221074 Si02
#       8
#     8   8   8   8   8   8   8   8
#     4   9  17  32  54  77 101 130 170 217 262 308
#     4   9  18  36  60  81 106 142 180 219 269 322
#     4  10  21  36  57  84 109 137 180 231 273 315
#     4  10  21  35  50  72 104 140 173 207 254 313
#     4   8  15  29  52  80 103 128 166 212 258 305
#     4  11  22  35  53  78 109 147 182 214 261 321
#     4   9  18  34  54  76 104 136 175 220 264 311
#     4   9  18  33  55  78  99 130 172 220 266 305
#
# _framework density 19.807359999999999
#
# number of rings (size 3 to 8) (size 9 to 14) (size 15 to 20)
#    0.000    2.625    0.000    2.625    0.000    6.000 
#    0.000    7.500    0.000    4.500    0.000    0.000 
#    0.000    0.000    0.000    0.000    0.000    0.000 
#
# Total GULP energy -793228.009957 kJ/mol
# GULP energy per Si atom -12394.187656 kJ/mol
# Density = 1.976228 g / cm^3
# Si number density = 19.807360 Si / 1000 Ang^3
#
#
#
# Elastic Constant Matrix: (Units=GPa)
#
#
# Indices 1 2 3 4 5 6 
#
# 1 25.9478 6.8155 17.1229 0.0000 0.0000 0.0000
# 2 6.8155 95.6043 37.0844 0.0000 0.0000 0.0000
# 3 17.1229 37.0844 69.0175 0.0000 0.0000 0.0000
# 4 0.0000 0.0000 0.0000 41.2032 0.0000 0.0000
# 5 0.0000 0.0000 0.0000 0.0000 -2.1366 0.0000
# 6 0.0000 0.0000 0.0000 0.0000 0.0000 10.8806
#
#
#
# Elastic Compliance Matrix: (Units=1/GPa)
#
#
# Indices 1 2 3 4 5 6 
#
# 1 0.046244 0.001457 -0.012256 0.000000 0.000000 0.000000
# 2 0.001457 0.013260 -0.007486 0.000000 0.000000 0.000000
# 3 -0.012256 -0.007486 0.021552 0.000000 0.000000 0.000000
# 4 0.000000 0.000000 0.000000 0.024270 0.000000 0.000000
# 5 0.000000 0.000000 0.000000 0.000000 -0.468043 0.000000
# 6 0.000000 0.000000 0.000000 0.000000 0.000000 0.091907
#
#
# Mechanical properties :
#
#
# Convention : Reuss Voigt Hill
#
# Bulk Modulus (GPa) = 22.47898 34.73504 28.60701
# Shear Modulus (GPa) = -22.78820 18.62589 -2.08115
#
# Velocity S-wave (km/s) = -3.39557 3.06984 -1.02615
# Velocity P-wave (km/s) = 1.99994 5.48997 3.61525
#
# Compressibility (1/GPa) = 0.04448601
#
# Stress axis : x y z
#
# Youngs Moduli (GPa) = 21.62457 75.41609 46.39895
#
# Poissons Ratio (x) = -0.10991 0.56866
# Poissons Ratio (y) = -0.03151 0.34736
# Poissons Ratio (z) = 0.26503 0.56459
#
# Static dielectric constant tensor:
#      x y z
#    x 3.169490 0.000000 0.000000 
#    y 0.000000 3.902720 0.000000 
#    z 0.000000 0.000000 3.817460 
# 
# 
# High freq. dielectric constant tensor:
#      x y z
#    x 1.733510 0.000000 0.000000 
#    y 0.000000 1.791390 0.000000 
#    z 0.000000 0.000000 1.767290 
# 
# From -- ./inp_files/10225.got.cif
#   From: 2010.03.12/outbox.cif.g09.slc.cpg/sg53_6_cif.got.tgz:10225.got - 2010.04.16 14:36:59.
