data_PCOD8221124
_publ_section_title
;
Structure prediction by ZEFSAII (Michael W. Deem and Ramdas Pophale) SiO2 
 PCOD8221124
Probable space group: P M N A
;
_chemical_formula_sum "Si O2"
_cell_formula_units_Z 48
_cell_length_a 8.631540
_cell_length_b 31.103049
_cell_length_c 9.104126
_cell_angle_alpha 90.000000
_cell_angle_beta 90.000000
_cell_angle_gamma 90.000000
_cell_volume 2444.159321
_symmetry_space_group_name_H-M "P M N A"
_symmetry_group_IT_number 53
_symmetry_cell_setting 'orthorhombic'
loop_
_space_group_symop_operation_xyz
x,y,z
1/2-x,-y,1/2+z
x,-y,-z
1/2-x,y,1/2-z
-x,-y,-z
1/2+x,y,1/2-z
-x,y,z
1/2+x,-y,1/2+z
loop_
_atom_site_type_symbol
_atom_site_label
_atom_site_fract_x
_atom_site_fract_y
_atom_site_fract_z
Si Si1 0.182775 0.380352 0.410390
Si Si2 0.321205 0.543067 0.408160
Si Si3 0.318731 0.121471 0.910480
Si Si4 0.182743 0.698140 0.086182
Si Si5 0.318456 0.215377 0.910469
Si Si6 0.183468 0.041140 0.409963
O O1 0.250000 0.389306 0.250000
O O2 0.224722 0.419591 0.515381
O O3 0.252914 0.337183 0.476494
O O4 0.000000 0.375656 0.399353
O O5 0.302909 0.500000 0.500000
O O6 0.250000 0.534043 0.250000
O O7 0.500000 0.557225 0.394863
O O8 0.250000 0.116206 0.750000
O O9 0.500000 0.115125 0.891064
O O10 0.284224 0.168652 0.983512
O O11 0.249925 0.084638 0.015696
O O12 0.250000 0.692203 0.250000
O O13 0.232061 0.744205 0.014255
O O14 0.000000 0.694292 0.095616
O O15 0.250000 0.211567 0.750000
O O16 0.500000 0.225703 0.904511
O O17 0.250000 0.037156 0.250000
O O18 0.000000 0.042446 0.402030
O O19 0.242727 0.000000 0.500000
#
# Coordination Sequence:
#
# PCOD8221124 Si02
#       6
#     8   8   8   8   8   8
#     4  12  25  42  62  86 118 154 194 239 288 340
#     4  11  24  42  65  93 124 158 196 238 285 336
#     4   9  18  32  52  78 107 139 177 223 271 324
#     4  11  21  36  58  85 115 149 191 235 282 333
#     4   9  16  29  50  77 108 141 180 226 275 325
#     4  10  21  36  53  76 105 137 176 220 267 321
#
# _framework density 19.638656000000001
#
# number of rings (size 3 to 8) (size 9 to 14) (size 15 to 20)
#    0.000    1.667    0.000    6.500    0.000    4.333 
#    0.000    0.833    0.000    2.000    0.000    0.000 
#    0.000    0.000    0.000    0.000    0.000    0.000 
#
# Total GULP energy -595099.599823 kJ/mol
# GULP energy per Si atom -12397.908330 kJ/mol
# Density = 1.959396 g / cm^3
# Si number density = 19.638656 Si / 1000 Ang^3
#
#
#
# Elastic Constant Matrix: (Units=GPa)
#
#
# Indices 1 2 3 4 5 6 
#
# 1 119.0879 51.0987 38.5180 0.0000 0.0000 0.0000
# 2 51.0987 146.4394 52.9939 0.0000 0.0000 0.0000
# 3 38.5180 52.9939 109.4309 0.0000 0.0000 0.0000
# 4 0.0000 0.0000 0.0000 -6.6695 0.0000 0.0000
# 5 0.0000 0.0000 0.0000 0.0000 28.0072 0.0000
# 6 0.0000 0.0000 0.0000 0.0000 0.0000 1547.8712
#
#
#
# Elastic Compliance Matrix: (Units=1/GPa)
#
#
# Indices 1 2 3 4 5 6 
#
# 1 0.010329 -0.002775 -0.002292 0.000000 0.000000 0.000000
# 2 -0.002775 0.009025 -0.003394 0.000000 0.000000 0.000000
# 3 -0.002292 -0.003394 0.011588 0.000000 0.000000 0.000000
# 4 0.000000 0.000000 0.000000 -0.149936 0.000000 0.000000
# 5 0.000000 0.000000 0.000000 0.000000 0.035705 0.000000
# 6 0.000000 0.000000 0.000000 0.000000 0.000000 0.000646
#
#
# Mechanical properties :
#
#
# Convention : Reuss Voigt Hill
#
# Bulk Modulus (GPa) = 71.31940 73.35326 72.33633
# Shear Modulus (GPa) = -81.90489 329.33161 123.71336
#
# Velocity S-wave (km/s) = -6.46502 12.96378 7.94554
# Velocity P-wave (km/s) = 4.39704 16.17134 11.00405
#
# Compressibility (1/GPa) = 0.01402143
#
# Stress axis : x y z
#
# Youngs Moduli (GPa) = 96.81387 110.80060 86.29265
#
# Poissons Ratio (x) = 0.30745 0.19778
# Poissons Ratio (y) = 0.26864 0.29287
# Poissons Ratio (z) = 0.22189 0.37605
#
# Static dielectric constant tensor:
#      x y z
#    x 3.709580 0.000000 0.000000 
#    y 0.000000 4.505570 0.000000 
#    z 0.000000 0.000000 3.446540 
# 
# 
# High freq. dielectric constant tensor:
#      x y z
#    x 1.774090 0.000000 0.000000 
#    y 0.000000 1.793770 0.000000 
#    z 0.000000 0.000000 1.742350 
# 
# From -- ./inp_files/6602.got.cif
#   From: 2010.03.12/outbox.cif.g09.slc.cpg/sg53_4_cif.got.tgz:6602.got - 2010.04.16 14:36:59.
