data_PCOD8221051
_publ_section_title
;
Structure prediction by ZEFSAII (Michael W. Deem and Ramdas Pophale) SiO2 
 PCOD8221051
Probable space group: P M N A
;
_chemical_formula_sum "Si O2"
_cell_formula_units_Z 48
_cell_length_a 9.108805
_cell_length_b 17.011323
_cell_length_c 15.869091
_cell_angle_alpha 90.000000
_cell_angle_beta 90.000000
_cell_angle_gamma 90.000000
_cell_volume 2458.960465
_symmetry_space_group_name_H-M "P M N A"
_symmetry_group_IT_number 53
_symmetry_cell_setting 'orthorhombic'
loop_
_space_group_symop_operation_xyz
x,y,z
1/2-x,-y,1/2+z
x,-y,-z
1/2-x,y,1/2-z
-x,-y,-z
1/2+x,y,1/2-z
-x,y,z
1/2+x,-y,1/2+z
loop_
_atom_site_type_symbol
_atom_site_label
_atom_site_fract_x
_atom_site_fract_y
_atom_site_fract_z
Si Si1 0.326361 0.330734 0.337933
Si Si2 0.329009 0.150401 0.334435
Si Si3 0.341002 0.983927 0.905856
Si Si4 0.170529 0.684457 0.340027
Si Si5 0.169481 0.592505 0.504094
Si Si6 0.169823 0.143480 0.665363
O O1 0.250000 0.356894 0.250000
O O2 0.500000 0.345273 0.329094
O O3 0.289219 0.239706 0.356926
O O4 0.264198 0.378470 0.416695
O O5 0.250000 0.122372 0.250000
O O6 0.500000 0.138362 0.324096
O O7 0.267197 0.090568 0.403729
O O8 0.500000 0.966435 0.861071
O O9 0.261498 0.064318 0.874043
O O10 0.380656 0.000000 0.000000
O O11 0.250000 0.668881 0.250000
O O12 0.227724 0.627168 0.414688
O O13 0.193024 0.772311 0.380804
O O14 0.000000 0.668807 0.320991
O O15 0.188904 0.500000 0.500000
O O16 0.000000 0.617079 0.518389
O O17 0.250000 0.161433 0.750000
O O18 0.000000 0.126132 0.679571
#
# Coordination Sequence:
#
# PCOD8221051 Si02
#       6
#     8   8   8   8   8   8
#     4  10  22  40  62  88 117 155 198 241 292 348
#     4  10  21  37  56  79 108 145 190 235 284 335
#     4  10  21  33  50  78 110 145 186 227 277 334
#     4   9  19  36  58  82 113 150 188 232 282 338
#     4  10  22  39  61  90 120 151 189 237 294 352
#     4   9  18  33  51  74 101 139 183 222 269 323
#
# _framework density 19.520444000000001
#
# number of rings (size 3 to 8) (size 9 to 14) (size 15 to 20)
#    0.000    2.333    0.000    1.500    2.333    6.000 
#    0.000    1.667    0.000    0.000    0.000    0.000 
#    0.000    0.000    0.000    0.000    0.000    0.000 
#
# Total GULP energy -594673.380295 kJ/mol
# GULP energy per Si atom -12389.028756 kJ/mol
# Density = 1.947601 g / cm^3
# Si number density = 19.520444 Si / 1000 Ang^3
#
#
#
# Elastic Constant Matrix: (Units=GPa)
#
#
# Indices 1 2 3 4 5 6 
#
# 1 71.8937 45.0842 45.3544 0.0000 0.0000 0.0000
# 2 45.0842 106.0753 52.9998 0.0000 0.0000 0.0000
# 3 45.3544 52.9998 107.4034 0.0000 0.0000 0.0000
# 4 0.0000 0.0000 0.0000 35.4129 0.0000 0.0000
# 5 0.0000 0.0000 0.0000 0.0000 30.0362 0.0000
# 6 0.0000 0.0000 0.0000 0.0000 0.0000 39.4842
#
#
#
# Elastic Compliance Matrix: (Units=1/GPa)
#
#
# Indices 1 2 3 4 5 6 
#
# 1 0.021602 -0.006136 -0.006094 0.000000 0.000000 0.000000
# 2 -0.006136 0.014255 -0.004443 0.000000 0.000000 0.000000
# 3 -0.006094 -0.004443 0.014077 0.000000 0.000000 0.000000
# 4 0.000000 0.000000 0.000000 0.028238 0.000000 0.000000
# 5 0.000000 0.000000 0.000000 0.000000 0.033293 0.000000
# 6 0.000000 0.000000 0.000000 0.000000 0.000000 0.025327
#
#
# Mechanical properties :
#
#
# Convention : Reuss Voigt Hill
#
# Bulk Modulus (GPa) = 60.28935 63.58326 61.93631
# Shear Modulus (GPa) = 28.46272 30.44893 29.45583
#
# Velocity S-wave (km/s) = 3.82265 3.95378 3.88876
# Velocity P-wave (km/s) = 7.10182 7.31345 7.20841
#
# Compressibility (1/GPa) = 0.01658668
#
# Stress axis : x y z
#
# Youngs Moduli (GPa) = 46.29204 70.14872 71.03972
#
# Poissons Ratio (x) = 0.43047 0.43291
# Poissons Ratio (y) = 0.28407 0.31565
# Poissons Ratio (z) = 0.28210 0.31169
#
# Static dielectric constant tensor:
#      x y z
#    x 3.601420 0.000000 0.000000 
#    y 0.000000 5.176680 0.000000 
#    z 0.000000 0.000000 3.414770 
# 
# 
# High freq. dielectric constant tensor:
#      x y z
#    x 1.754630 0.000000 0.000000 
#    y 0.000000 1.770770 0.000000 
#    z 0.000000 0.000000 1.749840 
# 
# From -- ./inp_files/20186.got.cif
#   From: 2010.03.12/outbox.cif.g09.slc.cpg/sg53_11_cif.got.tgz:20186.got - 2010.04.16 14:36:59.
