data_PCOD8221030
_publ_section_title
;
Structure prediction by ZEFSAII (Michael W. Deem and Ramdas Pophale) SiO2 
 PCOD8221030
Probable space group: P M N A
;
_chemical_formula_sum "Si O2"
_cell_formula_units_Z 48
_cell_length_a 8.842742
_cell_length_b 14.857085
_cell_length_c 18.993392
_cell_angle_alpha 90.000000
_cell_angle_beta 90.000000
_cell_angle_gamma 90.000000
_cell_volume 2495.301879
_symmetry_space_group_name_H-M "P M N A"
_symmetry_group_IT_number 53
_symmetry_cell_setting 'orthorhombic'
loop_
_space_group_symop_operation_xyz
x,y,z
1/2-x,-y,1/2+z
x,-y,-z
1/2-x,y,1/2-z
-x,-y,-z
1/2+x,y,1/2-z
-x,y,z
1/2+x,-y,1/2+z
loop_
_atom_site_type_symbol
_atom_site_label
_atom_site_fract_x
_atom_site_fract_y
_atom_site_fract_z
Si Si1 0.823269 0.964188 0.076566
Si Si2 0.823157 0.870958 0.825646
Si Si3 0.673898 0.519815 0.921011
Si Si4 0.673420 0.728291 0.922523
Si Si5 0.678457 0.374959 0.673741
Si Si6 0.821769 0.224373 0.579396
O O1 0.724543 0.877617 0.095252
O O2 0.000000 0.939469 0.079792
O O3 0.776641 0.039701 0.132437
O O4 0.777864 0.000000 0.000000
O O5 0.750000 0.874693 0.750000
O O6 0.771636 0.783090 0.867382
O O7 0.000000 0.864173 0.815786
O O8 0.500000 0.488364 0.912391
O O9 0.693851 0.624252 0.903480
O O10 0.777934 0.464868 0.868052
O O11 0.728763 0.500000 0.000000
O O12 0.500000 0.758829 0.915781
O O13 0.731810 0.747414 0.001380
O O14 0.750000 0.380359 0.750000
O O15 0.500000 0.368951 0.680843
O O16 0.737994 0.286670 0.634951
O O17 0.000000 0.237064 0.588562
#
# Coordination Sequence:
#
# PCOD8221030 Si02
#       6
#     8   8   8   8   8   8
#     4  10  21  39  62  91 124 162 207 258 307 362
#     4  11  24  41  62  88 126 163 203 256 311 367
#     4  10  20  40  66  93 126 162 204 254 306 367
#     4  10  21  38  64  93 124 162 205 251 304 365
#     4  12  26  43  64  92 128 166 208 258 313 371
#     4  11  22  39  65  95 125 163 207 255 310 371
#
# _framework density 19.236149999999999
#
# number of rings (size 3 to 8) (size 9 to 14) (size 15 to 20)
#    0.000    1.333    3.333    2.500    0.000    4.667 
#    0.000    1.667    0.000    0.000    0.000    0.000 
#    0.000    0.000    0.000    0.000    0.000    0.000 
#
# Total GULP energy -595512.129803 kJ/mol
# GULP energy per Si atom -12406.502704 kJ/mol
# Density = 1.919237 g / cm^3
# Si number density = 19.236150 Si / 1000 Ang^3
#
#
#
# Elastic Constant Matrix: (Units=GPa)
#
#
# Indices 1 2 3 4 5 6 
#
# 1 98.8823 60.3465 72.6688 0.0000 0.0000 0.0000
# 2 60.3465 128.2020 70.6830 0.0000 0.0000 0.0000
# 3 72.6688 70.6830 166.6128 0.0000 0.0000 0.0000
# 4 0.0000 0.0000 0.0000 28.1440 0.0000 0.0000
# 5 0.0000 0.0000 0.0000 0.0000 34.1265 0.0000
# 6 0.0000 0.0000 0.0000 0.0000 0.0000 36.2948
#
#
#
# Elastic Compliance Matrix: (Units=1/GPa)
#
#
# Indices 1 2 3 4 5 6 
#
# 1 0.017148 -0.005154 -0.005293 0.000000 0.000000 0.000000
# 2 -0.005154 0.011731 -0.002729 0.000000 0.000000 0.000000
# 3 -0.005293 -0.002729 0.009468 0.000000 0.000000 0.000000
# 4 0.000000 0.000000 0.000000 0.035532 0.000000 0.000000
# 5 0.000000 0.000000 0.000000 0.000000 0.029303 0.000000
# 6 0.000000 0.000000 0.000000 0.000000 0.000000 0.027552
#
#
# Mechanical properties :
#
#
# Convention : Reuss Voigt Hill
#
# Bulk Modulus (GPa) = 83.35978 89.01040 86.18509
# Shear Modulus (GPa) = 31.04013 32.37966 31.70990
#
# Velocity S-wave (km/s) = 4.02137 4.10722 4.06452
# Velocity P-wave (km/s) = 8.06169 8.29851 8.18096
#
# Compressibility (1/GPa) = 0.01199619
#
# Stress axis : x y z
#
# Youngs Moduli (GPa) = 58.31627 85.24754 105.61870
#
# Poissons Ratio (x) = 0.43933 0.55901
# Poissons Ratio (y) = 0.30054 0.28821
# Poissons Ratio (z) = 0.30865 0.23262
#
# Static dielectric constant tensor:
#      x y z
#    x 3.508090 0.000000 0.000000 
#    y 0.000000 3.527200 0.000000 
#    z 0.000000 0.000000 3.587360 
# 
# 
# High freq. dielectric constant tensor:
#      x y z
#    x 1.749520 0.000000 0.000000 
#    y 0.000000 1.763240 0.000000 
#    z 0.000000 0.000000 1.752420 
# 
# From -- ./inp_files/26154.got.cif
#   From: 2010.03.12/outbox.cif.g09.slc.cpg/sg53_14_cif.got.tgz:26154.got - 2010.04.16 14:36:59.
