data_PCOD8221299
_publ_section_title
;
Structure prediction by ZEFSAII (Michael W. Deem and Ramdas Pophale) SiO2 
 PCOD8221299
Probable space group: P M N A
;
_chemical_formula_sum "Si O2"
_cell_formula_units_Z 48
_cell_length_a 26.627069
_cell_length_b 9.883287
_cell_length_c 8.474506
_cell_angle_alpha 90.000000
_cell_angle_beta 90.000000
_cell_angle_gamma 90.000000
_cell_volume 2230.176125
_symmetry_space_group_name_H-M "P M N A"
_symmetry_group_IT_number 53
_symmetry_cell_setting 'orthorhombic'
loop_
_space_group_symop_operation_xyz
x,y,z
1/2-x,-y,1/2+z
x,-y,-z
1/2-x,y,1/2-z
-x,-y,-z
1/2+x,y,1/2-z
-x,y,z
1/2+x,-y,1/2+z
loop_
_atom_site_type_symbol
_atom_site_label
_atom_site_fract_x
_atom_site_fract_y
_atom_site_fract_z
Si Si1 0.059721 0.799568 0.857298
Si Si2 0.398674 0.950299 0.177893
Si Si3 0.295917 0.085574 0.651279
Si Si4 0.443482 0.442924 0.157353
Si Si5 0.295046 0.609615 0.362441
Si Si6 0.905873 0.684021 0.183155
O O1 0.073646 0.949508 0.800511
O O2 0.079825 0.696225 0.722666
O O3 0.000000 0.788357 0.888120
O O4 0.090152 0.755735 0.012902
O O5 0.341684 0.925135 0.227963
O O6 0.422578 0.800096 0.191215
O O7 0.404118 0.000000 0.000000
O O8 0.250000 0.024224 0.750000
O O9 0.282546 0.236097 0.586976
O O10 0.309125 0.000000 0.500000
O O11 0.500000 0.408124 0.110622
O O12 0.442800 0.557271 0.294528
O O13 0.415141 0.500000 0.000000
O O14 0.297709 0.500000 0.500000
O O15 0.250000 0.558093 0.250000
O O16 0.350320 0.621241 0.284067
#
# Coordination Sequence:
#
# PCOD8221299 Si02
#       6
#     8   8   8   8   8   8
#     4  11  23  39  62  90 121 163 210 257 314 375
#     4  11  23  39  59  86 121 159 202 258 318 373
#     4  10  21  39  62  88 119 157 203 251 304 369
#     4  10  21  37  58  86 118 153 196 245 299 361
#     4  10  22  39  58  85 117 150 192 240 293 355
#     4  11  22  39  61  85 118 157 202 252 303 369
#
# _framework density 21.522964000000002
#
# number of rings (size 3 to 8) (size 9 to 14) (size 15 to 20)
#    0.000    1.500    0.000    6.000    0.000    5.000 
#    0.000    6.667    0.000    0.000    0.000    0.000 
#    0.000    0.000    0.000    0.000    0.000    0.000 
#
# Total GULP energy -594813.963012 kJ/mol
# GULP energy per Si atom -12391.957563 kJ/mol
# Density = 2.147398 g / cm^3
# Si number density = 21.522964 Si / 1000 Ang^3
#
#
#
# Elastic Constant Matrix: (Units=GPa)
#
#
# Indices 1 2 3 4 5 6 
#
# 1 66.4960 18.2779 13.8614 0.0000 0.0000 0.0000
# 2 18.2779 102.3634 22.7996 0.0000 0.0000 0.0000
# 3 13.8614 22.7996 81.3312 0.0000 0.0000 0.0000
# 4 0.0000 0.0000 0.0000 43.1493 0.0000 0.0000
# 5 0.0000 0.0000 0.0000 0.0000 27.7812 0.0000
# 6 0.0000 0.0000 0.0000 0.0000 0.0000 29.8096
#
#
#
# Elastic Compliance Matrix: (Units=1/GPa)
#
#
# Indices 1 2 3 4 5 6 
#
# 1 0.016135 -0.002420 -0.002072 0.000000 0.000000 0.000000
# 2 -0.002420 0.010783 -0.002610 0.000000 0.000000 0.000000
# 3 -0.002072 -0.002610 0.013380 0.000000 0.000000 0.000000
# 4 0.000000 0.000000 0.000000 0.023175 0.000000 0.000000
# 5 0.000000 0.000000 0.000000 0.000000 0.035996 0.000000
# 6 0.000000 0.000000 0.000000 0.000000 0.000000 0.033546
#
#
# Mechanical properties :
#
#
# Convention : Reuss Voigt Hill
#
# Bulk Modulus (GPa) = 38.32161 40.00758 39.16460
# Shear Modulus (GPa) = 32.06835 33.16481 32.61658
#
# Velocity S-wave (km/s) = 3.86419 3.92969 3.89708
# Velocity P-wave (km/s) = 6.14434 6.26248 6.20369
#
# Compressibility (1/GPa) = 0.02609494
#
# Stress axis : x y z
#
# Youngs Moduli (GPa) = 61.97535 92.74231 74.73722
#
# Poissons Ratio (x) = 0.22441 0.15483
# Poissons Ratio (y) = 0.14996 0.19509
# Poissons Ratio (z) = 0.12839 0.24208
#
# Static dielectric constant tensor:
#      x y z
#    x 3.838970 0.000000 0.000000 
#    y 0.000000 4.206370 0.000000 
#    z 0.000000 0.000000 3.825920 
# 
# 
# High freq. dielectric constant tensor:
#      x y z
#    x 1.835820 0.000000 0.000000 
#    y 0.000000 1.865330 0.000000 
#    z 0.000000 0.000000 1.835820 
# 
# From -- ./inp_files/12994.got.cif
#   From: 2010.03.12/outbox.cif.g09.slc.cpg/sg53_7_cif.got.tgz:12994.got - 2010.04.16 14:36:59.
