data_PCOD8221771
_publ_section_title
;
Structure prediction by ZEFSAII (Michael W. Deem and Ramdas Pophale) SiO2 
 PCOD8221771
Probable space group: P M N A
;
_chemical_formula_sum "Si O2"
_cell_formula_units_Z 56
_cell_length_a 14.927530
_cell_length_b 8.932351
_cell_length_c 20.092960
_cell_angle_alpha 90.000000
_cell_angle_beta 90.000000
_cell_angle_gamma 90.000000
_cell_volume 2679.153845
_symmetry_space_group_name_H-M "P M N A"
_symmetry_group_IT_number 53
_symmetry_cell_setting 'orthorhombic'
loop_
_space_group_symop_operation_xyz
x,y,z
1/2-x,-y,1/2+z
x,-y,-z
1/2-x,y,1/2-z
-x,-y,-z
1/2+x,y,1/2-z
-x,y,z
1/2+x,-y,1/2+z
loop_
_atom_site_type_symbol
_atom_site_label
_atom_site_fract_x
_atom_site_fract_y
_atom_site_fract_z
Si Si1 0.397056 0.664420 0.525766
Si Si2 0.246938 0.003945 0.325119
Si Si3 0.160778 0.389763 0.780017
Si Si4 0.234705 0.662550 0.854510
Si Si5 0.603264 0.826613 0.391210
Si Si6 0.595855 0.775870 0.158794
Si Si7 0.898060 0.501021 0.424131
O O1 0.373723 0.500000 0.500000
O O2 0.500000 0.672096 0.549800
O O3 0.332955 0.702141 0.586443
O O4 0.379575 0.787235 0.468202
O O5 0.250000 0.948017 0.250000
O O6 0.337217 0.965250 0.366238
O O7 0.164729 0.909520 0.353572
O O8 0.231653 0.180896 0.325165
O O9 0.250000 0.312987 0.750000
O O10 0.182297 0.564569 0.797558
O O11 0.129865 0.320375 0.849579
O O12 0.093736 0.344262 0.721030
O O13 0.325362 0.582409 0.878393
O O14 0.500000 0.869669 0.379075
O O15 0.500000 0.857431 0.162279
O O16 0.604686 0.675416 0.093545
O O17 0.866269 0.500000 0.500000
O O18 0.000000 0.435893 0.415211
#
# Coordination Sequence:
#
# PCOD8221771 Si02
#       7
#     8   8   8   8   8   8   8
#     4  10  22  40  66  98 127 164 217 265 318 384
#     4  12  26  42  59  94 135 170 207 254 321 389
#     4  12  20  38  65  95 120 159 217 260 305 375
#     4  12  25  39  66  94 137 166 203 269 328 377
#     4  11  22  41  67  92 125 168 212 262 314 383
#     4  11  23  43  69  90 122 172 219 263 315 380
#     4  10  23  43  68  96 122 161 220 274 314 365
#
# _framework density 20.90212
#
# number of rings (size 3 to 8) (size 9 to 14) (size 15 to 20)
#    0.000    0.857    5.714    1.286    2.000    2.286 
#    0.000    1.429    0.000    2.571    0.000    0.000 
#    0.000    0.000    0.000    0.000    0.000    0.000 
#
# Total GULP energy -693914.332481 kJ/mol
# GULP energy per Si atom -12391.327366 kJ/mol
# Density = 2.085455 g / cm^3
# Si number density = 20.902120 Si / 1000 Ang^3
#
#
#
# Elastic Constant Matrix: (Units=GPa)
#
#
# Indices 1 2 3 4 5 6 
#
# 1 119.6882 38.0545 15.5452 0.0000 0.0000 0.0000
# 2 38.0545 109.2432 8.8417 0.0000 0.0000 0.0000
# 3 15.5452 8.8417 45.8506 0.0000 0.0000 0.0000
# 4 0.0000 0.0000 0.0000 14.3117 0.0000 0.0000
# 5 0.0000 0.0000 0.0000 0.0000 24.9892 0.0000
# 6 0.0000 0.0000 0.0000 0.0000 0.0000 5.3031
#
#
#
# Elastic Compliance Matrix: (Units=1/GPa)
#
#
# Indices 1 2 3 4 5 6 
#
# 1 0.009710 -0.003165 -0.002682 0.000000 0.000000 0.000000
# 2 -0.003165 0.010331 -0.000919 0.000000 0.000000 0.000000
# 3 -0.002682 -0.000919 0.022896 0.000000 0.000000 0.000000
# 4 0.000000 0.000000 0.000000 0.069873 0.000000 0.000000
# 5 0.000000 0.000000 0.000000 0.000000 0.040017 0.000000
# 6 0.000000 0.000000 0.000000 0.000000 0.000000 0.188569
#
#
# Mechanical properties :
#
#
# Convention : Reuss Voigt Hill
#
# Bulk Modulus (GPa) = 34.00766 44.40719 39.20742
# Shear Modulus (GPa) = 13.70880 23.07686 18.39283
#
# Velocity S-wave (km/s) = 2.56375 3.32632 2.96961
# Velocity P-wave (km/s) = 5.00690 6.00366 5.52779
#
# Compressibility (1/GPa) = 0.02940514
#
# Stress axis : x y z
#
# Youngs Moduli (GPa) = 102.98945 96.79706 43.67510
#
# Poissons Ratio (x) = 0.30639 0.11712
# Poissons Ratio (y) = 0.32599 0.04014
# Poissons Ratio (z) = 0.27618 0.08896
#
# Static dielectric constant tensor:
#      x y z
#    x 3.941240 0.000000 0.000000 
#    y 0.000000 3.498760 0.000000 
#    z 0.000000 0.000000 3.751690 
# 
# 
# High freq. dielectric constant tensor:
#      x y z
#    x 1.827590 0.000000 0.000000 
#    y 0.000000 1.802110 0.000000 
#    z 0.000000 0.000000 1.823550 
# 
# From -- ./inp_files/32460.got.cif
#   From: 2010.03.12/outbox.cif.g09.slc.cpg/sg53_17_cif.got.tgz:32460.got - 2010.04.16 14:36:59.
