data_PCOD8221090
_publ_section_title
;
Structure prediction by ZEFSAII (Michael W. Deem and Ramdas Pophale) SiO2 
 PCOD8221090
Probable space group: P M N A
;
_chemical_formula_sum "Si O2"
_cell_formula_units_Z 48
_cell_length_a 9.969289
_cell_length_b 29.063891
_cell_length_c 8.699067
_cell_angle_alpha 90.000000
_cell_angle_beta 90.000000
_cell_angle_gamma 90.000000
_cell_volume 2520.522728
_symmetry_space_group_name_H-M "P M N A"
_symmetry_group_IT_number 53
_symmetry_cell_setting 'orthorhombic'
loop_
_space_group_symop_operation_xyz
x,y,z
1/2-x,-y,1/2+z
x,-y,-z
1/2-x,y,1/2-z
-x,-y,-z
1/2+x,y,1/2-z
-x,y,z
1/2+x,-y,1/2+z
loop_
_atom_site_type_symbol
_atom_site_label
_atom_site_fract_x
_atom_site_fract_y
_atom_site_fract_z
Si Si1 0.500000 0.950516 0.070785
Si Si2 0.842305 0.810171 0.398861
Si Si3 0.500000 0.051871 0.563751
Si Si4 0.348034 0.727436 0.886078
Si Si5 0.848973 0.542459 0.387463
Si Si6 0.245097 0.102550 0.432246
Si Si7 0.653927 0.377403 0.111949
O O1 0.500000 0.951592 0.253771
O O2 0.371153 0.925873 0.008452
O O3 0.500000 0.000000 0.000000
O O4 0.750000 0.815216 0.250000
O O5 0.825688 0.758902 0.464838
O O6 0.781420 0.844345 0.526507
O O7 0.000000 0.821013 0.362748
O O8 0.377086 0.081861 0.506052
O O9 0.500000 0.000000 0.500000
O O10 0.250000 0.743035 0.750000
O O11 0.500000 0.732760 0.824230
O O12 0.318354 0.675184 0.937748
O O13 0.831653 0.500000 0.500000
O O14 0.750000 0.533788 0.250000
O O15 0.811130 0.590377 0.468767
O O16 0.000000 0.544737 0.323206
O O17 0.250000 0.096833 0.250000
O O18 0.750000 0.392213 0.250000
O O19 0.500000 0.384676 0.164844
#
# Coordination Sequence:
#
# PCOD8221090 Si02
#       7
#     4   8   4   8   8   8   8
#     4  12  24  44  66  92 128 158 198 242 289 348
#     4  11  24  41  61  88 121 156 195 244 296 350
#     4  12  26  44  68  96 124 162 198 242 293 346
#     4   9  19  37  59  85 117 152 195 241 292 350
#     4  10  21  35  52  78 111 148 192 242 295 352
#     4  12  25  43  65  92 122 159 200 243 293 349
#     4   9  18  34  56  81 112 150 191 241 292 348
#
# _framework density 19.043668
#
# number of rings (size 3 to 8) (size 9 to 14) (size 15 to 20)
#    0.000    1.500    0.833    4.500    1.167    2.333 
#    0.000    0.000    0.000    0.000    0.000    0.000 
#    0.000    0.000    0.000    0.000    0.000    0.000 
#
# Total GULP energy -595236.068069 kJ/mol
# GULP energy per Si atom -12400.751418 kJ/mol
# Density = 1.900032 g / cm^3
# Si number density = 19.043668 Si / 1000 Ang^3
#
#
#
# Elastic Constant Matrix: (Units=GPa)
#
#
# Indices 1 2 3 4 5 6 
#
# 1 123.7098 44.8010 61.1278 0.0000 0.0000 0.0000
# 2 44.8010 97.1440 41.3381 0.0000 0.0000 0.0000
# 3 61.1278 41.3381 133.4906 0.0000 0.0000 0.0000
# 4 0.0000 0.0000 0.0000 11.6471 0.0000 0.0000
# 5 0.0000 0.0000 0.0000 0.0000 37.5399 0.0000
# 6 0.0000 0.0000 0.0000 0.0000 0.0000 31.5715
#
#
#
# Elastic Compliance Matrix: (Units=1/GPa)
#
#
# Indices 1 2 3 4 5 6 
#
# 1 0.011392 -0.003494 -0.004134 0.000000 0.000000 0.000000
# 2 -0.003494 0.012928 -0.002403 0.000000 0.000000 0.000000
# 3 -0.004134 -0.002403 0.010129 0.000000 0.000000 0.000000
# 4 0.000000 0.000000 0.000000 0.085859 0.000000 0.000000
# 5 0.000000 0.000000 0.000000 0.000000 0.026638 0.000000
# 6 0.000000 0.000000 0.000000 0.000000 0.000000 0.031674
#
#
# Mechanical properties :
#
#
# Convention : Reuss Voigt Hill
#
# Bulk Modulus (GPa) = 69.51971 72.09759 70.80865
# Shear Modulus (GPa) = 24.57258 29.95685 27.26472
#
# Velocity S-wave (km/s) = 3.59601 3.97049 3.78788
# Velocity P-wave (km/s) = 7.33665 7.67860 7.50957
#
# Compressibility (1/GPa) = 0.01438441
#
# Stress axis : x y z
#
# Youngs Moduli (GPa) = 87.78233 77.35000 98.72985
#
# Poissons Ratio (x) = 0.27029 0.40819
# Poissons Ratio (y) = 0.30674 0.23728
# Poissons Ratio (z) = 0.36293 0.18590
#
# Static dielectric constant tensor:
#      x y z
#    x 3.715220 0.000000 0.000000 
#    y 0.000000 3.711200 0.000000 
#    z 0.000000 0.000000 3.460000 
# 
# 
# High freq. dielectric constant tensor:
#      x y z
#    x 1.756480 0.000000 0.000000 
#    y 0.000000 1.761450 0.000000 
#    z 0.000000 0.000000 1.732130 
# 
# From -- ./inp_files/6851.got.cif
#   From: 2010.03.12/outbox.cif.g09.slc.cpg/sg53_4_cif.got.tgz:6851.got - 2010.04.16 14:36:59.
