data_PCOD8221639
_publ_section_title
;
Structure prediction by ZEFSAII (Michael W. Deem and Ramdas Pophale) SiO2 
 PCOD8221639
Probable space group: P M N A
;
_chemical_formula_sum "Si O2"
_cell_formula_units_Z 64
_cell_length_a 16.033939
_cell_length_b 10.172964
_cell_length_c 20.515565
_cell_angle_alpha 90.000000
_cell_angle_beta 90.000000
_cell_angle_gamma 90.000000
_cell_volume 3346.348876
_symmetry_space_group_name_H-M "P M N A"
_symmetry_group_IT_number 53
_symmetry_cell_setting 'orthorhombic'
loop_
_space_group_symop_operation_xyz
x,y,z
1/2-x,-y,1/2+z
x,-y,-z
1/2-x,y,1/2-z
-x,-y,-z
1/2+x,y,1/2-z
-x,y,z
1/2+x,-y,1/2+z
loop_
_atom_site_type_symbol
_atom_site_label
_atom_site_fract_x
_atom_site_fract_y
_atom_site_fract_z
Si Si1 0.171476 0.965414 0.798238
Si Si2 0.711525 0.706057 0.122332
Si Si3 0.901227 0.182868 0.393643
Si Si4 0.825523 0.451941 0.796528
Si Si5 0.588767 0.352772 0.985097
Si Si6 0.905246 0.779942 0.260068
Si Si7 0.404440 0.714104 0.752636
Si Si8 0.238695 0.985224 0.424265
O O1 0.250000 0.950100 0.750000
O O2 0.105976 0.849556 0.785655
O O3 0.196216 0.948838 0.874158
O O4 0.125098 0.103093 0.786763
O O5 0.784669 0.597038 0.135097
O O6 0.647721 0.634591 0.075961
O O7 0.660581 0.768853 0.182044
O O8 0.747984 0.830488 0.085434
O O9 0.873119 0.275865 0.453163
O O10 0.874795 0.260423 0.327423
O O11 0.852449 0.045242 0.404910
O O12 0.000000 0.151592 0.391527
O O13 0.750000 0.415762 0.750000
O O14 0.903482 0.357301 0.780007
O O15 0.850837 0.603567 0.786015
O O16 0.500000 0.283913 0.966964
O O17 0.567787 0.500000 0.000000
O O18 0.000000 0.804995 0.284106
O O19 0.500000 0.668755 0.751638
O O20 0.261806 0.000000 0.500000
#
# Coordination Sequence:
#
# PCOD8221639 Si02
#       8
#     8   8   8   8   8   8   8   8
#     4  12  21  39  61  87 123 154 201 254 297 354
#     4  11  21  38  58  87 118 160 200 242 297 360
#     4  10  22  36  57  89 126 164 199 241 301 370
#     4  10  22  37  58  87 120 152 194 250 299 353
#     4  10  22  36  51  81 127 169 202 235 286 371
#     4  11  21  36  60  87 118 157 197 245 300 352
#     4  11  23  39  62  92 120 154 199 254 314 363
#     4  12  23  39  60  86 124 162 204 249 300 363
#
# _framework density 19.125322000000001
#
# number of rings (size 3 to 8) (size 9 to 14) (size 15 to 20)
#    0.000    1.125    5.000    1.875    3.500    2.250 
#    0.000    0.000    0.000    1.500    0.000    0.875 
#    0.000    0.000    0.000    0.000    0.000    0.000 
#
# Total GULP energy -792864.364024 kJ/mol
# GULP energy per Si atom -12388.505688 kJ/mol
# Density = 1.908179 g / cm^3
# Si number density = 19.125322 Si / 1000 Ang^3
#
#
#
# Elastic Constant Matrix: (Units=GPa)
#
#
# Indices 1 2 3 4 5 6 
#
# 1 47.4550 17.0561 31.8474 0.0000 0.0000 0.0000
# 2 17.0561 92.3820 33.5678 0.0000 0.0000 0.0000
# 3 31.8474 33.5678 114.9995 0.0000 0.0000 0.0000
# 4 0.0000 0.0000 0.0000 27.4217 0.0000 0.0000
# 5 0.0000 0.0000 0.0000 0.0000 134.8707 0.0000
# 6 0.0000 0.0000 0.0000 0.0000 0.0000 35.3451
#
#
#
# Elastic Compliance Matrix: (Units=1/GPa)
#
#
# Indices 1 2 3 4 5 6 
#
# 1 0.026381 -0.002479 -0.006582 0.000000 0.000000 0.000000
# 2 -0.002479 0.012342 -0.002916 0.000000 0.000000 0.000000
# 3 -0.006582 -0.002916 0.011370 0.000000 0.000000 0.000000
# 4 0.000000 0.000000 0.000000 0.036467 0.000000 0.000000
# 5 0.000000 0.000000 0.000000 0.000000 0.007415 0.000000
# 6 0.000000 0.000000 0.000000 0.000000 0.000000 0.028292
#
#
# Mechanical properties :
#
#
# Convention : Reuss Voigt Hill
#
# Bulk Modulus (GPa) = 38.25822 46.64215 42.45018
# Shear Modulus (GPa) = 32.27180 51.01850 41.64515
#
# Velocity S-wave (km/s) = 4.11224 5.17047 4.67142
# Velocity P-wave (km/s) = 6.52646 7.75149 7.16521
#
# Compressibility (1/GPa) = 0.02613818
#
# Stress axis : x y z
#
# Youngs Moduli (GPa) = 37.90618 81.02505 87.95291
#
# Poissons Ratio (x) = 0.20085 0.57893
# Poissons Ratio (y) = 0.09397 0.25647
# Poissons Ratio (z) = 0.24951 0.23627
#
# Static dielectric constant tensor:
#      x y z
#    x 3.568110 0.000000 0.000000 
#    y 0.000000 3.523300 0.000000 
#    z 0.000000 0.000000 3.786570 
# 
# 
# High freq. dielectric constant tensor:
#      x y z
#    x 1.726660 0.000000 0.000000 
#    y 0.000000 1.754700 0.000000 
#    z 0.000000 0.000000 1.727700 
# 
# From -- ./inp_files/32851.got.cif
#   From: 2010.03.12/outbox.cif.g09.slc.cpg/sg53_17_cif.got.tgz:32851.got - 2010.04.16 14:36:59.
