data_PCOD8221504
_publ_section_title
;
Structure prediction by ZEFSAII (Michael W. Deem and Ramdas Pophale) SiO2 
 PCOD8221504
Probable space group: P M N A
;
_chemical_formula_sum "Si O2"
_cell_formula_units_Z 32
_cell_length_a 16.632436
_cell_length_b 18.345309
_cell_length_c 5.083497
_cell_angle_alpha 90.000000
_cell_angle_beta 90.000000
_cell_angle_gamma 90.000000
_cell_volume 1551.113093
_symmetry_space_group_name_H-M "P M N A"
_symmetry_group_IT_number 53
_symmetry_cell_setting 'orthorhombic'
loop_
_space_group_symop_operation_xyz
x,y,z
1/2-x,-y,1/2+z
x,-y,-z
1/2-x,y,1/2-z
-x,-y,-z
1/2+x,y,1/2-z
-x,y,z
1/2+x,-y,1/2+z
loop_
_atom_site_type_symbol
_atom_site_label
_atom_site_fract_x
_atom_site_fract_y
_atom_site_fract_z
Si Si1 0.591772 0.713803 0.168487
Si Si2 0.842951 0.790819 0.812917
Si Si3 0.804685 0.582264 0.496210
Si Si4 0.844614 0.959759 0.755684
O O1 0.500000 0.704746 0.257419
O O2 0.639926 0.749208 0.412919
O O3 0.599081 0.765441 0.918688
O O4 0.621828 0.636301 0.054922
O O5 0.750000 0.774806 0.750000
O O6 0.863444 0.875766 0.811211
O O7 0.839205 0.500000 0.500000
O O8 0.750000 0.601304 0.750000
O O9 0.750000 0.593341 0.250000
O O10 0.750000 0.972655 0.750000
O O11 0.882329 0.000000 0.500000
O O12 0.885115 0.000000 0.000000
#
# Coordination Sequence:
#
# PCOD8221504 Si02
#       4
#     8   8   8   8
#     4  12  24  38  58  87 124 157 191 240 294 350
#     4  11  22  38  62  87 115 155 200 243 290 350
#     4  10  21  39  63  88 115 152 199 245 290 348
#     4   9  17  31  54  84 111 139 188 249 294 332
#
# _framework density 20.630344999999998
#
# number of rings (size 3 to 8) (size 9 to 14) (size 15 to 20)
#    0.000    1.500    0.000    6.750    0.000    4.500 
#    0.000    0.000    0.000   22.500    0.000    0.000 
#    0.000    0.000    0.000    0.000    0.000    0.000 
#
# Total GULP energy -396505.184918 kJ/mol
# GULP energy per Si atom -12390.787029 kJ/mol
# Density = 2.058339 g / cm^3
# Si number density = 20.630345 Si / 1000 Ang^3
#
#
#
# Elastic Constant Matrix: (Units=GPa)
#
#
# Indices 1 2 3 4 5 6 
#
# 1 77.9859 58.9146 30.8974 0.0000 0.0000 0.0000
# 2 58.9146 152.5703 83.1092 0.0000 0.0000 0.0000
# 3 30.8974 83.1092 175.7291 0.0000 0.0000 0.0000
# 4 0.0000 0.0000 0.0000 43.8095 0.0000 0.0000
# 5 0.0000 0.0000 0.0000 0.0000 24.5491 0.0000
# 6 0.0000 0.0000 0.0000 0.0000 0.0000 4.9962
#
#
#
# Elastic Compliance Matrix: (Units=1/GPa)
#
#
# Indices 1 2 3 4 5 6 
#
# 1 0.018108 -0.007083 0.000166 0.000000 0.000000 0.000000
# 2 -0.007083 0.011599 -0.004240 0.000000 0.000000 0.000000
# 3 0.000166 -0.004240 0.007667 0.000000 0.000000 0.000000
# 4 0.000000 0.000000 0.000000 0.022826 0.000000 0.000000
# 5 0.000000 0.000000 0.000000 0.000000 0.040735 0.000000
# 6 0.000000 0.000000 0.000000 0.000000 0.000000 0.200152
#
#
# Mechanical properties :
#
#
# Convention : Reuss Voigt Hill
#
# Bulk Modulus (GPa) = 66.40351 83.56975 74.98663
# Shear Modulus (GPa) = 15.22439 30.22857 22.72648
#
# Velocity S-wave (km/s) = 2.71949 3.83201 3.32264
# Velocity P-wave (km/s) = 6.48984 7.75726 7.15168
#
# Compressibility (1/GPa) = 0.01505944
#
# Stress axis : x y z
#
# Youngs Moduli (GPa) = 55.22521 86.21333 130.43145
#
# Poissons Ratio (x) = 0.61061 -0.02163
# Poissons Ratio (y) = 0.39114 0.55308
# Poissons Ratio (z) = -0.00916 0.36558
#
# Static dielectric constant tensor:
#      x y z
#    x 3.352390 0.000000 0.000000 
#    y 0.000000 3.547510 0.000000 
#    z 0.000000 0.000000 4.138470 
# 
# 
# High freq. dielectric constant tensor:
#      x y z
#    x 1.767050 0.000000 0.000000 
#    y 0.000000 1.828770 0.000000 
#    z 0.000000 0.000000 1.831640 
# 
# From -- ./inp_files/1177.got.cif
#   From: 2010.03.12/outbox.cif.g09.slc.cpg/sg53_1_cif.got.tgz:1177.got - 2010.04.16 14:36:59.
