data_PCOD8221217
_publ_section_title
;
Structure prediction by ZEFSAII (Michael W. Deem and Ramdas Pophale) SiO2 
 PCOD8221217
Probable space group: P M N A
;
_chemical_formula_sum "Si O2"
_cell_formula_units_Z 40
_cell_length_a 27.955254
_cell_length_b 4.947437
_cell_length_c 16.310674
_cell_angle_alpha 90.000000
_cell_angle_beta 90.000000
_cell_angle_gamma 90.000000
_cell_volume 2255.878073
_symmetry_space_group_name_H-M "P M N A"
_symmetry_group_IT_number 53
_symmetry_cell_setting 'orthorhombic'
loop_
_space_group_symop_operation_xyz
x,y,z
1/2-x,-y,1/2+z
x,-y,-z
1/2-x,y,1/2-z
-x,-y,-z
1/2+x,y,1/2-z
-x,y,z
1/2+x,-y,1/2+z
loop_
_atom_site_type_symbol
_atom_site_label
_atom_site_fract_x
_atom_site_fract_y
_atom_site_fract_z
Si Si1 0.946424 0.257011 0.442945
Si Si2 0.856340 0.175811 0.344749
Si Si3 0.816216 0.340503 0.577524
Si Si4 0.791092 0.536339 0.088895
Si Si5 0.201769 0.013392 0.197338
O O1 0.927810 0.500000 0.500000
O O2 0.912676 0.216419 0.363134
O O3 0.000000 0.315425 0.409594
O O4 0.945865 0.000000 0.500000
O O5 0.830226 0.467246 0.346480
O O6 0.844340 0.069936 0.254202
O O7 0.835906 0.963490 0.412506
O O8 0.839242 0.500000 0.500000
O O9 0.759588 0.322572 0.569654
O O10 0.786396 0.253881 0.135256
O O11 0.816962 0.753570 0.146880
O O12 0.816989 0.500000 0.000000
O O13 0.250000 0.949706 0.250000
#
# Coordination Sequence:
#
# PCOD8221217 Si02
#       5
#     8   8   8   8   8
#     4  10  21  37  53  73 104 137 171 211 254 302
#     4  12  21  31  51  72  98 131 171 212 251 294
#     4  11  20  30  46  70  98 132 172 204 238 296
#     4  11  22  36  49  67 100 141 171 202 250 301
#     4  12  21  35  49  73 103 130 170 219 252 291
#
# _framework density 17.731456000000001
#
# number of rings (size 3 to 8) (size 9 to 14) (size 15 to 20)
#    0.000    0.800    4.000    6.000    0.000    3.200 
#    0.000    0.000    0.000    0.000    0.000    0.000 
#    0.000    4.800    0.000    0.000    0.000    0.000 
#
# Total GULP energy -495861.638692 kJ/mol
# GULP energy per Si atom -12396.540967 kJ/mol
# Density = 1.769110 g / cm^3
# Si number density = 17.731456 Si / 1000 Ang^3
#
#
#
# Elastic Constant Matrix: (Units=GPa)
#
#
# Indices 1 2 3 4 5 6 
#
# 1 72.0921 5.7273 33.3116 0.0000 0.0000 0.0000
# 2 5.7273 80.6773 17.0115 0.0000 0.0000 0.0000
# 3 33.3116 17.0115 103.2687 0.0000 0.0000 0.0000
# 4 0.0000 0.0000 0.0000 32.1127 0.0000 0.0000
# 5 0.0000 0.0000 0.0000 0.0000 23.8404 0.0000
# 6 0.0000 0.0000 0.0000 0.0000 0.0000 14.7451
#
#
#
# Elastic Compliance Matrix: (Units=1/GPa)
#
#
# Indices 1 2 3 4 5 6 
#
# 1 0.016301 -0.000050 -0.005250 0.000000 0.000000 0.000000
# 2 -0.000050 0.012841 -0.002099 0.000000 0.000000 0.000000
# 3 -0.005250 -0.002099 0.011723 0.000000 0.000000 0.000000
# 4 0.000000 0.000000 0.000000 0.031140 0.000000 0.000000
# 5 0.000000 0.000000 0.000000 0.000000 0.041946 0.000000
# 6 0.000000 0.000000 0.000000 0.000000 0.000000 0.067819
#
#
# Mechanical properties :
#
#
# Convention : Reuss Voigt Hill
#
# Bulk Modulus (GPa) = 38.36366 40.90432 39.63399
# Shear Modulus (GPa) = 24.35964 27.47215 25.91590
#
# Velocity S-wave (km/s) = 3.71051 3.94044 3.82721
# Velocity P-wave (km/s) = 6.32773 6.61979 6.47541
#
# Compressibility (1/GPa) = 0.02606634
#
# Stress axis : x y z
#
# Youngs Moduli (GPa) = 61.34598 77.87403 85.30406
#
# Poissons Ratio (x) = 0.00391 0.44784
# Poissons Ratio (y) = 0.00308 0.17907
# Poissons Ratio (z) = 0.32206 0.16347
#
# Static dielectric constant tensor:
#      x y z
#    x 3.093220 0.000000 0.000000 
#    y 0.000000 3.568250 0.000000 
#    z 0.000000 0.000000 3.463920 
# 
# 
# High freq. dielectric constant tensor:
#      x y z
#    x 1.630930 0.000000 0.000000 
#    y 0.000000 1.717500 0.000000 
#    z 0.000000 0.000000 1.670700 
# 
# From -- ./inp_files/25035.got.cif
#   From: 2010.03.12/outbox.cif.g09.slc.cpg/sg53_13_cif.got.tgz:25035.got - 2010.04.16 14:36:59.
