data_PCOD8221749
_publ_section_title
;
Structure prediction by ZEFSAII (Michael W. Deem and Ramdas Pophale) SiO2 
 PCOD8221749
Probable space group: P M N A
;
_chemical_formula_sum "Si O2"
_cell_formula_units_Z 48
_cell_length_a 8.868271
_cell_length_b 16.570641
_cell_length_c 15.702166
_cell_angle_alpha 90.000000
_cell_angle_beta 90.000000
_cell_angle_gamma 90.000000
_cell_volume 2307.479380
_symmetry_space_group_name_H-M "P M N A"
_symmetry_group_IT_number 53
_symmetry_cell_setting 'orthorhombic'
loop_
_space_group_symop_operation_xyz
x,y,z
1/2-x,-y,1/2+z
x,-y,-z
1/2-x,y,1/2-z
-x,-y,-z
1/2+x,y,1/2-z
-x,y,z
1/2+x,-y,1/2+z
loop_
_atom_site_type_symbol
_atom_site_label
_atom_site_fract_x
_atom_site_fract_y
_atom_site_fract_z
Si Si1 0.173557 0.329135 0.335393
Si Si2 0.822590 0.592503 0.998601
Si Si3 0.826093 0.846709 0.414530
Si Si4 0.330760 0.846334 0.891006
Si Si5 0.821316 0.306002 0.837848
Si Si6 0.177445 0.005514 0.839303
O O1 0.250000 0.364152 0.250000
O O2 0.246943 0.365888 0.418649
O O3 0.195635 0.232725 0.334793
O O4 0.000000 0.354118 0.334382
O O5 0.769446 0.634465 0.086340
O O6 0.000000 0.601559 0.987214
O O7 0.770954 0.500000 0.000000
O O8 0.807955 0.819418 0.511727
O O9 0.739539 0.783794 0.354889
O O10 0.750349 0.934796 0.408335
O O11 0.000000 0.850542 0.386209
O O12 0.500000 0.881010 0.877285
O O13 0.211420 0.913231 0.863034
O O14 0.750000 0.338836 0.750000
O O15 0.000000 0.303042 0.828760
O O16 0.250000 0.029375 0.750000
O O17 0.000000 0.018100 0.836145
#
# Coordination Sequence:
#
# PCOD8221749 Si02
#       6
#     8   8   8   8   8   8
#     4  11  23  41  66  97 130 170 214 260 317 378
#     4  10  23  44  68  96 130 166 208 261 319 380
#     4  11  22  40  63  88 123 162 208 259 313 372
#     4  10  22  40  62  89 122 163 208 259 315 370
#     4  11  23  40  65  94 128 167 211 260 314 376
#     4  12  25  39  57  85 121 163 212 260 311 367
#
# _framework density 20.801919000000002
#
# number of rings (size 3 to 8) (size 9 to 14) (size 15 to 20)
#    0.000    1.167    1.667    4.500    0.000    7.667 
#    0.000    1.667    0.000    0.000    0.000    0.000 
#    0.000    0.000    0.000    0.000    0.000    0.000 
#
# Total GULP energy -595499.740709 kJ/mol
# GULP energy per Si atom -12406.244598 kJ/mol
# Density = 2.075457 g / cm^3
# Si number density = 20.801919 Si / 1000 Ang^3
#
#
#
# Elastic Constant Matrix: (Units=GPa)
#
#
# Indices 1 2 3 4 5 6 
#
# 1 90.6945 31.1317 51.3040 0.0000 0.0000 0.0000
# 2 31.1317 78.5181 29.2259 0.0000 0.0000 0.0000
# 3 51.3040 29.2259 128.1776 0.0000 0.0000 0.0000
# 4 0.0000 0.0000 0.0000 15.6252 0.0000 0.0000
# 5 0.0000 0.0000 0.0000 0.0000 36.4756 0.0000
# 6 0.0000 0.0000 0.0000 0.0000 0.0000 28.0060
#
#
#
# Elastic Compliance Matrix: (Units=1/GPa)
#
#
# Indices 1 2 3 4 5 6 
#
# 1 0.015407 -0.004167 -0.005217 0.000000 0.000000 0.000000
# 2 -0.004167 0.015044 -0.001762 0.000000 0.000000 0.000000
# 3 -0.005217 -0.001762 0.010292 0.000000 0.000000 0.000000
# 4 0.000000 0.000000 0.000000 0.063999 0.000000 0.000000
# 5 0.000000 0.000000 0.000000 0.000000 0.027416 0.000000
# 6 0.000000 0.000000 0.000000 0.000000 0.000000 0.035707
#
#
# Mechanical properties :
#
#
# Convention : Reuss Voigt Hill
#
# Bulk Modulus (GPa) = 54.19853 57.85704 56.02778
# Shear Modulus (GPa) = 25.47025 28.40325 26.93675
#
# Velocity S-wave (km/s) = 3.50297 3.69916 3.60240
# Velocity P-wave (km/s) = 6.51707 6.79108 6.65548
#
# Compressibility (1/GPa) = 0.01845069
#
# Stress axis : x y z
#
# Youngs Moduli (GPa) = 64.90361 66.47122 97.16695
#
# Poissons Ratio (x) = 0.27699 0.50690
# Poissons Ratio (y) = 0.27046 0.17124
# Poissons Ratio (z) = 0.33859 0.11714
#
# Static dielectric constant tensor:
#      x y z
#    x 3.776430 0.000000 0.000000 
#    y 0.000000 3.728390 0.000000 
#    z 0.000000 0.000000 3.860820 
# 
# 
# High freq. dielectric constant tensor:
#      x y z
#    x 1.819430 0.000000 0.000000 
#    y 0.000000 1.807990 0.000000 
#    z 0.000000 0.000000 1.829160 
# 
# From -- ./inp_files/20166.got.cif
#   From: 2010.03.12/outbox.cif.g09.slc.cpg/sg53_11_cif.got.tgz:20166.got - 2010.04.16 14:36:59.
