data_PCOD8221254
_publ_section_title
;
Structure prediction by ZEFSAII (Michael W. Deem and Ramdas Pophale) SiO2 
 PCOD8221254
Probable space group: P M N A
;
_chemical_formula_sum "Si O2"
_cell_formula_units_Z 48
_cell_length_a 8.476861
_cell_length_b 30.580929
_cell_length_c 9.348139
_cell_angle_alpha 90.000000
_cell_angle_beta 90.000000
_cell_angle_gamma 90.000000
_cell_volume 2423.320731
_symmetry_space_group_name_H-M "P M N A"
_symmetry_group_IT_number 53
_symmetry_cell_setting 'orthorhombic'
loop_
_space_group_symop_operation_xyz
x,y,z
1/2-x,-y,1/2+z
x,-y,-z
1/2-x,y,1/2-z
-x,-y,-z
1/2+x,y,1/2-z
-x,y,z
1/2+x,-y,1/2+z
loop_
_atom_site_type_symbol
_atom_site_label
_atom_site_fract_x
_atom_site_fract_y
_atom_site_fract_z
Si Si1 0.815263 0.706727 0.400760
Si Si2 0.185441 0.458322 0.406234
Si Si3 0.313125 0.041265 0.909903
Si Si4 0.813797 0.876670 0.591728
Si Si5 0.814646 0.800865 0.094436
Si Si6 0.685689 0.631393 0.590859
O O1 0.750000 0.689659 0.250000
O O2 0.729650 0.751390 0.445572
O O3 0.779890 0.669775 0.514908
O O4 0.000000 0.716128 0.389350
O O5 0.228763 0.500000 0.500000
O O6 0.250000 0.468496 0.250000
O O7 0.271219 0.415921 0.476257
O O8 0.000000 0.448910 0.399778
O O9 0.250000 0.039484 0.750000
O O10 0.500000 0.040743 0.903378
O O11 0.250487 0.084741 0.989047
O O12 0.249129 0.000000 0.000000
O O13 0.750000 0.884074 0.750000
O O14 0.756598 0.830774 0.529176
O O15 0.000000 0.876961 0.599102
O O16 0.750000 0.814407 0.250000
O O17 0.000000 0.806697 0.096784
O O18 0.750000 0.630227 0.750000
O O19 0.500000 0.640305 0.582656
#
# Coordination Sequence:
#
# PCOD8221254 Si02
#       6
#     8   8   8   8   8   8
#     4  11  22  39  61  87 117 150 191 236 285 340
#     4  10  21  37  57  82 112 147 189 235 284 339
#     4  10  22  39  60  87 118 153 194 239 288 343
#     4  11  23  39  59  86 118 153 195 240 289 343
#     4  11  22  39  61  86 116 151 191 235 286 340
#     4  11  22  38  59  84 115 151 190 234 286 341
#
# _framework density 19.807531999999998
#
# number of rings (size 3 to 8) (size 9 to 14) (size 15 to 20)
#    0.000    1.333    0.000    8.500    0.000    5.667 
#    0.000    5.000    0.000    0.000    0.000    0.000 
#    0.000    0.000    0.000    0.000    0.000    0.000 
#
# Total GULP energy -595394.904555 kJ/mol
# GULP energy per Si atom -12404.060512 kJ/mol
# Density = 1.976245 g / cm^3
# Si number density = 19.807532 Si / 1000 Ang^3
#
#
#
# Elastic Constant Matrix: (Units=GPa)
#
#
# Indices 1 2 3 4 5 6 
#
# 1 71.7879 18.7892 29.6909 0.0000 0.0000 0.0000
# 2 18.7892 116.3186 69.8796 0.0000 0.0000 0.0000
# 3 29.6909 69.8796 118.3387 0.0000 0.0000 0.0000
# 4 0.0000 0.0000 0.0000 12.9054 0.0000 0.0000
# 5 0.0000 0.0000 0.0000 0.0000 36.6209 0.0000
# 6 0.0000 0.0000 0.0000 0.0000 0.0000 22.4435
#
#
#
# Elastic Compliance Matrix: (Units=1/GPa)
#
#
# Indices 1 2 3 4 5 6 
#
# 1 0.015548 -0.000260 -0.003747 0.000000 0.000000 0.000000
# 2 -0.000260 0.013328 -0.007805 0.000000 0.000000 0.000000
# 3 -0.003747 -0.007805 0.013999 0.000000 0.000000 0.000000
# 4 0.000000 0.000000 0.000000 0.077487 0.000000 0.000000
# 5 0.000000 0.000000 0.000000 0.000000 0.027307 0.000000
# 6 0.000000 0.000000 0.000000 0.000000 0.000000 0.044556
#
#
# Mechanical properties :
#
#
# Convention : Reuss Voigt Hill
#
# Bulk Modulus (GPa) = 51.94721 60.35161 56.14941
# Shear Modulus (GPa) = 22.49543 26.93298 24.71420
#
# Velocity S-wave (km/s) = 3.37367 3.69146 3.53614
# Velocity P-wave (km/s) = 6.43883 6.97885 6.71427
#
# Compressibility (1/GPa) = 0.01925031
#
# Stress axis : x y z
#
# Youngs Moduli (GPa) = 64.31745 75.02983 71.43182
#
# Poissons Ratio (x) = 0.01953 0.26767
# Poissons Ratio (y) = 0.01674 0.55752
# Poissons Ratio (z) = 0.24101 0.58561
#
# Static dielectric constant tensor:
#      x y z
#    x 3.718850 0.000000 0.000000 
#    y 0.000000 3.904290 0.000000 
#    z 0.000000 0.000000 3.563770 
# 
# 
# High freq. dielectric constant tensor:
#      x y z
#    x 1.786400 0.000000 0.000000 
#    y 0.000000 1.789140 0.000000 
#    z 0.000000 0.000000 1.770930 
# 
# From -- ./inp_files/6688.got.cif
#   From: 2010.03.12/outbox.cif.g09.slc.cpg/sg53_4_cif.got.tgz:6688.got - 2010.04.16 14:36:59.
