data_PCOD8221732
_publ_section_title
;
Structure prediction by ZEFSAII (Michael W. Deem and Ramdas Pophale) SiO2 
 PCOD8221732
Probable space group: P M N A
;
_chemical_formula_sum "Si O2"
_cell_formula_units_Z 64
_cell_length_a 8.952870
_cell_length_b 21.454952
_cell_length_c 17.694089
_cell_angle_alpha 90.000000
_cell_angle_beta 90.000000
_cell_angle_gamma 90.000000
_cell_volume 3398.740706
_symmetry_space_group_name_H-M "P M N A"
_symmetry_group_IT_number 53
_symmetry_cell_setting 'orthorhombic'
loop_
_space_group_symop_operation_xyz
x,y,z
1/2-x,-y,1/2+z
x,-y,-z
1/2-x,y,1/2-z
-x,-y,-z
1/2+x,y,1/2-z
-x,y,z
1/2+x,-y,1/2+z
loop_
_atom_site_type_symbol
_atom_site_label
_atom_site_fract_x
_atom_site_fract_y
_atom_site_fract_z
Si Si1 0.673771 0.689838 0.441582
Si Si2 0.826746 0.100249 0.576749
Si Si3 0.174868 0.222801 0.669692
Si Si4 0.673907 0.372246 0.326826
Si Si5 0.671620 0.244494 0.401744
Si Si6 0.826229 0.118295 0.401709
Si Si7 0.823261 0.003411 0.171587
Si Si8 0.678036 0.567419 0.521741
O O1 0.500000 0.691621 0.420471
O O2 0.766305 0.714547 0.370233
O O3 0.707360 0.732727 0.513826
O O4 0.726624 0.619150 0.459916
O O5 0.782386 0.163984 0.618070
O O6 0.788900 0.106460 0.488962
O O7 0.000000 0.083577 0.589894
O O8 0.725653 0.044525 0.607033
O O9 0.250000 0.213210 0.750000
O O10 0.000000 0.229238 0.681708
O O11 0.750000 0.394078 0.250000
O O12 0.500000 0.384670 0.318642
O O13 0.706095 0.299703 0.343072
O O14 0.739393 0.413637 0.395632
O O15 0.500000 0.222896 0.396036
O O16 0.779626 0.188095 0.379689
O O17 0.731845 0.072094 0.349744
O O18 0.000000 0.108750 0.383982
O O19 0.750000 0.981662 0.250000
O O20 0.000000 0.002991 0.180267
O O21 0.744404 0.500000 0.500000
O O22 0.500000 0.566588 0.524986
#
# Coordination Sequence:
#
# PCOD8221732 Si02
#       8
#     8   8   8   8   8   8   8   8
#     4   9  17  32  55  80 107 141 182 228 271 320
#     4  10  22  40  60  83 110 142 182 227 276 332
#     4  11  22  36  55  82 112 145 182 226 280 331
#     4   9  18  32  52  80 111 145 183 227 273 322
#     4   9  18  33  53  78 108 141 182 223 268 326
#     4  11  22  38  60  85 112 143 180 225 277 330
#     4  12  26  42  59  80 108 145 185 229 280 330
#     4   8  15  31  56  82 109 147 190 226 268 324
#
# _framework density 18.830504999999999
#
# number of rings (size 3 to 8) (size 9 to 14) (size 15 to 20)
#    0.000    2.125    1.250    4.125    0.000    5.500 
#    0.000    3.750    0.000    3.000    0.000    0.000 
#    0.000    0.000    0.000    0.000    0.000    0.000 
#
# Total GULP energy -793751.378266 kJ/mol
# GULP energy per Si atom -12402.365285 kJ/mol
# Density = 1.878765 g / cm^3
# Si number density = 18.830505 Si / 1000 Ang^3
#
#
#
# Elastic Constant Matrix: (Units=GPa)
#
#
# Indices 1 2 3 4 5 6 
#
# 1 66.2913 35.6346 28.6434 0.0000 0.0000 0.0000
# 2 35.6346 105.0925 18.3727 0.0000 0.0000 0.0000
# 3 28.6434 18.3727 67.8196 0.0000 0.0000 0.0000
# 4 0.0000 0.0000 0.0000 20.4551 0.0000 0.0000
# 5 0.0000 0.0000 0.0000 0.0000 32.0089 0.0000
# 6 0.0000 0.0000 0.0000 0.0000 0.0000 18.7943
#
#
#
# Elastic Compliance Matrix: (Units=1/GPa)
#
#
# Indices 1 2 3 4 5 6 
#
# 1 0.021537 -0.005996 -0.007471 0.000000 0.000000 0.000000
# 2 -0.005996 0.011658 -0.000626 0.000000 0.000000 0.000000
# 3 -0.007471 -0.000626 0.018070 0.000000 0.000000 0.000000
# 4 0.000000 0.000000 0.000000 0.048887 0.000000 0.000000
# 5 0.000000 0.000000 0.000000 0.000000 0.031241 0.000000
# 6 0.000000 0.000000 0.000000 0.000000 0.000000 0.053208
#
#
# Mechanical properties :
#
#
# Convention : Reuss Voigt Hill
#
# Bulk Modulus (GPa) = 43.33201 44.94500 44.13850
# Shear Modulus (GPa) = 22.67773 24.68851 23.68312
#
# Velocity S-wave (km/s) = 3.47408 3.62483 3.55025
# Velocity P-wave (km/s) = 6.25730 6.43733 6.34795
#
# Compressibility (1/GPa) = 0.02307763
#
# Stress axis : x y z
#
# Youngs Moduli (GPa) = 46.43260 85.77760 55.34013
#
# Poissons Ratio (x) = 0.51436 0.41347
# Poissons Ratio (y) = 0.27843 0.03462
# Poissons Ratio (z) = 0.34692 0.05367
#
# Static dielectric constant tensor:
#      x y z
#    x 3.259750 0.000000 0.000000 
#    y 0.000000 3.560610 0.000000 
#    z 0.000000 0.000000 3.466940 
# 
# 
# High freq. dielectric constant tensor:
#      x y z
#    x 1.717090 0.000000 0.000000 
#    y 0.000000 1.729880 0.000000 
#    z 0.000000 0.000000 1.731850 
# 
# From -- ./inp_files/26925.got.cif
#   From: 2010.03.12/outbox.cif.g09.slc.cpg/sg53_14_cif.got.tgz:26925.got - 2010.04.16 14:36:59.
