data_PCOD8221954
_publ_section_title
;
Structure prediction by ZEFSAII (Michael W. Deem and Ramdas Pophale) SiO2 
 PCOD8221954
Probable space group: P M N A
;
_chemical_formula_sum "Si O2"
_cell_formula_units_Z 56
_cell_length_a 19.789864
_cell_length_b 9.295337
_cell_length_c 16.761187
_cell_angle_alpha 90.000000
_cell_angle_beta 90.000000
_cell_angle_gamma 90.000000
_cell_volume 3083.278260
_symmetry_space_group_name_H-M "P M N A"
_symmetry_group_IT_number 53
_symmetry_cell_setting 'orthorhombic'
loop_
_space_group_symop_operation_xyz
x,y,z
1/2-x,-y,1/2+z
x,-y,-z
1/2-x,y,1/2-z
-x,-y,-z
1/2+x,y,1/2-z
-x,y,z
1/2+x,-y,1/2+z
loop_
_atom_site_type_symbol
_atom_site_label
_atom_site_fract_x
_atom_site_fract_y
_atom_site_fract_z
Si Si1 0.745986 0.573248 0.076172
Si Si2 0.425177 0.137709 0.693618
Si Si3 0.809147 0.205342 0.690480
Si Si4 0.787830 0.298938 0.168346
Si Si5 0.360011 0.208839 0.542928
Si Si6 0.577959 0.182001 0.369548
Si Si7 0.247059 0.983080 0.583911
O O1 0.692532 0.681625 0.117286
O O2 0.767777 0.457637 0.142042
O O3 0.811891 0.651797 0.039004
O O4 0.709231 0.500000 0.000000
O O5 0.500000 0.163257 0.725321
O O6 0.379582 0.199234 0.764861
O O7 0.413627 0.232314 0.614094
O O8 0.412802 0.971292 0.672734
O O9 0.750000 0.252240 0.750000
O O10 0.795887 0.045261 0.656825
O O11 0.750000 0.260784 0.250000
O O12 0.869719 0.288271 0.176794
O O13 0.765914 0.182555 0.100569
O O14 0.401784 0.179122 0.462808
O O15 0.316289 0.071565 0.571479
O O16 0.500000 0.234855 0.361741
O O17 0.206214 0.000000 0.500000
#
# Coordination Sequence:
#
# PCOD8221954 Si02
#       7
#     8   8   8   8   8   8   8
#     4  11  22  37  58  79 114 150 193 237 284 334
#     4  11  21  34  58  87 115 151 191 235 287 337
#     4  11  20  36  58  81 112 146 192 246 280 335
#     4  12  22  34  54  81 113 153 194 235 283 330
#     4  11  19  35  55  84 120 152 187 222 278 352
#     4  11  21  35  55  87 123 156 186 225 283 352
#     4  11  18  32  56  82 112 143 193 238 283 335
#
# _framework density 18.162486999999999
#
# number of rings (size 3 to 8) (size 9 to 14) (size 15 to 20)
#    0.000    0.857    7.143    3.429    0.000    1.143 
#    0.000    2.143    0.000    0.857    0.000    2.000 
#    0.000    0.000    0.000    0.000    0.000    0.000 
#
# Total GULP energy -694074.542013 kJ/mol
# GULP energy per Si atom -12394.188250 kJ/mol
# Density = 1.812115 g / cm^3
# Si number density = 18.162487 Si / 1000 Ang^3
#
#
#
# Elastic Constant Matrix: (Units=GPa)
#
#
# Indices 1 2 3 4 5 6 
#
# 1 115.7368 26.5955 58.5157 0.0000 0.0000 0.0000
# 2 26.5955 77.4184 24.8285 0.0000 0.0000 0.0000
# 3 58.5157 24.8285 92.3361 0.0000 0.0000 0.0000
# 4 0.0000 0.0000 0.0000 30.6344 0.0000 0.0000
# 5 0.0000 0.0000 0.0000 0.0000 26.6570 0.0000
# 6 0.0000 0.0000 0.0000 0.0000 0.0000 12.1989
#
#
#
# Elastic Compliance Matrix: (Units=1/GPa)
#
#
# Indices 1 2 3 4 5 6 
#
# 1 0.012989 -0.001994 -0.007695 0.000000 0.000000 0.000000
# 2 -0.001994 0.014442 -0.002620 0.000000 0.000000 0.000000
# 3 -0.007695 -0.002620 0.016411 0.000000 0.000000 0.000000
# 4 0.000000 0.000000 0.000000 0.032643 0.000000 0.000000
# 5 0.000000 0.000000 0.000000 0.000000 0.037514 0.000000
# 6 0.000000 0.000000 0.000000 0.000000 0.000000 0.081974
#
#
# Mechanical properties :
#
#
# Convention : Reuss Voigt Hill
#
# Bulk Modulus (GPa) = 52.01816 56.15230 54.08523
# Shear Modulus (GPa) = 22.02645 25.60152 23.81398
#
# Velocity S-wave (km/s) = 3.48623 3.75851 3.62493
# Velocity P-wave (km/s) = 6.70132 7.05826 6.88210
#
# Compressibility (1/GPa) = 0.01922406
#
# Stress axis : x y z
#
# Youngs Moduli (GPa) = 76.98655 69.24246 60.93424
#
# Poissons Ratio (x) = 0.13809 0.46891
# Poissons Ratio (y) = 0.15353 0.15962
# Poissons Ratio (z) = 0.59244 0.18138
#
# Static dielectric constant tensor:
#      x y z
#    x 3.212170 0.000000 0.000000 
#    y 0.000000 3.389120 0.000000 
#    z 0.000000 0.000000 3.684820 
# 
# 
# High freq. dielectric constant tensor:
#      x y z
#    x 1.663740 0.000000 0.000000 
#    y 0.000000 1.702620 0.000000 
#    z 0.000000 0.000000 1.713110 
# 
# From -- ./inp_files/29576.got.cif
#   From: 2010.03.12/outbox.cif.g09.slc.cpg/sg53_15_cif.got.tgz:29576.got - 2010.04.16 14:36:59.
