data_PCOD8221566
_publ_section_title
;
Structure prediction by ZEFSAII (Michael W. Deem and Ramdas Pophale) SiO2 
 PCOD8221566
Probable space group: P M N A
;
_chemical_formula_sum "Si O2"
_cell_formula_units_Z 64
_cell_length_a 8.709430
_cell_length_b 14.596898
_cell_length_c 25.005080
_cell_angle_alpha 90.000000
_cell_angle_beta 90.000000
_cell_angle_gamma 90.000000
_cell_volume 3178.912357
_symmetry_space_group_name_H-M "P M N A"
_symmetry_group_IT_number 53
_symmetry_cell_setting 'orthorhombic'
loop_
_space_group_symop_operation_xyz
x,y,z
1/2-x,-y,1/2+z
x,-y,-z
1/2-x,y,1/2-z
-x,-y,-z
1/2+x,y,1/2-z
-x,y,z
1/2+x,-y,1/2+z
loop_
_atom_site_type_symbol
_atom_site_label
_atom_site_fract_x
_atom_site_fract_y
_atom_site_fract_z
Si Si1 0.817990 0.173464 0.696429
Si Si2 0.181883 0.723900 0.410288
Si Si3 0.680563 0.789946 0.693570
Si Si4 0.319806 0.475498 0.941724
Si Si5 0.177915 0.338194 0.395271
Si Si6 0.172648 0.945722 0.554235
Si Si7 0.821443 0.771224 0.983648
Si Si8 0.182004 0.991889 0.842200
O O1 0.750000 0.220525 0.750000
O O2 0.764918 0.236415 0.646760
O O3 0.000000 0.165098 0.699353
O O4 0.744190 0.072131 0.695322
O O5 0.244197 0.620086 0.417901
O O6 0.260218 0.785277 0.456274
O O7 0.000000 0.731863 0.416423
O O8 0.750000 0.759369 0.750000
O O9 0.500000 0.789098 0.698666
O O10 0.726505 0.714945 0.649471
O O11 0.737867 0.892334 0.678911
O O12 0.500000 0.465006 0.950248
O O13 0.285618 0.553024 0.896609
O O14 0.245945 0.500000 0.000000
O O15 0.224918 0.308512 0.455200
O O16 0.000000 0.318013 0.384905
O O17 0.290635 0.861942 0.550808
O O18 0.237136 0.010523 0.600797
O O19 0.000000 0.911472 0.567596
O O20 0.172276 0.000000 0.500000
O O21 0.000000 0.747686 0.982619
O O22 0.000000 0.997577 0.847192
#
# Coordination Sequence:
#
# PCOD8221566 Si02
#       8
#     8   8   8   8   8   8   8   8
#     4  11  24  41  63  87 118 158 203 252 298 352
#     4  10  21  40  63  89 119 156 202 249 302 367
#     4  11  24  41  61  88 120 158 203 249 299 356
#     4   9  17  34  63  93 118 153 200 245 297 361
#     4  11  21  37  63  89 120 159 198 247 299 355
#     4  11  23  37  55  82 118 161 205 245 294 357
#     4  12  23  35  55  87 125 159 194 243 300 357
#     4  11  23  39  61  88 120 155 200 252 299 353
#
# _framework density 20.132673
#
# number of rings (size 3 to 8) (size 9 to 14) (size 15 to 20)
#    0.000    1.250    2.500    4.125    0.000    7.500 
#    0.000    2.500    0.000    1.500    0.000    0.000 
#    0.000    0.000    0.000    0.000    0.000    0.000 
#
# Total GULP energy -793668.781181 kJ/mol
# GULP energy per Si atom -12401.074706 kJ/mol
# Density = 2.008685 g / cm^3
# Si number density = 20.132673 Si / 1000 Ang^3
#
#
#
# Elastic Constant Matrix: (Units=GPa)
#
#
# Indices 1 2 3 4 5 6 
#
# 1 61.5368 23.0975 30.4214 0.0000 0.0000 0.0000
# 2 23.0975 86.2067 38.4278 0.0000 0.0000 0.0000
# 3 30.4214 38.4278 131.6564 0.0000 0.0000 0.0000
# 4 0.0000 0.0000 0.0000 18.7885 0.0000 0.0000
# 5 0.0000 0.0000 0.0000 0.0000 31.5262 0.0000
# 6 0.0000 0.0000 0.0000 0.0000 0.0000 12.9483
#
#
#
# Elastic Compliance Matrix: (Units=1/GPa)
#
#
# Indices 1 2 3 4 5 6 
#
# 1 0.019301 -0.003659 -0.003392 0.000000 0.000000 0.000000
# 2 -0.003659 0.014029 -0.003249 0.000000 0.000000 0.000000
# 3 -0.003392 -0.003249 0.009328 0.000000 0.000000 0.000000
# 4 0.000000 0.000000 0.000000 0.053224 0.000000 0.000000
# 5 0.000000 0.000000 0.000000 0.000000 0.031720 0.000000
# 6 0.000000 0.000000 0.000000 0.000000 0.000000 0.077230
#
#
# Mechanical properties :
#
#
# Convention : Reuss Voigt Hill
#
# Bulk Modulus (GPa) = 45.33771 51.47705 48.40738
# Shear Modulus (GPa) = 21.47919 25.14949 23.31434
#
# Velocity S-wave (km/s) = 3.26986 3.53822 3.40668
# Velocity P-wave (km/s) = 6.06831 6.50511 6.29050
#
# Compressibility (1/GPa) = 0.02205669
#
# Stress axis : x y z
#
# Youngs Moduli (GPa) = 51.81171 71.28161 107.20884
#
# Poissons Ratio (x) = 0.26085 0.36361
# Poissons Ratio (y) = 0.18960 0.34834
# Poissons Ratio (z) = 0.17573 0.23161
#
# Static dielectric constant tensor:
#      x y z
#    x 3.491870 0.000000 0.000000 
#    y 0.000000 3.886680 0.000000 
#    z 0.000000 0.000000 3.718180 
# 
# 
# High freq. dielectric constant tensor:
#      x y z
#    x 1.777580 0.000000 0.000000 
#    y 0.000000 1.781710 0.000000 
#    z 0.000000 0.000000 1.788190 
# 
# From -- ./inp_files/34301.got.cif
#   From: 2010.03.12/outbox.cif.g09.slc.cpg/sg53_18_cif.got.tgz:34301.got - 2010.04.16 14:36:59.
