data_PCOD8221629
_publ_section_title
;
Structure prediction by ZEFSAII (Michael W. Deem and Ramdas Pophale) SiO2 
 PCOD8221629
Probable space group: P M N A
;
_chemical_formula_sum "Si O2"
_cell_formula_units_Z 64
_cell_length_a 18.305713
_cell_length_b 20.189072
_cell_length_c 8.656397
_cell_angle_alpha 90.000000
_cell_angle_beta 90.000000
_cell_angle_gamma 90.000000
_cell_volume 3199.191018
_symmetry_space_group_name_H-M "P M N A"
_symmetry_group_IT_number 53
_symmetry_cell_setting 'orthorhombic'
loop_
_space_group_symop_operation_xyz
x,y,z
1/2-x,-y,1/2+z
x,-y,-z
1/2-x,y,1/2-z
-x,-y,-z
1/2+x,y,1/2-z
-x,y,z
1/2+x,-y,1/2+z
loop_
_atom_site_type_symbol
_atom_site_label
_atom_site_fract_x
_atom_site_fract_y
_atom_site_fract_z
Si Si1 0.326092 0.761666 0.813551
Si Si2 0.721997 0.928806 0.575044
Si Si3 0.305858 0.823543 0.117140
Si Si4 0.416571 0.839790 0.596753
Si Si5 0.674328 0.615622 0.817933
Si Si6 0.418457 0.504935 0.183671
Si Si7 0.082758 0.238278 0.793153
Si Si8 0.330533 0.632125 0.184610
O O1 0.250000 0.792565 0.750000
O O2 0.393125 0.808032 0.760710
O O3 0.340296 0.688423 0.747237
O O4 0.315473 0.762422 0.997852
O O5 0.750000 0.933714 0.750000
O O6 0.782076 0.889493 0.472342
O O7 0.641036 0.897803 0.558871
O O8 0.716314 0.000000 0.500000
O O9 0.250000 0.801592 0.250000
O O10 0.384822 0.826339 0.201315
O O11 0.500000 0.867333 0.606128
O O12 0.410944 0.780116 0.473480
O O13 0.750000 0.588139 0.750000
O O14 0.614221 0.564498 0.755230
O O15 0.673426 0.625215 0.000954
O O16 0.500000 0.512137 0.248760
O O17 0.372703 0.567119 0.246995
O O18 0.417541 0.500000 0.000000
O O19 0.127424 0.303825 0.749699
O O20 0.000000 0.249156 0.740611
O O21 0.250000 0.632296 0.250000
#
# Coordination Sequence:
#
# PCOD8221629 Si02
#       8
#     8   8   8   8   8   8   8   8
#     4  11  20  37  61  92 125 162 213 261 310 376
#     4  12  25  44  70  98 126 169 218 256 305 375
#     4  12  20  39  68  94 128 163 211 261 311 367
#     4  11  24  43  65  92 134 170 204 259 320 376
#     4  10  22  34  58  87 116 158 209 262 313 370
#     4   9  19  38  56  79 119 162 207 259 315 379
#     4  11  24  38  60  95 128 165 209 263 324 378
#     4  11  22  36  62  87 118 162 211 263 316 372
#
# _framework density 20.005057000000001
#
# number of rings (size 3 to 8) (size 9 to 14) (size 15 to 20)
#    0.000    1.125    5.000    1.500    3.500    1.750 
#    0.000    0.000    0.000    1.500    0.000    0.000 
#    0.000    0.000    0.000    0.000    0.000    0.000 
#
# Total GULP energy -793146.321065 kJ/mol
# GULP energy per Si atom -12392.911267 kJ/mol
# Density = 1.995952 g / cm^3
# Si number density = 20.005057 Si / 1000 Ang^3
#
#
#
# Elastic Constant Matrix: (Units=GPa)
#
#
# Indices 1 2 3 4 5 6 
#
# 1 168.8729 80.1430 45.3880 0.0000 0.0000 0.0000
# 2 80.1430 126.4179 32.5323 0.0000 0.0000 0.0000
# 3 45.3880 32.5323 85.8581 0.0000 0.0000 0.0000
# 4 0.0000 0.0000 0.0000 15.1451 0.0000 0.0000
# 5 0.0000 0.0000 0.0000 0.0000 25.1466 0.0000
# 6 0.0000 0.0000 0.0000 0.0000 0.0000 24.6979
#
#
#
# Elastic Compliance Matrix: (Units=1/GPa)
#
#
# Indices 1 2 3 4 5 6 
#
# 1 0.009078 -0.005009 -0.002901 0.000000 0.000000 0.000000
# 2 -0.005009 0.011528 -0.001720 0.000000 0.000000 0.000000
# 3 -0.002901 -0.001720 0.013833 0.000000 0.000000 0.000000
# 4 0.000000 0.000000 0.000000 0.066028 0.000000 0.000000
# 5 0.000000 0.000000 0.000000 0.000000 0.039767 0.000000
# 6 0.000000 0.000000 0.000000 0.000000 0.000000 0.040489
#
#
# Mechanical properties :
#
#
# Convention : Reuss Voigt Hill
#
# Bulk Modulus (GPa) = 65.88218 77.47505 71.67861
# Shear Modulus (GPa) = 24.38507 27.87031 26.12769
#
# Velocity S-wave (km/s) = 3.49513 3.73656 3.61786
# Velocity P-wave (km/s) = 7.02084 7.57810 7.30479
#
# Compressibility (1/GPa) = 0.01517861
#
# Stress axis : x y z
#
# Youngs Moduli (GPa) = 110.15165 86.74361 72.29204
#
# Poissons Ratio (x) = 0.43447 0.20975
# Poissons Ratio (y) = 0.55171 0.12437
# Poissons Ratio (z) = 0.31959 0.14923
#
# Static dielectric constant tensor:
#      x y z
#    x 3.856430 0.000000 0.000000 
#    y 0.000000 3.669260 0.000000 
#    z 0.000000 0.000000 3.677880 
# 
# 
# High freq. dielectric constant tensor:
#      x y z
#    x 1.780300 0.000000 0.000000 
#    y 0.000000 1.776800 0.000000 
#    z 0.000000 0.000000 1.778760 
# 
# From -- ./inp_files/10228.got.cif
#   From: 2010.03.12/outbox.cif.g09.slc.cpg/sg53_6_cif.got.tgz:10228.got - 2010.04.16 14:36:59.
