data_PCOD8221216
_publ_section_title
;
Structure prediction by ZEFSAII (Michael W. Deem and Ramdas Pophale) SiO2 
 PCOD8221216
Probable space group: P M N A
;
_chemical_formula_sum "Si O2"
_cell_formula_units_Z 40
_cell_length_a 14.696964
_cell_length_b 7.829199
_cell_length_c 16.409720
_cell_angle_alpha 90.000000
_cell_angle_beta 90.000000
_cell_angle_gamma 90.000000
_cell_volume 1888.191912
_symmetry_space_group_name_H-M "P M N A"
_symmetry_group_IT_number 53
_symmetry_cell_setting 'orthorhombic'
loop_
_space_group_symop_operation_xyz
x,y,z
1/2-x,-y,1/2+z
x,-y,-z
1/2-x,y,1/2-z
-x,-y,-z
1/2+x,y,1/2-z
-x,y,z
1/2+x,-y,1/2+z
loop_
_atom_site_type_symbol
_atom_site_label
_atom_site_fract_x
_atom_site_fract_y
_atom_site_fract_z
Si Si1 0.500000 0.015342 0.793160
Si Si2 0.757692 0.000000 0.000000
Si Si3 0.701708 0.508182 0.833573
Si Si4 0.500000 0.605812 0.184529
Si Si5 0.665933 0.663260 0.453110
Si Si6 0.805499 0.100309 0.329690
Si Si7 0.500000 0.752044 0.346639
O O1 0.587576 0.901452 0.811151
O O2 0.500000 0.194590 0.844275
O O3 0.500000 0.063256 0.697314
O O4 0.705757 0.012853 0.912436
O O5 0.812376 0.176645 0.011465
O O6 0.750000 0.443592 0.750000
O O7 0.592972 0.484936 0.843007
O O8 0.744193 0.398728 0.906246
O O9 0.725374 0.706221 0.845915
O O10 0.500000 0.596148 0.282591
O O11 0.624624 0.500000 0.500000
O O12 0.591078 0.741198 0.395824
O O13 0.750000 0.027344 0.250000
#
# Coordination Sequence:
#
# PCOD8221216 Si02
#       7
#     4   4   8   4   8   8   4
#     4  10  21  41  64  99 129 180 229 289 342 417
#     4  12  26  42  72 100 144 192 228 290 358 408
#     4  11  21  42  68  96 136 178 237 290 344 415
#     4  10  21  36  66  98 117 184 224 289 339 409
#     4  12  24  45  65 104 141 184 231 288 353 423
#     4  11  24  42  67 101 137 182 239 289 348 425
#     4  10  23  41  71  99 138 190 230 288 357 417
#
# _framework density 21.184287000000001
#
# number of rings (size 3 to 8) (size 9 to 14) (size 15 to 20)
#    0.600    0.400    4.000    3.300    0.000    2.400 
#    0.000    2.500    0.000    0.000    0.000    0.000 
#    0.000    0.000    0.000    0.000    0.000    0.000 
#
# Total GULP energy -495616.803598 kJ/mol
# GULP energy per Si atom -12390.420090 kJ/mol
# Density = 2.113607 g / cm^3
# Si number density = 21.184287 Si / 1000 Ang^3
#
#
#
# Elastic Constant Matrix: (Units=GPa)
#
#
# Indices 1 2 3 4 5 6 
#
# 1 121.1547 10.0422 36.8015 0.0000 0.0000 0.0000
# 2 10.0422 103.1649 26.3638 0.0000 0.0000 0.0000
# 3 36.8015 26.3638 102.5283 0.0000 0.0000 0.0000
# 4 0.0000 0.0000 0.0000 32.3268 0.0000 0.0000
# 5 0.0000 0.0000 0.0000 0.0000 28.5047 0.0000
# 6 0.0000 0.0000 0.0000 0.0000 0.0000 26.5517
#
#
#
# Elastic Compliance Matrix: (Units=1/GPa)
#
#
# Indices 1 2 3 4 5 6 
#
# 1 0.009264 -0.000056 -0.003311 0.000000 0.000000 0.000000
# 2 -0.000056 0.010375 -0.002648 0.000000 0.000000 0.000000
# 3 -0.003311 -0.002648 0.011623 0.000000 0.000000 0.000000
# 4 0.000000 0.000000 0.000000 0.030934 0.000000 0.000000
# 5 0.000000 0.000000 0.000000 0.000000 0.035082 0.000000
# 6 0.000000 0.000000 0.000000 0.000000 0.000000 0.037662
#
#
# Mechanical properties :
#
#
# Convention : Reuss Voigt Hill
#
# Bulk Modulus (GPa) = 51.99352 52.58479 52.28915
# Shear Modulus (GPa) = 32.59858 34.38599 33.49228
#
# Velocity S-wave (km/s) = 3.92702 4.03325 3.98049
# Velocity P-wave (km/s) = 6.72002 6.82392 6.77217
#
# Compressibility (1/GPa) = 0.01923317
#
# Stress axis : x y z
#
# Youngs Moduli (GPa) = 107.94172 96.38267 86.03838
#
# Poissons Ratio (x) = 0.00537 0.28487
# Poissons Ratio (y) = 0.00601 0.22782
# Poissons Ratio (z) = 0.35739 0.25521
#
# Static dielectric constant tensor:
#      x y z
#    x 3.602720 0.000000 0.000000 
#    y 0.000000 3.795280 0.000000 
#    z 0.000000 0.000000 3.872380 
# 
# 
# High freq. dielectric constant tensor:
#      x y z
#    x 1.826390 0.000000 0.000000 
#    y 0.000000 1.834580 0.000000 
#    z 0.000000 0.000000 1.823610 
# 
# From -- ./inp_files/22531.got.cif
#   From: 2010.03.12/outbox.cif.g09.slc.cpg/sg53_12_cif.got.tgz:22531.got - 2010.04.16 14:36:59.
