data_PCOD8221126
_publ_section_title
;
Structure prediction by ZEFSAII (Michael W. Deem and Ramdas Pophale) SiO2 
 PCOD8221126
Probable space group: P M N A
;
_chemical_formula_sum "Si O2"
_cell_formula_units_Z 32
_cell_length_a 35.353447
_cell_length_b 9.014539
_cell_length_c 4.992433
_cell_angle_alpha 90.000000
_cell_angle_beta 90.000000
_cell_angle_gamma 90.000000
_cell_volume 1591.063569
_symmetry_space_group_name_H-M "P M N A"
_symmetry_group_IT_number 53
_symmetry_cell_setting 'orthorhombic'
loop_
_space_group_symop_operation_xyz
x,y,z
1/2-x,-y,1/2+z
x,-y,-z
1/2-x,y,1/2-z
-x,-y,-z
1/2+x,y,1/2-z
-x,y,z
1/2+x,-y,1/2+z
loop_
_atom_site_type_symbol
_atom_site_label
_atom_site_fract_x
_atom_site_fract_y
_atom_site_fract_z
Si Si1 0.726645 0.675669 0.497126
Si Si2 0.900671 0.828703 0.505760
Si Si3 0.852481 0.828241 0.995228
Si Si4 0.458316 0.400393 0.254763
O O1 0.724054 0.500000 0.500000
O O2 0.750000 0.736752 0.750000
O O3 0.684451 0.732800 0.459863
O O4 0.750000 0.737565 0.250000
O O5 0.865239 0.795399 0.694530
O O6 0.934347 0.737626 0.644271
O O7 0.913646 0.000000 0.500000
O O8 0.886067 0.784560 0.207525
O O9 0.841759 0.000000 0.000000
O O10 0.440430 0.500000 0.500000
O O11 0.500000 0.343131 0.349418
O O12 0.463385 0.500000 0.000000
#
# Coordination Sequence:
#
# PCOD8221126 Si02
#       4
#     8   8   8   8
#     4  10  21  36  53  76 106 139 178 223 271 326
#     4  10  21  37  56  81 112 144 182 227 275 330
#     4  10  21  36  55  80 108 140 181 226 272 327
#     4  10  21  37  57  83 113 145 185 229 273 328
#
# _framework density 20.112333
#
# number of rings (size 3 to 8) (size 9 to 14) (size 15 to 20)
#    0.000    2.000    0.000    3.000    0.000    4.500 
#    0.000    0.000    0.000    9.000    0.000    0.000 
#    0.000    0.000    0.000    0.000    0.000    0.000 
#
# Total GULP energy -396437.262715 kJ/mol
# GULP energy per Si atom -12388.664460 kJ/mol
# Density = 2.006656 g / cm^3
# Si number density = 20.112333 Si / 1000 Ang^3
#
#
#
# Elastic Constant Matrix: (Units=GPa)
#
#
# Indices 1 2 3 4 5 6 
#
# 1 100.0669 55.4507 28.6272 0.0000 0.0000 0.0000
# 2 55.4507 65.7482 38.3509 0.0000 0.0000 0.0000
# 3 28.6272 38.3509 128.5644 0.0000 0.0000 0.0000
# 4 0.0000 0.0000 0.0000 -8.4005 0.0000 0.0000
# 5 0.0000 0.0000 0.0000 0.0000 17.8530 0.0000
# 6 0.0000 0.0000 0.0000 0.0000 0.0000 -372.0053
#
#
#
# Elastic Compliance Matrix: (Units=1/GPa)
#
#
# Indices 1 2 3 4 5 6 
#
# 1 0.018807 -0.016246 0.000658 0.000000 0.000000 0.000000
# 2 -0.016246 0.032446 -0.006061 0.000000 0.000000 0.000000
# 3 0.000658 -0.006061 0.009440 0.000000 0.000000 0.000000
# 4 0.000000 0.000000 0.000000 -0.119040 0.000000 0.000000
# 5 0.000000 0.000000 0.000000 0.000000 0.056013 0.000000
# 6 0.000000 0.000000 0.000000 0.000000 0.000000 -0.002688
#
#
# Mechanical properties :
#
#
# Convention : Reuss Voigt Hill
#
# Bulk Modulus (GPa) = 57.48475 59.91524 58.69999
# Shear Modulus (GPa) = 113.44511 -61.04718 26.19897
#
# Velocity S-wave (km/s) = 7.51852 -5.51534 3.61311
# Velocity P-wave (km/s) = 10.19877 3.27165 6.83049
#
# Compressibility (1/GPa) = 0.01739592
#
# Stress axis : x y z
#
# Youngs Moduli (GPa) = 53.17076 30.82001 105.93509
#
# Poissons Ratio (x) = 0.50069 -0.06974
# Poissons Ratio (y) = 0.86380 0.64212
# Poissons Ratio (z) = -0.03500 0.18681
#
# Static dielectric constant tensor:
#      x y z
#    x 3.738110 0.000000 0.000000 
#    y 0.000000 3.329960 0.000000 
#    z 0.000000 0.000000 4.110280 
# 
# 
# High freq. dielectric constant tensor:
#      x y z
#    x 1.780390 0.000000 0.000000 
#    y 0.000000 1.770190 0.000000 
#    z 0.000000 0.000000 1.811100 
# 
# From -- ./inp_files/4918.got.cif
#   From: 2010.03.12/outbox.cif.g09.slc.cpg/sg53_3_cif.got.tgz:4918.got - 2010.04.16 14:36:59.
