data_PCOD8221742
_publ_section_title
;
Structure prediction by ZEFSAII (Michael W. Deem and Ramdas Pophale) SiO2 
 PCOD8221742
Probable space group: P M N A
;
_chemical_formula_sum "Si O2"
_cell_formula_units_Z 40
_cell_length_a 20.138132
_cell_length_b 5.041331
_cell_length_c 17.970302
_cell_angle_alpha 90.000000
_cell_angle_beta 90.000000
_cell_angle_gamma 90.000000
_cell_volume 1824.398775
_symmetry_space_group_name_H-M "P M N A"
_symmetry_group_IT_number 53
_symmetry_cell_setting 'orthorhombic'
loop_
_space_group_symop_operation_xyz
x,y,z
1/2-x,-y,1/2+z
x,-y,-z
1/2-x,y,1/2-z
-x,-y,-z
1/2+x,y,1/2-z
-x,y,z
1/2+x,-y,1/2+z
loop_
_atom_site_type_symbol
_atom_site_label
_atom_site_fract_x
_atom_site_fract_y
_atom_site_fract_z
Si Si1 0.856405 0.576245 0.914067
Si Si2 0.140341 0.095778 0.684299
Si Si3 0.921138 0.074846 0.843768
Si Si4 0.723515 0.392448 0.173049
Si Si5 0.922782 0.751165 0.460227
O O1 0.898322 0.367666 0.866213
O O2 0.779686 0.580977 0.889631
O O3 0.888719 0.863563 0.900154
O O4 0.860574 0.500000 0.000000
O O5 0.103002 0.021102 0.760054
O O6 0.197200 0.315794 0.693744
O O7 0.088359 0.231361 0.627834
O O8 0.168559 0.823412 0.647953
O O9 0.000000 0.052325 0.848269
O O10 0.750000 0.266409 0.250000
O O11 0.888016 0.500000 0.500000
O O12 0.000000 0.742079 0.477631
O O13 0.888817 0.000000 0.500000
#
# Coordination Sequence:
#
# PCOD8221742 Si02
#       5
#     8   8   8   8   8
#     4  12  27  45  66  98 134 174 222 277 334 397
#     4  12  23  41  71  97 131 170 227 269 329 403
#     4  12  25  44  70  98 130 176 225 273 333 400
#     4  12  23  43  69  93 130 173 212 277 336 390
#     4  10  22  40  61  93 137 174 212 268 326 383
#
# _framework density 21.92503
#
# number of rings (size 3 to 8) (size 9 to 14) (size 15 to 20)
#    0.000    0.400    4.000    4.800    0.000    4.800 
#    0.000    6.000    0.000    0.000    0.000    0.000 
#    0.000    0.000    0.000    0.000    0.000    0.000 
#
# Total GULP energy -496057.924832 kJ/mol
# GULP energy per Si atom -12401.448121 kJ/mol
# Density = 2.187513 g / cm^3
# Si number density = 21.925030 Si / 1000 Ang^3
#
#
#
# Elastic Constant Matrix: (Units=GPa)
#
#
# Indices 1 2 3 4 5 6 
#
# 1 58.9041 27.8896 30.0866 0.0000 0.0000 0.0000
# 2 27.8896 128.0119 29.0160 0.0000 0.0000 0.0000
# 3 30.0866 29.0160 129.1891 0.0000 0.0000 0.0000
# 4 0.0000 0.0000 0.0000 39.2901 0.0000 0.0000
# 5 0.0000 0.0000 0.0000 0.0000 29.6610 0.0000
# 6 0.0000 0.0000 0.0000 0.0000 0.0000 26.6251
#
#
#
# Elastic Compliance Matrix: (Units=1/GPa)
#
#
# Indices 1 2 3 4 5 6 
#
# 1 0.020738 -0.003607 -0.004019 0.000000 0.000000 0.000000
# 2 -0.003607 0.008858 -0.001150 0.000000 0.000000 0.000000
# 3 -0.004019 -0.001150 0.008935 0.000000 0.000000 0.000000
# 4 0.000000 0.000000 0.000000 0.025452 0.000000 0.000000
# 5 0.000000 0.000000 0.000000 0.000000 0.033714 0.000000
# 6 0.000000 0.000000 0.000000 0.000000 0.000000 0.037559
#
#
# Mechanical properties :
#
#
# Convention : Reuss Voigt Hill
#
# Bulk Modulus (GPa) = 47.66722 54.45436 51.06079
# Shear Modulus (GPa) = 31.28914 34.38943 32.83928
#
# Velocity S-wave (km/s) = 3.78179 3.96473 3.87434
# Velocity P-wave (km/s) = 6.39198 6.77121 6.58433
#
# Compressibility (1/GPa) = 0.02097878
#
# Stress axis : x y z
#
# Youngs Moduli (GPa) = 48.22173 112.89005 111.92132
#
# Poissons Ratio (x) = 0.40719 0.44986
# Poissons Ratio (y) = 0.17393 0.12866
# Poissons Ratio (z) = 0.19382 0.12977
#
# Static dielectric constant tensor:
#      x y z
#    x 3.809570 0.000000 0.000000 
#    y 0.000000 4.293980 0.000000 
#    z 0.000000 0.000000 3.889550 
# 
# 
# High freq. dielectric constant tensor:
#      x y z
#    x 1.855160 0.000000 0.000000 
#    y 0.000000 1.885520 0.000000 
#    z 0.000000 0.000000 1.865750 
# 
# From -- ./inp_files/28759.got.cif
#   From: 2010.03.12/outbox.cif.g09.slc.cpg/sg53_15_cif.got.tgz:28759.got - 2010.04.16 14:36:59.
