data_PCOD8221623
_publ_section_title
;
Structure prediction by ZEFSAII (Michael W. Deem and Ramdas Pophale) SiO2 
 PCOD8221623
Probable space group: P M N A
;
_chemical_formula_sum "Si O2"
_cell_formula_units_Z 48
_cell_length_a 9.990757
_cell_length_b 13.472596
_cell_length_c 17.497505
_cell_angle_alpha 90.000000
_cell_angle_beta 90.000000
_cell_angle_gamma 90.000000
_cell_volume 2355.189243
_symmetry_space_group_name_H-M "P M N A"
_symmetry_group_IT_number 53
_symmetry_cell_setting 'orthorhombic'
loop_
_space_group_symop_operation_xyz
x,y,z
1/2-x,-y,1/2+z
x,-y,-z
1/2-x,y,1/2-z
-x,-y,-z
1/2+x,y,1/2-z
-x,y,z
1/2+x,-y,1/2+z
loop_
_atom_site_type_symbol
_atom_site_label
_atom_site_fract_x
_atom_site_fract_y
_atom_site_fract_z
Si Si1 0.768666 0.778156 0.081903
Si Si2 0.500000 0.129970 0.861214
Si Si3 0.000000 0.857013 0.185376
Si Si4 0.845622 0.382533 0.178545
Si Si5 0.724909 0.194224 0.410475
Si Si6 0.000000 0.893513 0.642061
Si Si7 0.500000 0.089829 0.318067
Si Si8 0.654036 0.561419 0.427442
O O1 0.626513 0.826335 0.096007
O O2 0.868681 0.811952 0.147688
O O3 0.756043 0.658812 0.083778
O O4 0.818139 0.815046 0.998855
O O5 0.500000 0.168930 0.774548
O O6 0.500000 0.011474 0.869766
O O7 0.000000 0.973312 0.175937
O O8 0.750000 0.366982 0.250000
O O9 0.795805 0.308584 0.112518
O O10 0.832657 0.494393 0.148127
O O11 0.000000 0.358465 0.200520
O O12 0.874976 0.157550 0.398558
O O13 0.633231 0.125257 0.358864
O O14 0.000000 0.869283 0.731964
O O15 0.707229 0.500000 0.500000
O O16 0.500000 0.594067 0.441099
#
# Coordination Sequence:
#
# PCOD8221623 Si02
#       8
#     8   4   4   8   8   4   4   8
#     4  12  24  44  69  98 128 173 220 277 331 391
#     4  11  27  47  65  95 136 177 220 270 338 395
#     4  11  25  43  69  93 128 173 228 274 322 391
#     4  11  24  42  67  99 134 173 221 272 327 399
#     4  12  24  39  67  99 131 173 222 268 335 393
#     4  11  25  45  64  90 144 185 205 269 340 389
#     4  11  23  41  64  98 130 171 225 275 318 389
#     4  10  21  43  69  93 129 170 214 272 338 387
#
# _framework density 20.380528000000002
#
# number of rings (size 3 to 8) (size 9 to 14) (size 15 to 20)
#    0.000    0.833    3.333    4.000    1.167    8.000 
#    1.500    0.417    0.000    0.000    0.000    0.000 
#    0.000    0.000    0.000    0.000    0.000    0.000 
#
# Total GULP energy -595473.045046 kJ/mol
# GULP energy per Si atom -12405.688438 kJ/mol
# Density = 2.033414 g / cm^3
# Si number density = 20.380528 Si / 1000 Ang^3
#
#
#
# Elastic Constant Matrix: (Units=GPa)
#
#
# Indices 1 2 3 4 5 6 
#
# 1 104.6690 29.4143 17.1613 0.0000 0.0000 0.0000
# 2 29.4143 92.1216 35.5626 0.0000 0.0000 0.0000
# 3 17.1613 35.5626 101.8882 0.0000 0.0000 0.0000
# 4 0.0000 0.0000 0.0000 35.0527 0.0000 0.0000
# 5 0.0000 0.0000 0.0000 0.0000 38.0980 0.0000
# 6 0.0000 0.0000 0.0000 0.0000 0.0000 598.2626
#
#
#
# Elastic Compliance Matrix: (Units=1/GPa)
#
#
# Indices 1 2 3 4 5 6 
#
# 1 0.010538 -0.003097 -0.000694 0.000000 0.000000 0.000000
# 2 -0.003097 0.013456 -0.004175 0.000000 0.000000 0.000000
# 3 -0.000694 -0.004175 0.011389 0.000000 0.000000 0.000000
# 4 0.000000 0.000000 0.000000 0.028528 0.000000 0.000000
# 5 0.000000 0.000000 0.000000 0.000000 0.026248 0.000000
# 6 0.000000 0.000000 0.000000 0.000000 0.000000 0.001672
#
#
# Mechanical properties :
#
#
# Convention : Reuss Voigt Hill
#
# Bulk Modulus (GPa) = 51.41149 51.43946 51.42548
# Shear Modulus (GPa) = 43.76528 148.71869 96.24199
#
# Velocity S-wave (km/s) = 4.63904 8.55157 6.87932
# Velocity P-wave (km/s) = 7.34675 11.08152 9.40146
#
# Compressibility (1/GPa) = 0.01945091
#
# Stress axis : x y z
#
# Youngs Moduli (GPa) = 94.89468 74.31781 87.80580
#
# Poissons Ratio (x) = 0.23015 0.06094
# Poissons Ratio (y) = 0.29387 0.36658
# Poissons Ratio (z) = 0.06586 0.31027
#
# Static dielectric constant tensor:
#      x y z
#    x 3.693970 0.000000 0.000000 
#    y 0.000000 3.829520 0.000000 
#    z 0.000000 0.000000 3.817930 
# 
# 
# High freq. dielectric constant tensor:
#      x y z
#    x 1.793700 0.000000 0.000000 
#    y 0.000000 1.809500 0.000000 
#    z 0.000000 0.000000 1.808530 
# 
# From -- ./inp_files/26367.got.cif
#   From: 2010.03.12/outbox.cif.g09.slc.cpg/sg53_14_cif.got.tgz:26367.got - 2010.04.16 14:36:59.
