data_PCOD8221204
_publ_section_title
;
Structure prediction by ZEFSAII (Michael W. Deem and Ramdas Pophale) SiO2 
 PCOD8221204
Probable space group: P M N A
;
_chemical_formula_sum "Si O2"
_cell_formula_units_Z 48
_cell_length_a 15.954392
_cell_length_b 10.176927
_cell_length_c 15.768398
_cell_angle_alpha 90.000000
_cell_angle_beta 90.000000
_cell_angle_gamma 90.000000
_cell_volume 2560.262475
_symmetry_space_group_name_H-M "P M N A"
_symmetry_group_IT_number 53
_symmetry_cell_setting 'orthorhombic'
loop_
_space_group_symop_operation_xyz
x,y,z
1/2-x,-y,1/2+z
x,-y,-z
1/2-x,y,1/2-z
-x,-y,-z
1/2+x,y,1/2-z
-x,y,z
1/2+x,-y,1/2+z
loop_
_atom_site_type_symbol
_atom_site_label
_atom_site_fract_x
_atom_site_fract_y
_atom_site_fract_z
Si Si1 0.904694 0.729088 0.884297
Si Si2 0.196351 0.748933 0.171718
Si Si3 0.092219 0.401217 0.422490
Si Si4 0.904768 0.981338 0.093972
Si Si5 0.246636 0.344072 0.001632
Si Si6 0.903976 0.498654 0.760347
O O1 0.840617 0.707701 0.961145
O O2 0.880783 0.635885 0.806020
O O3 0.000000 0.700395 0.916491
O O4 0.897388 0.880822 0.855031
O O5 0.250000 0.800798 0.250000
O O6 0.136687 0.868721 0.149110
O O7 0.148327 0.617638 0.198858
O O8 0.255867 0.714179 0.092445
O O9 0.083860 0.500000 0.500000
O O10 0.169464 0.301759 0.444529
O O11 0.116969 0.482861 0.338558
O O12 0.000000 0.331695 0.409762
O O13 0.000000 0.936490 0.081381
O O14 0.864123 0.000000 0.000000
O O15 0.242426 0.500000 0.000000
O O16 0.000000 0.461482 0.774306
#
# Coordination Sequence:
#
# PCOD8221204 Si02
#       6
#     8   8   8   8   8   8
#     4  10  21  36  58  89 117 148 191 238 301 362
#     4  12  23  36  55  88 120 150 196 241 291 351
#     4   9  19  36  55  81 116 156 195 234 289 349
#     4  10  21  40  60  79 114 159 195 235 295 361
#     4  11  20  34  56  85 117 150 187 243 292 345
#     4  10  21  37  60  88 116 148 192 248 297 347
#
# _framework density 18.748076999999999
#
# number of rings (size 3 to 8) (size 9 to 14) (size 15 to 20)
#    0.000    1.667    3.333    2.500    0.000    1.000 
#    3.000    0.833    0.000    0.000    0.000    2.333 
#    0.000    0.833    0.000    0.000    0.000    0.000 
#
# Total GULP energy -594917.671580 kJ/mol
# GULP energy per Si atom -12394.118158 kJ/mol
# Density = 1.870541 g / cm^3
# Si number density = 18.748077 Si / 1000 Ang^3
#
#
#
# Elastic Constant Matrix: (Units=GPa)
#
#
# Indices 1 2 3 4 5 6 
#
# 1 117.4612 43.9191 53.3513 0.0000 0.0000 0.0000
# 2 43.9191 104.9720 51.1929 0.0000 0.0000 0.0000
# 3 53.3513 51.1929 120.6265 0.0000 0.0000 0.0000
# 4 0.0000 0.0000 0.0000 19.7923 0.0000 0.0000
# 5 0.0000 0.0000 0.0000 0.0000 23.7192 0.0000
# 6 0.0000 0.0000 0.0000 0.0000 0.0000 21.5397
#
#
#
# Elastic Compliance Matrix: (Units=1/GPa)
#
#
# Indices 1 2 3 4 5 6 
#
# 1 0.011309 -0.002890 -0.003775 0.000000 0.000000 0.000000
# 2 -0.002890 0.012751 -0.004133 0.000000 0.000000 0.000000
# 3 -0.003775 -0.004133 0.011714 0.000000 0.000000 0.000000
# 4 0.000000 0.000000 0.000000 0.050525 0.000000 0.000000
# 5 0.000000 0.000000 0.000000 0.000000 0.042160 0.000000
# 6 0.000000 0.000000 0.000000 0.000000 0.000000 0.046426
#
#
# Mechanical properties :
#
#
# Convention : Reuss Voigt Hill
#
# Bulk Modulus (GPa) = 70.53862 71.10959 70.82410
# Shear Modulus (GPa) = 24.85001 25.98336 25.41668
#
# Velocity S-wave (km/s) = 3.64465 3.72683 3.68597
# Velocity P-wave (km/s) = 7.44429 7.51867 7.48157
#
# Compressibility (1/GPa) = 0.01417663
#
# Stress axis : x y z
#
# Youngs Moduli (GPa) = 88.42644 78.42311 85.36960
#
# Poissons Ratio (x) = 0.22668 0.32227
# Poissons Ratio (y) = 0.25559 0.35285
# Poissons Ratio (z) = 0.33381 0.32413
#
# Static dielectric constant tensor:
#      x y z
#    x 4.299160 0.000000 0.000000 
#    y 0.000000 3.278600 0.000000 
#    z 0.000000 0.000000 3.633410 
# 
# 
# High freq. dielectric constant tensor:
#      x y z
#    x 1.737220 0.000000 0.000000 
#    y 0.000000 1.701790 0.000000 
#    z 0.000000 0.000000 1.731930 
# 
# From -- ./inp_files/23666.got.cif
#   From: 2010.03.12/outbox.cif.g09.slc.cpg/sg53_12_cif.got.tgz:23666.got - 2010.04.16 14:36:59.
