data_PCOD8221471
_publ_section_title
;
Structure prediction by ZEFSAII (Michael W. Deem and Ramdas Pophale) SiO2 
 PCOD8221471
Probable space group: P M N A
;
_chemical_formula_sum "Si O2"
_cell_formula_units_Z 56
_cell_length_a 9.035461
_cell_length_b 15.200680
_cell_length_c 20.876988
_cell_angle_alpha 90.000000
_cell_angle_beta 90.000000
_cell_angle_gamma 90.000000
_cell_volume 2867.353076
_symmetry_space_group_name_H-M "P M N A"
_symmetry_group_IT_number 53
_symmetry_cell_setting 'orthorhombic'
loop_
_space_group_symop_operation_xyz
x,y,z
1/2-x,-y,1/2+z
x,-y,-z
1/2-x,y,1/2-z
-x,-y,-z
1/2+x,y,1/2-z
-x,y,z
1/2+x,-y,1/2+z
loop_
_atom_site_type_symbol
_atom_site_label
_atom_site_fract_x
_atom_site_fract_y
_atom_site_fract_z
Si Si1 0.175790 0.585465 0.458258
Si Si2 0.669076 0.186929 0.116056
Si Si3 0.174813 0.452568 0.685108
Si Si4 0.664200 0.351749 0.192450
Si Si5 0.323014 0.959371 0.685781
Si Si6 0.172408 0.944987 0.059414
Si Si7 0.171933 0.234397 0.994153
O O1 0.231063 0.500000 0.500000
O O2 0.226561 0.587112 0.383375
O O3 0.239713 0.675465 0.486569
O O4 0.000000 0.588632 0.463225
O O5 0.500000 0.154111 0.105862
O O6 0.669361 0.291069 0.130428
O O7 0.769984 0.177418 0.053997
O O8 0.748980 0.135769 0.173774
O O9 0.250000 0.411375 0.750000
O O10 0.230692 0.552738 0.677078
O O11 0.000000 0.441399 0.693084
O O12 0.750000 0.304774 0.250000
O O13 0.500000 0.366005 0.217778
O O14 0.250000 0.998952 0.750000
O O15 0.500000 0.952571 0.692595
O O16 0.267417 0.020112 0.627146
O O17 0.000000 0.965221 0.056263
O O18 0.200069 0.839024 0.060716
O O19 0.246349 0.000000 0.000000
O O20 0.000000 0.257816 0.002181
#
# Coordination Sequence:
#
# PCOD8221471 Si02
#       7
#     8   8   8   8   8   8   8
#     4  10  21  39  60  84 119 158 195 244 304 360
#     4  11  21  34  53  81 116 152 190 234 294 362
#     4   9  18  34  55  76 104 147 191 234 287 344
#     4   9  18  31  48  72 104 143 184 225 277 343
#     4  11  22  38  59  84 117 153 195 243 299 356
#     4   9  18  38  62  82 111 154 193 233 291 350
#     4  11  22  37  60  87 112 148 198 248 297 351
#
# _framework density 19.530207000000001
#
# number of rings (size 3 to 8) (size 9 to 14) (size 15 to 20)
#    0.000    2.000    1.429    2.571    0.000    5.429 
#    0.000    7.143    0.000    3.429    0.000    0.000 
#    0.000    0.000    0.000    0.000    0.000    0.000 
#
# Total GULP energy -693818.570353 kJ/mol
# GULP energy per Si atom -12389.617328 kJ/mol
# Density = 1.948576 g / cm^3
# Si number density = 19.530207 Si / 1000 Ang^3
#
#
#
# Elastic Constant Matrix: (Units=GPa)
#
#
# Indices 1 2 3 4 5 6 
#
# 1 47.7683 26.0413 32.7183 0.0000 0.0000 0.0000
# 2 26.0413 81.0835 38.3115 0.0000 0.0000 0.0000
# 3 32.7183 38.3115 135.0646 0.0000 0.0000 0.0000
# 4 0.0000 0.0000 0.0000 28.8115 0.0000 0.0000
# 5 0.0000 0.0000 0.0000 0.0000 32.7977 0.0000
# 6 0.0000 0.0000 0.0000 0.0000 0.0000 34.8493
#
#
#
# Elastic Compliance Matrix: (Units=1/GPa)
#
#
# Indices 1 2 3 4 5 6 
#
# 1 0.027900 -0.006660 -0.004870 0.000000 0.000000 0.000000
# 2 -0.006660 0.015831 -0.002877 0.000000 0.000000 0.000000
# 3 -0.004870 -0.002877 0.009400 0.000000 0.000000 0.000000
# 4 0.000000 0.000000 0.000000 0.034708 0.000000 0.000000
# 5 0.000000 0.000000 0.000000 0.000000 0.030490 0.000000
# 6 0.000000 0.000000 0.000000 0.000000 0.000000 0.028695
#
#
# Mechanical properties :
#
#
# Convention : Reuss Voigt Hill
#
# Bulk Modulus (GPa) = 41.12180 50.89538 46.00859
# Shear Modulus (GPa) = 27.18216 30.41474 28.79845
#
# Velocity S-wave (km/s) = 3.73473 3.95057 3.84417
# Velocity P-wave (km/s) = 6.30070 6.85023 6.58121
#
# Compressibility (1/GPa) = 0.02431800
#
# Stress axis : x y z
#
# Youngs Moduli (GPa) = 35.84177 63.16560 106.38709
#
# Poissons Ratio (x) = 0.42067 0.51806
# Poissons Ratio (y) = 0.23870 0.30611
# Poissons Ratio (z) = 0.17453 0.18175
#
# Static dielectric constant tensor:
#      x y z
#    x 3.424260 0.000000 0.000000 
#    y 0.000000 3.449500 0.000000 
#    z 0.000000 0.000000 3.798060 
# 
# 
# High freq. dielectric constant tensor:
#      x y z
#    x 1.746660 0.000000 0.000000 
#    y 0.000000 1.748150 0.000000 
#    z 0.000000 0.000000 1.764590 
# 
# From -- ./inp_files/30807.got.cif
#   From: 2010.03.12/outbox.cif.g09.slc.cpg/sg53_16_cif.got.tgz:30807.got - 2010.04.16 14:36:59.
