data_PCOD8221636
_publ_section_title
;
Structure prediction by ZEFSAII (Michael W. Deem and Ramdas Pophale) SiO2 
 PCOD8221636
Probable space group: P M N A
;
_chemical_formula_sum "Si O2"
_cell_formula_units_Z 48
_cell_length_a 31.329133
_cell_length_b 7.595646
_cell_length_c 9.760762
_cell_angle_alpha 90.000000
_cell_angle_beta 90.000000
_cell_angle_gamma 90.000000
_cell_volume 2322.719766
_symmetry_space_group_name_H-M "P M N A"
_symmetry_group_IT_number 53
_symmetry_cell_setting 'orthorhombic'
loop_
_space_group_symop_operation_xyz
x,y,z
1/2-x,-y,1/2+z
x,-y,-z
1/2-x,y,1/2-z
-x,-y,-z
1/2+x,y,1/2-z
-x,y,z
1/2+x,-y,1/2+z
loop_
_atom_site_type_symbol
_atom_site_label
_atom_site_fract_x
_atom_site_fract_y
_atom_site_fract_z
Si Si1 0.343065 0.705456 0.031379
Si Si2 0.387755 0.797239 0.762672
Si Si3 0.548950 0.498369 0.339002
Si Si4 0.749153 0.323684 0.912611
Si Si5 0.397838 0.813556 0.283923
Si Si6 0.162781 0.290617 0.012896
O O1 0.369908 0.805542 0.916354
O O2 0.342338 0.500000 0.000000
O O3 0.294340 0.777558 0.044991
O O4 0.364599 0.737875 0.175825
O O5 0.422582 0.646167 0.738333
O O6 0.345722 0.766390 0.669424
O O7 0.410874 0.984338 0.739215
O O8 0.558764 0.500000 0.500000
O O9 0.500000 0.455017 0.306931
O O10 0.559871 0.692307 0.280665
O O11 0.750000 0.364304 0.750000
O O12 0.791563 0.216336 0.958830
O O13 0.751247 0.500000 0.000000
O O14 0.375365 0.799828 0.430521
O O15 0.159783 0.500000 0.000000
#
# Coordination Sequence:
#
# PCOD8221636 Si02
#       6
#     8   8   8   8   8   8
#     4  11  22  41  65  91 133 174 215 265 319 376
#     4  12  24  40  66  99 127 170 216 262 323 390
#     4  11  24  44  70  98 129 165 209 269 330 391
#     4  10  22  35  61  94 128 173 226 266 311 370
#     4  12  22  42  66  96 129 167 213 264 321 387
#     4  11  20  39  64  89 131 173 216 265 314 373
#
# _framework density 20.665427000000001
#
# number of rings (size 3 to 8) (size 9 to 14) (size 15 to 20)
#    0.000    0.833    6.667    1.000    7.000    0.667 
#    0.000    8.333    0.000    2.000    0.000    0.000 
#    0.000    0.000    0.000    0.000    0.000    0.000 
#
# Total GULP energy -595138.184690 kJ/mol
# GULP energy per Si atom -12398.712181 kJ/mol
# Density = 2.061839 g / cm^3
# Si number density = 20.665427 Si / 1000 Ang^3
#
#
#
# Elastic Constant Matrix: (Units=GPa)
#
#
# Indices 1 2 3 4 5 6 
#
# 1 123.5160 30.2826 37.9423 0.0000 0.0000 0.0000
# 2 30.2826 110.1719 15.1117 0.0000 0.0000 0.0000
# 3 37.9423 15.1117 64.6514 0.0000 0.0000 0.0000
# 4 0.0000 0.0000 0.0000 28.0463 0.0000 0.0000
# 5 0.0000 0.0000 0.0000 0.0000 19.6157 0.0000
# 6 0.0000 0.0000 0.0000 0.0000 0.0000 7.8790
#
#
#
# Elastic Compliance Matrix: (Units=1/GPa)
#
#
# Indices 1 2 3 4 5 6 
#
# 1 0.010315 -0.002071 -0.005569 0.000000 0.000000 0.000000
# 2 -0.002071 0.009793 -0.001074 0.000000 0.000000 0.000000
# 3 -0.005569 -0.001074 0.018987 0.000000 0.000000 0.000000
# 4 0.000000 0.000000 0.000000 0.035655 0.000000 0.000000
# 5 0.000000 0.000000 0.000000 0.000000 0.050979 0.000000
# 6 0.000000 0.000000 0.000000 0.000000 0.000000 0.126920
#
#
# Mechanical properties :
#
#
# Convention : Reuss Voigt Hill
#
# Bulk Modulus (GPa) = 46.15354 51.66805 48.91079
# Shear Modulus (GPa) = 18.03101 25.44172 21.73637
#
# Velocity S-wave (km/s) = 2.95705 3.51255 3.24670
# Velocity P-wave (km/s) = 5.83447 6.44260 6.14606
#
# Compressibility (1/GPa) = 0.02166681
#
# Stress axis : x y z
#
# Youngs Moduli (GPa) = 96.94854 102.11071 52.66759
#
# Poissons Ratio (x) = 0.21150 0.29332
# Poissons Ratio (y) = 0.20081 0.05654
# Poissons Ratio (z) = 0.53994 0.10962
#
# Static dielectric constant tensor:
#      x y z
#    x 3.976540 0.000000 0.000000 
#    y 0.000000 3.652680 0.000000 
#    z 0.000000 0.000000 4.151850 
# 
# 
# High freq. dielectric constant tensor:
#      x y z
#    x 1.801220 0.000000 0.000000 
#    y 0.000000 1.796220 0.000000 
#    z 0.000000 0.000000 1.816760 
# 
# From -- ./inp_files/12967.got.cif
#   From: 2010.03.12/outbox.cif.g09.slc.cpg/sg53_7_cif.got.tgz:12967.got - 2010.04.16 14:36:59.
