data_PCOD8221103
_publ_section_title
;
Structure prediction by ZEFSAII (Michael W. Deem and Ramdas Pophale) SiO2 
 PCOD8221103
Probable space group: P M N A
;
_chemical_formula_sum "Si O2"
_cell_formula_units_Z 40
_cell_length_a 14.536573
_cell_length_b 14.425994
_cell_length_c 9.504819
_cell_angle_alpha 90.000000
_cell_angle_beta 90.000000
_cell_angle_gamma 90.000000
_cell_volume 1993.203457
_symmetry_space_group_name_H-M "P M N A"
_symmetry_group_IT_number 53
_symmetry_cell_setting 'orthorhombic'
loop_
_space_group_symop_operation_xyz
x,y,z
1/2-x,-y,1/2+z
x,-y,-z
1/2-x,y,1/2-z
-x,-y,-z
1/2+x,y,1/2-z
-x,y,z
1/2+x,-y,1/2+z
loop_
_atom_site_type_symbol
_atom_site_label
_atom_site_fract_x
_atom_site_fract_y
_atom_site_fract_z
Si Si1 0.101885 0.639763 0.730506
Si Si2 0.898673 0.846747 0.625184
Si Si3 0.607926 0.904208 0.572783
Si Si4 0.250568 0.208217 0.587442
Si Si5 0.240277 0.601439 0.960110
O O1 0.092732 0.742023 0.673532
O O2 0.155455 0.645979 0.876568
O O3 0.165853 0.580671 0.625524
O O4 0.000000 0.594474 0.745154
O O5 0.862712 0.904870 0.761421
O O6 0.829444 0.850394 0.493251
O O7 0.000000 0.882557 0.577030
O O8 0.500000 0.884832 0.562640
O O9 0.654755 0.821387 0.486021
O O10 0.637015 0.000000 0.500000
O O11 0.250000 0.179198 0.750000
O O12 0.238480 0.320614 0.578693
O O13 0.204689 0.500000 0.000000
#
# Coordination Sequence:
#
# PCOD8221103 Si02
#       5
#     8   8   8   8   8
#     4   9  18  35  58  80 105 151 204 244 288 345
#     4   9  18  38  63  84 113 154 199 242 291 348
#     4  10  21  39  64  89 114 151 198 244 292 353
#     4  11  23  36  57  89 123 158 193 243 302 355
#     4  10  21  35  56  81 117 154 197 249 295 347
#
# _framework density 20.068199
#
# number of rings (size 3 to 8) (size 9 to 14) (size 15 to 20)
#    0.000    2.200    2.000    0.600    2.800    3.200 
#    0.000    0.000    0.000    4.200    0.000    0.000 
#    0.000    0.000    0.000    0.000    0.000    0.000 
#
# Total GULP energy -495627.002232 kJ/mol
# GULP energy per Si atom -12390.675056 kJ/mol
# Density = 2.002252 g / cm^3
# Si number density = 20.068199 Si / 1000 Ang^3
#
#
#
# Elastic Constant Matrix: (Units=GPa)
#
#
# Indices 1 2 3 4 5 6 
#
# 1 119.8070 16.0075 56.5594 0.0000 0.0000 0.0000
# 2 16.0075 65.0593 33.7363 0.0000 0.0000 0.0000
# 3 56.5594 33.7363 147.1753 0.0000 0.0000 0.0000
# 4 0.0000 0.0000 0.0000 11.4087 0.0000 0.0000
# 5 0.0000 0.0000 0.0000 0.0000 20.3927 0.0000
# 6 0.0000 0.0000 0.0000 0.0000 0.0000 31.3061
#
#
#
# Elastic Compliance Matrix: (Units=1/GPa)
#
#
# Indices 1 2 3 4 5 6 
#
# 1 0.010213 -0.000542 -0.003801 0.000000 0.000000 0.000000
# 2 -0.000542 0.017473 -0.003797 0.000000 0.000000 0.000000
# 3 -0.003801 -0.003797 0.009126 0.000000 0.000000 0.000000
# 4 0.000000 0.000000 0.000000 0.087652 0.000000 0.000000
# 5 0.000000 0.000000 0.000000 0.000000 0.049037 0.000000
# 6 0.000000 0.000000 0.000000 0.000000 0.000000 0.031943
#
#
# Mechanical properties :
#
#
# Convention : Reuss Voigt Hill
#
# Bulk Modulus (GPa) = 48.70351 60.51645 54.60998
# Shear Modulus (GPa) = 21.87538 27.67074 24.77306
#
# Velocity S-wave (km/s) = 3.30518 3.71730 3.51728
# Velocity P-wave (km/s) = 6.23597 6.97461 6.61561
#
# Compressibility (1/GPa) = 0.02053240
#
# Stress axis : x y z
#
# Youngs Moduli (GPa) = 97.90982 57.23169 109.58190
#
# Poissons Ratio (x) = 0.03103 0.41650
# Poissons Ratio (y) = 0.05308 0.41607
# Poissons Ratio (z) = 0.37213 0.21730
#
# Static dielectric constant tensor:
#      x y z
#    x 4.307030 0.000000 0.000000 
#    y 0.000000 3.488530 0.000000 
#    z 0.000000 0.000000 3.654650 
# 
# 
# High freq. dielectric constant tensor:
#      x y z
#    x 1.791450 0.000000 0.000000 
#    y 0.000000 1.765390 0.000000 
#    z 0.000000 0.000000 1.769220 
# 
# From -- ./inp_files/8352.got.cif
#   From: 2010.03.12/outbox.cif.g09.slc.cpg/sg53_5_cif.got.tgz:8352.got - 2010.04.16 14:36:59.
