data_PCOD8221522
_publ_section_title
;
Structure prediction by ZEFSAII (Michael W. Deem and Ramdas Pophale) SiO2 
 PCOD8221522
Probable space group: P M N A
;
_chemical_formula_sum "Si O2"
_cell_formula_units_Z 64
_cell_length_a 8.531512
_cell_length_b 21.473977
_cell_length_c 17.776398
_cell_angle_alpha 90.000000
_cell_angle_beta 90.000000
_cell_angle_gamma 90.000000
_cell_volume 3256.733750
_symmetry_space_group_name_H-M "P M N A"
_symmetry_group_IT_number 53
_symmetry_cell_setting 'orthorhombic'
loop_
_space_group_symop_operation_xyz
x,y,z
1/2-x,-y,1/2+z
x,-y,-z
1/2-x,y,1/2-z
-x,-y,-z
1/2+x,y,1/2-z
-x,y,z
1/2+x,-y,1/2+z
loop_
_atom_site_type_symbol
_atom_site_label
_atom_site_fract_x
_atom_site_fract_y
_atom_site_fract_z
Si Si1 0.816126 0.067358 0.028316
Si Si2 0.181640 0.625818 0.591956
Si Si3 0.815211 0.271079 0.832936
Si Si4 0.317988 0.389764 0.569187
Si Si5 0.317023 0.755511 0.593635
Si Si6 0.816230 0.182958 0.549334
Si Si7 0.183148 0.507791 0.829542
Si Si8 0.184333 0.870870 0.671643
O O1 0.726196 0.080948 0.105815
O O2 0.000000 0.070322 0.044458
O O3 0.771354 0.117727 0.964981
O O4 0.762415 0.000000 0.000000
O O5 0.217143 0.609193 0.505960
O O6 0.278294 0.685930 0.619903
O O7 0.227925 0.569605 0.645755
O O8 0.000000 0.640541 0.601556
O O9 0.750000 0.278444 0.750000
O O10 0.765934 0.332547 0.878595
O O11 0.738251 0.210412 0.871005
O O12 0.000000 0.262228 0.830713
O O13 0.500000 0.383994 0.546902
O O14 0.281663 0.453642 0.611354
O O15 0.500000 0.763606 0.577970
O O16 0.226365 0.767915 0.515761
O O17 0.263456 0.803882 0.657140
O O18 0.000000 0.170349 0.549647
O O19 0.250000 0.485259 0.750000
O O20 0.000000 0.521771 0.823622
O O21 0.250000 0.897659 0.750000
O O22 0.000000 0.862016 0.675860
#
# Coordination Sequence:
#
# PCOD8221522 Si02
#       8
#     8   8   8   8   8   8   8   8
#     4  10  21  39  64  92 123 163 206 246 292 347
#     4  12  24  38  60  88 116 152 198 244 296 357
#     4  11  22  37  59  87 120 156 196 245 300 354
#     4  10  22  40  62  85 114 154 195 244 299 356
#     4  11  21  37  60  86 117 153 194 241 295 351
#     4  11  21  36  59  88 120 155 195 240 290 348
#     4  11  24  42  60  82 114 152 196 244 302 359
#     4  11  22  38  61  91 126 161 201 247 298 352
#
# _framework density 19.651591
#
# number of rings (size 3 to 8) (size 9 to 14) (size 15 to 20)
#    0.000    1.125    1.250    7.875    0.000    4.500 
#    0.000    3.125    0.000    3.000    0.000    0.000 
#    0.000    0.000    0.000    0.000    0.000    0.000 
#
# Total GULP energy -794023.507815 kJ/mol
# GULP energy per Si atom -12406.617310 kJ/mol
# Density = 1.960686 g / cm^3
# Si number density = 19.651591 Si / 1000 Ang^3
#
#
#
# Elastic Constant Matrix: (Units=GPa)
#
#
# Indices 1 2 3 4 5 6 
#
# 1 78.3048 22.9350 22.6795 0.0000 0.0000 0.0000
# 2 22.9350 113.9111 25.1976 0.0000 0.0000 0.0000
# 3 22.6795 25.1976 72.9948 0.0000 0.0000 0.0000
# 4 0.0000 0.0000 0.0000 -8.8633 0.0000 0.0000
# 5 0.0000 0.0000 0.0000 0.0000 36.2324 0.0000
# 6 0.0000 0.0000 0.0000 0.0000 0.0000 15.4576
#
#
#
# Elastic Compliance Matrix: (Units=1/GPa)
#
#
# Indices 1 2 3 4 5 6 
#
# 1 0.014474 -0.002078 -0.003780 0.000000 0.000000 0.000000
# 2 -0.002078 0.009803 -0.002738 0.000000 0.000000 0.000000
# 3 -0.003780 -0.002738 0.015819 0.000000 0.000000 0.000000
# 4 0.000000 0.000000 0.000000 -0.112825 0.000000 0.000000
# 5 0.000000 0.000000 0.000000 0.000000 0.027600 0.000000
# 6 0.000000 0.000000 0.000000 0.000000 0.000000 0.064693
#
#
# Mechanical properties :
#
#
# Convention : Reuss Voigt Hill
#
# Bulk Modulus (GPa) = 43.66066 45.20386 44.43226
# Shear Modulus (GPa) = 112.63760 21.52526 67.08143
#
# Velocity S-wave (km/s) = 7.57903 3.31319 5.84889
# Velocity P-wave (km/s) = 9.94256 6.13913 8.26267
#
# Compressibility (1/GPa) = 0.02290391
#
# Stress axis : x y z
#
# Youngs Moduli (GPa) = 69.08941 102.01060 63.21431
#
# Poissons Ratio (x) = 0.21199 0.23893
# Poissons Ratio (y) = 0.14358 0.17310
# Poissons Ratio (z) = 0.26114 0.27933
#
# Static dielectric constant tensor:
#      x y z
#    x 3.660790 0.000000 0.000000 
#    y 0.000000 3.627190 0.000000 
#    z 0.000000 0.000000 3.729220 
# 
# 
# High freq. dielectric constant tensor:
#      x y z
#    x 1.780610 0.000000 0.000000 
#    y 0.000000 1.765480 0.000000 
#    z 0.000000 0.000000 1.763250 
# 
# From -- ./inp_files/26960.got.cif
#   From: 2010.03.12/outbox.cif.g09.slc.cpg/sg53_14_cif.got.tgz:26960.got - 2010.04.16 14:36:59.
