data_PCOD8221001
_publ_section_title
;
Structure prediction by ZEFSAII (Michael W. Deem and Ramdas Pophale) SiO2 
 PCOD8221001
Probable space group: P M N A
;
_chemical_formula_sum "Si O2"
_cell_formula_units_Z 44
_cell_length_a 18.139390
_cell_length_b 8.361067
_cell_length_c 13.666393
_cell_angle_alpha 90.000000
_cell_angle_beta 90.000000
_cell_angle_gamma 90.000000
_cell_volume 2072.708781
_symmetry_space_group_name_H-M "P M N A"
_symmetry_group_IT_number 53
_symmetry_cell_setting 'orthorhombic'
loop_
_space_group_symop_operation_xyz
x,y,z
1/2-x,-y,1/2+z
x,-y,-z
1/2-x,y,1/2-z
-x,-y,-z
1/2+x,y,1/2-z
-x,y,z
1/2+x,-y,1/2+z
loop_
_atom_site_type_symbol
_atom_site_label
_atom_site_fract_x
_atom_site_fract_y
_atom_site_fract_z
Si Si1 0.781303 0.164825 0.041874
Si Si2 0.000000 0.071017 0.685326
Si Si3 0.668050 0.360509 0.283542
Si Si4 0.500000 0.875540 0.409758
Si Si5 0.500000 0.684457 0.028252
Si Si6 0.872142 0.624610 0.077984
Si Si7 0.115502 0.828511 0.608940
O O1 0.830480 0.220852 0.134394
O O2 0.697727 0.132982 0.073769
O O3 0.792942 0.303549 0.959587
O O4 0.814339 0.000000 0.000000
O O5 0.000000 0.047948 0.801844
O O6 0.000000 0.255163 0.642599
O O7 0.074145 0.987426 0.644655
O O8 0.750000 0.396786 0.250000
O O9 0.636891 0.530611 0.320342
O O10 0.616220 0.301800 0.195924
O O11 0.572706 0.770109 0.413923
O O12 0.500000 0.000000 0.500000
O O13 0.500000 0.500000 0.000000
O O14 0.426343 0.756261 0.982554
O O15 0.904580 0.500000 0.000000
#
# Coordination Sequence:
#
# PCOD8221001 Si02
#       7
#     8   4   8   4   4   8   8
#     4  10  20  39  65  92 127 169 224 271 331 396
#     4  11  26  43  67  97 132 178 228 277 339 406
#     4   9  21  39  62  98 131 174 216 276 340 401
#     4  12  28  43  67  98 139 173 228 278 337 414
#     4  11  25  42  65  96 125 171 227 275 333 392
#     4  10  23  41  65  91 133 173 220 271 341 400
#     4  10  22  43  67  89 137 173 220 274 339 394
#
# _framework density 21.228259999999999
#
# number of rings (size 3 to 8) (size 9 to 14) (size 15 to 20)
#    0.000    1.818    0.000    3.000   10.182    4.364 
#    3.273    0.000    0.000    0.000    0.000    0.000 
#    0.000    0.000    0.000    0.000    0.000    0.000 
#
# Total GULP energy -545318.046197 kJ/mol
# GULP energy per Si atom -12393.591959 kJ/mol
# Density = 2.117994 g / cm^3
# Si number density = 21.228260 Si / 1000 Ang^3
#
#
#
# Elastic Constant Matrix: (Units=GPa)
#
#
# Indices 1 2 3 4 5 6 
#
# 1 82.6531 37.4216 29.3668 0.0000 0.0000 0.0000
# 2 37.4216 126.2481 63.8422 0.0000 0.0000 0.0000
# 3 29.3668 63.8422 125.0021 0.0000 0.0000 0.0000
# 4 0.0000 0.0000 0.0000 53.8851 0.0000 0.0000
# 5 0.0000 0.0000 0.0000 0.0000 11.2127 0.0000
# 6 0.0000 0.0000 0.0000 0.0000 0.0000 20.2783
#
#
#
# Elastic Compliance Matrix: (Units=1/GPa)
#
#
# Indices 1 2 3 4 5 6 
#
# 1 0.014208 -0.003402 -0.001600 0.000000 0.000000 0.000000
# 2 -0.003402 0.011494 -0.005071 0.000000 0.000000 0.000000
# 3 -0.001600 -0.005071 0.010966 0.000000 0.000000 0.000000
# 4 0.000000 0.000000 0.000000 0.018558 0.000000 0.000000
# 5 0.000000 0.000000 0.000000 0.000000 0.089185 0.000000
# 6 0.000000 0.000000 0.000000 0.000000 0.000000 0.049314
#
#
# Mechanical properties :
#
#
# Convention : Reuss Voigt Hill
#
# Bulk Modulus (GPa) = 60.53095 66.12938 63.33017
# Shear Modulus (GPa) = 22.79185 30.62672 26.70929
#
# Velocity S-wave (km/s) = 3.28022 3.80245 3.55095
# Velocity P-wave (km/s) = 6.55154 7.10615 6.83448
#
# Compressibility (1/GPa) = 0.01652047
#
# Stress axis : x y z
#
# Youngs Moduli (GPa) = 70.38454 87.00467 91.19375
#
# Poissons Ratio (x) = 0.29600 0.14593
# Poissons Ratio (y) = 0.23946 0.46243
# Poissons Ratio (z) = 0.11263 0.44119
#
# Static dielectric constant tensor:
#      x y z
#    x 3.693530 0.000000 0.000000 
#    y 0.000000 3.924160 0.000000 
#    z 0.000000 0.000000 4.196040 
# 
# 
# High freq. dielectric constant tensor:
#      x y z
#    x 1.827600 0.000000 0.000000 
#    y 0.000000 1.835260 0.000000 
#    z 0.000000 0.000000 1.838690 
# 
# From -- ./inp_files/23554.got.cif
#   From: 2010.03.12/outbox.cif.g09.slc.cpg/sg53_12_cif.got.tgz:23554.got - 2010.04.16 14:36:59.
