data_PCOD8221630
_publ_section_title
;
Structure prediction by ZEFSAII (Michael W. Deem and Ramdas Pophale) SiO2 
 PCOD8221630
Probable space group: P M N A
;
_chemical_formula_sum "Si O2"
_cell_formula_units_Z 40
_cell_length_a 26.161834
_cell_length_b 10.121140
_cell_length_c 7.597469
_cell_angle_alpha 90.000000
_cell_angle_beta 90.000000
_cell_angle_gamma 90.000000
_cell_volume 2011.715465
_symmetry_space_group_name_H-M "P M N A"
_symmetry_group_IT_number 53
_symmetry_cell_setting 'orthorhombic'
loop_
_space_group_symop_operation_xyz
x,y,z
1/2-x,-y,1/2+z
x,-y,-z
1/2-x,y,1/2-z
-x,-y,-z
1/2+x,y,1/2-z
-x,y,z
1/2+x,-y,1/2+z
loop_
_atom_site_type_symbol
_atom_site_label
_atom_site_fract_x
_atom_site_fract_y
_atom_site_fract_z
Si Si1 0.369693 0.236261 0.790202
Si Si2 0.439942 0.843830 0.505640
Si Si3 0.192136 0.990970 0.704142
Si Si4 0.190295 0.505074 0.205762
Si Si5 0.129290 0.251731 0.305368
O O1 0.418848 0.239084 0.662942
O O2 0.330703 0.357525 0.777934
O O3 0.339276 0.110621 0.711942
O O4 0.387577 0.223134 0.993175
O O5 0.500000 0.824133 0.503801
O O6 0.419847 0.771121 0.682342
O O7 0.425897 0.000000 0.500000
O O8 0.250000 0.009469 0.750000
O O9 0.171859 0.849887 0.769081
O O10 0.183489 0.000000 0.500000
O O11 0.250000 0.486490 0.250000
O O12 0.154909 0.394773 0.295160
O O13 0.182120 0.500000 0.000000
#
# Coordination Sequence:
#
# PCOD8221630 Si02
#       5
#     8   8   8   8   8
#     4  11  23  42  62  93 132 167 215 272 320 386
#     4  11  24  43  71  99 127 171 221 279 336 377
#     4  10  22  34  58  89 121 166 210 256 319 384
#     4  12  24  40  64  96 135 179 216 258 324 395
#     4  11  23  42  62  93 132 167 215 272 320 386
#
# _framework density 19.883527000000001
#
# number of rings (size 3 to 8) (size 9 to 14) (size 15 to 20)
#    0.000    1.000    4.000    3.000    2.800    4.000 
#    0.000    4.000    0.000    2.400    0.000    0.000 
#    0.000    0.000    0.000    0.000    0.000    0.000 
#
# Total GULP energy -495925.475325 kJ/mol
# GULP energy per Si atom -12398.136883 kJ/mol
# Density = 1.983827 g / cm^3
# Si number density = 19.883527 Si / 1000 Ang^3
#
#
#
# Elastic Constant Matrix: (Units=GPa)
#
#
# Indices 1 2 3 4 5 6 
#
# 1 112.7099 22.6983 46.2470 0.0000 0.0000 0.0000
# 2 22.6983 75.6701 17.2440 0.0000 0.0000 0.0000
# 3 46.2470 17.2440 123.3225 0.0000 0.0000 0.0000
# 4 0.0000 0.0000 0.0000 26.0377 0.0000 0.0000
# 5 0.0000 0.0000 0.0000 0.0000 25.6010 0.0000
# 6 0.0000 0.0000 0.0000 0.0000 0.0000 31.9667
#
#
#
# Elastic Compliance Matrix: (Units=1/GPa)
#
#
# Indices 1 2 3 4 5 6 
#
# 1 0.010897 -0.002414 -0.003749 0.000000 0.000000 0.000000
# 2 -0.002414 0.014185 -0.001078 0.000000 0.000000 0.000000
# 3 -0.003749 -0.001078 0.009665 0.000000 0.000000 0.000000
# 4 0.000000 0.000000 0.000000 0.038406 0.000000 0.000000
# 5 0.000000 0.000000 0.000000 0.000000 0.039061 0.000000
# 6 0.000000 0.000000 0.000000 0.000000 0.000000 0.031283
#
#
# Mechanical properties :
#
#
# Convention : Reuss Voigt Hill
#
# Bulk Modulus (GPa) = 49.34649 53.78678 51.56664
# Shear Modulus (GPa) = 30.35196 31.75530 31.05363
#
# Velocity S-wave (km/s) = 3.91127 4.00067 3.95622
# Velocity P-wave (km/s) = 6.72822 6.96061 6.84540
#
# Compressibility (1/GPa) = 0.02026487
#
# Stress axis : x y z
#
# Youngs Moduli (GPa) = 91.77045 70.49626 103.46192
#
# Poissons Ratio (x) = 0.17020 0.38786
# Poissons Ratio (y) = 0.22157 0.11154
# Poissons Ratio (z) = 0.34403 0.07600
#
# Static dielectric constant tensor:
#      x y z
#    x 3.376610 0.000000 0.000000 
#    y 0.000000 3.896900 0.000000 
#    z 0.000000 0.000000 3.098420 
# 
# 
# High freq. dielectric constant tensor:
#      x y z
#    x 1.760430 0.000000 0.000000 
#    y 0.000000 1.783280 0.000000 
#    z 0.000000 0.000000 1.791870 
# 
# From -- ./inp_files/11525.got.cif
#   From: 2010.03.12/outbox.cif.g09.slc.cpg/sg53_6_cif.got.tgz:11525.got - 2010.04.16 14:36:59.
