data_PCOD8221612
_publ_section_title
;
Structure prediction by ZEFSAII (Michael W. Deem and Ramdas Pophale) SiO2 
 PCOD8221612
Probable space group: P M N A
;
_chemical_formula_sum "Si O2"
_cell_formula_units_Z 64
_cell_length_a 17.432501
_cell_length_b 14.496977
_cell_length_c 12.255281
_cell_angle_alpha 90.000000
_cell_angle_beta 90.000000
_cell_angle_gamma 90.000000
_cell_volume 3097.137041
_symmetry_space_group_name_H-M "P M N A"
_symmetry_group_IT_number 53
_symmetry_cell_setting 'orthorhombic'
loop_
_space_group_symop_operation_xyz
x,y,z
1/2-x,-y,1/2+z
x,-y,-z
1/2-x,y,1/2-z
-x,-y,-z
1/2+x,y,1/2-z
-x,y,z
1/2+x,-y,1/2+z
loop_
_atom_site_type_symbol
_atom_site_label
_atom_site_fract_x
_atom_site_fract_y
_atom_site_fract_z
Si Si1 0.830750 0.506865 0.303700
Si Si2 0.910597 0.162476 0.782959
Si Si3 0.911784 0.338969 0.388435
Si Si4 0.666661 0.728278 0.459719
Si Si5 0.909976 0.227086 0.173343
Si Si6 0.836903 0.288273 0.599738
Si Si7 0.584048 0.558232 0.392150
Si Si8 0.089973 0.976312 0.880949
O O1 0.750000 0.481693 0.250000
O O2 0.855047 0.428021 0.390112
O O3 0.830492 0.608463 0.354398
O O4 0.896824 0.495535 0.211881
O O5 0.885632 0.193887 0.903999
O O6 0.861682 0.215653 0.692034
O O7 0.000000 0.182516 0.762785
O O8 0.891924 0.053134 0.787519
O O9 0.890696 0.268674 0.291286
O O10 0.898180 0.285563 0.501983
O O11 0.000000 0.370767 0.382245
O O12 0.639616 0.716630 0.584445
O O13 0.756447 0.747976 0.448000
O O14 0.650270 0.634035 0.395061
O O15 0.880995 0.121148 0.167117
O O16 0.000000 0.237400 0.146292
O O17 0.585700 0.500000 0.500000
O O18 0.500000 0.603508 0.376716
O O19 0.000000 0.970765 0.899212
O O20 0.127555 0.000000 0.000000
#
# Coordination Sequence:
#
# PCOD8221612 Si02
#       8
#     8   8   8   8   8   8   8   8
#     4  12  24  41  63  90 126 169 214 268 318 378
#     4  11  21  38  67  97 126 163 213 268 321 384
#     4  11  27  45  65  91 127 177 225 265 311 384
#     4  12  22  37  63  92 129 165 206 269 329 376
#     4  10  21  41  68  98 128 160 216 277 327 379
#     4  12  26  42  61  89 136 180 217 253 317 399
#     4  11  23  37  58  90 122 155 205 264 322 373
#     4   9  17  34  66 102 125 155 205 268 332 384
#
# _framework density 20.664245000000001
#
# number of rings (size 3 to 8) (size 9 to 14) (size 15 to 20)
#    0.000    1.000    3.750    3.375    3.500    4.000 
#    0.000    0.625    8.250    3.000    0.000    0.000 
#    0.000    0.000    0.000    0.000    0.000    0.000 
#
# Total GULP energy -793560.534090 kJ/mol
# GULP energy per Si atom -12399.383345 kJ/mol
# Density = 2.061721 g / cm^3
# Si number density = 20.664245 Si / 1000 Ang^3
#
#
#
# Elastic Constant Matrix: (Units=GPa)
#
#
# Indices 1 2 3 4 5 6 
#
# 1 94.4739 26.9412 32.7194 0.0000 0.0000 0.0000
# 2 26.9412 90.2732 26.6446 0.0000 0.0000 0.0000
# 3 32.7194 26.6446 104.4222 0.0000 0.0000 0.0000
# 4 0.0000 0.0000 0.0000 16.4521 0.0000 0.0000
# 5 0.0000 0.0000 0.0000 0.0000 28.2852 0.0000
# 6 0.0000 0.0000 0.0000 0.0000 0.0000 43.9238
#
#
#
# Elastic Compliance Matrix: (Units=1/GPa)
#
#
# Indices 1 2 3 4 5 6 
#
# 1 0.012487 -0.002781 -0.003203 0.000000 0.000000 0.000000
# 2 -0.002781 0.012599 -0.002343 0.000000 0.000000 0.000000
# 3 -0.003203 -0.002343 0.011178 0.000000 0.000000 0.000000
# 4 0.000000 0.000000 0.000000 0.060782 0.000000 0.000000
# 5 0.000000 0.000000 0.000000 0.000000 0.035354 0.000000
# 6 0.000000 0.000000 0.000000 0.000000 0.000000 0.022767
#
#
# Mechanical properties :
#
#
# Convention : Reuss Voigt Hill
#
# Bulk Modulus (GPa) = 50.99656 51.30886 51.15271
# Shear Modulus (GPa) = 28.03321 31.25651 29.64486
#
# Velocity S-wave (km/s) = 3.68721 3.89342 3.79172
# Velocity P-wave (km/s) = 6.54672 6.71530 6.63155
#
# Compressibility (1/GPa) = 0.01960917
#
# Stress axis : x y z
#
# Youngs Moduli (GPa) = 80.08058 79.37011 89.46071
#
# Poissons Ratio (x) = 0.22076 0.28655
# Poissons Ratio (y) = 0.22273 0.20964
# Poissons Ratio (z) = 0.25650 0.18599
#
# Static dielectric constant tensor:
#      x y z
#    x 3.625370 0.000000 0.000000 
#    y 0.000000 4.157940 0.000000 
#    z 0.000000 0.000000 3.720180 
# 
# 
# High freq. dielectric constant tensor:
#      x y z
#    x 1.797140 0.000000 0.000000 
#    y 0.000000 1.803960 0.000000 
#    z 0.000000 0.000000 1.811350 
# 
# From -- ./inp_files/17073.got.cif
#   From: 2010.03.12/outbox.cif.g09.slc.cpg/sg53_9_cif.got.tgz:17073.got - 2010.04.16 14:36:59.
