data_PCOD8221321
_publ_section_title
;
Structure prediction by ZEFSAII (Michael W. Deem and Ramdas Pophale) SiO2 
 PCOD8221321
Probable space group: P M N A
;
_chemical_formula_sum "Si O2"
_cell_formula_units_Z 64
_cell_length_a 20.151599
_cell_length_b 11.761031
_cell_length_c 13.934252
_cell_angle_alpha 90.000000
_cell_angle_beta 90.000000
_cell_angle_gamma 90.000000
_cell_volume 3302.467616
_symmetry_space_group_name_H-M "P M N A"
_symmetry_group_IT_number 53
_symmetry_cell_setting 'orthorhombic'
loop_
_space_group_symop_operation_xyz
x,y,z
1/2-x,-y,1/2+z
x,-y,-z
1/2-x,y,1/2-z
-x,-y,-z
1/2+x,y,1/2-z
-x,y,z
1/2+x,-y,1/2+z
loop_
_atom_site_type_symbol
_atom_site_label
_atom_site_fract_x
_atom_site_fract_y
_atom_site_fract_z
Si Si1 0.749781 0.266801 0.461295
Si Si2 0.109552 0.348734 0.409215
Si Si3 0.284517 0.165066 0.647453
Si Si4 0.073683 0.763687 0.784959
Si Si5 0.135311 0.573265 0.914231
Si Si6 0.827568 0.624437 0.222881
Si Si7 0.424156 0.607269 0.113056
Si Si8 0.691531 0.917573 0.673415
O O1 0.815341 0.304096 0.405879
O O2 0.766076 0.209787 0.564787
O O3 0.702374 0.377412 0.462812
O O4 0.711058 0.167833 0.408726
O O5 0.071764 0.292056 0.320727
O O6 0.077530 0.320806 0.513435
O O7 0.106810 0.483247 0.400160
O O8 0.250000 0.157341 0.750000
O O9 0.338284 0.267706 0.651405
O O10 0.318266 0.043052 0.626959
O O11 0.090864 0.673376 0.869185
O O12 0.122700 0.872161 0.781836
O O13 0.000000 0.809113 0.806813
O O14 0.150620 0.493301 0.823702
O O15 0.099904 0.500000 0.000000
O O16 0.750000 0.613531 0.250000
O O17 0.875047 0.662217 0.310224
O O18 0.500000 0.601612 0.150079
O O19 0.750000 0.920528 0.750000
#
# Coordination Sequence:
#
# PCOD8221321 Si02
#       8
#     8   8   8   8   8   8   8   8
#     4  11  21  35  60  93 117 154 189 258 300 353
#     4  11  20  34  59  89 125 157 195 232 299 364
#     4  10  21  37  59  86 118 151 200 251 306 354
#     4  11  23  40  62  87 121 160 201 248 299 355
#     4  11  23  35  57  87 123 150 199 240 302 353
#     4  11  21  37  57  87 119 159 198 246 297 360
#     4  11  23  36  55  88 131 167 193 234 301 381
#     4  10  21  40  61  88 113 153 206 254 301 350
#
# _framework density 19.379449000000001
#
# number of rings (size 3 to 8) (size 9 to 14) (size 15 to 20)
#    0.000    1.250    3.750    4.125    1.750    0.250 
#    0.000    0.625    0.000    6.000    0.000    3.500 
#    0.000    0.000    0.000    0.000    0.000    0.000 
#
# Total GULP energy -792938.891277 kJ/mol
# GULP energy per Si atom -12389.670176 kJ/mol
# Density = 1.933534 g / cm^3
# Si number density = 19.379449 Si / 1000 Ang^3
#
#
#
# Elastic Constant Matrix: (Units=GPa)
#
#
# Indices 1 2 3 4 5 6 
#
# 1 117.5865 34.7893 30.4546 0.0000 0.0000 0.0000
# 2 34.7893 77.6727 5.2508 0.0000 0.0000 0.0000
# 3 30.4546 5.2508 78.1607 0.0000 0.0000 0.0000
# 4 0.0000 0.0000 0.0000 22.4837 0.0000 0.0000
# 5 0.0000 0.0000 0.0000 0.0000 15.9641 0.0000
# 6 0.0000 0.0000 0.0000 0.0000 0.0000 12.6962
#
#
#
# Elastic Compliance Matrix: (Units=1/GPa)
#
#
# Indices 1 2 3 4 5 6 
#
# 1 0.010887 -0.004610 -0.003932 0.000000 0.000000 0.000000
# 2 -0.004610 0.014886 0.000796 0.000000 0.000000 0.000000
# 3 -0.003932 0.000796 0.014273 0.000000 0.000000 0.000000
# 4 0.000000 0.000000 0.000000 0.044477 0.000000 0.000000
# 5 0.000000 0.000000 0.000000 0.000000 0.062641 0.000000
# 6 0.000000 0.000000 0.000000 0.000000 0.000000 0.078763
#
#
# Mechanical properties :
#
#
# Convention : Reuss Voigt Hill
#
# Bulk Modulus (GPa) = 40.72844 46.04549 43.38696
# Shear Modulus (GPa) = 20.03182 23.75714 21.89448
#
# Velocity S-wave (km/s) = 3.21855 3.50507 3.36486
# Velocity P-wave (km/s) = 5.90542 6.33974 6.12643
#
# Compressibility (1/GPa) = 0.02455287
#
# Stress axis : x y z
#
# Youngs Moduli (GPa) = 91.85400 67.17875 70.06327
#
# Poissons Ratio (x) = 0.30972 0.27551
# Poissons Ratio (y) = 0.42348 -0.05580
# Poissons Ratio (z) = 0.36119 -0.05350
#
# Static dielectric constant tensor:
#      x y z
#    x 3.330070 0.000000 0.000000 
#    y 0.000000 4.077510 0.000000 
#    z 0.000000 0.000000 3.867330 
# 
# 
# High freq. dielectric constant tensor:
#      x y z
#    x 1.724950 0.000000 0.000000 
#    y 0.000000 1.747460 0.000000 
#    z 0.000000 0.000000 1.770750 
# 
# From -- ./inp_files/23870.got.cif
#   From: 2010.03.12/outbox.cif.g09.slc.cpg/sg53_12_cif.got.tgz:23870.got - 2010.04.16 14:36:59.
