data_PCOD8221025
_publ_section_title
;
Structure prediction by ZEFSAII (Michael W. Deem and Ramdas Pophale) SiO2 
 PCOD8221025
Probable space group: P M N A
;
_chemical_formula_sum "Si O2"
_cell_formula_units_Z 40
_cell_length_a 14.869485
_cell_length_b 17.360112
_cell_length_c 7.898646
_cell_angle_alpha 90.000000
_cell_angle_beta 90.000000
_cell_angle_gamma 90.000000
_cell_volume 2038.924291
_symmetry_space_group_name_H-M "P M N A"
_symmetry_group_IT_number 53
_symmetry_cell_setting 'orthorhombic'
loop_
_space_group_symop_operation_xyz
x,y,z
1/2-x,-y,1/2+z
x,-y,-z
1/2-x,y,1/2-z
-x,-y,-z
1/2+x,y,1/2-z
-x,y,z
1/2+x,-y,1/2+z
loop_
_atom_site_type_symbol
_atom_site_label
_atom_site_fract_x
_atom_site_fract_y
_atom_site_fract_z
Si Si1 0.654429 0.323803 0.677995
Si Si2 0.332509 0.065337 0.632332
Si Si3 0.500000 0.072894 0.872920
Si Si4 0.676791 0.789761 0.605264
Si Si5 0.000000 0.726671 0.764324
Si Si6 0.500000 0.246936 0.894051
Si Si7 0.500000 0.589349 0.466981
O O1 0.750000 0.352055 0.750000
O O2 0.687528 0.287480 0.502219
O O3 0.592138 0.264629 0.788631
O O4 0.590013 0.396364 0.642830
O O5 0.250000 0.042128 0.750000
O O6 0.414919 0.071379 0.755417
O O7 0.313601 0.142288 0.528937
O O8 0.354164 0.000000 0.500000
O O9 0.500000 0.157877 0.957766
O O10 0.500000 0.000000 0.000000
O O11 0.750000 0.798108 0.750000
O O12 0.581325 0.784391 0.696139
O O13 0.000000 0.646913 0.871053
O O14 0.000000 0.702558 0.566347
O O15 0.500000 0.500000 0.500000
#
# Coordination Sequence:
#
# PCOD8221025 Si02
#       7
#     8   8   4   8   4   4   4
#     4  10  20  40  64  93 123 166 209 253 310 372
#     4  12  26  43  58  85 121 161 212 261 327 377
#     4  12  27  41  64  88 120 172 209 267 329 382
#     4  11  22  37  62  88 118 162 210 264 309 370
#     4  10  23  37  63  94 119 157 210 250 308 373
#     4  11  22  39  64  90 124 161 217 268 312 369
#     4   9  21  43  65  95 138 167 195 254 311 375
#
# _framework density 19.618189000000001
#
# number of rings (size 3 to 8) (size 9 to 14) (size 15 to 20)
#    0.000    1.200    2.000    4.500    5.600    0.000 
#    0.000    8.000    0.000    0.000    0.000    0.000 
#    0.000    0.000    0.000    0.000    0.000    0.000 
#
# Total GULP energy -495687.769950 kJ/mol
# GULP energy per Si atom -12392.194249 kJ/mol
# Density = 1.957354 g / cm^3
# Si number density = 19.618189 Si / 1000 Ang^3
#
#
#
# Elastic Constant Matrix: (Units=GPa)
#
#
# Indices 1 2 3 4 5 6 
#
# 1 140.3732 26.0791 39.1094 0.0000 0.0000 0.0000
# 2 26.0791 95.9844 17.8145 0.0000 0.0000 0.0000
# 3 39.1094 17.8145 100.2642 0.0000 0.0000 0.0000
# 4 0.0000 0.0000 0.0000 24.0403 0.0000 0.0000
# 5 0.0000 0.0000 0.0000 0.0000 45.0452 0.0000
# 6 0.0000 0.0000 0.0000 0.0000 0.0000 24.9902
#
#
#
# Elastic Compliance Matrix: (Units=1/GPa)
#
#
# Indices 1 2 3 4 5 6 
#
# 1 0.008253 -0.001701 -0.002917 0.000000 0.000000 0.000000
# 2 -0.001701 0.011124 -0.001313 0.000000 0.000000 0.000000
# 3 -0.002917 -0.001313 0.011345 0.000000 0.000000 0.000000
# 4 0.000000 0.000000 0.000000 0.041597 0.000000 0.000000
# 5 0.000000 0.000000 0.000000 0.000000 0.022200 0.000000
# 6 0.000000 0.000000 0.000000 0.000000 0.000000 0.040016
#
#
# Mechanical properties :
#
#
# Convention : Reuss Voigt Hill
#
# Bulk Modulus (GPa) = 53.02241 55.84753 54.43497
# Shear Modulus (GPa) = 32.74784 35.72307 34.23545
#
# Velocity S-wave (km/s) = 4.09009 4.27185 4.18196
# Velocity P-wave (km/s) = 7.02787 7.27053 7.15023
#
# Compressibility (1/GPa) = 0.01885995
#
# Stress axis : x y z
#
# Youngs Moduli (GPa) = 121.17526 89.89426 88.14700
#
# Poissons Ratio (x) = 0.15290 0.25711
# Poissons Ratio (y) = 0.20610 0.11574
# Poissons Ratio (z) = 0.35344 0.11804
#
# Static dielectric constant tensor:
#      x y z
#    x 3.722060 0.000000 0.000000 
#    y 0.000000 3.576620 0.000000 
#    z 0.000000 0.000000 3.788530 
# 
# 
# High freq. dielectric constant tensor:
#      x y z
#    x 1.786780 0.000000 0.000000 
#    y 0.000000 1.735960 0.000000 
#    z 0.000000 0.000000 1.779190 
# 
# From -- ./inp_files/8490.got.cif
#   From: 2010.03.12/outbox.cif.g09.slc.cpg/sg53_5_cif.got.tgz:8490.got - 2010.04.16 14:36:59.
