data_PCOD8221572
_publ_section_title
;
Structure prediction by ZEFSAII (Michael W. Deem and Ramdas Pophale) SiO2 
 PCOD8221572
Probable space group: P M N A
;
_chemical_formula_sum "Si O2"
_cell_formula_units_Z 60
_cell_length_a 14.595955
_cell_length_b 14.618078
_cell_length_c 12.695090
_cell_angle_alpha 90.000000
_cell_angle_beta 90.000000
_cell_angle_gamma 90.000000
_cell_volume 2708.685449
_symmetry_space_group_name_H-M "P M N A"
_symmetry_group_IT_number 53
_symmetry_cell_setting 'orthorhombic'
loop_
_space_group_symop_operation_xyz
x,y,z
1/2-x,-y,1/2+z
x,-y,-z
1/2-x,y,1/2-z
-x,-y,-z
1/2+x,y,1/2-z
-x,y,z
1/2+x,-y,1/2+z
loop_
_atom_site_type_symbol
_atom_site_label
_atom_site_fract_x
_atom_site_fract_y
_atom_site_fract_z
Si Si1 0.897088 0.499329 0.288769
Si Si2 0.602487 0.773435 0.212581
Si Si3 0.104781 0.309107 0.359731
Si Si4 0.172278 0.890990 0.668309
Si Si5 0.200425 0.361570 0.567343
Si Si6 0.767614 0.000000 0.000000
Si Si7 0.900292 0.632692 0.104663
Si Si8 0.602020 0.961826 0.304639
O O1 0.879653 0.390165 0.274599
O O2 0.825078 0.546707 0.368162
O O3 0.888637 0.541084 0.173175
O O4 0.000000 0.516684 0.333487
O O5 0.500000 0.769744 0.161294
O O6 0.677700 0.727474 0.137485
O O7 0.598909 0.721567 0.323044
O O8 0.634336 0.876878 0.232604
O O9 0.156217 0.217041 0.328556
O O10 0.140075 0.356587 0.464692
O O11 0.000000 0.280998 0.373421
O O12 0.250000 0.916296 0.750000
O O13 0.200972 0.921349 0.549469
O O14 0.093305 0.952096 0.723048
O O15 0.308484 0.362126 0.533561
O O16 0.831210 0.034663 0.905162
O O17 0.000000 0.628741 0.043744
O O18 0.500000 0.944788 0.349807
#
# Coordination Sequence:
#
# PCOD8221572 Si02
#       8
#     8   8   8   8   8   4   8   8
#     4   9  18  35  56  83 116 151 196 246 297 361
#     4   9  18  31  53  88 120 152 195 249 312 364
#     4  11  23  38  60  89 123 161 203 249 307 375
#     4  10  24  41  59  88 124 163 212 262 309 374
#     4  11  20  32  58  90 122 155 195 250 304 370
#     4  10  23  40  61  88 122 166 216 262 310 378
#     4   9  19  34  54  85 118 152 195 243 301 359
#     4  10  21  40  64  88 122 164 210 264 320 378
#
# _framework density 22.150966
#
# number of rings (size 3 to 8) (size 9 to 14) (size 15 to 20)
#    0.000    2.133    0.000    4.600    3.733    4.267 
#    0.000    0.667    0.000    2.400    0.000    0.000 
#    0.000    0.000    0.000    0.000    0.000    0.000 
#
# Total GULP energy -743377.026707 kJ/mol
# GULP energy per Si atom -12389.617112 kJ/mol
# Density = 2.210055 g / cm^3
# Si number density = 22.150966 Si / 1000 Ang^3
#
#
#
# Elastic Constant Matrix: (Units=GPa)
#
#
# Indices 1 2 3 4 5 6 
#
# 1 93.1171 19.0495 8.1164 0.0000 0.0000 0.0000
# 2 19.0495 141.2098 22.0407 0.0000 0.0000 0.0000
# 3 8.1164 22.0407 45.5862 0.0000 0.0000 0.0000
# 4 0.0000 0.0000 0.0000 6.7897 0.0000 0.0000
# 5 0.0000 0.0000 0.0000 0.0000 16.0637 0.0000
# 6 0.0000 0.0000 0.0000 0.0000 0.0000 24.5406
#
#
#
# Elastic Compliance Matrix: (Units=1/GPa)
#
#
# Indices 1 2 3 4 5 6 
#
# 1 0.011121 -0.001288 -0.001357 0.000000 0.000000 0.000000
# 2 -0.001288 0.007809 -0.003546 0.000000 0.000000 0.000000
# 3 -0.001357 -0.003546 0.023893 0.000000 0.000000 0.000000
# 4 0.000000 0.000000 0.000000 0.147282 0.000000 0.000000
# 5 0.000000 0.000000 0.000000 0.000000 0.062252 0.000000
# 6 0.000000 0.000000 0.000000 0.000000 0.000000 0.040749
#
#
# Mechanical properties :
#
#
# Convention : Reuss Voigt Hill
#
# Bulk Modulus (GPa) = 32.85233 42.03625 37.44429
# Shear Modulus (GPa) = 15.84103 24.85922 20.35012
#
# Velocity S-wave (km/s) = 2.67711 3.35365 3.03430
# Velocity P-wave (km/s) = 4.94158 5.83218 5.40525
#
# Compressibility (1/GPa) = 0.03043924
#
# Stress axis : x y z
#
# Youngs Moduli (GPa) = 89.91966 128.05771 41.85383
#
# Poissons Ratio (x) = 0.16499 0.05680
# Poissons Ratio (y) = 0.11586 0.14842
# Poissons Ratio (z) = 0.12203 0.45412
#
# Static dielectric constant tensor:
#      x y z
#    x 4.285050 0.000000 0.000000 
#    y 0.000000 4.095400 0.000000 
#    z 0.000000 0.000000 3.646480 
# 
# 
# High freq. dielectric constant tensor:
#      x y z
#    x 1.886570 0.000000 0.000000 
#    y 0.000000 1.879610 0.000000 
#    z 0.000000 0.000000 1.826340 
# 
# From -- ./inp_files/22987.got.cif
#   From: 2010.03.12/outbox.cif.g09.slc.cpg/sg53_12_cif.got.tgz:22987.got - 2010.04.16 14:36:59.
