data_PCOD8221713
_publ_section_title
;
Structure prediction by ZEFSAII (Michael W. Deem and Ramdas Pophale) SiO2 
 PCOD8221713
Probable space group: P M N A
;
_chemical_formula_sum "Si O2"
_cell_formula_units_Z 64
_cell_length_a 8.624701
_cell_length_b 11.843284
_cell_length_c 30.782075
_cell_angle_alpha 90.000000
_cell_angle_beta 90.000000
_cell_angle_gamma 90.000000
_cell_volume 3144.228382
_symmetry_space_group_name_H-M "P M N A"
_symmetry_group_IT_number 53
_symmetry_cell_setting 'orthorhombic'
loop_
_space_group_symop_operation_xyz
x,y,z
1/2-x,-y,1/2+z
x,-y,-z
1/2-x,y,1/2-z
-x,-y,-z
1/2+x,y,1/2-z
-x,y,z
1/2+x,-y,1/2+z
loop_
_atom_site_type_symbol
_atom_site_label
_atom_site_fract_x
_atom_site_fract_y
_atom_site_fract_z
Si Si1 0.320819 0.536695 0.548711
Si Si2 0.821854 0.967397 0.951003
Si Si3 0.682211 0.616208 0.120703
Si Si4 0.680681 0.859257 0.375639
Si Si5 0.181027 0.256044 0.179311
Si Si6 0.683100 0.990260 0.704996
Si Si7 0.178477 0.751056 0.586949
Si Si8 0.818649 0.513872 0.705741
O O1 0.288247 0.500000 0.500000
O O2 0.500000 0.567487 0.556223
O O3 0.273815 0.434543 0.580132
O O4 0.214926 0.645641 0.556281
O O5 0.709578 0.865459 0.938920
O O6 0.000000 0.928031 0.945886
O O7 0.788297 0.073478 0.920042
O O8 0.782655 0.000000 0.000000
O O9 0.500000 0.594993 0.114587
O O10 0.716128 0.748143 0.123584
O O11 0.744884 0.555044 0.164322
O O12 0.500000 0.827833 0.370872
O O13 0.740457 0.933410 0.335000
O O14 0.243103 0.137466 0.198175
O O15 0.210184 0.257582 0.128136
O O16 0.273840 0.354957 0.202821
O O17 0.000000 0.273569 0.188120
O O18 0.750000 0.039153 0.750000
O O19 0.500000 0.991739 0.706629
O O20 0.000000 0.746290 0.601817
O O21 0.750000 0.461222 0.750000
O O22 0.000000 0.501284 0.708350
#
# Coordination Sequence:
#
# PCOD8221713 Si02
#       8
#     8   8   8   8   8   8   8   8
#     4  11  25  44  68  94 123 167 215 255 306 373
#     4  10  22  42  67  92 123 165 213 258 303 370
#     4  11  25  43  63  92 128 163 206 261 318 371
#     4  10  22  42  63  88 122 164 211 255 305 367
#     4  11  21  39  65  92 126 166 207 257 310 370
#     4  10  22  39  61  90 123 159 204 255 306 363
#     4  12  24  39  64  97 132 165 201 257 318 372
#     4  11  24  41  62  92 126 164 209 259 316 375
#
# _framework density 20.354755999999998
#
# number of rings (size 3 to 8) (size 9 to 14) (size 15 to 20)
#    0.000    1.250    2.500    3.000    1.750    6.250 
#    0.000    2.500    0.000    0.000    0.000    0.000 
#    0.000    0.000    0.000    0.000    0.000    0.000 
#
# Total GULP energy -794002.392334 kJ/mol
# GULP energy per Si atom -12406.287380 kJ/mol
# Density = 2.030843 g / cm^3
# Si number density = 20.354756 Si / 1000 Ang^3
#
#
#
# Elastic Constant Matrix: (Units=GPa)
#
#
# Indices 1 2 3 4 5 6 
#
# 1 40.4400 20.4240 29.3217 0.0000 0.0000 0.0000
# 2 20.4240 104.8939 45.1316 0.0000 0.0000 0.0000
# 3 29.3217 45.1316 160.2326 0.0000 0.0000 0.0000
# 4 0.0000 0.0000 0.0000 29.6716 0.0000 0.0000
# 5 0.0000 0.0000 0.0000 0.0000 28.7988 0.0000
# 6 0.0000 0.0000 0.0000 0.0000 0.0000 17.3981
#
#
#
# Elastic Compliance Matrix: (Units=1/GPa)
#
#
# Indices 1 2 3 4 5 6 
#
# 1 0.029879 -0.003943 -0.004357 0.000000 0.000000 0.000000
# 2 -0.003943 0.011368 -0.002481 0.000000 0.000000 0.000000
# 3 -0.004357 -0.002481 0.007737 0.000000 0.000000 0.000000
# 4 0.000000 0.000000 0.000000 0.033702 0.000000 0.000000
# 5 0.000000 0.000000 0.000000 0.000000 0.034724 0.000000
# 6 0.000000 0.000000 0.000000 0.000000 0.000000 0.057478
#
#
# Mechanical properties :
#
#
# Convention : Reuss Voigt Hill
#
# Bulk Modulus (GPa) = 36.46605 55.03571 45.75088
# Shear Modulus (GPa) = 24.32031 29.21964 26.76997
#
# Velocity S-wave (km/s) = 3.46037 3.79293 3.63046
# Velocity P-wave (km/s) = 5.82406 6.80285 6.33239
#
# Compressibility (1/GPa) = 0.02742276
#
# Stress axis : x y z
#
# Youngs Moduli (GPa) = 33.46883 87.96260 129.25063
#
# Poissons Ratio (x) = 0.34684 0.56315
# Poissons Ratio (y) = 0.13197 0.32061
# Poissons Ratio (z) = 0.14582 0.21819
#
# Static dielectric constant tensor:
#      x y z
#    x 3.580210 0.000000 0.000000 
#    y 0.000000 3.714320 0.000000 
#    z 0.000000 0.000000 4.015450 
# 
# 
# High freq. dielectric constant tensor:
#      x y z
#    x 1.791200 0.000000 0.000000 
#    y 0.000000 1.796660 0.000000 
#    z 0.000000 0.000000 1.810730 
# 
# From -- ./inp_files/38135.got.cif
#   From: 2010.03.12/outbox.cif.g09.slc.cpg/sg53_20_cif.got.tgz:38135.got - 2010.04.16 14:36:59.
