data_PCOD8221346
_publ_section_title
;
Structure prediction by ZEFSAII (Michael W. Deem and Ramdas Pophale) SiO2 
 PCOD8221346
Probable space group: P M N A
;
_chemical_formula_sum "Si O2"
_cell_formula_units_Z 64
_cell_length_a 8.813956
_cell_length_b 23.625883
_cell_length_c 15.385998
_cell_angle_alpha 90.000000
_cell_angle_beta 90.000000
_cell_angle_gamma 90.000000
_cell_volume 3203.941654
_symmetry_space_group_name_H-M "P M N A"
_symmetry_group_IT_number 53
_symmetry_cell_setting 'orthorhombic'
loop_
_space_group_symop_operation_xyz
x,y,z
1/2-x,-y,1/2+z
x,-y,-z
1/2-x,y,1/2-z
-x,-y,-z
1/2+x,y,1/2-z
-x,y,z
1/2+x,-y,1/2+z
loop_
_atom_site_type_symbol
_atom_site_label
_atom_site_fract_x
_atom_site_fract_y
_atom_site_fract_z
Si Si1 0.821448 0.364568 0.339943
Si Si2 0.325769 0.246644 0.581551
Si Si3 0.320985 0.128573 0.337982
Si Si4 0.178117 0.365730 0.841425
Si Si5 0.678086 0.240849 0.101245
Si Si6 0.175467 0.873199 0.159432
Si Si7 0.823071 0.565961 0.494146
Si Si8 0.174922 0.933367 0.501846
O O1 0.750000 0.385854 0.250000
O O2 0.768968 0.300782 0.360266
O O3 0.763292 0.404662 0.417656
O O4 0.000000 0.368997 0.330933
O O5 0.500000 0.252025 0.549425
O O6 0.271811 0.302392 0.632372
O O7 0.216885 0.237620 0.500094
O O8 0.305662 0.193831 0.645540
O O9 0.250000 0.102865 0.250000
O O10 0.500000 0.126198 0.331787
O O11 0.268958 0.193336 0.347024
O O12 0.268418 0.091235 0.418332
O O13 0.250000 0.382533 0.750000
O O14 0.232757 0.409947 0.912877
O O15 0.000000 0.370441 0.831791
O O16 0.500000 0.230581 0.113103
O O17 0.250000 0.890453 0.250000
O O18 0.000000 0.891110 0.159048
O O19 0.262028 0.907893 0.086415
O O20 0.788561 0.500000 0.500000
O O21 0.000000 0.579020 0.480298
O O22 0.000000 0.915887 0.512706
O O23 0.197279 0.000000 0.500000
#
# Coordination Sequence:
#
# PCOD8221346 Si02
#       8
#     8   8   8   8   8   8   8   8
#     4  10  22  38  59  89 119 157 198 245 304 362
#     4  10  21  37  60  92 125 162 200 247 305 366
#     4  12  25  42  65  94 128 164 206 252 307 369
#     4  11  23  39  62  91 125 162 204 251 304 365
#     4  11  21  36  62  92 124 161 201 248 307 369
#     4  11  23  40  64  94 127 164 205 249 305 366
#     4  10  22  42  63  85 118 159 207 259 309 362
#     4  11  25  45  67  92 123 162 210 260 310 363
#
# _framework density 19.975396
#
# number of rings (size 3 to 8) (size 9 to 14) (size 15 to 20)
#    0.000    1.250    2.500    3.375    0.000    5.750 
#    0.000    1.250    0.000    0.000    0.000    0.000 
#    0.000    0.000    0.000    0.000    0.000    0.000 
#
# Total GULP energy -794020.317025 kJ/mol
# GULP energy per Si atom -12406.567454 kJ/mol
# Density = 1.992993 g / cm^3
# Si number density = 19.975396 Si / 1000 Ang^3
#
#
#
# Elastic Constant Matrix: (Units=GPa)
#
#
# Indices 1 2 3 4 5 6 
#
# 1 103.4736 45.8684 52.1739 0.0000 0.0000 0.0000
# 2 45.8684 94.2398 44.5165 0.0000 0.0000 0.0000
# 3 52.1739 44.5165 157.8611 0.0000 0.0000 0.0000
# 4 0.0000 0.0000 0.0000 -5.5408 0.0000 0.0000
# 5 0.0000 0.0000 0.0000 0.0000 39.0971 0.0000
# 6 0.0000 0.0000 0.0000 0.0000 0.0000 24.1370
#
#
#
# Elastic Compliance Matrix: (Units=1/GPa)
#
#
# Indices 1 2 3 4 5 6 
#
# 1 0.013450 -0.005130 -0.002999 0.000000 0.000000 0.000000
# 2 -0.005130 0.014199 -0.002308 0.000000 0.000000 0.000000
# 3 -0.002999 -0.002308 0.007977 0.000000 0.000000 0.000000
# 4 0.000000 0.000000 0.000000 -0.180479 0.000000 0.000000
# 5 0.000000 0.000000 0.000000 0.000000 0.025577 0.000000
# 6 0.000000 0.000000 0.000000 0.000000 0.000000 0.041430
#
#
# Mechanical properties :
#
#
# Convention : Reuss Voigt Hill
#
# Bulk Modulus (GPa) = 67.79102 71.18802 69.48952
# Shear Modulus (GPa) = -96.05472 25.73970 -35.15751
#
# Velocity S-wave (km/s) = -6.94197 3.59356 -4.19984
# Velocity P-wave (km/s) = 5.49942 7.27554 3.36822
#
# Compressibility (1/GPa) = 0.01475122
#
# Stress axis : x y z
#
# Youngs Moduli (GPa) = 74.34703 70.42948 125.36400
#
# Poissons Ratio (x) = 0.36131 0.37594
# Poissons Ratio (y) = 0.38140 0.28940
# Poissons Ratio (z) = 0.22295 0.16258
#
# Static dielectric constant tensor:
#      x y z
#    x 3.655250 0.000000 0.000000 
#    y 0.000000 3.687690 0.000000 
#    z 0.000000 0.000000 3.834190 
# 
# 
# High freq. dielectric constant tensor:
#      x y z
#    x 1.784590 0.000000 0.000000 
#    y 0.000000 1.779400 0.000000 
#    z 0.000000 0.000000 1.792990 
# 
# From -- ./inp_files/21033.got.cif
#   From: 2010.03.12/outbox.cif.g09.slc.cpg/sg53_11_cif.got.tgz:21033.got - 2010.04.16 14:36:59.
