data_PCOD8221174
_publ_section_title
;
Structure prediction by ZEFSAII (Michael W. Deem and Ramdas Pophale) SiO2 
 PCOD8221174
Probable space group: P M N A
;
_chemical_formula_sum "Si O2"
_cell_formula_units_Z 56
_cell_length_a 8.981621
_cell_length_b 19.111410
_cell_length_c 15.842867
_cell_angle_alpha 90.000000
_cell_angle_beta 90.000000
_cell_angle_gamma 90.000000
_cell_volume 2719.450956
_symmetry_space_group_name_H-M "P M N A"
_symmetry_group_IT_number 53
_symmetry_cell_setting 'orthorhombic'
loop_
_space_group_symop_operation_xyz
x,y,z
1/2-x,-y,1/2+z
x,-y,-z
1/2-x,y,1/2-z
-x,-y,-z
1/2+x,y,1/2-z
-x,y,z
1/2+x,-y,1/2+z
loop_
_atom_site_type_symbol
_atom_site_label
_atom_site_fract_x
_atom_site_fract_y
_atom_site_fract_z
Si Si1 0.669756 0.291405 0.598570
Si Si2 0.824976 0.421785 0.660212
Si Si3 0.671009 0.917694 0.994801
Si Si4 0.175527 0.151698 0.163467
Si Si5 0.166981 0.296431 0.090966
Si Si6 0.172214 0.421449 0.337957
Si Si7 0.676449 0.159663 0.834813
O O1 0.500000 0.295625 0.631768
O O2 0.745904 0.367749 0.597804
O O3 0.675390 0.264543 0.502741
O O4 0.762803 0.238640 0.656444
O O5 0.750000 0.410643 0.750000
O O6 0.793796 0.500649 0.627109
O O7 0.000000 0.406502 0.666139
O O8 0.500000 0.896251 0.979088
O O9 0.726467 0.885204 0.083724
O O10 0.766371 0.891427 0.916211
O O11 0.691859 0.000000 0.000000
O O12 0.250000 0.124560 0.250000
O O13 0.216440 0.233720 0.152592
O O14 0.000000 0.140168 0.169484
O O15 0.273342 0.363521 0.096282
O O16 0.000000 0.321413 0.112105
O O17 0.250000 0.406789 0.250000
O O18 0.000000 0.411239 0.322046
O O19 0.750000 0.126909 0.750000
O O20 0.500000 0.160471 0.823896
#
# Coordination Sequence:
#
# PCOD8221174 Si02
#       7
#     8   8   8   8   8   8   8
#     4  11  22  38  59  85 118 155 202 255 305 364
#     4  10  21  37  55  80 112 152 200 250 307 365
#     4  10  23  44  68  97 131 165 206 254 306 367
#     4  11  23  41  65  95 129 168 212 257 309 369
#     4  10  22  38  58  85 118 156 202 254 307 364
#     4  10  21  36  56  80 112 152 199 252 305 366
#     4  11  23  40  65  93 126 166 206 254 307 365
#
# _framework density 20.592393000000001
#
# number of rings (size 3 to 8) (size 9 to 14) (size 15 to 20)
#    0.000    1.571    1.429    3.000    0.000    7.143 
#    0.000    4.286    0.000    0.000    0.000    0.000 
#    0.000    0.000    0.000    0.000    0.000    0.000 
#
# Total GULP energy -694518.761411 kJ/mol
# GULP energy per Si atom -12402.120739 kJ/mol
# Density = 2.054552 g / cm^3
# Si number density = 20.592393 Si / 1000 Ang^3
#
#
#
# Elastic Constant Matrix: (Units=GPa)
#
#
# Indices 1 2 3 4 5 6 
#
# 1 107.6423 49.8668 55.7102 0.0000 0.0000 0.0000
# 2 49.8668 89.4709 46.5560 0.0000 0.0000 0.0000
# 3 55.7102 46.5560 126.1681 0.0000 0.0000 0.0000
# 4 0.0000 0.0000 0.0000 31.5761 0.0000 0.0000
# 5 0.0000 0.0000 0.0000 0.0000 37.1288 0.0000
# 6 0.0000 0.0000 0.0000 0.0000 0.0000 29.4480
#
#
#
# Elastic Compliance Matrix: (Units=1/GPa)
#
#
# Indices 1 2 3 4 5 6 
#
# 1 0.014053 -0.005698 -0.004103 0.000000 0.000000 0.000000
# 2 -0.005698 0.016143 -0.003441 0.000000 0.000000 0.000000
# 3 -0.004103 -0.003441 0.011007 0.000000 0.000000 0.000000
# 4 0.000000 0.000000 0.000000 0.031670 0.000000 0.000000
# 5 0.000000 0.000000 0.000000 0.000000 0.026933 0.000000
# 6 0.000000 0.000000 0.000000 0.000000 0.000000 0.033958
#
#
# Mechanical properties :
#
#
# Convention : Reuss Voigt Hill
#
# Bulk Modulus (GPa) = 67.93236 69.72749 68.82992
# Shear Modulus (GPa) = 30.27496 31.04049 30.65773
#
# Velocity S-wave (km/s) = 3.83848 3.88671 3.86267
# Velocity P-wave (km/s) = 7.25988 7.35366 7.30692
#
# Compressibility (1/GPa) = 0.01472053
#
# Stress axis : x y z
#
# Youngs Moduli (GPa) = 71.15992 61.94697 90.84958
#
# Poissons Ratio (x) = 0.35295 0.37273
# Poissons Ratio (y) = 0.40544 0.31261
# Poissons Ratio (z) = 0.29195 0.21315
#
# Static dielectric constant tensor:
#      x y z
#    x 3.826960 0.000000 0.000000 
#    y 0.000000 3.680860 0.000000 
#    z 0.000000 0.000000 3.662230 
# 
# 
# High freq. dielectric constant tensor:
#      x y z
#    x 1.812330 0.000000 0.000000 
#    y 0.000000 1.802380 0.000000 
#    z 0.000000 0.000000 1.807140 
# 
# From -- ./inp_files/20611.got.cif
#   From: 2010.03.12/outbox.cif.g09.slc.cpg/sg53_11_cif.got.tgz:20611.got - 2010.04.16 14:36:59.
