data_PCOD8221452
_publ_section_title
;
Structure prediction by ZEFSAII (Michael W. Deem and Ramdas Pophale) SiO2 
 PCOD8221452
Probable space group: P M N A
;
_chemical_formula_sum "Si O2"
_cell_formula_units_Z 64
_cell_length_a 17.902911
_cell_length_b 11.345485
_cell_length_c 15.147951
_cell_angle_alpha 90.000000
_cell_angle_beta 90.000000
_cell_angle_gamma 90.000000
_cell_volume 3076.809517
_symmetry_space_group_name_H-M "P M N A"
_symmetry_group_IT_number 53
_symmetry_cell_setting 'orthorhombic'
loop_
_space_group_symop_operation_xyz
x,y,z
1/2-x,-y,1/2+z
x,-y,-z
1/2-x,y,1/2-z
-x,-y,-z
1/2+x,y,1/2-z
-x,y,z
1/2+x,-y,1/2+z
loop_
_atom_site_type_symbol
_atom_site_label
_atom_site_fract_x
_atom_site_fract_y
_atom_site_fract_z
Si Si1 0.914754 0.382772 0.045808
Si Si2 0.916600 0.506921 0.596212
Si Si3 0.333254 0.119664 0.225812
Si Si4 0.587987 0.894012 0.287574
Si Si5 0.916944 0.756632 0.381232
Si Si6 0.851608 0.866421 0.024247
Si Si7 0.321180 0.872296 0.977796
Si Si8 0.913582 0.343753 0.241461
O O1 0.907872 0.414355 0.149719
O O2 0.000000 0.375444 0.014495
O O3 0.877312 0.500000 0.000000
O O4 0.883314 0.250833 0.024175
O O5 0.874609 0.500000 0.500000
O O6 0.919379 0.380100 0.640518
O O7 0.880354 0.587535 0.672769
O O8 0.000000 0.555993 0.577397
O O9 0.250000 0.078825 0.250000
O O10 0.338473 0.150187 0.123427
O O11 0.358425 0.235610 0.276576
O O12 0.392385 0.025755 0.260141
O O13 0.500000 0.881854 0.306406
O O14 0.616453 0.815687 0.206073
O O15 0.633854 0.850190 0.372149
O O16 0.865809 0.776051 0.466487
O O17 0.000000 0.806358 0.400643
O O18 0.764900 0.865650 0.002514
O O19 0.883878 0.000000 0.000000
O O20 0.354112 0.000000 0.000000
O O21 0.000000 0.306809 0.258326
#
# Coordination Sequence:
#
# PCOD8221452 Si02
#       8
#     8   8   8   8   8   8   8   8
#     4  10  22  40  64  93 127 166 211 267 324 379
#     4   9  18  35  59  87 121 159 200 253 310 369
#     4  12  23  39  63  90 127 161 206 257 315 380
#     4  11  24  39  64  94 123 160 208 267 314 372
#     4  10  22  38  60  93 125 159 209 257 312 378
#     4  11  24  42  64  91 126 169 217 262 319 386
#     4  11  22  40  60  88 126 171 205 256 323 379
#     4  10  21  38  63  90 122 163 208 255 312 378
#
# _framework density 20.800768000000001
#
# number of rings (size 3 to 8) (size 9 to 14) (size 15 to 20)
#    0.000    1.500    1.250    4.500    1.750    4.250 
#    0.000    3.125    0.000    0.000    0.000    0.000 
#    0.000    0.000    0.000    0.000    0.000    0.000 
#
# Total GULP energy -793014.917902 kJ/mol
# GULP energy per Si atom -12390.858092 kJ/mol
# Density = 2.075342 g / cm^3
# Si number density = 20.800768 Si / 1000 Ang^3
#
#
#
# Elastic Constant Matrix: (Units=GPa)
#
#
# Indices 1 2 3 4 5 6 
#
# 1 30.0621 13.0959 7.8374 0.0000 0.0000 0.0000
# 2 13.0959 110.7472 38.7238 0.0000 0.0000 0.0000
# 3 7.8374 38.7238 139.1888 0.0000 0.0000 0.0000
# 4 0.0000 0.0000 0.0000 21.8609 0.0000 0.0000
# 5 0.0000 0.0000 0.0000 0.0000 28.5898 0.0000
# 6 0.0000 0.0000 0.0000 0.0000 0.0000 13.4575
#
#
#
# Elastic Compliance Matrix: (Units=1/GPa)
#
#
# Indices 1 2 3 4 5 6 
#
# 1 0.035175 -0.003841 -0.000912 0.000000 0.000000 0.000000
# 2 -0.003841 0.010422 -0.002683 0.000000 0.000000 0.000000
# 3 -0.000912 -0.002683 0.007982 0.000000 0.000000 0.000000
# 4 0.000000 0.000000 0.000000 0.045744 0.000000 0.000000
# 5 0.000000 0.000000 0.000000 0.000000 0.034978 0.000000
# 6 0.000000 0.000000 0.000000 0.000000 0.000000 0.074308
#
#
# Mechanical properties :
#
#
# Convention : Reuss Voigt Hill
#
# Bulk Modulus (GPa) = 25.83462 44.36803 35.10132
# Shear Modulus (GPa) = 21.15206 27.47102 24.31154
#
# Velocity S-wave (km/s) = 3.19233 3.63805 3.42245
# Velocity P-wave (km/s) = 5.10244 6.24688 5.70344
#
# Compressibility (1/GPa) = 0.03870775
#
# Stress axis : x y z
#
# Youngs Moduli (GPa) = 28.42897 95.95137 125.27634
#
# Poissons Ratio (x) = 0.36851 0.11427
# Poissons Ratio (y) = 0.10918 0.33615
# Poissons Ratio (z) = 0.02593 0.25746
#
# Static dielectric constant tensor:
#      x y z
#    x 3.511850 0.000000 0.000000 
#    y 0.000000 3.909830 0.000000 
#    z 0.000000 0.000000 3.958040 
# 
# 
# High freq. dielectric constant tensor:
#      x y z
#    x 1.784830 0.000000 0.000000 
#    y 0.000000 1.818300 0.000000 
#    z 0.000000 0.000000 1.835090 
# 
# From -- ./inp_files/23918.got.cif
#   From: 2010.03.12/outbox.cif.g09.slc.cpg/sg53_12_cif.got.tgz:23918.got - 2010.04.16 14:36:59.
