data_PCOD8221773
_publ_section_title
;
Structure prediction by ZEFSAII (Michael W. Deem and Ramdas Pophale) SiO2 
 PCOD8221773
Probable space group: P M N A
;
_chemical_formula_sum "Si O2"
_cell_formula_units_Z 20
_cell_length_a 30.529066
_cell_length_b 4.987195
_cell_length_c 5.157927
_cell_angle_alpha 90.000000
_cell_angle_beta 90.000000
_cell_angle_gamma 90.000000
_cell_volume 785.317108
_symmetry_space_group_name_H-M "P M N A"
_symmetry_group_IT_number 53
_symmetry_cell_setting 'orthorhombic'
loop_
_space_group_symop_operation_xyz
x,y,z
1/2-x,-y,1/2+z
x,-y,-z
1/2-x,y,1/2-z
-x,-y,-z
1/2+x,y,1/2-z
-x,y,z
1/2+x,-y,1/2+z
loop_
_atom_site_type_symbol
_atom_site_label
_atom_site_fract_x
_atom_site_fract_y
_atom_site_fract_z
Si Si1 0.094304 0.315481 0.252243
Si Si2 0.778012 0.500000 0.000000
Si Si3 0.500000 0.678793 0.750634
Si Si4 0.336768 0.000000 0.500000
O O1 0.101898 0.500000 0.500000
O O2 0.131687 0.087174 0.240024
O O3 0.046407 0.161378 0.255760
O O4 0.098891 0.500000 0.000000
O O5 0.750000 0.587202 0.750000
O O6 0.807115 0.751624 0.090434
O O7 0.500000 0.500000 0.500000
O O8 0.500000 0.500000 0.000000
#
# Coordination Sequence:
#
# PCOD8221773 Si02
#       4
#     8   4   4   4
#     4  10  22  40  68 106 147 192 242 293 351 432
#     4  12  30  52  76 105 142 183 238 310 390 458
#     4   8  16  35  60  96 147 193 233 286 348 412
#     4  12  26  49  78 108 142 190 244 307 372 448
#
# _framework density 25.467421000000002
#
# number of rings (size 3 to 8) (size 9 to 14) (size 15 to 20)
#    0.000    1.600    2.000    1.200    2.800    5.600 
#    0.000    0.000    0.000   14.400    0.000    0.000 
#    0.000    0.000    0.000    0.000    0.000    0.000 
#
# Total GULP energy -247790.530007 kJ/mol
# GULP energy per Si atom -12389.526500 kJ/mol
# Density = 2.540946 g / cm^3
# Si number density = 25.467421 Si / 1000 Ang^3
#
#
#
# Elastic Constant Matrix: (Units=GPa)
#
#
# Indices 1 2 3 4 5 6 
#
# 1 211.5509 78.7690 51.8156 0.0000 0.0000 0.0000
# 2 78.7690 130.7857 43.0456 0.0000 0.0000 0.0000
# 3 51.8156 43.0456 179.8699 0.0000 0.0000 0.0000
# 4 0.0000 0.0000 0.0000 33.6638 0.0000 0.0000
# 5 0.0000 0.0000 0.0000 0.0000 -158.8770 0.0000
# 6 0.0000 0.0000 0.0000 0.0000 0.0000 -47.7263
#
#
#
# Elastic Compliance Matrix: (Units=1/GPa)
#
#
# Indices 1 2 3 4 5 6 
#
# 1 0.006247 -0.003441 -0.000976 0.000000 0.000000 0.000000
# 2 -0.003441 0.010196 -0.001449 0.000000 0.000000 0.000000
# 3 -0.000976 -0.001449 0.006187 0.000000 0.000000 0.000000
# 4 0.000000 0.000000 0.000000 0.029705 0.000000 0.000000
# 5 0.000000 0.000000 0.000000 0.000000 -0.006294 0.000000
# 6 0.000000 0.000000 0.000000 0.000000 0.000000 -0.020953
#
#
# Mechanical properties :
#
#
# Convention : Reuss Voigt Hill
#
# Bulk Modulus (GPa) = 91.75834 96.60745 94.18289
# Shear Modulus (GPa) = 123.59739 -11.34949 56.12395
#
# Velocity S-wave (km/s) = 6.97402 -2.11333 4.69951
# Velocity P-wave (km/s) = 10.04774 5.66226 8.15532
#
# Compressibility (1/GPa) = 0.01089819
#
# Stress axis : x y z
#
# Youngs Moduli (GPa) = 160.06504 98.08202 161.61771
#
# Poissons Ratio (x) = 0.33754 0.15776
# Poissons Ratio (y) = 0.55085 0.23412
# Poissons Ratio (z) = 0.15625 0.14208
#
# Static dielectric constant tensor:
#      x y z
#    x 5.814940 0.000000 0.000000 
#    y 0.000000 4.384810 0.000000 
#    z 0.000000 0.000000 5.934070 
# 
# 
# High freq. dielectric constant tensor:
#      x y z
#    x 2.046900 0.000000 0.000000 
#    y 0.000000 1.990710 0.000000 
#    z 0.000000 0.000000 2.025690 
# 
# From -- ./inp_files/4739.got.cif
#   From: 2010.03.12/outbox.cif.g09.slc.cpg/sg53_3_cif.got.tgz:4739.got - 2010.04.16 14:36:59.
