data_PCOD8221509
_publ_section_title
;
Structure prediction by ZEFSAII (Michael W. Deem and Ramdas Pophale) SiO2 
 PCOD8221509
Probable space group: P M N A
;
_chemical_formula_sum "Si O2"
_cell_formula_units_Z 40
_cell_length_a 8.811516
_cell_length_b 10.031747
_cell_length_c 22.669643
_cell_angle_alpha 90.000000
_cell_angle_beta 90.000000
_cell_angle_gamma 90.000000
_cell_volume 2003.880808
_symmetry_space_group_name_H-M "P M N A"
_symmetry_group_IT_number 53
_symmetry_cell_setting 'orthorhombic'
loop_
_space_group_symop_operation_xyz
x,y,z
1/2-x,-y,1/2+z
x,-y,-z
1/2-x,y,1/2-z
-x,-y,-z
1/2+x,y,1/2-z
-x,y,z
1/2+x,-y,1/2+z
loop_
_atom_site_type_symbol
_atom_site_label
_atom_site_fract_x
_atom_site_fract_y
_atom_site_fract_z
Si Si1 0.179680 0.517822 0.185573
Si Si2 0.679242 0.150177 0.003878
Si Si3 0.321751 0.021824 0.309880
Si Si4 0.319855 0.734544 0.871501
Si Si5 0.676125 0.227697 0.612035
O O1 0.250000 0.504223 0.250000
O O2 0.244199 0.406209 0.142054
O O3 0.229469 0.658303 0.157250
O O4 0.000000 0.503524 0.191066
O O5 0.500000 0.144162 0.001489
O O6 0.736568 0.239847 0.949680
O O7 0.734857 0.220002 0.063776
O O8 0.746820 0.000000 0.000000
O O9 0.250000 0.964855 0.250000
O O10 0.500000 0.045250 0.302182
O O11 0.239301 0.159836 0.324029
O O12 0.285009 0.915349 0.360394
O O13 0.500000 0.723137 0.866721
O O14 0.500000 0.243844 0.598327
#
# Coordination Sequence:
#
# PCOD8221509 Si02
#       5
#     8   8   8   8   8
#     4  11  24  43  63  89 124 162 204 250 303 361
#     4  10  21  39  63  91 123 159 202 251 300 356
#     4  11  22  37  59  88 118 155 201 250 302 357
#     4  11  23  40  62  89 121 160 202 248 302 357
#     4  10  23  40  62  90 121 159 201 248 304 359
#
# _framework density 19.961265999999998
#
# number of rings (size 3 to 8) (size 9 to 14) (size 15 to 20)
#    0.000    1.400    2.000    3.000    0.000    5.200 
#    0.000    4.000    0.000    0.000    0.000    0.000 
#    0.000    0.000    0.000    0.000    0.000    0.000 
#
# Total GULP energy -496232.214370 kJ/mol
# GULP energy per Si atom -12405.805359 kJ/mol
# Density = 1.991583 g / cm^3
# Si number density = 19.961266 Si / 1000 Ang^3
#
#
#
# Elastic Constant Matrix: (Units=GPa)
#
#
# Indices 1 2 3 4 5 6 
#
# 1 60.3214 31.6732 38.3393 0.0000 0.0000 0.0000
# 2 31.6732 87.2427 23.0657 0.0000 0.0000 0.0000
# 3 38.3393 23.0657 126.3030 0.0000 0.0000 0.0000
# 4 0.0000 0.0000 0.0000 34.1570 0.0000 0.0000
# 5 0.0000 0.0000 0.0000 0.0000 39.4288 0.0000
# 6 0.0000 0.0000 0.0000 0.0000 0.0000 26.3443
#
#
#
# Elastic Compliance Matrix: (Units=1/GPa)
#
#
# Indices 1 2 3 4 5 6 
#
# 1 0.024182 -0.007186 -0.006028 0.000000 0.000000 0.000000
# 2 -0.007186 0.014179 -0.000408 0.000000 0.000000 0.000000
# 3 -0.006028 -0.000408 0.009822 0.000000 0.000000 0.000000
# 4 0.000000 0.000000 0.000000 0.029277 0.000000 0.000000
# 5 0.000000 0.000000 0.000000 0.000000 0.025362 0.000000
# 6 0.000000 0.000000 0.000000 0.000000 0.000000 0.037959
#
#
# Mechanical properties :
#
#
# Convention : Reuss Voigt Hill
#
# Bulk Modulus (GPa) = 47.75774 51.11375 49.43575
# Shear Modulus (GPa) = 28.57069 32.03861 30.30465
#
# Velocity S-wave (km/s) = 3.78737 4.01064 3.90060
# Velocity P-wave (km/s) = 6.56526 6.86360 6.71609
#
# Compressibility (1/GPa) = 0.02093901
#
# Stress axis : x y z
#
# Youngs Moduli (GPa) = 41.35251 70.52741 101.81317
#
# Poissons Ratio (x) = 0.50678 0.61376
# Poissons Ratio (y) = 0.29714 0.04156
# Poissons Ratio (z) = 0.24929 0.02879
#
# Static dielectric constant tensor:
#      x y z
#    x 3.565470 0.000000 0.000000 
#    y 0.000000 3.722340 0.000000 
#    z 0.000000 0.000000 3.705330 
# 
# 
# High freq. dielectric constant tensor:
#      x y z
#    x 1.779960 0.000000 0.000000 
#    y 0.000000 1.781030 0.000000 
#    z 0.000000 0.000000 1.792940 
# 
# From -- ./inp_files/33629.got.cif
#   From: 2010.03.12/outbox.cif.g09.slc.cpg/sg53_17_cif.got.tgz:33629.got - 2010.04.16 14:36:59.
