data_PCOD8221484
_publ_section_title
;
Structure prediction by ZEFSAII (Michael W. Deem and Ramdas Pophale) SiO2 
 PCOD8221484
Probable space group: P M N A
;
_chemical_formula_sum "Si O2"
_cell_formula_units_Z 48
_cell_length_a 16.698265
_cell_length_b 15.468516
_cell_length_c 8.673578
_cell_angle_alpha 90.000000
_cell_angle_beta 90.000000
_cell_angle_gamma 90.000000
_cell_volume 2240.362467
_symmetry_space_group_name_H-M "P M N A"
_symmetry_group_IT_number 53
_symmetry_cell_setting 'orthorhombic'
loop_
_space_group_symop_operation_xyz
x,y,z
1/2-x,-y,1/2+z
x,-y,-z
1/2-x,y,1/2-z
-x,-y,-z
1/2+x,y,1/2-z
-x,y,z
1/2+x,-y,1/2+z
loop_
_atom_site_type_symbol
_atom_site_label
_atom_site_fract_x
_atom_site_fract_y
_atom_site_fract_z
Si Si1 0.659526 0.836467 0.309835
Si Si2 0.832184 0.514434 0.322311
Si Si3 0.337534 0.013686 0.181679
Si Si4 0.409349 0.316303 0.875259
Si Si5 0.091047 0.833629 0.863734
Si Si6 0.840156 0.677179 0.702288
O O1 0.750000 0.825378 0.250000
O O2 0.623105 0.926593 0.249423
O O3 0.606713 0.757230 0.249978
O O4 0.653342 0.841191 0.494906
O O5 0.814534 0.500000 0.500000
O O6 0.750000 0.547857 0.250000
O O7 0.897415 0.589607 0.295363
O O8 0.860618 0.422329 0.251489
O O9 0.250000 0.028174 0.250000
O O10 0.390356 0.095824 0.231171
O O11 0.333556 0.000000 0.000000
O O12 0.500000 0.309857 0.934695
O O13 0.349472 0.306611 0.019373
O O14 0.098834 0.738513 0.791786
O O15 0.000000 0.846071 0.921219
O O16 0.750000 0.701093 0.750000
#
# Coordination Sequence:
#
# PCOD8221484 Si02
#       6
#     8   8   8   8   8   8
#     4  11  23  41  63  87 120 163 205 247 296 360
#     4   9  20  37  60  86 115 155 202 248 295 355
#     4  11  23  42  67  92 119 159 207 249 297 360
#     4  11  22  37  60  89 122 157 198 251 305 357
#     4  12  25  40  62  93 128 160 198 254 309 359
#     4  10  21  39  61  86 117 160 206 246 295 361
#
# _framework density 21.425104999999999
#
# number of rings (size 3 to 8) (size 9 to 14) (size 15 to 20)
#    0.000    1.333    0.000    6.500    0.000    8.667 
#    0.000    0.000    0.000    2.500    0.000    0.000 
#    0.000    0.000    0.000    0.000    0.000    0.000 
#
# Total GULP energy -595259.926226 kJ/mol
# GULP energy per Si atom -12401.248463 kJ/mol
# Density = 2.137634 g / cm^3
# Si number density = 21.425105 Si / 1000 Ang^3
#
#
#
# Elastic Constant Matrix: (Units=GPa)
#
#
# Indices 1 2 3 4 5 6 
#
# 1 103.0618 49.7602 37.5907 0.0000 0.0000 0.0000
# 2 49.7602 147.8873 56.2971 0.0000 0.0000 0.0000
# 3 37.5907 56.2971 108.0427 0.0000 0.0000 0.0000
# 4 0.0000 0.0000 0.0000 30.5563 0.0000 0.0000
# 5 0.0000 0.0000 0.0000 0.0000 25.0692 0.0000
# 6 0.0000 0.0000 0.0000 0.0000 0.0000 9.5492
#
#
#
# Elastic Compliance Matrix: (Units=1/GPa)
#
#
# Indices 1 2 3 4 5 6 
#
# 1 0.012150 -0.003092 -0.002616 0.000000 0.000000 0.000000
# 2 -0.003092 0.009222 -0.003729 0.000000 0.000000 0.000000
# 3 -0.002616 -0.003729 0.012109 0.000000 0.000000 0.000000
# 4 0.000000 0.000000 0.000000 0.032726 0.000000 0.000000
# 5 0.000000 0.000000 0.000000 0.000000 0.039890 0.000000
# 6 0.000000 0.000000 0.000000 0.000000 0.000000 0.104721
#
#
# Mechanical properties :
#
#
# Convention : Reuss Voigt Hill
#
# Bulk Modulus (GPa) = 68.46629 71.80977 70.13803
# Shear Modulus (GPa) = 21.31629 27.39119 24.35374
#
# Velocity S-wave (km/s) = 3.15766 3.57944 3.37514
# Velocity P-wave (km/s) = 6.73201 7.11847 6.92793
#
# Compressibility (1/GPa) = 0.01460573
#
# Stress axis : x y z
#
# Youngs Moduli (GPa) = 82.30365 108.43534 82.58299
#
# Poissons Ratio (x) = 0.33532 0.21604
# Poissons Ratio (y) = 0.25451 0.30798
# Poissons Ratio (z) = 0.21531 0.40440
#
# Static dielectric constant tensor:
#      x y z
#    x 3.609670 0.000000 0.000000 
#    y 0.000000 4.397730 0.000000 
#    z 0.000000 0.000000 3.793360 
# 
# 
# High freq. dielectric constant tensor:
#      x y z
#    x 1.822030 0.000000 0.000000 
#    y 0.000000 1.865000 0.000000 
#    z 0.000000 0.000000 1.837020 
# 
# From -- ./inp_files/9906.got.cif
#   From: 2010.03.12/outbox.cif.g09.slc.cpg/sg53_5_cif.got.tgz:9906.got - 2010.04.16 14:36:59.
