data_PCOD8221851
_publ_section_title
;
Structure prediction by ZEFSAII (Michael W. Deem and Ramdas Pophale) SiO2 
 PCOD8221851
Probable space group: P M N A
;
_chemical_formula_sum "Si O2"
_cell_formula_units_Z 40
_cell_length_a 13.854565
_cell_length_b 9.835931
_cell_length_c 11.545674
_cell_angle_alpha 90.000000
_cell_angle_beta 90.000000
_cell_angle_gamma 90.000000
_cell_volume 1573.358384
_symmetry_space_group_name_H-M "P M N A"
_symmetry_group_IT_number 53
_symmetry_cell_setting 'orthorhombic'
loop_
_space_group_symop_operation_xyz
x,y,z
1/2-x,-y,1/2+z
x,-y,-z
1/2-x,y,1/2-z
-x,-y,-z
1/2+x,y,1/2-z
-x,y,z
1/2+x,-y,1/2+z
loop_
_atom_site_type_symbol
_atom_site_label
_atom_site_fract_x
_atom_site_fract_y
_atom_site_fract_z
Si Si1 0.846970 0.407315 0.315940
Si Si2 0.604895 0.836054 0.684471
Si Si3 0.245719 0.746558 0.494135
Si Si4 0.891008 0.081982 0.660653
Si Si5 0.105610 0.663962 0.186173
O O1 0.750000 0.376376 0.250000
O O2 0.918866 0.304691 0.251055
O O3 0.828764 0.362254 0.448960
O O4 0.880507 0.562636 0.296490
O O5 0.500000 0.886225 0.636132
O O6 0.680501 0.822037 0.580168
O O7 0.644274 0.940243 0.783136
O O8 0.183286 0.867719 0.437250
O O9 0.307974 0.651209 0.406222
O O10 0.889714 0.185084 0.767175
O O11 0.000000 0.070984 0.608932
O O12 0.000000 0.636117 0.129166
#
# Coordination Sequence:
#
# PCOD8221851 Si02
#       5
#     8   8   8   8   8
#     4  10  23  40  63  99 137 175 224 278 335 406
#     4  10  23  44  68 101 138 176 229 288 342 407
#     4  11  24  44  74 102 135 188 234 280 345 413
#     4  10  24  43  66 100 141 180 227 284 343 408
#     4  11  24  43  67 100 139 179 227 286 343 406
#
# _framework density 25.423324999999998
#
# number of rings (size 3 to 8) (size 9 to 14) (size 15 to 20)
#    0.000    1.600    0.000    3.000    0.000   16.800 
#    0.000   12.000    0.000    3.600    0.000    0.000 
#    0.000    0.000    0.000    0.000    0.000    0.000 
#
# Total GULP energy -495712.807455 kJ/mol
# GULP energy per Si atom -12392.820186 kJ/mol
# Density = 2.536546 g / cm^3
# Si number density = 25.423325 Si / 1000 Ang^3
#
#
#
# Elastic Constant Matrix: (Units=GPa)
#
#
# Indices 1 2 3 4 5 6 
#
# 1 137.4730 14.2648 51.2447 0.0000 0.0000 0.0000
# 2 14.2648 104.1206 20.3169 0.0000 0.0000 0.0000
# 3 51.2447 20.3169 99.9558 0.0000 0.0000 0.0000
# 4 0.0000 0.0000 0.0000 41.5438 0.0000 0.0000
# 5 0.0000 0.0000 0.0000 0.0000 15.2389 0.0000
# 6 0.0000 0.0000 0.0000 0.0000 0.0000 15.4589
#
#
#
# Elastic Compliance Matrix: (Units=1/GPa)
#
#
# Indices 1 2 3 4 5 6 
#
# 1 0.009005 -0.000347 -0.004546 0.000000 0.000000 0.000000
# 2 -0.000347 0.010014 -0.001858 0.000000 0.000000 0.000000
# 3 -0.004546 -0.001858 0.012713 0.000000 0.000000 0.000000
# 4 0.000000 0.000000 0.000000 0.024071 0.000000 0.000000
# 5 0.000000 0.000000 0.000000 0.000000 0.065622 0.000000
# 6 0.000000 0.000000 0.000000 0.000000 0.000000 0.064688
#
#
# Mechanical properties :
#
#
# Convention : Reuss Voigt Hill
#
# Bulk Modulus (GPa) = 54.85230 57.02245 55.93738
# Shear Modulus (GPa) = 24.30846 31.49651 27.90248
#
# Velocity S-wave (km/s) = 3.09552 3.52359 3.31647
# Velocity P-wave (km/s) = 5.86504 6.24757 6.05933
#
# Compressibility (1/GPa) = 0.01823077
#
# Stress axis : x y z
#
# Youngs Moduli (GPa) = 111.05309 99.85778 78.66175
#
# Poissons Ratio (x) = 0.03461 0.35760
# Poissons Ratio (y) = 0.03849 0.14614
# Poissons Ratio (z) = 0.50485 0.18551
#
# Static dielectric constant tensor:
#      x y z
#    x 5.389440 0.000000 0.000000 
#    y 0.000000 4.579770 0.000000 
#    z 0.000000 0.000000 4.601990 
# 
# 
# High freq. dielectric constant tensor:
#      x y z
#    x 2.032020 0.000000 0.000000 
#    y 0.000000 2.022010 0.000000 
#    z 0.000000 0.000000 1.994440 
# 
# From -- ./inp_files/16676.got.cif
#   From: 2010.03.12/outbox.cif.g09.slc.cpg/sg53_9_cif.got.tgz:16676.got - 2010.04.16 14:36:59.
