data_PCOD8221524
_publ_section_title
;
Structure prediction by ZEFSAII (Michael W. Deem and Ramdas Pophale) SiO2 
 PCOD8221524
Probable space group: P M N A
;
_chemical_formula_sum "Si O2"
_cell_formula_units_Z 40
_cell_length_a 20.903626
_cell_length_b 10.116053
_cell_length_c 8.501520
_cell_angle_alpha 90.000000
_cell_angle_beta 90.000000
_cell_angle_gamma 90.000000
_cell_volume 1797.750025
_symmetry_space_group_name_H-M "P M N A"
_symmetry_group_IT_number 53
_symmetry_cell_setting 'orthorhombic'
loop_
_space_group_symop_operation_xyz
x,y,z
1/2-x,-y,1/2+z
x,-y,-z
1/2-x,y,1/2-z
-x,-y,-z
1/2+x,y,1/2-z
-x,y,z
1/2+x,-y,1/2+z
loop_
_atom_site_type_symbol
_atom_site_label
_atom_site_fract_x
_atom_site_fract_y
_atom_site_fract_z
Si Si1 0.193775 0.118892 0.121516
Si Si2 0.884339 0.641550 0.448408
Si Si3 0.258555 0.638294 0.437607
Si Si4 0.427866 0.209515 0.209600
Si Si5 0.426150 0.503103 0.327557
O O1 0.250000 0.107601 0.250000
O O2 0.124621 0.114344 0.210761
O O3 0.198158 0.248609 0.013963
O O4 0.198136 0.000000 0.000000
O O5 0.916242 0.500000 0.500000
O O6 0.812217 0.653764 0.510978
O O7 0.920462 0.772224 0.518627
O O8 0.889315 0.626154 0.258644
O O9 0.287351 0.500000 0.500000
O O10 0.250000 0.647310 0.250000
O O11 0.500000 0.161786 0.252625
O O12 0.412710 0.359277 0.258392
O O13 0.397087 0.500000 0.500000
O O14 0.500000 0.541826 0.327646
#
# Coordination Sequence:
#
# PCOD8221524 Si02
#       5
#     8   8   8   8   8
#     4  12  26  47  68  95 133 177 223 276 343 406
#     4   9  18  33  57  89 130 174 213 262 329 386
#     4  11  24  38  66 103 134 170 222 281 331 395
#     4  10  21  39  64  92 127 174 225 273 328 398
#     4   9  18  31  53  92 137 174 210 263 330 392
#
# _framework density 22.250035
#
# number of rings (size 3 to 8) (size 9 to 14) (size 15 to 20)
#    0.000    1.800    2.000    1.800    8.400    2.800 
#    0.000    0.000    0.000    0.600    0.000    0.000 
#    0.000    0.000    0.000    0.000    0.000    0.000 
#
# Total GULP energy -495563.839896 kJ/mol
# GULP energy per Si atom -12389.095997 kJ/mol
# Density = 2.219939 g / cm^3
# Si number density = 22.250035 Si / 1000 Ang^3
#
#
#
# Elastic Constant Matrix: (Units=GPa)
#
#
# Indices 1 2 3 4 5 6 
#
# 1 131.3000 34.7577 28.3869 0.0000 0.0000 0.0000
# 2 34.7577 88.9276 47.4312 0.0000 0.0000 0.0000
# 3 28.3869 47.4312 140.4199 0.0000 0.0000 0.0000
# 4 0.0000 0.0000 0.0000 34.8855 0.0000 0.0000
# 5 0.0000 0.0000 0.0000 0.0000 20.5935 0.0000
# 6 0.0000 0.0000 0.0000 0.0000 0.0000 13.4674
#
#
#
# Elastic Compliance Matrix: (Units=1/GPa)
#
#
# Indices 1 2 3 4 5 6 
#
# 1 0.008556 -0.002954 -0.000732 0.000000 0.000000 0.000000
# 2 -0.002954 0.014736 -0.004380 0.000000 0.000000 0.000000
# 3 -0.000732 -0.004380 0.008749 0.000000 0.000000 0.000000
# 4 0.000000 0.000000 0.000000 0.028665 0.000000 0.000000
# 5 0.000000 0.000000 0.000000 0.000000 0.048559 0.000000
# 6 0.000000 0.000000 0.000000 0.000000 0.000000 0.074253
#
#
# Mechanical properties :
#
#
# Convention : Reuss Voigt Hill
#
# Bulk Modulus (GPa) = 62.85765 64.64435 63.75100
# Shear Modulus (GPa) = 24.39567 30.46073 27.42820
#
# Velocity S-wave (km/s) = 3.31483 3.70404 3.51483
# Velocity P-wave (km/s) = 6.55460 6.88548 6.72208
#
# Compressibility (1/GPa) = 0.01590896
#
# Stress axis : x y z
#
# Youngs Moduli (GPa) = 116.87240 67.86106 114.29764
#
# Poissons Ratio (x) = 0.20045 0.08366
# Poissons Ratio (y) = 0.34523 0.50067
# Poissons Ratio (z) = 0.08555 0.29726
#
# Static dielectric constant tensor:
#      x y z
#    x 4.055930 0.000000 0.000000 
#    y 0.000000 3.524790 0.000000 
#    z 0.000000 0.000000 4.632540 
# 
# 
# High freq. dielectric constant tensor:
#      x y z
#    x 1.890910 0.000000 0.000000 
#    y 0.000000 1.818220 0.000000 
#    z 0.000000 0.000000 1.893680 
# 
# From -- ./inp_files/11566.got.cif
#   From: 2010.03.12/outbox.cif.g09.slc.cpg/sg53_6_cif.got.tgz:11566.got - 2010.04.16 14:36:59.
