data_PCOD8221903
_publ_section_title
;
Structure prediction by ZEFSAII (Michael W. Deem and Ramdas Pophale) SiO2 
 PCOD8221903
Probable space group: P M N A
;
_chemical_formula_sum "Si O2"
_cell_formula_units_Z 32
_cell_length_a 15.601042
_cell_length_b 5.097031
_cell_length_c 16.743149
_cell_angle_alpha 90.000000
_cell_angle_beta 90.000000
_cell_angle_gamma 90.000000
_cell_volume 1331.398377
_symmetry_space_group_name_H-M "P M N A"
_symmetry_group_IT_number 53
_symmetry_cell_setting 'orthorhombic'
loop_
_space_group_symop_operation_xyz
x,y,z
1/2-x,-y,1/2+z
x,-y,-z
1/2-x,y,1/2-z
-x,-y,-z
1/2+x,y,1/2-z
-x,y,z
1/2+x,-y,1/2+z
loop_
_atom_site_type_symbol
_atom_site_label
_atom_site_fract_x
_atom_site_fract_y
_atom_site_fract_z
Si Si1 0.404840 0.963914 0.905319
Si Si2 0.260514 0.252927 0.445148
Si Si3 0.350005 0.313249 0.769896
Si Si4 0.095344 0.799789 0.818954
O O1 0.500000 0.877033 0.874001
O O2 0.327041 0.756354 0.891142
O O3 0.373864 0.230905 0.860870
O O4 0.410520 0.000000 0.000000
O O5 0.255351 0.500000 0.500000
O O6 0.341086 0.284378 0.388450
O O7 0.270730 0.000000 0.500000
O O8 0.250000 0.332680 0.750000
O O9 0.394290 0.593111 0.753583
O O10 0.388322 0.090981 0.712107
O O11 0.000000 0.784923 0.854352
#
# Coordination Sequence:
#
# PCOD8221903 Si02
#       4
#     8   8   8   8
#     4  10  23  44  70 103 140 184 236 295 360 431
#     4  11  25  44  70 103 143 192 240 293 363 434
#     4  12  25  46  73 104 141 190 237 301 367 434
#     4  12  26  45  72 106 142 188 242 301 361 432
#
# _framework density 24.034880000000001
#
# number of rings (size 3 to 8) (size 9 to 14) (size 15 to 20)
#    0.000    0.750    2.500    4.500    3.500    1.500 
#    0.000    5.000    0.000    0.000    0.000    0.000 
#    0.000    0.000    0.000    0.000    0.000    0.000 
#
# Total GULP energy -396711.718370 kJ/mol
# GULP energy per Si atom -12397.241199 kJ/mol
# Density = 2.398018 g / cm^3
# Si number density = 24.034880 Si / 1000 Ang^3
#
#
#
# Elastic Constant Matrix: (Units=GPa)
#
#
# Indices 1 2 3 4 5 6 
#
# 1 226.8503 21.7355 28.5184 0.0000 0.0000 0.0000
# 2 21.7355 79.8949 3.6332 0.0000 0.0000 0.0000
# 3 28.5184 3.6332 48.1325 0.0000 0.0000 0.0000
# 4 0.0000 0.0000 0.0000 39.2827 0.0000 0.0000
# 5 0.0000 0.0000 0.0000 0.0000 21.4850 0.0000
# 6 0.0000 0.0000 0.0000 0.0000 0.0000 15.2265
#
#
#
# Elastic Compliance Matrix: (Units=1/GPa)
#
#
# Indices 1 2 3 4 5 6 
#
# 1 0.004875 -0.001199 -0.002798 0.000000 0.000000 0.000000
# 2 -0.001199 0.012854 -0.000260 0.000000 0.000000 0.000000
# 3 -0.002798 -0.000260 0.022453 0.000000 0.000000 0.000000
# 4 0.000000 0.000000 0.000000 0.025457 0.000000 0.000000
# 5 0.000000 0.000000 0.000000 0.000000 0.046544 0.000000
# 6 0.000000 0.000000 0.000000 0.000000 0.000000 0.065675
#
#
# Mechanical properties :
#
#
# Convention : Reuss Voigt Hill
#
# Bulk Modulus (GPa) = 31.57643 51.40575 41.49109
# Shear Modulus (GPa) = 25.39000 35.26487 30.32743
#
# Velocity S-wave (km/s) = 3.25373 3.83461 3.55605
# Velocity P-wave (km/s) = 5.22321 6.40625 5.84474
#
# Compressibility (1/GPa) = 0.03166919
#
# Stress axis : x y z
#
# Youngs Moduli (GPa) = 205.13675 77.79411 44.53687
#
# Poissons Ratio (x) = 0.09327 0.12461
# Poissons Ratio (y) = 0.24595 0.01158
# Poissons Ratio (z) = 0.57393 0.02022
#
# Static dielectric constant tensor:
#      x y z
#    x 5.149420 0.000000 0.000000 
#    y 0.000000 4.328670 0.000000 
#    z 0.000000 0.000000 4.411770 
# 
# 
# High freq. dielectric constant tensor:
#      x y z
#    x 1.978220 0.000000 0.000000 
#    y 0.000000 1.955520 0.000000 
#    z 0.000000 0.000000 1.958290 
# 
# From -- ./inp_files/23248.got.cif
#   From: 2010.03.12/outbox.cif.g09.slc.cpg/sg53_12_cif.got.tgz:23248.got - 2010.04.16 14:36:59.
