data_PCOD8221508
_publ_section_title
;
Structure prediction by ZEFSAII (Michael W. Deem and Ramdas Pophale) SiO2 
 PCOD8221508
Probable space group: P M N A
;
_chemical_formula_sum "Si O2"
_cell_formula_units_Z 24
_cell_length_a 27.228054
_cell_length_b 4.944554
_cell_length_c 8.145388
_cell_angle_alpha 90.000000
_cell_angle_beta 90.000000
_cell_angle_gamma 90.000000
_cell_volume 1096.618338
_symmetry_space_group_name_H-M "P M N A"
_symmetry_group_IT_number 53
_symmetry_cell_setting 'orthorhombic'
loop_
_space_group_symop_operation_xyz
x,y,z
1/2-x,-y,1/2+z
x,-y,-z
1/2-x,y,1/2-z
-x,-y,-z
1/2+x,y,1/2-z
-x,y,z
1/2+x,-y,1/2+z
loop_
_atom_site_type_symbol
_atom_site_label
_atom_site_fract_x
_atom_site_fract_y
_atom_site_fract_z
Si Si1 0.143811 0.405549 0.185474
Si Si2 0.197334 0.092800 0.686644
Si Si3 0.445528 0.758414 0.888628
O O1 0.181721 0.158436 0.199528
O O2 0.090236 0.297445 0.236690
O O3 0.160051 0.655279 0.300204
O O4 0.141627 0.500000 0.000000
O O5 0.250000 0.194821 0.750000
O O6 0.198991 0.000000 0.500000
O O7 0.500000 0.837221 0.821332
O O8 0.449949 0.500000 0.000000
O O9 0.423594 0.000000 0.000000
#
# Coordination Sequence:
#
# PCOD8221508 Si02
#       3
#     8   8   8
#     4  12  24  40  63  93 126 161 204 254 309 365
#     4  12  25  43  64  89 123 163 207 253 306 366
#     4  10  21  39  63  90 122 162 206 251 305 366
#
# _framework density 21.885462
#
# number of rings (size 3 to 8) (size 9 to 14) (size 15 to 20)
#    0.000    0.667    0.000   10.000    0.000    0.667 
#    0.000    0.000    0.000   10.000    0.000    0.000 
#    0.000    0.000    0.000    0.000    0.000    0.000 
#
# Total GULP energy -297753.244970 kJ/mol
# GULP energy per Si atom -12406.385207 kJ/mol
# Density = 2.183565 g / cm^3
# Si number density = 21.885462 Si / 1000 Ang^3
#
#
#
# Elastic Constant Matrix: (Units=GPa)
#
#
# Indices 1 2 3 4 5 6 
#
# 1 126.9433 38.3049 64.0057 0.0000 0.0000 0.0000
# 2 38.3049 136.4621 30.0576 0.0000 0.0000 0.0000
# 3 64.0057 30.0576 101.7605 0.0000 0.0000 0.0000
# 4 0.0000 0.0000 0.0000 37.1871 0.0000 0.0000
# 5 0.0000 0.0000 0.0000 0.0000 25.5853 0.0000
# 6 0.0000 0.0000 0.0000 0.0000 0.0000 33.2436
#
#
#
# Elastic Compliance Matrix: (Units=1/GPa)
#
#
# Indices 1 2 3 4 5 6 
#
# 1 0.011942 -0.001816 -0.006975 0.000000 0.000000 0.000000
# 2 -0.001816 0.008114 -0.001255 0.000000 0.000000 0.000000
# 3 -0.006975 -0.001255 0.014585 0.000000 0.000000 0.000000
# 4 0.000000 0.000000 0.000000 0.026891 0.000000 0.000000
# 5 0.000000 0.000000 0.000000 0.000000 0.039085 0.000000
# 6 0.000000 0.000000 0.000000 0.000000 0.000000 0.030081
#
#
# Mechanical properties :
#
#
# Convention : Reuss Voigt Hill
#
# Bulk Modulus (GPa) = 68.72813 69.98916 69.35865
# Shear Modulus (GPa) = 32.12547 34.72304 33.42426
#
# Velocity S-wave (km/s) = 3.83546 3.98751 3.91223
# Velocity P-wave (km/s) = 7.14745 7.29723 7.22273
#
# Compressibility (1/GPa) = 0.01455008
#
# Stress axis : x y z
#
# Youngs Moduli (GPa) = 83.73503 123.24250 68.56414
#
# Poissons Ratio (x) = 0.22379 0.47825
# Poissons Ratio (y) = 0.15205 0.08602
# Poissons Ratio (z) = 0.58407 0.15462
#
# Static dielectric constant tensor:
#      x y z
#    x 4.432860 0.000000 0.000000 
#    y 0.000000 4.279550 0.000000 
#    z 0.000000 0.000000 3.611970 
# 
# 
# High freq. dielectric constant tensor:
#      x y z
#    x 1.874490 0.000000 0.000000 
#    y 0.000000 1.883260 0.000000 
#    z 0.000000 0.000000 1.844200 
# 
# From -- ./inp_files/12022.got.cif
#   From: 2010.03.12/outbox.cif.g09.slc.cpg/sg53_7_cif.got.tgz:12022.got - 2010.04.16 14:36:59.
