data_PCOD8221746
_publ_section_title
;
Structure prediction by ZEFSAII (Michael W. Deem and Ramdas Pophale) SiO2 
 PCOD8221746
Probable space group: P M N A
;
_chemical_formula_sum "Si O2"
_cell_formula_units_Z 64
_cell_length_a 15.174459
_cell_length_b 21.869265
_cell_length_c 9.940474
_cell_angle_alpha 90.000000
_cell_angle_beta 90.000000
_cell_angle_gamma 90.000000
_cell_volume 3298.788694
_symmetry_space_group_name_H-M "P M N A"
_symmetry_group_IT_number 53
_symmetry_cell_setting 'orthorhombic'
loop_
_space_group_symop_operation_xyz
x,y,z
1/2-x,-y,1/2+z
x,-y,-z
1/2-x,y,1/2-z
-x,-y,-z
1/2+x,y,1/2-z
-x,y,z
1/2+x,-y,1/2+z
loop_
_atom_site_type_symbol
_atom_site_label
_atom_site_fract_x
_atom_site_fract_y
_atom_site_fract_z
Si Si1 0.100829 0.555336 0.096110
Si Si2 0.249880 0.767112 0.904920
Si Si3 0.150916 0.905987 0.249718
Si Si4 0.397461 0.041768 0.248573
Si Si5 0.599212 0.860835 0.968394
Si Si6 0.749990 0.348747 0.595154
Si Si7 0.399170 0.444656 0.903906
Si Si8 0.599391 0.138714 0.466694
O O1 0.162480 0.612595 0.063355
O O2 0.114341 0.533681 0.250010
O O3 0.000000 0.575319 0.069273
O O4 0.128892 0.500000 0.000000
O O5 0.250000 0.746561 0.750000
O O6 0.162222 0.804824 0.936854
O O7 0.337467 0.804926 0.936432
O O8 0.249966 0.708502 0.998383
O O9 0.250000 0.880343 0.250000
O O10 0.099941 0.879186 0.376560
O O11 0.155941 0.979206 0.251661
O O12 0.100361 0.880807 0.120990
O O13 0.500000 0.024835 0.249776
O O14 0.369813 0.080615 0.379225
O O15 0.370765 0.080194 0.116892
O O16 0.500000 0.841409 0.927665
O O17 0.750000 0.326630 0.750000
O O18 0.837512 0.387395 0.563344
O O19 0.500000 0.424670 0.930738
O O20 0.371113 0.500000 0.000000
O O21 0.500000 0.157937 0.426593
#
# Coordination Sequence:
#
# PCOD8221746 Si02
#       8
#     8   8   8   8   8   8   8   8
#     4   9  18  35  60  92 126 159 195 239 293 347
#     4  12  26  43  62  86 116 159 213 254 299 357
#     4  12  24  36  64  95 119 148 193 245 307 379
#     4  10  22  40  62  88 118 153 191 240 310 375
#     4  11  24  43  62  85 120 156 196 249 306 365
#     4  10  23  39  59  85 125 161 202 249 291 347
#     4   9  18  35  60  92 126 159 195 239 293 347
#     4  11  24  43  62  85 120 156 196 249 306 365
#
# _framework density 19.401060000000001
#
# number of rings (size 3 to 8) (size 9 to 14) (size 15 to 20)
#    0.000    1.500    2.500    2.250    3.500    5.000 
#    0.000    0.000    0.000    0.000    0.000    0.000 
#    0.000    0.000    0.000    0.000    0.000    0.000 
#
# Total GULP energy -793886.531599 kJ/mol
# GULP energy per Si atom -12404.477056 kJ/mol
# Density = 1.935690 g / cm^3
# Si number density = 19.401060 Si / 1000 Ang^3
#
#
#
# Elastic Constant Matrix: (Units=GPa)
#
#
# Indices 1 2 3 4 5 6 
#
# 1 109.9531 60.0983 37.0166 0.0000 0.0000 0.0000
# 2 60.0983 115.8152 59.0302 0.0000 0.0000 0.0000
# 3 37.0166 59.0302 124.3461 0.0000 0.0000 0.0000
# 4 0.0000 0.0000 0.0000 46.6332 0.0000 0.0000
# 5 0.0000 0.0000 0.0000 0.0000 33.4159 0.0000
# 6 0.0000 0.0000 0.0000 0.0000 0.0000 0.7808
#
#
#
# Elastic Compliance Matrix: (Units=1/GPa)
#
#
# Indices 1 2 3 4 5 6 
#
# 1 0.012766 -0.006184 -0.000865 0.000000 0.000000 0.000000
# 2 -0.006184 0.014386 -0.004989 0.000000 0.000000 0.000000
# 3 -0.000865 -0.004989 0.010668 0.000000 0.000000 0.000000
# 4 0.000000 0.000000 0.000000 0.021444 0.000000 0.000000
# 5 0.000000 0.000000 0.000000 0.000000 0.029926 0.000000
# 6 0.000000 0.000000 0.000000 0.000000 0.000000 1.280701
#
#
# Mechanical properties :
#
#
# Convention : Reuss Voigt Hill
#
# Bulk Modulus (GPa) = 72.75081 73.60051 73.17566
# Shear Modulus (GPa) = 3.57514 29.09728 16.33621
#
# Velocity S-wave (km/s) = 1.35895 3.87690 2.90492
# Velocity P-wave (km/s) = 6.32788 7.61965 7.00362
#
# Compressibility (1/GPa) = 0.01374555
#
# Stress axis : x y z
#
# Youngs Moduli (GPa) = 78.33463 69.51293 93.74126
#
# Poissons Ratio (x) = 0.42984 0.08106
# Poissons Ratio (y) = 0.48439 0.46763
# Poissons Ratio (z) = 0.06774 0.34677
#
# Static dielectric constant tensor:
#      x y z
#    x 3.877320 0.000000 0.000000 
#    y 0.000000 3.259690 0.000000 
#    z 0.000000 0.000000 3.690830 
# 
# 
# High freq. dielectric constant tensor:
#      x y z
#    x 1.772340 0.000000 0.000000 
#    y 0.000000 1.730650 0.000000 
#    z 0.000000 0.000000 1.771070 
# 
# From -- ./inp_files/8983.got.cif
#   From: 2010.03.12/outbox.cif.g09.slc.cpg/sg53_5_cif.got.tgz:8983.got - 2010.04.16 14:36:59.
