data_PCOD8221900
_publ_section_title
;
Structure prediction by ZEFSAII (Michael W. Deem and Ramdas Pophale) SiO2 
 PCOD8221900
Probable space group: P M N A
;
_chemical_formula_sum "Si O2"
_cell_formula_units_Z 48
_cell_length_a 8.564555
_cell_length_b 12.137842
_cell_length_c 21.648182
_cell_angle_alpha 90.000000
_cell_angle_beta 90.000000
_cell_angle_gamma 90.000000
_cell_volume 2250.441423
_symmetry_space_group_name_H-M "P M N A"
_symmetry_group_IT_number 53
_symmetry_cell_setting 'orthorhombic'
loop_
_space_group_symop_operation_xyz
x,y,z
1/2-x,-y,1/2+z
x,-y,-z
1/2-x,y,1/2-z
-x,-y,-z
1/2+x,y,1/2-z
-x,y,z
1/2+x,-y,1/2+z
loop_
_atom_site_type_symbol
_atom_site_label
_atom_site_fract_x
_atom_site_fract_y
_atom_site_fract_z
Si Si1 0.814707 0.019735 0.570522
Si Si2 0.315616 0.348889 0.342275
Si Si3 0.179458 0.747357 0.093330
Si Si4 0.320991 0.612194 0.524245
Si Si5 0.182557 0.121618 0.313120
Si Si6 0.183383 0.418728 0.688704
O O1 0.755647 0.930076 0.621484
O O2 0.000000 0.024049 0.567547
O O3 0.749921 0.000000 0.500000
O O4 0.751300 0.132648 0.598979
O O5 0.500000 0.327537 0.338100
O O6 0.245840 0.349894 0.411761
O O7 0.227769 0.249701 0.308812
O O8 0.273388 0.465277 0.312597
O O9 0.277062 0.659158 0.131699
O O10 0.000000 0.746458 0.115245
O O11 0.196032 0.712865 0.022277
O O12 0.238297 0.500000 0.500000
O O13 0.500000 0.581725 0.538614
O O14 0.250000 0.065102 0.250000
O O15 0.000000 0.104747 0.310510
O O16 0.250000 0.358691 0.750000
O O17 0.000000 0.438973 0.691506
#
# Coordination Sequence:
#
# PCOD8221900 Si02
#       6
#     8   8   8   8   8   8
#     4  10  23  44  67  92 127 167 212 270 325 378
#     4  11  21  38  64  92 126 163 205 256 308 368
#     4  11  22  39  64  93 124 160 203 251 307 372
#     4   9  17  33  58  89 125 159 195 241 300 364
#     4  11  24  42  64  91 125 166 214 264 321 383
#     4  12  25  41  60  86 122 163 206 250 306 370
#
# _framework density 21.329149999999998
#
# number of rings (size 3 to 8) (size 9 to 14) (size 15 to 20)
#    0.000    1.333    1.667    4.500    0.000    2.333 
#    0.000    5.000    0.000    0.000    0.000    0.000 
#    0.000    0.000    0.000    0.000    0.000    0.000 
#
# Total GULP energy -595092.930118 kJ/mol
# GULP energy per Si atom -12397.769377 kJ/mol
# Density = 2.128060 g / cm^3
# Si number density = 21.329150 Si / 1000 Ang^3
#
#
#
# Elastic Constant Matrix: (Units=GPa)
#
#
# Indices 1 2 3 4 5 6 
#
# 1 38.8841 12.7655 29.1061 0.0000 0.0000 0.0000
# 2 12.7655 104.6395 28.1339 0.0000 0.0000 0.0000
# 3 29.1061 28.1339 147.0867 0.0000 0.0000 0.0000
# 4 0.0000 0.0000 0.0000 16.1055 0.0000 0.0000
# 5 0.0000 0.0000 0.0000 0.0000 29.2211 0.0000
# 6 0.0000 0.0000 0.0000 0.0000 0.0000 23.0393
#
#
#
# Elastic Compliance Matrix: (Units=1/GPa)
#
#
# Indices 1 2 3 4 5 6 
#
# 1 0.030673 -0.002224 -0.005644 0.000000 0.000000 0.000000
# 2 -0.002224 0.010236 -0.001518 0.000000 0.000000 0.000000
# 3 -0.005644 -0.001518 0.008206 0.000000 0.000000 0.000000
# 4 0.000000 0.000000 0.000000 0.062091 0.000000 0.000000
# 5 0.000000 0.000000 0.000000 0.000000 0.034222 0.000000
# 6 0.000000 0.000000 0.000000 0.000000 0.000000 0.043404
#
#
# Mechanical properties :
#
#
# Convention : Reuss Voigt Hill
#
# Bulk Modulus (GPa) = 32.95762 47.84681 40.40222
# Shear Modulus (GPa) = 22.96554 28.38016 25.67285
#
# Velocity S-wave (km/s) = 3.28490 3.65167 3.47313
# Velocity P-wave (km/s) = 5.46561 6.34515 5.92173
#
# Compressibility (1/GPa) = 0.03034199
#
# Stress axis : x y z
#
# Youngs Moduli (GPa) = 32.60246 97.69390 121.86368
#
# Poissons Ratio (x) = 0.21731 0.68781
# Poissons Ratio (y) = 0.07252 0.18496
# Poissons Ratio (z) = 0.18401 0.14827
#
# Static dielectric constant tensor:
#      x y z
#    x 3.606330 0.000000 0.000000 
#    y 0.000000 3.699500 0.000000 
#    z 0.000000 0.000000 4.369790 
# 
# 
# High freq. dielectric constant tensor:
#      x y z
#    x 1.818150 0.000000 0.000000 
#    y 0.000000 1.829190 0.000000 
#    z 0.000000 0.000000 1.862100 
# 
# From -- ./inp_files/33922.got.cif
#   From: 2010.03.12/outbox.cif.g09.slc.cpg/sg53_17_cif.got.tgz:33922.got - 2010.04.16 14:36:59.
