data_PCOD8221887
_publ_section_title
;
Structure prediction by ZEFSAII (Michael W. Deem and Ramdas Pophale) SiO2 
 PCOD8221887
Probable space group: P M N A
;
_chemical_formula_sum "Si O2"
_cell_formula_units_Z 40
_cell_length_a 10.074145
_cell_length_b 22.458087
_cell_length_c 8.437777
_cell_angle_alpha 90.000000
_cell_angle_beta 90.000000
_cell_angle_gamma 90.000000
_cell_volume 1909.013505
_symmetry_space_group_name_H-M "P M N A"
_symmetry_group_IT_number 53
_symmetry_cell_setting 'orthorhombic'
loop_
_space_group_symop_operation_xyz
x,y,z
1/2-x,-y,1/2+z
x,-y,-z
1/2-x,y,1/2-z
-x,-y,-z
1/2+x,y,1/2-z
-x,y,z
1/2+x,-y,1/2+z
loop_
_atom_site_type_symbol
_atom_site_label
_atom_site_fract_x
_atom_site_fract_y
_atom_site_fract_z
Si Si1 0.267209 0.937390 0.062819
Si Si2 0.649828 0.556526 0.608476
Si Si3 0.000000 0.759544 0.070712
Si Si4 0.766376 0.683025 0.937636
Si Si5 0.500000 0.268032 0.938494
Si Si6 0.500000 0.888348 0.564639
Si Si7 0.000000 0.860634 0.566186
O O1 0.250000 0.938642 0.250000
O O2 0.369112 0.885518 0.018194
O O3 0.128153 0.927132 0.975942
O O4 0.325314 0.000000 0.000000
O O5 0.671414 0.500000 0.500000
O O6 0.750000 0.549182 0.750000
O O7 0.500000 0.559004 0.674767
O O8 0.680067 0.617652 0.514044
O O9 0.000000 0.750390 0.257062
O O10 0.868598 0.732783 0.993461
O O11 0.000000 0.829556 0.041463
O O12 0.750000 0.688321 0.750000
O O13 0.627415 0.691850 0.025135
O O14 0.500000 0.210367 0.050190
O O15 0.500000 0.874664 0.749435
#
# Coordination Sequence:
#
# PCOD8221887 Si02
#       7
#     8   8   4   8   4   4   4
#     4  12  25  44  67  96 131 170 217 270 328 391
#     4  10  23  43  67  98 134 175 222 273 327 387
#     4  12  24  43  64  95 132 166 215 274 325 394
#     4  11  23  43  66  94 128 174 216 269 323 394
#     4  12  26  41  66  97 130 168 219 266 335 384
#     4  12  25  43  68  93 130 172 217 268 330 390
#     4  12  25  45  66  97 128 174 217 270 324 398
#
# _framework density 20.953229
#
# number of rings (size 3 to 8) (size 9 to 14) (size 15 to 20)
#    0.000    0.600    1.000    7.800    4.200    2.000 
#    0.000    0.000    0.000    0.000    0.000    0.000 
#    0.000    0.000    0.000    0.000    0.000    0.000 
#
# Total GULP energy -496312.638700 kJ/mol
# GULP energy per Si atom -12407.815968 kJ/mol
# Density = 2.090554 g / cm^3
# Si number density = 20.953229 Si / 1000 Ang^3
#
#
#
# Elastic Constant Matrix: (Units=GPa)
#
#
# Indices 1 2 3 4 5 6 
#
# 1 110.7915 22.8297 10.0208 0.0000 0.0000 0.0000
# 2 22.8297 102.0461 17.2319 0.0000 0.0000 0.0000
# 3 10.0208 17.2319 128.5377 0.0000 0.0000 0.0000
# 4 0.0000 0.0000 0.0000 18.3276 0.0000 0.0000
# 5 0.0000 0.0000 0.0000 0.0000 -28.3512 0.0000
# 6 0.0000 0.0000 0.0000 0.0000 0.0000 40.8106
#
#
#
# Elastic Compliance Matrix: (Units=1/GPa)
#
#
# Indices 1 2 3 4 5 6 
#
# 1 0.009489 -0.002044 -0.000466 0.000000 0.000000 0.000000
# 2 -0.002044 0.010467 -0.001244 0.000000 0.000000 0.000000
# 3 -0.000466 -0.001244 0.007983 0.000000 0.000000 0.000000
# 4 0.000000 0.000000 0.000000 0.054562 0.000000 0.000000
# 5 0.000000 0.000000 0.000000 0.000000 -0.035272 0.000000
# 6 0.000000 0.000000 0.000000 0.000000 0.000000 0.024503
#
#
# Mechanical properties :
#
#
# Convention : Reuss Voigt Hill
#
# Bulk Modulus (GPa) = 48.94432 49.05999 49.00215
# Shear Modulus (GPa) = 58.10487 25.57692 41.84089
#
# Velocity S-wave (km/s) = 5.27171 3.49760 4.47348
# Velocity P-wave (km/s) = 7.77587 6.30680 7.07955
#
# Compressibility (1/GPa) = 0.02043138
#
# Stress axis : x y z
#
# Youngs Moduli (GPa) = 105.38142 95.53949 125.26812
#
# Poissons Ratio (x) = 0.19531 0.05834
# Poissons Ratio (y) = 0.21543 0.15581
# Poissons Ratio (z) = 0.04908 0.11883
#
# Static dielectric constant tensor:
#      x y z
#    x 4.021610 0.000000 0.000000 
#    y 0.000000 4.196650 0.000000 
#    z 0.000000 0.000000 3.767730 
# 
# 
# High freq. dielectric constant tensor:
#      x y z
#    x 1.841410 0.000000 0.000000 
#    y 0.000000 1.837480 0.000000 
#    z 0.000000 0.000000 1.825100 
# 
# From -- ./inp_files/6388.got.cif
#   From: 2010.03.12/outbox.cif.g09.slc.cpg/sg53_4_cif.got.tgz:6388.got - 2010.04.16 14:36:59.
