data_PCOD8221864
_publ_section_title
;
Structure prediction by ZEFSAII (Michael W. Deem and Ramdas Pophale) SiO2 
 PCOD8221864
Probable space group: P M N A
;
_chemical_formula_sum "Si O2"
_cell_formula_units_Z 48
_cell_length_a 15.289911
_cell_length_b 15.353335
_cell_length_c 9.843561
_cell_angle_alpha 90.000000
_cell_angle_beta 90.000000
_cell_angle_gamma 90.000000
_cell_volume 2310.787026
_symmetry_space_group_name_H-M "P M N A"
_symmetry_group_IT_number 53
_symmetry_cell_setting 'orthorhombic'
loop_
_space_group_symop_operation_xyz
x,y,z
1/2-x,-y,1/2+z
x,-y,-z
1/2-x,y,1/2-z
-x,-y,-z
1/2+x,y,1/2-z
-x,y,z
1/2+x,-y,1/2+z
loop_
_atom_site_type_symbol
_atom_site_label
_atom_site_fract_x
_atom_site_fract_y
_atom_site_fract_z
Si Si1 0.901105 0.334407 0.786148
Si Si2 0.257307 0.915917 0.088339
Si Si3 0.146658 0.297602 0.244194
Si Si4 0.167031 0.515665 0.844663
Si Si5 0.100324 0.803779 0.005984
Si Si6 0.601283 0.231855 0.966911
O O1 0.896138 0.437477 0.802983
O O2 0.863178 0.302483 0.642365
O O3 0.000000 0.305809 0.789942
O O4 0.859401 0.278201 0.908778
O O5 0.250000 0.934570 0.250000
O O6 0.335583 0.850513 0.049131
O O7 0.162149 0.884832 0.038287
O O8 0.280612 0.000000 0.000000
O O9 0.250000 0.289208 0.250000
O O10 0.118925 0.392292 0.183078
O O11 0.106483 0.222068 0.151416
O O12 0.107414 0.282689 0.391792
O O13 0.250000 0.508828 0.750000
O O14 0.195200 0.500000 0.000000
O O15 0.000000 0.829237 0.040361
O O16 0.500000 0.203214 0.943972
#
# Coordination Sequence:
#
# PCOD8221864 Si02
#       6
#     8   8   8   8   8   8
#     4  10  23  41  66  92 127 183 227 266 330 387
#     4  12  28  47  74 102 135 171 213 278 341 410
#     4  11  23  40  66 101 138 182 226 276 333 384
#     4  11  25  38  61  96 135 179 228 280 326 379
#     4  11  23  44  71  98 132 179 224 268 328 399
#     4  11  25  46  71  99 136 180 223 273 336 402
#
# _framework density 20.772144000000001
#
# number of rings (size 3 to 8) (size 9 to 14) (size 15 to 20)
#    0.000    1.000    5.000    0.500    9.333    2.333 
#    0.000    1.667    0.000    0.000    0.000    0.000 
#    0.000    0.000    0.000    0.000    0.000    0.000 
#
# Total GULP energy -595027.559735 kJ/mol
# GULP energy per Si atom -12396.407494 kJ/mol
# Density = 2.072487 g / cm^3
# Si number density = 20.772144 Si / 1000 Ang^3
#
#
#
# Elastic Constant Matrix: (Units=GPa)
#
#
# Indices 1 2 3 4 5 6 
#
# 1 96.7454 37.9668 22.1269 0.0000 0.0000 0.0000
# 2 37.9668 105.1229 58.0649 0.0000 0.0000 0.0000
# 3 22.1269 58.0649 167.9267 0.0000 0.0000 0.0000
# 4 0.0000 0.0000 0.0000 37.2972 0.0000 0.0000
# 5 0.0000 0.0000 0.0000 0.0000 27.0073 0.0000
# 6 0.0000 0.0000 0.0000 0.0000 0.0000 -4.6944
#
#
#
# Elastic Compliance Matrix: (Units=1/GPa)
#
#
# Indices 1 2 3 4 5 6 
#
# 1 0.012045 -0.004294 -0.000102 0.000000 0.000000 0.000000
# 2 -0.004294 0.013289 -0.004029 0.000000 0.000000 0.000000
# 3 -0.000102 -0.004029 0.007362 0.000000 0.000000 0.000000
# 4 0.000000 0.000000 0.000000 0.026812 0.000000 0.000000
# 5 0.000000 0.000000 0.000000 0.000000 0.037027 0.000000
# 6 0.000000 0.000000 0.000000 0.000000 0.000000 -0.213019
#
#
# Mechanical properties :
#
#
# Convention : Reuss Voigt Hill
#
# Bulk Modulus (GPa) = 63.11196 67.34581 65.22889
# Shear Modulus (GPa) = -52.99280 28.69775 -12.14752
#
# Velocity S-wave (km/s) = -5.05637 3.72095 -2.42088
# Velocity P-wave (km/s) = 1.90793 7.13808 4.86375
#
# Compressibility (1/GPa) = 0.01584486
#
# Stress axis : x y z
#
# Youngs Moduli (GPa) = 83.02322 75.25058 135.83826
#
# Poissons Ratio (x) = 0.32309 0.01392
# Poissons Ratio (y) = 0.35647 0.54732
# Poissons Ratio (z) = 0.00851 0.30320
#
# Static dielectric constant tensor:
#      x y z
#    x 3.683130 0.000000 0.000000 
#    y 0.000000 3.772260 0.000000 
#    z 0.000000 0.000000 4.252720 
# 
# 
# High freq. dielectric constant tensor:
#      x y z
#    x 1.811590 0.000000 0.000000 
#    y 0.000000 1.800900 0.000000 
#    z 0.000000 0.000000 1.835180 
# 
# From -- ./inp_files/8674.got.cif
#   From: 2010.03.12/outbox.cif.g09.slc.cpg/sg53_5_cif.got.tgz:8674.got - 2010.04.16 14:36:59.
