data_PCOD8221590
_publ_section_title
;
Structure prediction by ZEFSAII (Michael W. Deem and Ramdas Pophale) SiO2 
 PCOD8221590
Probable space group: P M N A
;
_chemical_formula_sum "Si O2"
_cell_formula_units_Z 56
_cell_length_a 13.986188
_cell_length_b 11.961804
_cell_length_c 15.037075
_cell_angle_alpha 90.000000
_cell_angle_beta 90.000000
_cell_angle_gamma 90.000000
_cell_volume 2515.703242
_symmetry_space_group_name_H-M "P M N A"
_symmetry_group_IT_number 53
_symmetry_cell_setting 'orthorhombic'
loop_
_space_group_symop_operation_xyz
x,y,z
1/2-x,-y,1/2+z
x,-y,-z
1/2-x,y,1/2-z
-x,-y,-z
1/2+x,y,1/2-z
-x,y,z
1/2+x,-y,1/2+z
loop_
_atom_site_type_symbol
_atom_site_label
_atom_site_fract_x
_atom_site_fract_y
_atom_site_fract_z
Si Si1 0.394847 0.326438 0.181864
Si Si2 0.887818 0.151115 0.164700
Si Si3 0.253634 0.741006 0.965226
Si Si4 0.890060 0.779556 0.382004
Si Si5 0.860262 0.429196 0.733841
Si Si6 0.612636 0.097961 0.710827
Si Si7 0.104764 0.700999 0.094681
O O1 0.500000 0.290817 0.145008
O O2 0.364034 0.240639 0.258908
O O3 0.314315 0.328780 0.105978
O O4 0.405736 0.450248 0.219481
O O5 0.819994 0.172730 0.080369
O O6 0.000000 0.154551 0.137467
O O7 0.856709 0.029302 0.198461
O O8 0.329684 0.802751 0.028919
O O9 0.184121 0.659317 0.023395
O O10 0.882261 0.650302 0.350400
O O11 0.844275 0.857821 0.304470
O O12 0.000000 0.809474 0.403026
O O13 0.750000 0.442857 0.750000
O O14 0.907652 0.381243 0.822617
O O15 0.500000 0.112451 0.719719
O O16 0.644044 0.177983 0.629256
O O17 0.000000 0.710500 0.049049
#
# Coordination Sequence:
#
# PCOD8221590 Si02
#       7
#     8   8   8   8   8   8   8
#     4  11  25  45  65  87 129 181 219 256 321 395
#     4  10  22  44  66  89 129 177 217 262 326 391
#     4  12  23  40  60 103 130 163 216 273 320 376
#     4  10  21  40  66  97 132 169 214 269 323 376
#     4  11  20  41  68  96 129 168 217 263 318 391
#     4   8  18  40  67  91 126 171 213 259 321 392
#     4  10  21  40  67  99 130 164 212 273 329 376
#
# _framework density 22.260178
#
# number of rings (size 3 to 8) (size 9 to 14) (size 15 to 20)
#    0.000    1.714    1.429    4.286    0.000    1.143 
#   10.286    3.571    0.000    6.857    0.000    0.000 
#    0.000    0.000    0.000    0.000    0.000    0.000 
#
# Total GULP energy -694242.304713 kJ/mol
# GULP energy per Si atom -12397.184013 kJ/mol
# Density = 2.220951 g / cm^3
# Si number density = 22.260178 Si / 1000 Ang^3
#
#
#
# Elastic Constant Matrix: (Units=GPa)
#
#
# Indices 1 2 3 4 5 6 
#
# 1 133.3199 15.0489 65.4708 0.0000 0.0000 0.0000
# 2 15.0489 127.6191 47.4698 0.0000 0.0000 0.0000
# 3 65.4708 47.4698 119.1035 0.0000 0.0000 0.0000
# 4 0.0000 0.0000 0.0000 15.4970 0.0000 0.0000
# 5 0.0000 0.0000 0.0000 0.0000 47.9663 0.0000
# 6 0.0000 0.0000 0.0000 0.0000 0.0000 17.6633
#
#
#
# Elastic Compliance Matrix: (Units=1/GPa)
#
#
# Indices 1 2 3 4 5 6 
#
# 1 0.010394 0.001056 -0.006135 0.000000 0.000000 0.000000
# 2 0.001056 0.009307 -0.004290 0.000000 0.000000 0.000000
# 3 -0.006135 -0.004290 0.013478 0.000000 0.000000 0.000000
# 4 0.000000 0.000000 0.000000 0.064529 0.000000 0.000000
# 5 0.000000 0.000000 0.000000 0.000000 0.020848 0.000000
# 6 0.000000 0.000000 0.000000 0.000000 0.000000 0.056615
#
#
# Mechanical properties :
#
#
# Convention : Reuss Voigt Hill
#
# Bulk Modulus (GPa) = 69.24053 70.66903 69.95478
# Shear Modulus (GPa) = 25.16088 33.02886 29.09487
#
# Velocity S-wave (km/s) = 3.36565 3.85614 3.61922
# Velocity P-wave (km/s) = 6.80266 7.18625 6.99708
#
# Compressibility (1/GPa) = 0.01444241
#
# Stress axis : x y z
#
# Youngs Moduli (GPa) = 96.20854 107.44619 74.19503
#
# Poissons Ratio (x) = -0.11348 0.45515
# Poissons Ratio (y) = -0.10161 0.31829
# Poissons Ratio (z) = 0.59019 0.46094
#
# Static dielectric constant tensor:
#      x y z
#    x 4.201980 0.000000 0.000000 
#    y 0.000000 3.831430 0.000000 
#    z 0.000000 0.000000 3.969330 
# 
# 
# High freq. dielectric constant tensor:
#      x y z
#    x 1.907930 0.000000 0.000000 
#    y 0.000000 1.847860 0.000000 
#    z 0.000000 0.000000 1.865880 
# 
# From -- ./inp_files/22803.got.cif
#   From: 2010.03.12/outbox.cif.g09.slc.cpg/sg53_12_cif.got.tgz:22803.got - 2010.04.16 14:36:59.
