data_PCOD8221753
_publ_section_title
;
Structure prediction by ZEFSAII (Michael W. Deem and Ramdas Pophale) SiO2 
 PCOD8221753
Probable space group: P M N A
;
_chemical_formula_sum "Si O2"
_cell_formula_units_Z 32
_cell_length_a 9.972588
_cell_length_b 18.834652
_cell_length_c 8.768594
_cell_angle_alpha 90.000000
_cell_angle_beta 90.000000
_cell_angle_gamma 90.000000
_cell_volume 1647.006980
_symmetry_space_group_name_H-M "P M N A"
_symmetry_group_IT_number 53
_symmetry_cell_setting 'orthorhombic'
loop_
_space_group_symop_operation_xyz
x,y,z
1/2-x,-y,1/2+z
x,-y,-z
1/2-x,y,1/2-z
-x,-y,-z
1/2+x,y,1/2-z
-x,y,z
1/2+x,-y,1/2+z
loop_
_atom_site_type_symbol
_atom_site_label
_atom_site_fract_x
_atom_site_fract_y
_atom_site_fract_z
Si Si1 0.844200 0.691390 0.883780
Si Si2 0.254966 0.848578 0.574601
Si Si3 0.000000 0.924216 0.074711
Si Si4 0.500000 0.079430 0.935343
Si Si5 0.847992 0.563591 0.109029
O O1 0.750000 0.659496 0.750000
O O2 0.775010 0.764360 0.935640
O O3 0.000000 0.702541 0.830455
O O4 0.838500 0.638404 0.024416
O O5 0.250000 0.874294 0.750000
O O6 0.372116 0.883387 0.481672
O O7 0.122728 0.873554 0.490698
O O8 0.000000 0.928993 0.255303
O O9 0.000000 0.000000 0.000000
O O10 0.500000 0.000000 0.000000
O O11 0.750000 0.565810 0.250000
O O12 0.000000 0.549948 0.165804
O O13 0.801599 0.500000 0.000000
#
# Coordination Sequence:
#
# PCOD8221753 Si02
#       5
#     8   8   4   4   8
#     4  10  22  40  64  93 125 164 206 253 309 371
#     4  11  23  42  64  91 124 163 207 260 312 379
#     4  12  24  42  64  88 125 160 203 262 314 376
#     4  12  26  42  64  94 121 164 211 256 322 380
#     4  10  22  40  62  93 130 168 212 261 309 366
#
# _framework density 19.429183999999999
#
# number of rings (size 3 to 8) (size 9 to 14) (size 15 to 20)
#    0.000    1.250    1.250    4.500    5.250    3.500 
#    0.000    0.000    0.000    0.000    0.000    0.000 
#    0.000    0.000    0.000    0.000    0.000    0.000 
#
# Total GULP energy -396824.328962 kJ/mol
# GULP energy per Si atom -12400.760280 kJ/mol
# Density = 1.938496 g / cm^3
# Si number density = 19.429184 Si / 1000 Ang^3
#
#
#
# Elastic Constant Matrix: (Units=GPa)
#
#
# Indices 1 2 3 4 5 6 
#
# 1 163.7324 50.6880 79.9850 0.0000 0.0000 0.0000
# 2 50.6880 86.9250 53.7512 0.0000 0.0000 0.0000
# 3 79.9850 53.7512 163.5827 0.0000 0.0000 0.0000
# 4 0.0000 0.0000 0.0000 32.0874 0.0000 0.0000
# 5 0.0000 0.0000 0.0000 0.0000 46.7971 0.0000
# 6 0.0000 0.0000 0.0000 0.0000 0.0000 40.2729
#
#
#
# Elastic Compliance Matrix: (Units=1/GPa)
#
#
# Indices 1 2 3 4 5 6 
#
# 1 0.008619 -0.003037 -0.003216 0.000000 0.000000 0.000000
# 2 -0.003037 0.015508 -0.003611 0.000000 0.000000 0.000000
# 3 -0.003216 -0.003611 0.008872 0.000000 0.000000 0.000000
# 4 0.000000 0.000000 0.000000 0.031165 0.000000 0.000000
# 5 0.000000 0.000000 0.000000 0.000000 0.021369 0.000000
# 6 0.000000 0.000000 0.000000 0.000000 0.000000 0.024831
#
#
# Mechanical properties :
#
#
# Convention : Reuss Voigt Hill
#
# Bulk Modulus (GPa) = 75.35334 87.00984 81.18159
# Shear Modulus (GPa) = 37.17052 39.15253 38.16153
#
# Velocity S-wave (km/s) = 4.37868 4.49390 4.43666
# Velocity P-wave (km/s) = 8.02693 8.47391 8.25344
#
# Compressibility (1/GPa) = 0.01327081
#
# Stress axis : x y z
#
# Youngs Moduli (GPa) = 116.02326 64.48340 112.71134
#
# Poissons Ratio (x) = 0.19584 0.36252
# Poissons Ratio (y) = 0.35237 0.40697
# Poissons Ratio (z) = 0.37317 0.23283
#
# Static dielectric constant tensor:
#      x y z
#    x 3.227090 0.000000 0.000000 
#    y 0.000000 3.454250 0.000000 
#    z 0.000000 0.000000 3.688600 
# 
# 
# High freq. dielectric constant tensor:
#      x y z
#    x 1.776300 0.000000 0.000000 
#    y 0.000000 1.772890 0.000000 
#    z 0.000000 0.000000 1.758230 
# 
# From -- ./inp_files/6067.got.cif
#   From: 2010.03.12/outbox.cif.g09.slc.cpg/sg53_4_cif.got.tgz:6067.got - 2010.04.16 14:36:59.
