data_PCOD8221377
_publ_section_title
;
Structure prediction by ZEFSAII (Michael W. Deem and Ramdas Pophale) SiO2 
 PCOD8221377
Probable space group: P M N A
;
_chemical_formula_sum "Si O2"
_cell_formula_units_Z 48
_cell_length_a 18.243935
_cell_length_b 13.740687
_cell_length_c 9.228825
_cell_angle_alpha 90.000000
_cell_angle_beta 90.000000
_cell_angle_gamma 90.000000
_cell_volume 2313.520617
_symmetry_space_group_name_H-M "P M N A"
_symmetry_group_IT_number 53
_symmetry_cell_setting 'orthorhombic'
loop_
_space_group_symop_operation_xyz
x,y,z
1/2-x,-y,1/2+z
x,-y,-z
1/2-x,y,1/2-z
-x,-y,-z
1/2+x,y,1/2-z
-x,y,z
1/2+x,-y,1/2+z
loop_
_atom_site_type_symbol
_atom_site_label
_atom_site_fract_x
_atom_site_fract_y
_atom_site_fract_z
Si Si1 0.168876 0.450880 0.266390
Si Si2 0.580482 0.166703 0.320574
Si Si3 0.773036 0.906273 0.911481
Si Si4 0.913460 0.366267 0.688035
Si Si5 0.158539 0.252397 0.440308
Si Si6 0.080909 0.367388 0.016313
O O1 0.250000 0.494819 0.250000
O O2 0.120323 0.528703 0.356389
O O3 0.175964 0.349614 0.350915
O O4 0.132850 0.440450 0.106406
O O5 0.500000 0.116000 0.320981
O O6 0.638722 0.104210 0.412920
O O7 0.605652 0.182546 0.153922
O O8 0.575048 0.269502 0.395639
O O9 0.750000 0.927435 0.750000
O O10 0.733914 0.807311 0.969920
O O11 0.748015 0.000000 0.000000
O O12 0.879434 0.279653 0.591673
O O13 0.000000 0.367954 0.661644
O O14 0.890093 0.345955 0.854275
O O15 0.000000 0.414932 0.006901
#
# Coordination Sequence:
#
# PCOD8221377 Si02
#       6
#     8   8   8   8   8   8
#     4  11  22  36  54  80 116 159 201 236 279 338
#     4   9  18  36  61  84 113 154 191 230 286 350
#     4  10  22  40  62  87 114 147 189 239 298 358
#     4  11  23  36  56  88 119 152 197 243 286 335
#     4  10  21  38  58  83 117 152 192 240 291 349
#     4   9  19  36  56  80 117 159 195 237 285 332
#
# _framework density 20.747601
#
# number of rings (size 3 to 8) (size 9 to 14) (size 15 to 20)
#    0.000    2.000    0.000    4.500    0.000    9.667 
#    0.000    0.000    0.000   12.500    0.000    0.000 
#    0.000    0.000    0.000    0.000    0.000    0.000 
#
# Total GULP energy -595045.250529 kJ/mol
# GULP energy per Si atom -12396.776053 kJ/mol
# Density = 2.070038 g / cm^3
# Si number density = 20.747601 Si / 1000 Ang^3
#
#
#
# Elastic Constant Matrix: (Units=GPa)
#
#
# Indices 1 2 3 4 5 6 
#
# 1 158.4978 41.9094 52.1790 0.0000 0.0000 0.0000
# 2 41.9094 79.8939 37.3182 0.0000 0.0000 0.0000
# 3 52.1790 37.3182 105.7167 0.0000 0.0000 0.0000
# 4 0.0000 0.0000 0.0000 27.4608 0.0000 0.0000
# 5 0.0000 0.0000 0.0000 0.0000 9.6482 0.0000
# 6 0.0000 0.0000 0.0000 0.0000 0.0000 90.3566
#
#
#
# Elastic Compliance Matrix: (Units=1/GPa)
#
#
# Indices 1 2 3 4 5 6 
#
# 1 0.008034 -0.002828 -0.002967 0.000000 0.000000 0.000000
# 2 -0.002828 0.015984 -0.004246 0.000000 0.000000 0.000000
# 3 -0.002967 -0.004246 0.012423 0.000000 0.000000 0.000000
# 4 0.000000 0.000000 0.000000 0.036416 0.000000 0.000000
# 5 0.000000 0.000000 0.000000 0.000000 0.103646 0.000000
# 6 0.000000 0.000000 0.000000 0.000000 0.000000 0.011067
#
#
# Mechanical properties :
#
#
# Convention : Reuss Voigt Hill
#
# Bulk Modulus (GPa) = 61.13584 67.43573 64.28578
# Shear Modulus (GPa) = 23.46266 39.67325 31.56795
#
# Velocity S-wave (km/s) = 3.36648 4.37760 3.90490
# Velocity P-wave (km/s) = 6.68142 7.62395 7.16819
#
# Compressibility (1/GPa) = 0.01635702
#
# Stress axis : x y z
#
# Youngs Moduli (GPa) = 124.47352 62.56375 80.49890
#
# Poissons Ratio (x) = 0.17696 0.23883
# Poissons Ratio (y) = 0.35207 0.34182
# Poissons Ratio (z) = 0.36929 0.26566
#
# Static dielectric constant tensor:
#      x y z
#    x 4.265970 0.000000 0.000000 
#    y 0.000000 3.490040 0.000000 
#    z 0.000000 0.000000 3.804500 
# 
# 
# High freq. dielectric constant tensor:
#      x y z
#    x 1.821760 0.000000 0.000000 
#    y 0.000000 1.784260 0.000000 
#    z 0.000000 0.000000 1.810580 
# 
# From -- ./inp_files/9948.got.cif
#   From: 2010.03.12/outbox.cif.g09.slc.cpg/sg53_5_cif.got.tgz:9948.got - 2010.04.16 14:36:59.
