data_PCOD8221643
_publ_section_title
;
Structure prediction by ZEFSAII (Michael W. Deem and Ramdas Pophale) SiO2 
 PCOD8221643
Probable space group: P M N A
;
_chemical_formula_sum "Si O2"
_cell_formula_units_Z 44
_cell_length_a 13.939391
_cell_length_b 9.621749
_cell_length_c 15.792839
_cell_angle_alpha 90.000000
_cell_angle_beta 90.000000
_cell_angle_gamma 90.000000
_cell_volume 2118.156436
_symmetry_space_group_name_H-M "P M N A"
_symmetry_group_IT_number 53
_symmetry_cell_setting 'orthorhombic'
loop_
_space_group_symop_operation_xyz
x,y,z
1/2-x,-y,1/2+z
x,-y,-z
1/2-x,y,1/2-z
-x,-y,-z
1/2+x,y,1/2-z
-x,y,z
1/2+x,-y,1/2+z
loop_
_atom_site_type_symbol
_atom_site_label
_atom_site_fract_x
_atom_site_fract_y
_atom_site_fract_z
Si Si1 0.500000 0.714665 0.520595
Si Si2 0.000000 0.542154 0.277338
Si Si3 0.137431 0.007065 0.256867
Si Si4 0.154033 0.419916 0.578784
Si Si5 0.391899 0.886993 0.061866
Si Si6 0.664331 0.500000 0.500000
Si Si7 0.500000 0.184719 0.663391
Si Si8 0.000000 0.233411 0.207569
O O1 0.597890 0.628373 0.522216
O O2 0.500000 0.809093 0.437737
O O3 0.500000 0.800467 0.607413
O O4 0.095387 0.554605 0.335073
O O5 0.000000 0.396781 0.228027
O O6 0.000000 0.662475 0.206576
O O7 0.250000 0.015646 0.250000
O O8 0.104241 0.948418 0.345540
O O9 0.095317 0.900373 0.187878
O O10 0.094565 0.161533 0.246533
O O11 0.102350 0.500000 0.500000
O O12 0.164523 0.256925 0.558276
O O13 0.265507 0.472427 0.581945
O O14 0.500000 0.855664 0.030864
O O15 0.342207 0.000000 0.000000
#
# Coordination Sequence:
#
# PCOD8221643 Si02
#       8
#     4   4   8   8   8   4   4   4
#     4  11  24  49  64  92 130 184 228 272 322 378
#     4  12  21  41  71 100 140 162 217 282 345 398
#     4  11  25  46  66 100 134 172 227 274 330 400
#     4  10  22  36  65 107 131 167 216 265 341 402
#     4  11  22  40  66  96 138 173 204 269 346 397
#     4   9  24  41  66 100 136 163 224 275 320 398
#     4  11  24  45  74  92 128 179 228 282 324 400
#     4  11  28  45  66  95 135 182 221 277 337 391
#
# _framework density 20.772780000000001
#
# number of rings (size 3 to 8) (size 9 to 14) (size 15 to 20)
#    0.545    0.727    4.545    1.364    5.091    4.364 
#    0.000    2.727    0.000    0.000    0.000    0.000 
#    0.000    0.000    0.000    0.000    0.000    0.000 
#
# Total GULP energy -545379.849015 kJ/mol
# GULP energy per Si atom -12394.996569 kJ/mol
# Density = 2.072550 g / cm^3
# Si number density = 20.772780 Si / 1000 Ang^3
#
#
#
# Elastic Constant Matrix: (Units=GPa)
#
#
# Indices 1 2 3 4 5 6 
#
# 1 151.1491 35.9761 18.5400 0.0000 0.0000 0.0000
# 2 35.9761 125.6189 39.8129 0.0000 0.0000 0.0000
# 3 18.5400 39.8129 91.7512 0.0000 0.0000 0.0000
# 4 0.0000 0.0000 0.0000 29.5816 0.0000 0.0000
# 5 0.0000 0.0000 0.0000 0.0000 118.5810 0.0000
# 6 0.0000 0.0000 0.0000 0.0000 0.0000 12.4972
#
#
#
# Elastic Compliance Matrix: (Units=1/GPa)
#
#
# Indices 1 2 3 4 5 6 
#
# 1 0.007133 -0.001839 -0.000643 0.000000 0.000000 0.000000
# 2 -0.001839 0.009704 -0.003839 0.000000 0.000000 0.000000
# 3 -0.000643 -0.003839 0.012695 0.000000 0.000000 0.000000
# 4 0.000000 0.000000 0.000000 0.033805 0.000000 0.000000
# 5 0.000000 0.000000 0.000000 0.000000 0.008433 0.000000
# 6 0.000000 0.000000 0.000000 0.000000 0.000000 0.080018
#
#
# Mechanical properties :
#
#
# Convention : Reuss Voigt Hill
#
# Bulk Modulus (GPa) = 59.21101 61.90859 60.55980
# Shear Modulus (GPa) = 29.40143 50.41129 39.90636
#
# Velocity S-wave (km/s) = 3.76624 4.93160 4.38778
# Velocity P-wave (km/s) = 6.89048 7.89272 7.40857
#
# Compressibility (1/GPa) = 0.01688875
#
# Stress axis : x y z
#
# Youngs Moduli (GPa) = 140.20200 103.05055 78.77136
#
# Poissons Ratio (x) = 0.18949 0.05068
# Poissons Ratio (y) = 0.25780 0.30242
# Poissons Ratio (z) = 0.09020 0.39563
#
# Static dielectric constant tensor:
#      x y z
#    x 3.211560 0.000000 0.000000 
#    y 0.000000 3.878720 0.000000 
#    z 0.000000 0.000000 3.743250 
# 
# 
# High freq. dielectric constant tensor:
#      x y z
#    x 1.809890 0.000000 0.000000 
#    y 0.000000 1.821390 0.000000 
#    z 0.000000 0.000000 1.807290 
# 
# From -- ./inp_files/28219.got.cif
#   From: 2010.03.12/outbox.cif.g09.slc.cpg/sg53_15_cif.got.tgz:28219.got - 2010.04.16 14:36:59.
