data_PCOD8221140
_publ_section_title
;
Structure prediction by ZEFSAII (Michael W. Deem and Ramdas Pophale) SiO2 
 PCOD8221140
Probable space group: P M N A
;
_chemical_formula_sum "Si O2"
_cell_formula_units_Z 48
_cell_length_a 9.933233
_cell_length_b 29.922009
_cell_length_c 8.646689
_cell_angle_alpha 90.000000
_cell_angle_beta 90.000000
_cell_angle_gamma 90.000000
_cell_volume 2569.988682
_symmetry_space_group_name_H-M "P M N A"
_symmetry_group_IT_number 53
_symmetry_cell_setting 'orthorhombic'
loop_
_space_group_symop_operation_xyz
x,y,z
1/2-x,-y,1/2+z
x,-y,-z
1/2-x,y,1/2-z
-x,-y,-z
1/2+x,y,1/2-z
-x,y,z
1/2+x,-y,1/2+z
loop_
_atom_site_type_symbol
_atom_site_label
_atom_site_fract_x
_atom_site_fract_y
_atom_site_fract_z
Si Si1 0.500000 0.449567 0.064726
Si Si2 0.654257 0.873327 0.606764
Si Si3 0.844114 0.306655 0.896339
Si Si4 0.754271 0.399248 0.935636
Si Si5 0.154173 0.791558 0.102821
Si Si6 0.000000 0.451727 0.068329
Si Si7 0.345976 0.958266 0.395088
O O1 0.500000 0.452799 0.247765
O O2 0.500000 0.500000 0.000000
O O3 0.622246 0.419992 0.006761
O O4 0.750000 0.882255 0.750000
O O5 0.500000 0.872074 0.664417
O O6 0.696360 0.826799 0.527306
O O7 0.677157 0.912650 0.485889
O O8 0.750000 0.301777 0.750000
O O9 0.782093 0.348110 0.994090
O O10 0.834578 0.257898 0.976857
O O11 0.000000 0.317679 0.852093
O O12 0.750000 0.400734 0.750000
O O13 0.870651 0.428722 0.002194
O O14 0.250000 0.797431 0.250000
O O15 0.000000 0.799933 0.157865
O O16 0.000000 0.500000 0.000000
O O17 0.250000 0.957934 0.250000
O O18 0.500000 0.962768 0.338870
O O19 0.304764 0.000000 0.500000
#
# Coordination Sequence:
#
# PCOD8221140 Si02
#       7
#     4   8   8   8   8   4   8
#     4  12  26  42  60  88 118 150 190 232 279 338
#     4  10  21  36  54  78 113 152 192 237 286 339
#     4   9  18  33  58  86 114 145 185 231 276 330
#     4  11  22  39  63  88 115 149 188 232 281 336
#     4   9  18  34  56  83 111 143 187 233 276 330
#     4  12  24  42  62  84 116 150 186 230 283 334
#     4  10  21  36  55  82 113 147 191 240 290 345
#
# _framework density 18.677123999999999
#
# number of rings (size 3 to 8) (size 9 to 14) (size 15 to 20)
#    0.000    1.833    0.833    3.500    3.500    1.667 
#    0.000    1.667    0.000    0.000    0.000    0.000 
#    0.000    0.000    0.000    0.000    0.000    0.000 
#
# Total GULP energy -594916.751988 kJ/mol
# GULP energy per Si atom -12394.099000 kJ/mol
# Density = 1.863461 g / cm^3
# Si number density = 18.677124 Si / 1000 Ang^3
#
#
#
# Elastic Constant Matrix: (Units=GPa)
#
#
# Indices 1 2 3 4 5 6 
#
# 1 125.9578 56.3428 57.1397 0.0000 0.0000 0.0000
# 2 56.3428 156.0211 46.7836 0.0000 0.0000 0.0000
# 3 57.1397 46.7836 104.0249 0.0000 0.0000 0.0000
# 4 0.0000 0.0000 0.0000 23.3852 0.0000 0.0000
# 5 0.0000 0.0000 0.0000 0.0000 37.1151 0.0000
# 6 0.0000 0.0000 0.0000 0.0000 0.0000 28.7501
#
#
#
# Elastic Compliance Matrix: (Units=1/GPa)
#
#
# Indices 1 2 3 4 5 6 
#
# 1 0.011414 -0.002591 -0.005104 0.000000 0.000000 0.000000
# 2 -0.002591 0.007997 -0.002173 0.000000 0.000000 0.000000
# 3 -0.005104 -0.002173 0.013394 0.000000 0.000000 0.000000
# 4 0.000000 0.000000 0.000000 0.042762 0.000000 0.000000
# 5 0.000000 0.000000 0.000000 0.000000 0.026943 0.000000
# 6 0.000000 0.000000 0.000000 0.000000 0.000000 0.034782
#
#
# Mechanical properties :
#
#
# Convention : Reuss Voigt Hill
#
# Bulk Modulus (GPa) = 76.52463 78.50401 77.51432
# Shear Modulus (GPa) = 30.98185 32.89926 31.94056
#
# Velocity S-wave (km/s) = 4.07727 4.20154 4.13987
# Velocity P-wave (km/s) = 7.95153 8.10313 8.02769
#
# Compressibility (1/GPa) = 0.01306769
#
# Stress axis : x y z
#
# Youngs Moduli (GPa) = 87.61413 125.05063 74.66051
#
# Poissons Ratio (x) = 0.32404 0.38107
# Poissons Ratio (y) = 0.22703 0.16224
# Poissons Ratio (z) = 0.44718 0.27174
#
# Static dielectric constant tensor:
#      x y z
#    x 0.000000 0.000000 0.000000 
#    y 0.000000 0.000000 0.000000 
#    z 0.000000 0.000000 0.000000 
# 
# 
# High freq. dielectric constant tensor:
#      x y z
#    x 1.741600 0.000000 0.000000 
#    y 0.000000 1.757260 0.000000 
#    z 0.000000 0.000000 1.694860 
# 
# From -- ./inp_files/6774.got.cif
#   From: 2010.03.12/outbox.cif.g09.slc.cpg/sg53_4_cif.got.tgz:6774.got - 2010.04.16 14:36:59.
