data_PCOD8221235
_publ_section_title
;
Structure prediction by ZEFSAII (Michael W. Deem and Ramdas Pophale) SiO2 
 PCOD8221235
Probable space group: P M N A
;
_chemical_formula_sum "Si O2"
_cell_formula_units_Z 48
_cell_length_a 8.701601
_cell_length_b 18.306985
_cell_length_c 15.134257
_cell_angle_alpha 90.000000
_cell_angle_beta 90.000000
_cell_angle_gamma 90.000000
_cell_volume 2410.888335
_symmetry_space_group_name_H-M "P M N A"
_symmetry_group_IT_number 53
_symmetry_cell_setting 'orthorhombic'
loop_
_space_group_symop_operation_xyz
x,y,z
1/2-x,-y,1/2+z
x,-y,-z
1/2-x,y,1/2-z
-x,-y,-z
1/2+x,y,1/2-z
-x,y,z
1/2+x,-y,1/2+z
loop_
_atom_site_type_symbol
_atom_site_label
_atom_site_fract_x
_atom_site_fract_y
_atom_site_fract_z
Si Si1 0.681102 0.439926 0.342657
Si Si2 0.818472 0.824307 0.986464
Si Si3 0.168725 0.030580 0.097720
Si Si4 0.320450 0.106054 0.840891
Si Si5 0.178409 0.670248 0.521538
Si Si6 0.179076 0.595956 0.340894
O O1 0.750000 0.412004 0.250000
O O2 0.500000 0.444392 0.333569
O O3 0.724613 0.384862 0.419783
O O4 0.744608 0.519460 0.367495
O O5 0.777733 0.885065 0.911456
O O6 0.732186 0.751654 0.956566
O O7 0.000000 0.811093 0.991743
O O8 0.760969 0.849569 0.081866
O O9 0.000000 0.025310 0.143328
O O10 0.288907 0.981419 0.152028
O O11 0.153855 0.000000 0.000000
O O12 0.250000 0.135967 0.750000
O O13 0.500000 0.121563 0.844428
O O14 0.210288 0.653934 0.418367
O O15 0.000000 0.661046 0.544876
O O16 0.250000 0.627411 0.250000
O O17 0.000000 0.581745 0.326167
#
# Coordination Sequence:
#
# PCOD8221235 Si02
#       6
#     8   8   8   8   8   8
#     4  11  22  38  61  85 111 146 190 240 289 340
#     4  10  21  37  56  79 110 145 181 223 275 333
#     4   8  16  33  54  75 101 133 170 213 259 311
#     4  11  21  34  55  81 109 142 181 225 272 325
#     4  11  23  38  57  84 118 154 192 234 285 343
#     4  10  21  37  58  84 115 150 189 236 284 336
#
# _framework density 19.909673999999999
#
# number of rings (size 3 to 8) (size 9 to 14) (size 15 to 20)
#    0.000    1.833    0.000    7.000    0.000    9.000 
#    0.000    2.500    0.000    4.000    0.000    0.000 
#    0.000    0.000    0.000    0.000    0.000    0.000 
#
# Total GULP energy -595221.930447 kJ/mol
# GULP energy per Si atom -12400.456884 kJ/mol
# Density = 1.986436 g / cm^3
# Si number density = 19.909674 Si / 1000 Ang^3
#
#
#
# Elastic Constant Matrix: (Units=GPa)
#
#
# Indices 1 2 3 4 5 6 
#
# 1 101.4813 24.8986 25.1751 0.0000 0.0000 0.0000
# 2 24.8986 70.5217 -0.2844 0.0000 0.0000 0.0000
# 3 25.1751 -0.2844 34.7861 0.0000 0.0000 0.0000
# 4 0.0000 0.0000 0.0000 20.1421 0.0000 0.0000
# 5 0.0000 0.0000 0.0000 0.0000 30.2497 0.0000
# 6 0.0000 0.0000 0.0000 0.0000 0.0000 17.7422
#
#
#
# Elastic Compliance Matrix: (Units=1/GPa)
#
#
# Indices 1 2 3 4 5 6 
#
# 1 0.013454 -0.004790 -0.009776 0.000000 0.000000 0.000000
# 2 -0.004790 0.015886 0.003596 0.000000 0.000000 0.000000
# 3 -0.009776 0.003596 0.035852 0.000000 0.000000 0.000000
# 4 0.000000 0.000000 0.000000 0.049647 0.000000 0.000000
# 5 0.000000 0.000000 0.000000 0.000000 0.033058 0.000000
# 6 0.000000 0.000000 0.000000 0.000000 0.000000 0.056363
#
#
# Mechanical properties :
#
#
# Convention : Reuss Voigt Hill
#
# Bulk Modulus (GPa) = 23.12015 34.04086 28.58051
# Shear Modulus (GPa) = 20.77990 24.09345 22.43667
#
# Velocity S-wave (km/s) = 3.23415 3.48248 3.36061
# Velocity P-wave (km/s) = 5.05807 5.77105 5.42628
#
# Compressibility (1/GPa) = 0.04325231
#
# Stress axis : x y z
#
# Youngs Moduli (GPa) = 74.32476 62.95003 27.89262
#
# Poissons Ratio (x) = 0.30151 0.27269
# Poissons Ratio (y) = 0.35599 -0.10031
# Poissons Ratio (z) = 0.72662 -0.22638
#
# Static dielectric constant tensor:
#      x y z
#    x 3.706930 0.000000 0.000000 
#    y 0.000000 3.772950 0.000000 
#    z 0.000000 0.000000 3.529860 
# 
# 
# High freq. dielectric constant tensor:
#      x y z
#    x 1.789040 0.000000 0.000000 
#    y 0.000000 1.771930 0.000000 
#    z 0.000000 0.000000 1.765580 
# 
# From -- ./inp_files/20257.got.cif
#   From: 2010.03.12/outbox.cif.g09.slc.cpg/sg53_11_cif.got.tgz:20257.got - 2010.04.16 14:36:59.
