data_PCOD8221259
_publ_section_title
;
Structure prediction by ZEFSAII (Michael W. Deem and Ramdas Pophale) SiO2 
 PCOD8221259
Probable space group: P M N A
;
_chemical_formula_sum "Si O2"
_cell_formula_units_Z 64
_cell_length_a 8.894088
_cell_length_b 11.903174
_cell_length_c 30.996113
_cell_angle_alpha 90.000000
_cell_angle_beta 90.000000
_cell_angle_gamma 90.000000
_cell_volume 3281.492680
_symmetry_space_group_name_H-M "P M N A"
_symmetry_group_IT_number 53
_symmetry_cell_setting 'orthorhombic'
loop_
_space_group_symop_operation_xyz
x,y,z
1/2-x,-y,1/2+z
x,-y,-z
1/2-x,y,1/2-z
-x,-y,-z
1/2+x,y,1/2-z
-x,y,z
1/2+x,-y,1/2+z
loop_
_atom_site_type_symbol
_atom_site_label
_atom_site_fract_x
_atom_site_fract_y
_atom_site_fract_z
Si Si1 0.826309 0.758694 0.945626
Si Si2 0.825266 0.258186 0.293095
Si Si3 0.178084 0.997411 0.705272
Si Si4 0.825498 0.378006 0.515832
Si Si5 0.677759 0.012205 0.050090
Si Si6 0.330592 0.366807 0.603197
Si Si7 0.327115 0.881577 0.374777
Si Si8 0.829584 0.393477 0.134861
O O1 0.731635 0.867722 0.931730
O O2 0.796796 0.658830 0.911983
O O3 0.000000 0.792907 0.948623
O O4 0.770185 0.716968 0.991931
O O5 0.750000 0.305608 0.250000
O O6 0.771590 0.131238 0.302789
O O7 0.784524 0.339051 0.332034
O O8 0.000000 0.261351 0.285242
O O9 0.250000 0.041661 0.750000
O O10 0.000000 0.011222 0.708179
O O11 0.238127 0.067711 0.665221
O O12 0.774358 0.500000 0.500000
O O13 0.793078 0.367021 0.566068
O O14 0.000000 0.355571 0.506533
O O15 0.500000 0.000804 0.055497
O O16 0.755729 0.917141 0.079306
O O17 0.726639 0.000000 0.000000
O O18 0.500000 0.377286 0.583797
O O19 0.314441 0.252816 0.630354
O O20 0.299224 0.473192 0.634036
O O21 0.500000 0.921580 0.373426
O O22 0.000000 0.366474 0.149163
#
# Coordination Sequence:
#
# PCOD8221259 Si02
#       8
#     8   8   8   8   8   8   8   8
#     4  11  22  36  59  84 111 148 191 239 287 341
#     4  10  21  37  60  88 116 146 179 224 281 340
#     4  10  21  39  64  92 121 152 190 241 297 355
#     4  11  22  35  54  82 115 152 194 241 288 340
#     4  11  24  40  57  81 118 157 196 245 299 353
#     4  10  22  40  59  81 114 156 198 241 284 339
#     4  11  23  39  61  87 117 156 202 246 296 356
#     4  10  21  37  57  83 113 145 184 230 280 332
#
# _framework density 19.503319000000001
#
# number of rings (size 3 to 8) (size 9 to 14) (size 15 to 20)
#    0.000    1.500    1.250    3.750    0.000    9.500 
#    0.000    0.625    0.000    0.000    0.000    0.000 
#    0.000    0.000    0.000    0.000    0.000    0.000 
#
# Total GULP energy -793933.946822 kJ/mol
# GULP energy per Si atom -12405.217919 kJ/mol
# Density = 1.945893 g / cm^3
# Si number density = 19.503319 Si / 1000 Ang^3
#
#
#
# Elastic Constant Matrix: (Units=GPa)
#
#
# Indices 1 2 3 4 5 6 
#
# 1 76.9687 35.9808 43.3131 0.0000 0.0000 0.0000
# 2 35.9808 104.7120 37.6982 0.0000 0.0000 0.0000
# 3 43.3131 37.6982 106.0292 0.0000 0.0000 0.0000
# 4 0.0000 0.0000 0.0000 27.1998 0.0000 0.0000
# 5 0.0000 0.0000 0.0000 0.0000 37.3630 0.0000
# 6 0.0000 0.0000 0.0000 0.0000 0.0000 26.1054
#
#
#
# Elastic Compliance Matrix: (Units=1/GPa)
#
#
# Indices 1 2 3 4 5 6 
#
# 1 0.018303 -0.004125 -0.006010 0.000000 0.000000 0.000000
# 2 -0.004125 0.011882 -0.002539 0.000000 0.000000 0.000000
# 3 -0.006010 -0.002539 0.012789 0.000000 0.000000 0.000000
# 4 0.000000 0.000000 0.000000 0.036765 0.000000 0.000000
# 5 0.000000 0.000000 0.000000 0.000000 0.026764 0.000000
# 6 0.000000 0.000000 0.000000 0.000000 0.000000 0.038306
#
#
# Mechanical properties :
#
#
# Convention : Reuss Voigt Hill
#
# Bulk Modulus (GPa) = 56.73910 57.96601 57.35256
# Shear Modulus (GPa) = 28.40365 29.51483 28.95924
#
# Velocity S-wave (km/s) = 3.82035 3.89437 3.85754
# Velocity P-wave (km/s) = 6.97247 7.07157 7.02219
#
# Compressibility (1/GPa) = 0.01762453
#
# Stress axis : x y z
#
# Youngs Moduli (GPa) = 54.63631 84.16261 78.19063
#
# Poissons Ratio (x) = 0.34721 0.46992
# Poissons Ratio (y) = 0.22540 0.19855
# Poissons Ratio (z) = 0.32836 0.21371
#
# Static dielectric constant tensor:
#      x y z
#    x 3.579710 0.000000 0.000000 
#    y 0.000000 3.660440 0.000000 
#    z 0.000000 0.000000 3.432710 
# 
# 
# High freq. dielectric constant tensor:
#      x y z
#    x 1.769060 0.000000 0.000000 
#    y 0.000000 1.763200 0.000000 
#    z 0.000000 0.000000 1.748020 
# 
# From -- ./inp_files/38110.got.cif
#   From: 2010.03.12/outbox.cif.g09.slc.cpg/sg53_20_cif.got.tgz:38110.got - 2010.04.16 14:36:59.
