data_PCOD8221244
_publ_section_title
;
Structure prediction by ZEFSAII (Michael W. Deem and Ramdas Pophale) SiO2 
 PCOD8221244
Probable space group: P M N A
;
_chemical_formula_sum "Si O2"
_cell_formula_units_Z 40
_cell_length_a 16.786282
_cell_length_b 21.330337
_cell_length_c 4.912756
_cell_angle_alpha 90.000000
_cell_angle_beta 90.000000
_cell_angle_gamma 90.000000
_cell_volume 1759.046931
_symmetry_space_group_name_H-M "P M N A"
_symmetry_group_IT_number 53
_symmetry_cell_setting 'orthorhombic'
loop_
_space_group_symop_operation_xyz
x,y,z
1/2-x,-y,1/2+z
x,-y,-z
1/2-x,y,1/2-z
-x,-y,-z
1/2+x,y,1/2-z
-x,y,z
1/2+x,-y,1/2+z
loop_
_atom_site_type_symbol
_atom_site_label
_atom_site_fract_x
_atom_site_fract_y
_atom_site_fract_z
Si Si1 0.587989 0.664971 0.435948
Si Si2 0.337713 0.128144 0.876743
Si Si3 0.089465 0.747696 0.575357
Si Si4 0.343736 0.537273 0.254705
Si Si5 0.591837 0.933110 0.620815
O O1 0.500000 0.638737 0.505795
O O2 0.583680 0.719887 0.221774
O O3 0.638647 0.610355 0.294436
O O4 0.625478 0.696384 0.709844
O O5 0.250000 0.124878 0.750000
O O6 0.353601 0.192614 0.041466
O O7 0.396068 0.118439 0.618782
O O8 0.353037 0.076568 0.112192
O O9 0.000000 0.767348 0.674335
O O10 0.383271 0.500000 0.500000
O O11 0.250000 0.529295 0.250000
O O12 0.381525 0.500000 0.000000
O O13 0.500000 0.931196 0.714902
O O14 0.616704 0.000000 0.500000
#
# Coordination Sequence:
#
# PCOD8221244 Si02
#       5
#     8   8   8   8   8
#     4  10  21  37  60  88 116 156 208 257 305 362
#     4  12  25  42  66 100 135 170 218 275 336 393
#     4  10  21  39  62  89 125 165 206 254 311 377
#     4  10  21  37  56  82 118 158 198 247 313 379
#     4  11  24  44  70  97 130 176 224 268 326 402
#
# _framework density 22.739587
#
# number of rings (size 3 to 8) (size 9 to 14) (size 15 to 20)
#    0.000    1.400    0.000    5.400    0.000    6.400 
#    0.000    2.000    0.000    0.000    0.000    0.000 
#    0.000    0.000    0.000    0.000    0.000    0.000 
#
# Total GULP energy -495739.597689 kJ/mol
# GULP energy per Si atom -12393.489942 kJ/mol
# Density = 2.268783 g / cm^3
# Si number density = 22.739587 Si / 1000 Ang^3
#
#
#
# Elastic Constant Matrix: (Units=GPa)
#
#
# Indices 1 2 3 4 5 6 
#
# 1 75.7208 49.8020 53.2773 0.0000 0.0000 0.0000
# 2 49.8020 116.1312 56.2002 0.0000 0.0000 0.0000
# 3 53.2773 56.2002 170.3179 0.0000 0.0000 0.0000
# 4 0.0000 0.0000 0.0000 55.0044 0.0000 0.0000
# 5 0.0000 0.0000 0.0000 0.0000 11.1258 0.0000
# 6 0.0000 0.0000 0.0000 0.0000 0.0000 31.0616
#
#
#
# Elastic Compliance Matrix: (Units=1/GPa)
#
#
# Indices 1 2 3 4 5 6 
#
# 1 0.020654 -0.006820 -0.004211 0.000000 0.000000 0.000000
# 2 -0.006820 0.012499 -0.001991 0.000000 0.000000 0.000000
# 3 -0.004211 -0.001991 0.007845 0.000000 0.000000 0.000000
# 4 0.000000 0.000000 0.000000 0.018180 0.000000 0.000000
# 5 0.000000 0.000000 0.000000 0.000000 0.089881 0.000000
# 6 0.000000 0.000000 0.000000 0.000000 0.000000 0.032194
#
#
# Mechanical properties :
#
#
# Convention : Reuss Voigt Hill
#
# Bulk Modulus (GPa) = 66.86228 75.63653 71.24941
# Shear Modulus (GPa) = 23.55350 32.96439 28.25894
#
# Velocity S-wave (km/s) = 3.22187 3.81155 3.52905
# Velocity P-wave (km/s) = 6.58087 7.25981 6.92866
#
# Compressibility (1/GPa) = 0.01495612
#
# Stress axis : x y z
#
# Youngs Moduli (GPa) = 48.41577 80.00560 127.46190
#
# Poissons Ratio (x) = 0.54562 0.53669
# Poissons Ratio (y) = 0.33019 0.25378
# Poissons Ratio (z) = 0.20386 0.15929
#
# Static dielectric constant tensor:
#      x y z
#    x 3.815490 0.000000 0.000000 
#    y 0.000000 5.499460 0.000000 
#    z 0.000000 0.000000 4.473830 
# 
# 
# High freq. dielectric constant tensor:
#      x y z
#    x 1.867780 0.000000 0.000000 
#    y 0.000000 1.898420 0.000000 
#    z 0.000000 0.000000 1.923150 
# 
# From -- ./inp_files/2186.got.cif
#   From: 2010.03.12/outbox.cif.g09.slc.cpg/sg53_2_cif.got.tgz:2186.got - 2010.04.16 14:36:59.
