data_PCOD8221390
_publ_section_title
;
Structure prediction by ZEFSAII (Michael W. Deem and Ramdas Pophale) SiO2 
 PCOD8221390
Probable space group: P M N A
;
_chemical_formula_sum "Si O2"
_cell_formula_units_Z 64
_cell_length_a 9.190487
_cell_length_b 12.638535
_cell_length_c 28.272298
_cell_angle_alpha 90.000000
_cell_angle_beta 90.000000
_cell_angle_gamma 90.000000
_cell_volume 3283.948747
_symmetry_space_group_name_H-M "P M N A"
_symmetry_group_IT_number 53
_symmetry_cell_setting 'orthorhombic'
loop_
_space_group_symop_operation_xyz
x,y,z
1/2-x,-y,1/2+z
x,-y,-z
1/2-x,y,1/2-z
-x,-y,-z
1/2+x,y,1/2-z
-x,y,z
1/2+x,-y,1/2+z
loop_
_atom_site_type_symbol
_atom_site_label
_atom_site_fract_x
_atom_site_fract_y
_atom_site_fract_z
Si Si1 0.171794 0.058969 0.453595
Si Si2 0.829749 0.490124 0.054568
Si Si3 0.828632 0.011750 0.649415
Si Si4 0.339810 0.254771 0.430460
Si Si5 0.840588 0.182514 0.176126
Si Si6 0.328767 0.773792 0.199770
Si Si7 0.173398 0.589603 0.795967
Si Si8 0.672149 0.569136 0.138311
O O1 0.232553 0.177424 0.458442
O O2 0.000000 0.066471 0.454032
O O3 0.231376 0.000000 0.500000
O O4 0.224410 0.999739 0.405312
O O5 0.778533 0.372977 0.069352
O O6 0.734322 0.574931 0.084667
O O7 0.000000 0.510331 0.064612
O O8 0.790304 0.500000 0.000000
O O9 0.774954 0.122573 0.671207
O O10 0.000000 0.002181 0.651849
O O11 0.766035 0.917208 0.682180
O O12 0.500000 0.252951 0.454584
O O13 0.352546 0.214935 0.377744
O O14 0.784286 0.286152 0.203603
O O15 0.000000 0.148929 0.195009
O O16 0.250000 0.764689 0.250000
O O17 0.500000 0.778168 0.209553
O O18 0.286952 0.674666 0.166947
O O19 0.250000 0.539064 0.750000
O O20 0.242663 0.530764 0.840324
O O21 0.000000 0.572044 0.795451
O O22 0.500000 0.549499 0.138248
#
# Coordination Sequence:
#
# PCOD8221390 Si02
#       8
#     8   8   8   8   8   8   8   8
#     4   9  18  32  53  81 110 146 188 232 288 348
#     4  10  21  38  59  84 116 155 194 238 295 352
#     4   9  19  36  56  79 111 147 187 236 288 345
#     4   9  17  33  53  75 106 144 183 228 280 335
#     4   9  18  34  55  78 108 144 181 227 283 338
#     4  10  23  41  59  82 114 155 197 246 299 350
#     4  11  22  37  57  84 116 148 186 234 287 343
#     4  11  23  39  60  85 115 151 195 244 294 348
#
# _framework density 19.488731999999999
#
# number of rings (size 3 to 8) (size 9 to 14) (size 15 to 20)
#    0.000    2.250    1.250    1.125    0.000    6.000 
#    0.000    3.750    0.000    0.000    0.000    0.000 
#    0.000    0.000    0.000    0.000    0.000    0.000 
#
# Total GULP energy -793396.283999 kJ/mol
# GULP energy per Si atom -12396.816937 kJ/mol
# Density = 1.944437 g / cm^3
# Si number density = 19.488732 Si / 1000 Ang^3
#
#
#
# Elastic Constant Matrix: (Units=GPa)
#
#
# Indices 1 2 3 4 5 6 
#
# 1 60.2840 49.3293 46.5658 0.0000 0.0000 0.0000
# 2 49.3293 120.0101 56.0120 0.0000 0.0000 0.0000
# 3 46.5658 56.0120 91.8906 0.0000 0.0000 0.0000
# 4 0.0000 0.0000 0.0000 26.0540 0.0000 0.0000
# 5 0.0000 0.0000 0.0000 0.0000 28.5024 0.0000
# 6 0.0000 0.0000 0.0000 0.0000 0.0000 29.4101
#
#
#
# Elastic Compliance Matrix: (Units=1/GPa)
#
#
# Indices 1 2 3 4 5 6 
#
# 1 0.031668 -0.007725 -0.011339 0.000000 0.000000 0.000000
# 2 -0.007725 0.013530 -0.004333 0.000000 0.000000 0.000000
# 3 -0.011339 -0.004333 0.019270 0.000000 0.000000 0.000000
# 4 0.000000 0.000000 0.000000 0.038382 0.000000 0.000000
# 5 0.000000 0.000000 0.000000 0.000000 0.035085 0.000000
# 6 0.000000 0.000000 0.000000 0.000000 0.000000 0.034002
#
#
# Mechanical properties :
#
#
# Convention : Reuss Voigt Hill
#
# Bulk Modulus (GPa) = 56.57885 63.99988 60.28936
# Shear Modulus (GPa) = 22.25974 24.81181 23.53577
#
# Velocity S-wave (km/s) = 3.38329 3.57197 3.47891
# Velocity P-wave (km/s) = 6.66009 7.06560 6.86584
#
# Compressibility (1/GPa) = 0.01767445
#
# Stress axis : x y z
#
# Youngs Moduli (GPa) = 31.57771 73.90997 51.89473
#
# Poissons Ratio (x) = 0.57092 0.58845
# Poissons Ratio (y) = 0.24392 0.22485
# Poissons Ratio (z) = 0.35807 0.32024
#
# Static dielectric constant tensor:
#      x y z
#    x 3.560510 0.000000 0.000000 
#    y 0.000000 3.810980 0.000000 
#    z 0.000000 0.000000 3.689920 
# 
# 
# High freq. dielectric constant tensor:
#      x y z
#    x 1.750760 0.000000 0.000000 
#    y 0.000000 1.758460 0.000000 
#    z 0.000000 0.000000 1.759290 
# 
# From -- ./inp_files/38299.got.cif
#   From: 2010.03.12/outbox.cif.g09.slc.cpg/sg53_20_cif.got.tgz:38299.got - 2010.04.16 14:36:59.
