data_PCOD8221312
_publ_section_title
;
Structure prediction by ZEFSAII (Michael W. Deem and Ramdas Pophale) SiO2 
 PCOD8221312
Probable space group: P M N A
;
_chemical_formula_sum "Si O2"
_cell_formula_units_Z 56
_cell_length_a 14.466655
_cell_length_b 13.040893
_cell_length_c 14.126397
_cell_angle_alpha 90.000000
_cell_angle_beta 90.000000
_cell_angle_gamma 90.000000
_cell_volume 2665.059217
_symmetry_space_group_name_H-M "P M N A"
_symmetry_group_IT_number 53
_symmetry_cell_setting 'orthorhombic'
loop_
_space_group_symop_operation_xyz
x,y,z
1/2-x,-y,1/2+z
x,-y,-z
1/2-x,y,1/2-z
-x,-y,-z
1/2+x,y,1/2-z
-x,y,z
1/2+x,-y,1/2+z
loop_
_atom_site_type_symbol
_atom_site_label
_atom_site_fract_x
_atom_site_fract_y
_atom_site_fract_z
Si Si1 0.253565 0.242836 0.963295
Si Si2 0.273555 0.538407 0.105834
Si Si3 0.894497 0.463872 0.220500
Si Si4 0.602316 0.050979 0.259402
Si Si5 0.897707 0.913405 0.066974
Si Si6 0.101868 0.071633 0.586761
Si Si7 0.181164 0.737807 0.828405
O O1 0.279142 0.338501 0.897529
O O2 0.158836 0.190984 0.929189
O O3 0.337782 0.166174 0.947464
O O4 0.235635 0.273406 0.072530
O O5 0.350190 0.489583 0.176222
O O6 0.169387 0.515011 0.140045
O O7 0.292441 0.500000 0.000000
O O8 0.901497 0.343323 0.188711
O O9 0.000000 0.506039 0.219116
O O10 0.500000 0.090822 0.231580
O O11 0.655804 0.144578 0.307764
O O12 0.595330 0.955768 0.328750
O O13 0.651331 0.000195 0.167297
O O14 0.000000 0.887847 0.025357
O O15 0.850230 0.000000 0.000000
O O16 0.000000 0.109807 0.622677
O O17 0.085007 0.000000 0.500000
O O18 0.250000 0.696024 0.750000
#
# Coordination Sequence:
#
# PCOD8221312 Si02
#       7
#     8   8   8   8   8   8   8
#     4  12  24  40  69  93 131 183 218 275 340 399
#     4  11  24  48  67 101 139 172 231 292 347 417
#     4  11  25  46  72  99 135 176 227 291 355 408
#     4  10  22  38  61  93 133 172 214 269 321 390
#     4  10  21  37  58  96 136 166 213 265 322 400
#     4  10  23  42  62  95 136 173 220 267 320 397
#     4  12  22  40  67  98 128 170 230 278 329 398
#
# _framework density 21.012667
#
# number of rings (size 3 to 8) (size 9 to 14) (size 15 to 20)
#    0.000    1.143    4.286    1.714    2.000    4.571 
#    0.000    5.000    0.000    0.000    0.000    0.000 
#    0.000    0.000    0.000    0.000    0.000    0.000 
#
# Total GULP energy -693905.288439 kJ/mol
# GULP energy per Si atom -12391.165865 kJ/mol
# Density = 2.096484 g / cm^3
# Si number density = 21.012667 Si / 1000 Ang^3
#
#
#
# Elastic Constant Matrix: (Units=GPa)
#
#
# Indices 1 2 3 4 5 6 
#
# 1 100.4411 40.4907 19.9444 0.0000 0.0000 0.0000
# 2 40.4907 121.6166 38.4584 0.0000 0.0000 0.0000
# 3 19.9444 38.4584 112.4199 0.0000 0.0000 0.0000
# 4 0.0000 0.0000 0.0000 37.8794 0.0000 0.0000
# 5 0.0000 0.0000 0.0000 0.0000 22.6026 0.0000
# 6 0.0000 0.0000 0.0000 0.0000 0.0000 31.5346
#
#
#
# Elastic Compliance Matrix: (Units=1/GPa)
#
#
# Indices 1 2 3 4 5 6 
#
# 1 0.011567 -0.003591 -0.000824 0.000000 0.000000 0.000000
# 2 -0.003591 0.010335 -0.002898 0.000000 0.000000 0.000000
# 3 -0.000824 -0.002898 0.010033 0.000000 0.000000 0.000000
# 4 0.000000 0.000000 0.000000 0.026400 0.000000 0.000000
# 5 0.000000 0.000000 0.000000 0.000000 0.044243 0.000000
# 6 0.000000 0.000000 0.000000 0.000000 0.000000 0.031711
#
#
# Mechanical properties :
#
#
# Convention : Reuss Voigt Hill
#
# Bulk Modulus (GPa) = 57.77347 59.14051 58.45699
# Shear Modulus (GPa) = 32.32408 34.10892 33.21650
#
# Velocity S-wave (km/s) = 3.92639 4.03333 3.98022
# Velocity P-wave (km/s) = 6.93611 7.06376 7.00023
#
# Compressibility (1/GPa) = 0.01730898
#
# Stress axis : x y z
#
# Youngs Moduli (GPa) = 86.45178 96.76269 99.67202
#
# Poissons Ratio (x) = 0.34744 0.08211
# Poissons Ratio (y) = 0.31042 0.28889
# Poissons Ratio (z) = 0.07122 0.28046
#
# Static dielectric constant tensor:
#      x y z
#    x 3.799070 0.000000 0.000000 
#    y 0.000000 3.810720 0.000000 
#    z 0.000000 0.000000 3.848810 
# 
# 
# High freq. dielectric constant tensor:
#      x y z
#    x 1.817120 0.000000 0.000000 
#    y 0.000000 1.821070 0.000000 
#    z 0.000000 0.000000 1.834060 
# 
# From -- ./inp_files/22801.got.cif
#   From: 2010.03.12/outbox.cif.g09.slc.cpg/sg53_12_cif.got.tgz:22801.got - 2010.04.16 14:36:59.
