data_PCOD8221963
_publ_section_title
;
Structure prediction by ZEFSAII (Michael W. Deem and Ramdas Pophale) SiO2 
 PCOD8221963
Probable space group: P M N A
;
_chemical_formula_sum "Si O2"
_cell_formula_units_Z 48
_cell_length_a 14.074498
_cell_length_b 10.998980
_cell_length_c 14.376486
_cell_angle_alpha 90.000000
_cell_angle_beta 90.000000
_cell_angle_gamma 90.000000
_cell_volume 2225.553669
_symmetry_space_group_name_H-M "P M N A"
_symmetry_group_IT_number 53
_symmetry_cell_setting 'orthorhombic'
loop_
_space_group_symop_operation_xyz
x,y,z
1/2-x,-y,1/2+z
x,-y,-z
1/2-x,y,1/2-z
-x,-y,-z
1/2+x,y,1/2-z
-x,y,z
1/2+x,-y,1/2+z
loop_
_atom_site_type_symbol
_atom_site_label
_atom_site_fract_x
_atom_site_fract_y
_atom_site_fract_z
Si Si1 0.394741 0.860000 0.572876
Si Si2 0.894658 0.217755 0.421689
Si Si3 0.393241 0.450347 0.603854
Si Si4 0.639735 0.323020 0.267977
Si Si5 0.734220 0.997973 0.143725
Si Si6 0.756857 0.253359 0.933899
O O1 0.500000 0.899884 0.544332
O O2 0.396367 0.786447 0.668746
O O3 0.349997 0.777507 0.493563
O O4 0.332382 0.981162 0.587841
O O5 0.907518 0.305446 0.332903
O O6 0.829661 0.289526 0.497133
O O7 0.000000 0.192720 0.462445
O O8 0.846422 0.086776 0.398077
O O9 0.375859 0.500000 0.500000
O O10 0.500000 0.391911 0.609089
O O11 0.389852 0.552037 0.683616
O O12 0.302888 0.361784 0.627533
O O13 0.750000 0.312166 0.250000
O O14 0.750000 0.030678 0.250000
O O15 0.713170 0.855295 0.129348
#
# Coordination Sequence:
#
# PCOD8221963 Si02
#       6
#     8   8   8   8   8   8
#     4  11  19  35  61  90 120 154 202 259 313 371
#     4  11  21  40  67  95 126 167 222 270 315 382
#     4  11  22  38  62  91 125 164 208 260 318 379
#     4  12  20  37  66  96 122 160 211 262 314 370
#     4  11  23  39  58  90 126 168 211 259 321 383
#     4  11  24  39  59  93 131 166 204 261 328 380
#
# _framework density 21.567668000000001
#
# number of rings (size 3 to 8) (size 9 to 14) (size 15 to 20)
#    0.000    0.833    6.667    4.000    0.000    4.000 
#    0.000    0.000    0.000    8.500    0.000    0.000 
#    0.000    0.000    0.000    0.000    0.000    0.000 
#
# Total GULP energy -594855.986854 kJ/mol
# GULP energy per Si atom -12392.833059 kJ/mol
# Density = 2.151858 g / cm^3
# Si number density = 21.567668 Si / 1000 Ang^3
#
#
#
# Elastic Constant Matrix: (Units=GPa)
#
#
# Indices 1 2 3 4 5 6 
#
# 1 164.7012 38.0439 25.8933 0.0000 0.0000 0.0000
# 2 38.0439 101.7306 25.5657 0.0000 0.0000 0.0000
# 3 25.8933 25.5657 45.4549 0.0000 0.0000 0.0000
# 4 0.0000 0.0000 0.0000 32.0798 0.0000 0.0000
# 5 0.0000 0.0000 0.0000 0.0000 24.0174 0.0000
# 6 0.0000 0.0000 0.0000 0.0000 0.0000 10.6604
#
#
#
# Elastic Compliance Matrix: (Units=1/GPa)
#
#
# Indices 1 2 3 4 5 6 
#
# 1 0.006962 -0.001871 -0.002913 0.000000 0.000000 0.000000
# 2 -0.001871 0.011951 -0.005656 0.000000 0.000000 0.000000
# 3 -0.002913 -0.005656 0.026840 0.000000 0.000000 0.000000
# 4 0.000000 0.000000 0.000000 0.031172 0.000000 0.000000
# 5 0.000000 0.000000 0.000000 0.000000 0.041636 0.000000
# 6 0.000000 0.000000 0.000000 0.000000 0.000000 0.093805
#
#
# Mechanical properties :
#
#
# Convention : Reuss Voigt Hill
#
# Bulk Modulus (GPa) = 40.20499 54.54363 47.37431
# Shear Modulus (GPa) = 20.70059 28.17710 24.43885
#
# Velocity S-wave (km/s) = 3.10142 3.61841 3.36984
# Velocity P-wave (km/s) = 5.61310 6.54229 6.09543
#
# Compressibility (1/GPa) = 0.02487253
#
# Stress axis : x y z
#
# Youngs Moduli (GPa) = 143.63942 83.67465 37.25721
#
# Poissons Ratio (x) = 0.15659 0.10854
# Poissons Ratio (y) = 0.26880 0.21072
# Poissons Ratio (z) = 0.41846 0.47324
#
# Static dielectric constant tensor:
#      x y z
#    x 4.051170 0.000000 0.000000 
#    y 0.000000 3.770610 0.000000 
#    z 0.000000 0.000000 3.928410 
# 
# 
# High freq. dielectric constant tensor:
#      x y z
#    x 1.852570 0.000000 0.000000 
#    y 0.000000 1.827350 0.000000 
#    z 0.000000 0.000000 1.837630 
# 
# From -- ./inp_files/22683.got.cif
#   From: 2010.03.12/outbox.cif.g09.slc.cpg/sg53_12_cif.got.tgz:22683.got - 2010.04.16 14:36:59.
