data_PCOD8221240
_publ_section_title
;
Structure prediction by ZEFSAII (Michael W. Deem and Ramdas Pophale) SiO2 
 PCOD8221240
Probable space group: P M N A
;
_chemical_formula_sum "Si O2"
_cell_formula_units_Z 64
_cell_length_a 8.924218
_cell_length_b 11.961656
_cell_length_c 31.414388
_cell_angle_alpha 90.000000
_cell_angle_beta 90.000000
_cell_angle_gamma 90.000000
_cell_volume 3353.436466
_symmetry_space_group_name_H-M "P M N A"
_symmetry_group_IT_number 53
_symmetry_cell_setting 'orthorhombic'
loop_
_space_group_symop_operation_xyz
x,y,z
1/2-x,-y,1/2+z
x,-y,-z
1/2-x,y,1/2-z
-x,-y,-z
1/2+x,y,1/2-z
-x,y,z
1/2+x,-y,1/2+z
loop_
_atom_site_type_symbol
_atom_site_label
_atom_site_fract_x
_atom_site_fract_y
_atom_site_fract_z
Si Si1 0.673213 0.888195 0.018980
Si Si2 0.823693 0.510028 0.793060
Si Si3 0.675994 0.633560 0.373968
Si Si4 0.322137 0.910074 0.628336
Si Si5 0.675766 0.236152 0.292265
Si Si6 0.678281 0.861490 0.112823
Si Si7 0.326283 0.247568 0.061251
Si Si8 0.676225 0.522998 0.548439
O O1 0.500000 0.915970 0.026605
O O2 0.742464 0.859216 0.064602
O O3 0.695757 0.782498 0.988343
O O4 0.750843 0.000000 0.000000
O O5 0.750000 0.460092 0.750000
O O6 0.771630 0.444670 0.835104
O O7 0.769379 0.637194 0.799992
O O8 0.000000 0.502277 0.787111
O O9 0.500000 0.657318 0.372091
O O10 0.764649 0.747855 0.365995
O O11 0.718268 0.578289 0.419710
O O12 0.500000 0.919025 0.623853
O O13 0.270619 0.837222 0.668350
O O14 0.255933 0.849926 0.586973
O O15 0.251187 0.031828 0.635685
O O16 0.750000 0.185700 0.250000
O O17 0.500000 0.230688 0.286352
O O18 0.500000 0.868222 0.116440
O O19 0.500000 0.249795 0.074370
O O20 0.254731 0.368362 0.068390
O O21 0.732421 0.500000 0.500000
O O22 0.500000 0.546338 0.548693
#
# Coordination Sequence:
#
# PCOD8221240 Si02
#       8
#     8   8   8   8   8   8   8   8
#     4   9  17  33  52  73 107 145 181 226 277 317
#     4   9  18  35  59  84 110 140 177 224 276 331
#     4  10  21  38  57  79 113 152 185 225 284 339
#     4  11  22  37  56  81 113 145 180 222 276 334
#     4   9  19  36  59  85 112 141 173 218 275 332
#     4  11  22  37  57  80 109 146 191 236 274 322
#     4  11  21  34  56  82 109 144 187 233 277 323
#     4  10  21  37  56  80 114 151 187 230 281 342
#
# _framework density 19.084902
#
# number of rings (size 3 to 8) (size 9 to 14) (size 15 to 20)
#    0.000    2.000    1.250    2.625    0.000    4.250 
#    0.000    5.625    0.000    0.000    0.000    0.000 
#    0.000    0.000    0.000    0.000    0.000    0.000 
#
# Total GULP energy -793656.396511 kJ/mol
# GULP energy per Si atom -12400.881195 kJ/mol
# Density = 1.904146 g / cm^3
# Si number density = 19.084902 Si / 1000 Ang^3
#
#
#
# Elastic Constant Matrix: (Units=GPa)
#
#
# Indices 1 2 3 4 5 6 
#
# 1 53.0833 43.1206 33.7640 0.0000 0.0000 0.0000
# 2 43.1206 121.1107 46.7866 0.0000 0.0000 0.0000
# 3 33.7640 46.7866 120.7791 0.0000 0.0000 0.0000
# 4 0.0000 0.0000 0.0000 26.4536 0.0000 0.0000
# 5 0.0000 0.0000 0.0000 0.0000 28.2778 0.0000
# 6 0.0000 0.0000 0.0000 0.0000 0.0000 27.3754
#
#
#
# Elastic Compliance Matrix: (Units=1/GPa)
#
#
# Indices 1 2 3 4 5 6 
#
# 1 0.028669 -0.008363 -0.004775 0.000000 0.000000 0.000000
# 2 -0.008363 0.012149 -0.002369 0.000000 0.000000 0.000000
# 3 -0.004775 -0.002369 0.010532 0.000000 0.000000 0.000000
# 4 0.000000 0.000000 0.000000 0.037802 0.000000 0.000000
# 5 0.000000 0.000000 0.000000 0.000000 0.035363 0.000000
# 6 0.000000 0.000000 0.000000 0.000000 0.000000 0.036529
#
#
# Mechanical properties :
#
#
# Convention : Reuss Voigt Hill
#
# Bulk Modulus (GPa) = 49.16974 60.25726 54.71350
# Shear Modulus (GPa) = 25.14637 27.84148 26.49392
#
# Velocity S-wave (km/s) = 3.63382 3.82360 3.72992
# Velocity P-wave (km/s) = 6.58983 7.15087 6.87608
#
# Compressibility (1/GPa) = 0.02033771
#
# Stress axis : x y z
#
# Youngs Moduli (GPa) = 34.88143 82.30886 94.94945
#
# Poissons Ratio (x) = 0.68832 0.45337
# Poissons Ratio (y) = 0.29170 0.22489
# Poissons Ratio (z) = 0.16655 0.19495
#
# Static dielectric constant tensor:
#      x y z
#    x 3.296290 0.000000 0.000000 
#    y 0.000000 3.482750 0.000000 
#    z 0.000000 0.000000 3.603010 
# 
# 
# High freq. dielectric constant tensor:
#      x y z
#    x 1.729260 0.000000 0.000000 
#    y 0.000000 1.743360 0.000000 
#    z 0.000000 0.000000 1.740970 
# 
# From -- ./inp_files/38288.got.cif
#   From: 2010.03.12/outbox.cif.g09.slc.cpg/sg53_20_cif.got.tgz:38288.got - 2010.04.16 14:36:59.
