data_PCOD8221188
_publ_section_title
;
Structure prediction by ZEFSAII (Michael W. Deem and Ramdas Pophale) SiO2 
 PCOD8221188
Probable space group: P M N A
;
_chemical_formula_sum "Si O2"
_cell_formula_units_Z 48
_cell_length_a 8.673148
_cell_length_b 10.221833
_cell_length_c 27.965609
_cell_angle_alpha 90.000000
_cell_angle_beta 90.000000
_cell_angle_gamma 90.000000
_cell_volume 2479.304222
_symmetry_space_group_name_H-M "P M N A"
_symmetry_group_IT_number 53
_symmetry_cell_setting 'orthorhombic'
loop_
_space_group_symop_operation_xyz
x,y,z
1/2-x,-y,1/2+z
x,-y,-z
1/2-x,y,1/2-z
-x,-y,-z
1/2+x,y,1/2-z
-x,y,z
1/2+x,-y,1/2+z
loop_
_atom_site_type_symbol
_atom_site_label
_atom_site_fract_x
_atom_site_fract_y
_atom_site_fract_z
Si Si1 0.178563 0.262640 0.890958
Si Si2 0.180611 0.000198 0.055142
Si Si3 0.818654 0.637055 0.300024
Si Si4 0.677114 0.498434 0.944223
Si Si5 0.181788 0.354996 0.199813
Si Si6 0.820708 0.760325 0.609959
O O1 0.226913 0.138572 0.922410
O O2 0.273966 0.260948 0.841465
O O3 0.212653 0.391924 0.921028
O O4 0.000000 0.259109 0.877520
O O5 0.000000 0.030390 0.060066
O O6 0.275757 0.108337 0.083147
O O7 0.232133 0.000000 0.000000
O O8 0.750000 0.687454 0.250000
O O9 0.752358 0.495356 0.314252
O O10 0.000000 0.625192 0.294910
O O11 0.500000 0.462605 0.932386
O O12 0.721934 0.639996 0.924295
O O13 0.709705 0.500000 0.000000
O O14 0.250000 0.305052 0.250000
O O15 0.225838 0.250530 0.159266
O O16 0.000000 0.369226 0.204512
O O17 0.000000 0.762768 0.622777
#
# Coordination Sequence:
#
# PCOD8221188 Si02
#       6
#     8   8   8   8   8   8
#     4  11  22  37  59  87 117 156 200 244 298 356
#     4  10  23  42  61  84 119 162 205 249 299 357
#     4  11  21  36  59  88 121 154 193 242 296 355
#     4  10  21  36  56  84 117 151 194 250 300 350
#     4  11  21  36  60  89 122 156 194 242 296 354
#     4  11  22  37  59  88 120 157 200 245 297 356
#
# _framework density 19.36027
#
# number of rings (size 3 to 8) (size 9 to 14) (size 15 to 20)
#    0.000    1.333    1.667    6.000    0.000    2.667 
#    0.000    0.833    0.000    4.000    0.000    0.000 
#    0.000    0.000    0.000    0.000    0.000    0.000 
#
# Total GULP energy -595495.257395 kJ/mol
# GULP energy per Si atom -12406.151196 kJ/mol
# Density = 1.931621 g / cm^3
# Si number density = 19.360270 Si / 1000 Ang^3
#
#
#
# Elastic Constant Matrix: (Units=GPa)
#
#
# Indices 1 2 3 4 5 6 
#
# 1 118.4703 38.2521 52.8472 0.0000 0.0000 0.0000
# 2 38.2521 79.8399 46.4095 0.0000 0.0000 0.0000
# 3 52.8472 46.4095 142.0580 0.0000 0.0000 0.0000
# 4 0.0000 0.0000 0.0000 34.1466 0.0000 0.0000
# 5 0.0000 0.0000 0.0000 0.0000 35.4269 0.0000
# 6 0.0000 0.0000 0.0000 0.0000 0.0000 21.9429
#
#
#
# Elastic Compliance Matrix: (Units=1/GPa)
#
#
# Indices 1 2 3 4 5 6 
#
# 1 0.010870 -0.003527 -0.002891 0.000000 0.000000 0.000000
# 2 -0.003527 0.016606 -0.004113 0.000000 0.000000 0.000000
# 3 -0.002891 -0.004113 0.009459 0.000000 0.000000 0.000000
# 4 0.000000 0.000000 0.000000 0.029285 0.000000 0.000000
# 5 0.000000 0.000000 0.000000 0.000000 0.028227 0.000000
# 6 0.000000 0.000000 0.000000 0.000000 0.000000 0.045573
#
#
# Mechanical properties :
#
#
# Convention : Reuss Voigt Hill
#
# Bulk Modulus (GPa) = 63.00659 68.37618 65.69139
# Shear Modulus (GPa) = 30.05311 31.82725 30.94018
#
# Velocity S-wave (km/s) = 3.94421 4.05896 4.00200
# Velocity P-wave (km/s) = 7.30461 7.57373 7.44038
#
# Compressibility (1/GPa) = 0.01587136
#
# Stress axis : x y z
#
# Youngs Moduli (GPa) = 92.00044 60.22052 105.72354
#
# Poissons Ratio (x) = 0.21240 0.30568
# Poissons Ratio (y) = 0.32449 0.43483
# Poissons Ratio (z) = 0.26600 0.24768
#
# Static dielectric constant tensor:
#      x y z
#    x 3.543640 0.000000 0.000000 
#    y 0.000000 3.361140 0.000000 
#    z 0.000000 0.000000 3.815080 
# 
# 
# High freq. dielectric constant tensor:
#      x y z
#    x 1.762120 0.000000 0.000000 
#    y 0.000000 1.732750 0.000000 
#    z 0.000000 0.000000 1.774020 
# 
# From -- ./inp_files/37765.got.cif
#   From: 2010.03.12/outbox.cif.g09.slc.cpg/sg53_19_cif.got.tgz:37765.got - 2010.04.16 14:36:59.
