data_PCOD8221840
_publ_section_title
;
Structure prediction by ZEFSAII (Michael W. Deem and Ramdas Pophale) SiO2 
 PCOD8221840
Probable space group: P M N A
;
_chemical_formula_sum "Si O2"
_cell_formula_units_Z 56
_cell_length_a 14.824114
_cell_length_b 12.511292
_cell_length_c 13.791178
_cell_angle_alpha 90.000000
_cell_angle_beta 90.000000
_cell_angle_gamma 90.000000
_cell_volume 2557.833495
_symmetry_space_group_name_H-M "P M N A"
_symmetry_group_IT_number 53
_symmetry_cell_setting 'orthorhombic'
loop_
_space_group_symop_operation_xyz
x,y,z
1/2-x,-y,1/2+z
x,-y,-z
1/2-x,y,1/2-z
-x,-y,-z
1/2+x,y,1/2-z
-x,y,z
1/2+x,-y,1/2+z
loop_
_atom_site_type_symbol
_atom_site_label
_atom_site_fract_x
_atom_site_fract_y
_atom_site_fract_z
Si Si1 0.900417 0.107197 0.182197
Si Si2 0.644941 0.652557 0.255275
Si Si3 0.165011 0.115296 0.805861
Si Si4 0.398636 0.615732 0.469781
Si Si5 0.101854 0.522751 0.602750
Si Si6 0.220227 0.807126 0.982237
Si Si7 0.393906 0.241352 0.127730
O O1 0.826726 0.121283 0.099123
O O2 0.871106 0.171669 0.277791
O O3 0.000000 0.146051 0.149484
O O4 0.907978 0.979077 0.198321
O O5 0.750000 0.630297 0.250000
O O6 0.625883 0.780234 0.249269
O O7 0.601865 0.613565 0.354152
O O8 0.603984 0.582706 0.169083
O O9 0.250000 0.067860 0.750000
O O10 0.199733 0.143774 0.913311
O O11 0.367743 0.500000 0.500000
O O12 0.500000 0.644553 0.505251
O O13 0.326770 0.691821 0.520832
O O14 0.152883 0.500000 0.500000
O O15 0.134685 0.634848 0.650933
O O16 0.000000 0.548115 0.576148
O O17 0.327736 0.798577 0.959766
O O18 0.500000 0.226925 0.098261
#
# Coordination Sequence:
#
# PCOD8221840 Si02
#       7
#     8   8   8   8   8   8   8
#     4  11  24  43  68  99 133 171 222 278 337 405
#     4  10  23  37  62  93 127 173 216 266 329 398
#     4  10  23  42  63  95 129 173 222 274 331 392
#     4  10  23  39  59  93 134 172 214 270 332 395
#     4  10  23  40  64  92 128 171 216 267 323 395
#     4  11  23  40  70  95 130 177 222 277 330 402
#     4  10  24  42  66 101 134 174 225 278 341 400
#
# _framework density 21.893528
#
# number of rings (size 3 to 8) (size 9 to 14) (size 15 to 20)
#    0.000    1.714    0.000    2.571   10.000    4.000 
#    0.000    0.714    0.000    3.429    0.000    0.000 
#    0.000    0.000    0.000    0.000    0.000    0.000 
#
# Total GULP energy -693951.231565 kJ/mol
# GULP energy per Si atom -12391.986278 kJ/mol
# Density = 2.184370 g / cm^3
# Si number density = 21.893528 Si / 1000 Ang^3
#
#
#
# Elastic Constant Matrix: (Units=GPa)
#
#
# Indices 1 2 3 4 5 6 
#
# 1 89.7141 32.3153 16.3542 0.0000 0.0000 0.0000
# 2 32.3153 142.9411 54.9665 0.0000 0.0000 0.0000
# 3 16.3542 54.9665 57.9868 0.0000 0.0000 0.0000
# 4 0.0000 0.0000 0.0000 36.1481 0.0000 0.0000
# 5 0.0000 0.0000 0.0000 0.0000 32.0613 0.0000
# 6 0.0000 0.0000 0.0000 0.0000 0.0000 6.1244
#
#
#
# Elastic Compliance Matrix: (Units=1/GPa)
#
#
# Indices 1 2 3 4 5 6 
#
# 1 0.012197 -0.002257 -0.001300 0.000000 0.000000 0.000000
# 2 -0.002257 0.011426 -0.010195 0.000000 0.000000 0.000000
# 3 -0.001300 -0.010195 0.027276 0.000000 0.000000 0.000000
# 4 0.000000 0.000000 0.000000 0.027664 0.000000 0.000000
# 5 0.000000 0.000000 0.000000 0.000000 0.031190 0.000000
# 6 0.000000 0.000000 0.000000 0.000000 0.000000 0.163281
#
#
# Mechanical properties :
#
#
# Convention : Reuss Voigt Hill
#
# Bulk Modulus (GPa) = 42.74505 55.32379 49.03442
# Shear Modulus (GPa) = 16.21607 27.33384 21.77495
#
# Velocity S-wave (km/s) = 2.72449 3.53723 3.15712
# Velocity P-wave (km/s) = 5.42804 6.48128 5.97790
#
# Compressibility (1/GPa) = 0.02339452
#
# Stress axis : x y z
#
# Youngs Moduli (GPa) = 81.98983 87.51612 36.66287
#
# Poissons Ratio (x) = 0.19756 0.04766
# Poissons Ratio (y) = 0.18509 0.37376
# Poissons Ratio (z) = 0.10659 0.89219
#
# Static dielectric constant tensor:
#      x y z
#    x 3.913250 0.000000 0.000000 
#    y 0.000000 4.168850 0.000000 
#    z 0.000000 0.000000 3.906860 
# 
# 
# High freq. dielectric constant tensor:
#      x y z
#    x 1.859930 0.000000 0.000000 
#    y 0.000000 1.872650 0.000000 
#    z 0.000000 0.000000 1.851550 
# 
# From -- ./inp_files/22855.got.cif
#   From: 2010.03.12/outbox.cif.g09.slc.cpg/sg53_12_cif.got.tgz:22855.got - 2010.04.16 14:36:59.
