data_PCOD8221309
_publ_section_title
;
Structure prediction by ZEFSAII (Michael W. Deem and Ramdas Pophale) SiO2 
 PCOD8221309
Probable space group: P M N A
;
_chemical_formula_sum "Si O2"
_cell_formula_units_Z 64
_cell_length_a 14.604507
_cell_length_b 9.133951
_cell_length_c 24.266875
_cell_angle_alpha 90.000000
_cell_angle_beta 90.000000
_cell_angle_gamma 90.000000
_cell_volume 3237.124716
_symmetry_space_group_name_H-M "P M N A"
_symmetry_group_IT_number 53
_symmetry_cell_setting 'orthorhombic'
loop_
_space_group_symop_operation_xyz
x,y,z
1/2-x,-y,1/2+z
x,-y,-z
1/2-x,y,1/2-z
-x,-y,-z
1/2+x,y,1/2-z
-x,y,z
1/2+x,-y,1/2+z
loop_
_atom_site_type_symbol
_atom_site_label
_atom_site_fract_x
_atom_site_fract_y
_atom_site_fract_z
Si Si1 0.845405 0.572098 0.769437
Si Si2 0.397608 0.276171 0.773262
Si Si3 0.104654 0.773745 0.861649
Si Si4 0.143707 0.019202 0.238781
Si Si5 0.892972 0.142236 0.611207
Si Si6 0.394697 0.328989 0.995117
Si Si7 0.712475 0.160370 0.086077
Si Si8 0.405295 0.241200 0.177603
O O1 0.750000 0.646367 0.750000
O O2 0.839311 0.399601 0.758071
O O3 0.872015 0.616494 0.832233
O O4 0.915222 0.638679 0.725380
O O5 0.500000 0.334837 0.781452
O O6 0.392923 0.143787 0.729956
O O7 0.358314 0.218539 0.831992
O O8 0.176310 0.820969 0.910256
O O9 0.000000 0.769692 0.885008
O O10 0.113268 0.893921 0.814577
O O11 0.250000 0.025565 0.250000
O O12 0.097748 0.081357 0.294285
O O13 0.882361 0.272217 0.566913
O O14 0.000000 0.091623 0.614214
O O15 0.827096 0.004455 0.595142
O O16 0.500000 0.308108 0.014814
O O17 0.325503 0.227116 0.029788
O O18 0.366571 0.500000 0.000000
O O19 0.677717 0.265088 0.135664
O O20 0.500000 0.249795 0.143110
#
# Coordination Sequence:
#
# PCOD8221309 Si02
#       8
#     8   8   8   8   8   8   8   8
#     4  11  21  35  49  76 115 158 195 231 277 333
#     4  11  21  32  51  80 116 153 189 231 281 338
#     4  11  22  38  57  81 116 154 198 238 276 330
#     4  11  18  34  51  78 112 151 190 233 276 326
#     4  10  21  37  58  89 119 148 187 235 294 351
#     4  10  23  40  61  90 122 149 181 233 297 359
#     4  12  21  37  60  83 112 151 193 235 285 340
#     4  11  19  31  52  76 105 142 183 224 274 331
#
# _framework density 19.770631000000002
#
# number of rings (size 3 to 8) (size 9 to 14) (size 15 to 20)
#    0.000    1.125    3.750    5.625    1.750    1.000 
#    0.000    0.000    0.000    1.875    0.000    0.000 
#    0.000    0.000    0.000    0.000    0.000    0.000 
#
# Total GULP energy -792869.292436 kJ/mol
# GULP energy per Si atom -12388.582694 kJ/mol
# Density = 1.972563 g / cm^3
# Si number density = 19.770631 Si / 1000 Ang^3
#
#
#
# Elastic Constant Matrix: (Units=GPa)
#
#
# Indices 1 2 3 4 5 6 
#
# 1 123.7537 22.4994 18.0508 0.0000 0.0000 0.0000
# 2 22.4994 116.8945 28.7214 0.0000 0.0000 0.0000
# 3 18.0508 28.7214 54.8126 0.0000 0.0000 0.0000
# 4 0.0000 0.0000 0.0000 19.2540 0.0000 0.0000
# 5 0.0000 0.0000 0.0000 0.0000 27.1781 0.0000
# 6 0.0000 0.0000 0.0000 0.0000 0.0000 17.7517
#
#
#
# Elastic Compliance Matrix: (Units=1/GPa)
#
#
# Indices 1 2 3 4 5 6 
#
# 1 0.008610 -0.001103 -0.002258 0.000000 0.000000 0.000000
# 2 -0.001103 0.009960 -0.004856 0.000000 0.000000 0.000000
# 3 -0.002258 -0.004856 0.021532 0.000000 0.000000 0.000000
# 4 0.000000 0.000000 0.000000 0.051937 0.000000 0.000000
# 5 0.000000 0.000000 0.000000 0.000000 0.036794 0.000000
# 6 0.000000 0.000000 0.000000 0.000000 0.000000 0.056333
#
#
# Mechanical properties :
#
#
# Convention : Reuss Voigt Hill
#
# Bulk Modulus (GPa) = 42.24784 48.22266 45.23525
# Shear Modulus (GPa) = 23.86758 27.91603 25.89181
#
# Velocity S-wave (km/s) = 3.47828 3.76173 3.62278
# Velocity P-wave (km/s) = 6.12753 6.58115 6.35839
#
# Compressibility (1/GPa) = 0.02366985
#
# Stress axis : x y z
#
# Youngs Moduli (GPa) = 116.13937 100.40122 46.44261
#
# Poissons Ratio (x) = 0.11070 0.10486
# Poissons Ratio (y) = 0.12805 0.22552
# Poissons Ratio (z) = 0.26222 0.48754
#
# Static dielectric constant tensor:
#      x y z
#    x 3.783620 0.000000 0.000000 
#    y 0.000000 3.682890 0.000000 
#    z 0.000000 0.000000 3.394440 
# 
# 
# High freq. dielectric constant tensor:
#      x y z
#    x 1.769780 0.000000 0.000000 
#    y 0.000000 1.774570 0.000000 
#    z 0.000000 0.000000 1.730240 
# 
# From -- ./inp_files/35362.got.cif
#   From: 2010.03.12/outbox.cif.g09.slc.cpg/sg53_18_cif.got.tgz:35362.got - 2010.04.16 14:36:59.
