data_PCOD8221921
_publ_section_title
;
Structure prediction by ZEFSAII (Michael W. Deem and Ramdas Pophale) SiO2 
 PCOD8221921
Probable space group: P M N A
;
_chemical_formula_sum "Si O2"
_cell_formula_units_Z 40
_cell_length_a 8.450502
_cell_length_b 10.122374
_cell_length_c 22.615490
_cell_angle_alpha 90.000000
_cell_angle_beta 90.000000
_cell_angle_gamma 90.000000
_cell_volume 1934.509604
_symmetry_space_group_name_H-M "P M N A"
_symmetry_group_IT_number 53
_symmetry_cell_setting 'orthorhombic'
loop_
_space_group_symop_operation_xyz
x,y,z
1/2-x,-y,1/2+z
x,-y,-z
1/2-x,y,1/2-z
-x,-y,-z
1/2+x,y,1/2-z
-x,y,z
1/2+x,-y,1/2+z
loop_
_atom_site_type_symbol
_atom_site_label
_atom_site_fract_x
_atom_site_fract_y
_atom_site_fract_z
Si Si1 0.684502 0.765269 0.386907
Si Si2 0.315548 0.993618 0.188450
Si Si3 0.815370 0.848595 0.504052
Si Si4 0.185294 0.239472 0.127204
Si Si5 0.313559 0.509922 0.315486
O O1 0.500000 0.789962 0.374672
O O2 0.719459 0.759988 0.456806
O O3 0.743269 0.630513 0.356591
O O4 0.786435 0.885992 0.361846
O O5 0.250000 0.935697 0.250000
O O6 0.500000 0.026487 0.191922
O O7 0.219054 0.126374 0.174977
O O8 0.782258 0.789419 0.568129
O O9 0.000000 0.839373 0.489865
O O10 0.756049 0.000000 0.500000
O O11 0.250010 0.375657 0.154925
O O12 0.000000 0.245858 0.112351
O O13 0.250000 0.530257 0.250000
O O14 0.500000 0.503860 0.311532
#
# Coordination Sequence:
#
# PCOD8221921 Si02
#       5
#     8   8   8   8   8
#     4  11  23  41  65  92 124 165 208 256 314 369
#     4  12  24  39  60  91 124 160 210 260 308 370
#     4  11  23  40  63  94 129 163 208 260 311 370
#     4  11  23  41  65  92 124 165 208 256 314 369
#     4  10  24  43  64  93 127 164 208 256 309 374
#
# _framework density 20.677076
#
# number of rings (size 3 to 8) (size 9 to 14) (size 15 to 20)
#    0.000    1.000    2.000    4.800    0.000    8.000 
#    0.000    4.000    0.000    0.000    0.000    0.000 
#    0.000    0.000    0.000    0.000    0.000    0.000 
#
# Total GULP energy -496309.241092 kJ/mol
# GULP energy per Si atom -12407.731027 kJ/mol
# Density = 2.063001 g / cm^3
# Si number density = 20.677076 Si / 1000 Ang^3
#
#
#
# Elastic Constant Matrix: (Units=GPa)
#
#
# Indices 1 2 3 4 5 6 
#
# 1 50.8230 31.9230 20.4446 0.0000 0.0000 0.0000
# 2 31.9230 120.8303 30.4094 0.0000 0.0000 0.0000
# 3 20.4446 30.4094 111.5776 0.0000 0.0000 0.0000
# 4 0.0000 0.0000 0.0000 41.3719 0.0000 0.0000
# 5 0.0000 0.0000 0.0000 0.0000 39.6188 0.0000
# 6 0.0000 0.0000 0.0000 0.0000 0.0000 6.6126
#
#
#
# Elastic Compliance Matrix: (Units=1/GPa)
#
#
# Indices 1 2 3 4 5 6 
#
# 1 0.024446 -0.005724 -0.002919 0.000000 0.000000 0.000000
# 2 -0.005724 0.010226 -0.001738 0.000000 0.000000 0.000000
# 3 -0.002919 -0.001738 0.009971 0.000000 0.000000 0.000000
# 4 0.000000 0.000000 0.000000 0.024171 0.000000 0.000000
# 5 0.000000 0.000000 0.000000 0.000000 0.025241 0.000000
# 6 0.000000 0.000000 0.000000 0.000000 0.000000 0.151225
#
#
# Mechanical properties :
#
#
# Convention : Reuss Voigt Hill
#
# Bulk Modulus (GPa) = 41.87601 49.86499 45.87050
# Shear Modulus (GPa) = 18.24806 30.88427 24.56616
#
# Velocity S-wave (km/s) = 2.97396 3.86897 3.45060
# Velocity P-wave (km/s) = 5.66471 6.64281 6.17316
#
# Compressibility (1/GPa) = 0.02388002
#
# Stress axis : x y z
#
# Youngs Moduli (GPa) = 40.90695 97.79267 100.29098
#
# Poissons Ratio (x) = 0.55974 0.29278
# Poissons Ratio (y) = 0.23414 0.17432
# Poissons Ratio (z) = 0.11942 0.16998
#
# Static dielectric constant tensor:
#      x y z
#    x 3.613020 0.000000 0.000000 
#    y 0.000000 3.968960 0.000000 
#    z 0.000000 0.000000 3.604820 
# 
# 
# High freq. dielectric constant tensor:
#      x y z
#    x 1.810490 0.000000 0.000000 
#    y 0.000000 1.808740 0.000000 
#    z 0.000000 0.000000 1.824490 
# 
# From -- ./inp_files/33640.got.cif
#   From: 2010.03.12/outbox.cif.g09.slc.cpg/sg53_17_cif.got.tgz:33640.got - 2010.04.16 14:36:59.
