data_PCOD8221727
_publ_section_title
;
Structure prediction by ZEFSAII (Michael W. Deem and Ramdas Pophale) SiO2 
 PCOD8221727
Probable space group: P M N A
;
_chemical_formula_sum "Si O2"
_cell_formula_units_Z 64
_cell_length_a 8.941838
_cell_length_b 23.705235
_cell_length_c 15.584232
_cell_angle_alpha 90.000000
_cell_angle_beta 90.000000
_cell_angle_gamma 90.000000
_cell_volume 3303.364272
_symmetry_space_group_name_H-M "P M N A"
_symmetry_group_IT_number 53
_symmetry_cell_setting 'orthorhombic'
loop_
_space_group_symop_operation_xyz
x,y,z
1/2-x,-y,1/2+z
x,-y,-z
1/2-x,y,1/2-z
-x,-y,-z
1/2+x,y,1/2-z
-x,y,z
1/2+x,-y,1/2+z
loop_
_atom_site_type_symbol
_atom_site_label
_atom_site_fract_x
_atom_site_fract_y
_atom_site_fract_z
Si Si1 0.823721 0.062302 0.591848
Si Si2 0.322413 0.179017 0.837606
Si Si3 0.176030 0.438854 0.162634
Si Si4 0.822748 0.061821 0.397929
Si Si5 0.323820 0.829965 0.665257
Si Si6 0.824107 0.431555 0.837320
Si Si7 0.323855 0.238553 0.502831
Si Si8 0.176727 0.367890 0.003381
O O1 0.766367 0.114295 0.649337
O O2 0.764057 0.069958 0.495168
O O3 0.000000 0.063325 0.584237
O O4 0.775898 0.001769 0.631367
O O5 0.250000 0.201921 0.750000
O O6 0.500000 0.183454 0.831547
O O7 0.266525 0.216554 0.915881
O O8 0.250000 0.416804 0.250000
O O9 0.219384 0.503650 0.144720
O O10 0.242080 0.401693 0.084805
O O11 0.000000 0.431034 0.171835
O O12 0.734179 0.105857 0.339798
O O13 0.000000 0.072078 0.388780
O O14 0.250000 0.802100 0.750000
O O15 0.500000 0.829105 0.676271
O O16 0.272882 0.795175 0.581735
O O17 0.750000 0.409263 0.750000
O O18 0.000000 0.423905 0.827425
O O19 0.758989 0.394425 0.915509
O O20 0.500000 0.231786 0.520203
O O21 0.276606 0.303051 0.488780
O O22 0.000000 0.375679 0.002718
#
# Coordination Sequence:
#
# PCOD8221727 Si02
#       8
#     8   8   8   8   8   8   8   8
#     4   8  16  31  56  83 108 138 169 211 268 324
#     4  11  22  38  59  82 108 142 179 220 270 323
#     4   9  17  31  53  81 110 140 174 214 261 314
#     4   9  16  33  58  82 108 137 172 214 267 326
#     4  11  23  37  55  79 107 141 181 224 271 323
#     4   9  17  31  53  80 109 140 174 213 261 314
#     4  10  22  40  57  77 106 141 185 232 269 310
#     4   9  18  34  56  77 103 141 181 219 261 312
#
# _framework density 19.374186999999999
#
# number of rings (size 3 to 8) (size 9 to 14) (size 15 to 20)
#    0.000    2.500    1.250    1.875    0.000    3.500 
#    0.000    6.875    0.000    3.000    0.000    0.000 
#    0.000    0.000    0.000    0.000    0.000    0.000 
#
# Total GULP energy -793535.787555 kJ/mol
# GULP energy per Si atom -12398.996681 kJ/mol
# Density = 1.933009 g / cm^3
# Si number density = 19.374187 Si / 1000 Ang^3
#
#
#
# Elastic Constant Matrix: (Units=GPa)
#
#
# Indices 1 2 3 4 5 6 
#
# 1 40.5727 27.3083 38.5175 0.0000 0.0000 0.0000
# 2 27.3083 104.6583 65.8839 0.0000 0.0000 0.0000
# 3 38.5175 65.8839 154.3749 0.0000 0.0000 0.0000
# 4 0.0000 0.0000 0.0000 12.5424 0.0000 0.0000
# 5 0.0000 0.0000 0.0000 0.0000 31.1180 0.0000
# 6 0.0000 0.0000 0.0000 0.0000 0.0000 19.4853
#
#
#
# Elastic Compliance Matrix: (Units=1/GPa)
#
#
# Indices 1 2 3 4 5 6 
#
# 1 0.033992 -0.004827 -0.006421 0.000000 0.000000 0.000000
# 2 -0.004827 0.013751 -0.004664 0.000000 0.000000 0.000000
# 3 -0.006421 -0.004664 0.010070 0.000000 0.000000 0.000000
# 4 0.000000 0.000000 0.000000 0.079730 0.000000 0.000000
# 5 0.000000 0.000000 0.000000 0.000000 0.032136 0.000000
# 6 0.000000 0.000000 0.000000 0.000000 0.000000 0.051321
#
#
# Mechanical properties :
#
#
# Convention : Reuss Voigt Hill
#
# Bulk Modulus (GPa) = 38.47906 62.55836 50.51871
# Shear Modulus (GPa) = 19.12146 23.82223 21.47185
#
# Velocity S-wave (km/s) = 3.14499 3.51035 3.33268
# Velocity P-wave (km/s) = 5.75257 6.98496 6.39851
#
# Compressibility (1/GPa) = 0.02598816
#
# Stress axis : x y z
#
# Youngs Moduli (GPa) = 29.41867 72.72440 99.30185
#
# Poissons Ratio (x) = 0.35107 0.63762
# Poissons Ratio (y) = 0.14201 0.46314
# Poissons Ratio (z) = 0.18890 0.33918
#
# Static dielectric constant tensor:
#      x y z
#    x 3.183240 0.000000 0.000000 
#    y 0.000000 3.704180 0.000000 
#    z 0.000000 0.000000 3.695740 
# 
# 
# High freq. dielectric constant tensor:
#      x y z
#    x 1.722520 0.000000 0.000000 
#    y 0.000000 1.752530 0.000000 
#    z 0.000000 0.000000 1.763130 
# 
# From -- ./inp_files/20894.got.cif
#   From: 2010.03.12/outbox.cif.g09.slc.cpg/sg53_11_cif.got.tgz:20894.got - 2010.04.16 14:36:59.
