data_PCOD8221283
_publ_section_title
;
Structure prediction by ZEFSAII (Michael W. Deem and Ramdas Pophale) SiO2 
 PCOD8221283
Probable space group: P M N A
;
_chemical_formula_sum "Si O2"
_cell_formula_units_Z 40
_cell_length_a 8.439675
_cell_length_b 16.454952
_cell_length_c 14.305322
_cell_angle_alpha 90.000000
_cell_angle_beta 90.000000
_cell_angle_gamma 90.000000
_cell_volume 1986.643682
_symmetry_space_group_name_H-M "P M N A"
_symmetry_group_IT_number 53
_symmetry_cell_setting 'orthorhombic'
loop_
_space_group_symop_operation_xyz
x,y,z
1/2-x,-y,1/2+z
x,-y,-z
1/2-x,y,1/2-z
-x,-y,-z
1/2+x,y,1/2-z
-x,y,z
1/2+x,-y,1/2+z
loop_
_atom_site_type_symbol
_atom_site_label
_atom_site_fract_x
_atom_site_fract_y
_atom_site_fract_z
Si Si1 0.313504 0.106340 0.353812
Si Si2 0.687214 0.063715 0.852403
Si Si3 0.816021 0.617718 0.014929
Si Si4 0.814105 0.485008 0.353084
Si Si5 0.315408 0.208511 0.987265
O O1 0.250000 0.113019 0.250000
O O2 0.500000 0.119060 0.358157
O O3 0.227873 0.177961 0.409761
O O4 0.266765 0.017755 0.394189
O O5 0.750000 0.083229 0.750000
O O6 0.500000 0.049889 0.851050
O O7 0.738727 0.139285 0.915302
O O8 0.765866 0.565907 0.105378
O O9 0.781105 0.710988 0.037616
O O10 0.000000 0.604000 0.995575
O O11 0.722460 0.590487 0.921707
O O12 0.750000 0.465910 0.250000
O O13 0.000000 0.499254 0.347985
O O14 0.500000 0.228047 0.979904
#
# Coordination Sequence:
#
# PCOD8221283 Si02
#       5
#     8   8   8   8   8
#     4  11  22  37  58  83 113 151 195 241 289 343
#     4  10  21  37  58  82 113 152 194 239 286 339
#     4  11  23  40  61  90 121 151 192 238 286 344
#     4  11  22  41  66  90 118 154 191 232 285 343
#     4  11  23  39  58  84 118 154 192 238 290 339
#
# _framework density 20.134461000000002
#
# number of rings (size 3 to 8) (size 9 to 14) (size 15 to 20)
#    0.000    1.200    0.000    9.600    0.000    7.200 
#    0.000    6.000    0.000    0.000    0.000    0.000 
#    0.000    0.000    0.000    0.000    0.000    0.000 
#
# Total GULP energy -496223.102394 kJ/mol
# GULP energy per Si atom -12405.577560 kJ/mol
# Density = 2.008863 g / cm^3
# Si number density = 20.134461 Si / 1000 Ang^3
#
#
#
# Elastic Constant Matrix: (Units=GPa)
#
#
# Indices 1 2 3 4 5 6 
#
# 1 78.1542 15.8647 12.4017 0.0000 0.0000 0.0000
# 2 15.8647 80.5820 2.8412 0.0000 0.0000 0.0000
# 3 12.4017 2.8412 56.9286 0.0000 0.0000 0.0000
# 4 0.0000 0.0000 0.0000 22.1076 0.0000 0.0000
# 5 0.0000 0.0000 0.0000 0.0000 27.9174 0.0000
# 6 0.0000 0.0000 0.0000 0.0000 0.0000 36.4703
#
#
#
# Elastic Compliance Matrix: (Units=1/GPa)
#
#
# Indices 1 2 3 4 5 6 
#
# 1 0.013781 -0.002612 -0.002872 0.000000 0.000000 0.000000
# 2 -0.002612 0.012927 -0.000076 0.000000 0.000000 0.000000
# 3 -0.002872 -0.000076 0.018195 0.000000 0.000000 0.000000
# 4 0.000000 0.000000 0.000000 0.045233 0.000000 0.000000
# 5 0.000000 0.000000 0.000000 0.000000 0.035820 0.000000
# 6 0.000000 0.000000 0.000000 0.000000 0.000000 0.027420
#
#
# Mechanical properties :
#
#
# Convention : Reuss Voigt Hill
#
# Bulk Modulus (GPa) = 29.60045 30.87555 30.23800
# Shear Modulus (GPa) = 28.44841 29.60286 29.02564
#
# Velocity S-wave (km/s) = 3.76296 3.83855 3.80095
# Velocity P-wave (km/s) = 5.79768 5.91726 5.85778
#
# Compressibility (1/GPa) = 0.03378327
#
# Stress axis : x y z
#
# Youngs Moduli (GPa) = 72.56306 77.35965 54.95928
#
# Poissons Ratio (x) = 0.20206 0.15783
# Poissons Ratio (y) = 0.18953 0.00419
# Poissons Ratio (z) = 0.20839 0.00589
#
# Static dielectric constant tensor:
#      x y z
#    x 3.811690 0.000000 0.000000 
#    y 0.000000 3.732450 0.000000 
#    z 0.000000 0.000000 3.744430 
# 
# 
# High freq. dielectric constant tensor:
#      x y z
#    x 1.804260 0.000000 0.000000 
#    y 0.000000 1.786850 0.000000 
#    z 0.000000 0.000000 1.789260 
# 
# From -- ./inp_files/19871.got.cif
#   From: 2010.03.12/outbox.cif.g09.slc.cpg/sg53_10_cif.got.tgz:19871.got - 2010.04.16 14:36:59.
