data_PCOD8221952
_publ_section_title
;
Structure prediction by ZEFSAII (Michael W. Deem and Ramdas Pophale) SiO2 
 PCOD8221952
Probable space group: P M N A
;
_chemical_formula_sum "Si O2"
_cell_formula_units_Z 64
_cell_length_a 14.276162
_cell_length_b 13.806383
_cell_length_c 19.746213
_cell_angle_alpha 90.000000
_cell_angle_beta 90.000000
_cell_angle_gamma 90.000000
_cell_volume 3892.021241
_symmetry_space_group_name_H-M "P M N A"
_symmetry_group_IT_number 53
_symmetry_cell_setting 'orthorhombic'
loop_
_space_group_symop_operation_xyz
x,y,z
1/2-x,-y,1/2+z
x,-y,-z
1/2-x,y,1/2-z
-x,-y,-z
1/2+x,y,1/2-z
-x,y,z
1/2+x,-y,1/2+z
loop_
_atom_site_type_symbol
_atom_site_label
_atom_site_fract_x
_atom_site_fract_y
_atom_site_fract_z
Si Si1 0.250000 0.912500 0.090801
Si Si2 0.750000 0.557153 0.569697
Si Si3 0.393188 0.756012 0.391381
Si Si4 0.893242 0.719657 0.549758
Si Si5 0.606812 0.756012 0.108620
Si Si6 0.893242 0.719657 0.950241
Si Si7 0.250000 0.614830 0.171479
Si Si8 0.750000 0.123764 0.432938
O O1 0.157431 0.859526 0.119828
O O2 0.342569 0.859526 0.119828
O O3 0.249999 0.025820 0.112403
O O4 0.250000 0.905869 0.010595
O O5 0.750000 0.500000 0.500000
O O6 0.843191 0.622268 0.574568
O O7 0.656810 0.622267 0.574568
O O8 0.750001 0.486543 0.633075
O O9 0.500000 0.766571 0.367653
O O10 0.384719 0.723381 0.468916
O O11 0.343177 0.674677 0.346658
O O12 0.884719 0.723382 0.468916
O O13 0.842734 0.813132 0.582803
O O14 0.000000 0.718734 0.574627
O O15 0.500000 0.766572 0.132347
O O16 0.656822 0.674678 0.153343
O O17 0.842735 0.813132 0.917197
O O18 0.000000 0.718733 0.925372
O O19 0.250000 0.590224 0.250000
#
# Coordination Sequence:
#
# PCOD8221952 Si02
#       8
#     8   8   8   8   8   8   8   8
#     4   8  14  25  42  65  95 129 151 182 224 277
#     4  11  18  32  49  67  90 122 164 205 240 290
#     4   9  17  30  46  67  94 126 159 189 230 283
#     4   9  17  28  46  70  95 124 158 195 236 282
#     4   9  17  30  46  67  94 126 159 189 230 283
#     4   9  17  28  46  70  95 124 158 195 236 282
#     4  11  22  34  47  67  95 125 158 200 244 283
#     4   8  14  25  40  66 102 123 147 185 232 275
#
# _framework density 16.443898000000001
#
# number of rings (size 3 to 8) (size 9 to 14) (size 15 to 20)
#    0.000    2.750    2.500    1.500    0.000    3.000 
#    0.000    5.000    0.000    0.000    0.000   14.000 
#    0.000    0.000    0.000    0.000    0.000    0.000 
#
# Total GULP energy -793404.331418 kJ/mol
# GULP energy per Si atom -12396.942678 kJ/mol
# Density = 1.640647 g / cm^3
# Si number density = 16.443898 Si / 1000 Ang^3
#
#
#
# Elastic Constant Matrix: (Units=GPa)
#
#
# Indices 1 2 3 4 5 6 
#
# 1 173.6457 83.1010 31.9221 0.0000 0.0000 0.0000
# 2 83.1010 159.7077 43.8418 0.0000 0.0000 0.0000
# 3 31.9221 43.8418 51.1316 0.0000 0.0000 0.0000
# 4 0.0000 0.0000 0.0000 11.1876 0.0000 0.0000
# 5 0.0000 0.0000 0.0000 0.0000 2.3039 0.0000
# 6 0.0000 0.0000 0.0000 0.0000 0.0000 -6.6965
#
#
#
# Elastic Compliance Matrix: (Units=1/GPa)
#
#
# Indices 1 2 3 4 5 6 
#
# 1 0.007795 -0.003558 -0.001816 0.000000 0.000000 0.000000
# 2 -0.003558 0.009812 -0.006192 0.000000 0.000000 0.000000
# 3 -0.001816 -0.006192 0.026001 0.000000 0.000000 0.000000
# 4 0.000000 0.000000 0.000000 0.089384 0.000000 0.000000
# 5 0.000000 0.000000 0.000000 0.000000 0.434045 0.000000
# 6 0.000000 0.000000 0.000000 0.000000 0.000000 -0.149332
#
#
# Mechanical properties :
#
#
# Convention : Reuss Voigt Hill
#
# Bulk Modulus (GPa) = 48.83772 78.02387 63.43080
# Shear Modulus (GPa) = 11.16907 16.40035 13.78471
#
# Velocity S-wave (km/s) = 2.60902 3.16151 2.89846
# Velocity P-wave (km/s) = 6.23218 7.80246 7.06111
#
# Compressibility (1/GPa) = 0.02047597
#
# Stress axis : x y z
#
# Youngs Moduli (GPa) = 128.28295 101.91143 38.46006
#
# Poissons Ratio (x) = 0.36255 0.06986
# Poissons Ratio (y) = 0.45637 0.23816
# Poissons Ratio (z) = 0.23301 0.63109
#
# Static dielectric constant tensor:
#      x y z
#    x 3.263170 0.000000 0.000000 
#    y 0.000000 3.396160 0.000000 
#    z 0.000000 0.000000 2.568840 
# 
# 
# High freq. dielectric constant tensor:
#      x y z
#    x 1.641970 0.000000 0.000000 
#    y 0.000000 1.642110 0.000000 
#    z 0.000000 0.000000 1.570220 
# 
# From -- ./inp_files/28645.got.cif
#   From: 2010.03.12/outbox.cif.g09.slc.cpg/sg53_15_cif.got.tgz:28645.got - 2010.04.16 14:36:59.
