data_PCOD8221392
_publ_section_title
;
Structure prediction by ZEFSAII (Michael W. Deem and Ramdas Pophale) SiO2 
 PCOD8221392
Probable space group: P M N A
;
_chemical_formula_sum "Si O2"
_cell_formula_units_Z 40
_cell_length_a 16.621705
_cell_length_b 12.518609
_cell_length_c 9.387442
_cell_angle_alpha 90.000000
_cell_angle_beta 90.000000
_cell_angle_gamma 90.000000
_cell_volume 1953.344806
_symmetry_space_group_name_H-M "P M N A"
_symmetry_group_IT_number 53
_symmetry_cell_setting 'orthorhombic'
loop_
_space_group_symop_operation_xyz
x,y,z
1/2-x,-y,1/2+z
x,-y,-z
1/2-x,y,1/2-z
-x,-y,-z
1/2+x,y,1/2-z
-x,y,z
1/2+x,-y,1/2+z
loop_
_atom_site_type_symbol
_atom_site_label
_atom_site_fract_x
_atom_site_fract_y
_atom_site_fract_z
Si Si1 0.592349 0.626041 0.900062
Si Si2 0.174428 0.970174 0.158973
Si Si3 0.658434 0.203730 0.290409
Si Si4 0.907863 0.761051 0.089653
Si Si5 0.657958 0.413243 0.798291
O O1 0.500000 0.606964 0.945235
O O2 0.599807 0.737723 0.819442
O O3 0.621801 0.532748 0.792452
O O4 0.648085 0.628853 0.040330
O O5 0.250000 0.930247 0.250000
O O6 0.110171 0.874710 0.165222
O O7 0.136294 0.078350 0.223936
O O8 0.203858 0.000000 0.000000
O O9 0.750000 0.226560 0.250000
O O10 0.646222 0.249253 0.449011
O O11 0.891528 0.662735 0.193496
O O12 0.000000 0.759880 0.042754
O O13 0.750000 0.413812 0.750000
#
# Coordination Sequence:
#
# PCOD8221392 Si02
#       5
#     8   8   8   8   8
#     4  11  23  41  61  85 118 151 188 237 291 337
#     4   9  20  37  58  83 115 152 192 235 282 337
#     4  10  21  38  59  85 116 154 195 233 280 340
#     4  11  22  37  59  88 118 149 190 238 287 335
#     4  11  23  40  61  83 114 153 192 233 283 343
#
# _framework density 20.477695000000001
#
# number of rings (size 3 to 8) (size 9 to 14) (size 15 to 20)
#    0.000    1.600    0.000    5.400    0.000   10.000 
#    0.000    2.000    0.000    3.000    0.000    0.000 
#    0.000    0.000    0.000    0.000    0.000    0.000 
#
# Total GULP energy -496060.750256 kJ/mol
# GULP energy per Si atom -12401.518756 kJ/mol
# Density = 2.043109 g / cm^3
# Si number density = 20.477695 Si / 1000 Ang^3
#
#
#
# Elastic Constant Matrix: (Units=GPa)
#
#
# Indices 1 2 3 4 5 6 
#
# 1 127.1037 57.9528 57.5225 0.0000 0.0000 0.0000
# 2 57.9528 99.0985 68.9428 0.0000 0.0000 0.0000
# 3 57.5225 68.9428 97.2339 0.0000 0.0000 0.0000
# 4 0.0000 0.0000 0.0000 40.1310 0.0000 0.0000
# 5 0.0000 0.0000 0.0000 0.0000 26.6632 0.0000
# 6 0.0000 0.0000 0.0000 0.0000 0.0000 46.6516
#
#
#
# Elastic Compliance Matrix: (Units=1/GPa)
#
#
# Indices 1 2 3 4 5 6 
#
# 1 0.011467 -0.003920 -0.004004 0.000000 0.000000 0.000000
# 2 -0.003920 0.021254 -0.012751 0.000000 0.000000 0.000000
# 3 -0.004004 -0.012751 0.021694 0.000000 0.000000 0.000000
# 4 0.000000 0.000000 0.000000 0.024918 0.000000 0.000000
# 5 0.000000 0.000000 0.000000 0.000000 0.037505 0.000000
# 6 0.000000 0.000000 0.000000 0.000000 0.000000 0.021435
#
#
# Mechanical properties :
#
#
# Convention : Reuss Voigt Hill
#
# Bulk Modulus (GPa) = 76.54125 76.91915 76.73020
# Shear Modulus (GPa) = 27.17671 31.95703 29.56687
#
# Velocity S-wave (km/s) = 3.64694 3.95470 3.80393
# Velocity P-wave (km/s) = 7.42917 7.64832 7.53954
#
# Compressibility (1/GPa) = 0.01306485
#
# Stress axis : x y z
#
# Youngs Moduli (GPa) = 87.20519 47.04888 46.09485
#
# Poissons Ratio (x) = 0.18444 0.18457
# Poissons Ratio (y) = 0.34187 0.58776
# Poissons Ratio (z) = 0.34919 0.59993
#
# Static dielectric constant tensor:
#      x y z
#    x 3.602320 0.000000 0.000000 
#    y 0.000000 3.974290 0.000000 
#    z 0.000000 0.000000 3.730770 
# 
# 
# High freq. dielectric constant tensor:
#      x y z
#    x 1.794040 0.000000 0.000000 
#    y 0.000000 1.814700 0.000000 
#    z 0.000000 0.000000 1.800880 
# 
# From -- ./inp_files/8349.got.cif
#   From: 2010.03.12/outbox.cif.g09.slc.cpg/sg53_5_cif.got.tgz:8349.got - 2010.04.16 14:36:59.
