data_PCOD8221775
_publ_section_title
;
Structure prediction by ZEFSAII (Michael W. Deem and Ramdas Pophale) SiO2 
 PCOD8221775
Probable space group: P M N A
;
_chemical_formula_sum "Si O2"
_cell_formula_units_Z 32
_cell_length_a 14.035598
_cell_length_b 11.758761
_cell_length_c 9.007900
_cell_angle_alpha 90.000000
_cell_angle_beta 90.000000
_cell_angle_gamma 90.000000
_cell_volume 1486.675007
_symmetry_space_group_name_H-M "P M N A"
_symmetry_group_IT_number 53
_symmetry_cell_setting 'orthorhombic'
loop_
_space_group_symop_operation_xyz
x,y,z
1/2-x,-y,1/2+z
x,-y,-z
1/2-x,y,1/2-z
-x,-y,-z
1/2+x,y,1/2-z
-x,y,z
1/2+x,-y,1/2+z
loop_
_atom_site_type_symbol
_atom_site_label
_atom_site_fract_x
_atom_site_fract_y
_atom_site_fract_z
Si Si1 0.696884 0.269382 0.894813
Si Si2 0.500000 0.448743 0.222255
Si Si3 0.841884 0.500000 0.500000
Si Si4 0.000000 0.708844 0.252438
Si Si5 0.000000 0.228387 0.083623
Si Si6 0.695698 0.893710 0.603937
O O1 0.750000 0.226647 0.750000
O O2 0.723438 0.401977 0.927703
O O3 0.585925 0.255793 0.859538
O O4 0.730551 0.194525 0.031676
O O5 0.406528 0.433700 0.120538
O O6 0.500000 0.575714 0.289355
O O7 0.500000 0.356503 0.353053
O O8 0.000000 0.773870 0.095937
O O9 0.905497 0.164742 0.141186
O O10 0.750000 0.937525 0.750000
O O11 0.674694 0.000000 0.500000
#
# Coordination Sequence:
#
# PCOD8221775 Si02
#       6
#     8   4   4   4   4   8
#     4  11  22  42  65  98 137 180 222 279 334 403
#     4   9  19  37  61 100 138 176 217 273 333 416
#     4   9  20  36  62  97 144 178 216 267 342 411
#     4  10  22  40  69 100 140 179 216 278 338 407
#     4  12  23  43  72  99 137 175 232 282 344 395
#     4  12  28  48  71  98 134 175 234 289 341 405
#
# _framework density 21.524545
#
# number of rings (size 3 to 8) (size 9 to 14) (size 15 to 20)
#    0.000    1.250    2.500    3.750    0.000    6.000 
#    0.000    1.250    0.000    0.000    0.000    0.000 
#    0.000    0.000    0.000    0.000    0.000    0.000 
#
# Total GULP energy -396822.972679 kJ/mol
# GULP energy per Si atom -12400.717896 kJ/mol
# Density = 2.147555 g / cm^3
# Si number density = 21.524545 Si / 1000 Ang^3
#
#
#
# Elastic Constant Matrix: (Units=GPa)
#
#
# Indices 1 2 3 4 5 6 
#
# 1 127.7913 44.4026 30.3810 0.0000 0.0000 0.0000
# 2 44.4026 84.2851 19.8326 0.0000 0.0000 0.0000
# 3 30.3810 19.8326 81.1649 0.0000 0.0000 0.0000
# 4 0.0000 0.0000 0.0000 45.0255 0.0000 0.0000
# 5 0.0000 0.0000 0.0000 0.0000 23.9478 0.0000
# 6 0.0000 0.0000 0.0000 0.0000 0.0000 31.3794
#
#
#
# Elastic Compliance Matrix: (Units=1/GPa)
#
#
# Indices 1 2 3 4 5 6 
#
# 1 0.010080 -0.004692 -0.002627 0.000000 0.000000 0.000000
# 2 -0.004692 0.014773 -0.001853 0.000000 0.000000 0.000000
# 3 -0.002627 -0.001853 0.013757 0.000000 0.000000 0.000000
# 4 0.000000 0.000000 0.000000 0.022210 0.000000 0.000000
# 5 0.000000 0.000000 0.000000 0.000000 0.041757 0.000000
# 6 0.000000 0.000000 0.000000 0.000000 0.000000 0.031868
#
#
# Mechanical properties :
#
#
# Convention : Reuss Voigt Hill
#
# Bulk Modulus (GPa) = 49.34618 53.60819 51.47718
# Shear Modulus (GPa) = 31.33940 33.31221 32.32581
#
# Velocity S-wave (km/s) = 3.81988 3.93827 3.87953
# Velocity P-wave (km/s) = 6.51388 6.75571 6.63590
#
# Compressibility (1/GPa) = 0.02026499
#
# Stress axis : x y z
#
# Youngs Moduli (GPa) = 99.20545 67.69308 72.69246
#
# Poissons Ratio (x) = 0.31764 0.19093
# Poissons Ratio (y) = 0.46550 0.13472
# Poissons Ratio (z) = 0.26057 0.12545
#
# Static dielectric constant tensor:
#      x y z
#    x 1.761940 0.000000 0.000000 
#    y 0.000000 3.793430 0.000000 
#    z 0.000000 0.000000 3.894560 
# 
# 
# High freq. dielectric constant tensor:
#      x y z
#    x 1.845580 0.000000 0.000000 
#    y 0.000000 1.838390 0.000000 
#    z 0.000000 0.000000 1.849860 
# 
# From -- ./inp_files/8191.got.cif
#   From: 2010.03.12/outbox.cif.g09.slc.cpg/sg53_5_cif.got.tgz:8191.got - 2010.04.16 14:36:59.
