data_PCOD8221491
_publ_section_title
;
Structure prediction by ZEFSAII (Michael W. Deem and Ramdas Pophale) SiO2 
 PCOD8221491
Probable space group: P M N A
;
_chemical_formula_sum "Si O2"
_cell_formula_units_Z 48
_cell_length_a 8.369561
_cell_length_b 16.244319
_cell_length_c 18.331471
_cell_angle_alpha 90.000000
_cell_angle_beta 90.000000
_cell_angle_gamma 90.000000
_cell_volume 2492.306812
_symmetry_space_group_name_H-M "P M N A"
_symmetry_group_IT_number 53
_symmetry_cell_setting 'orthorhombic'
loop_
_space_group_symop_operation_xyz
x,y,z
1/2-x,-y,1/2+z
x,-y,-z
1/2-x,y,1/2-z
-x,-y,-z
1/2+x,y,1/2-z
-x,y,z
1/2+x,-y,1/2+z
loop_
_atom_site_type_symbol
_atom_site_label
_atom_site_fract_x
_atom_site_fract_y
_atom_site_fract_z
Si Si1 0.686756 0.660214 0.169309
Si Si2 0.184183 0.249357 0.964104
Si Si3 0.310996 0.164038 0.328905
Si Si4 0.312318 0.910317 0.972824
Si Si5 0.185344 0.672893 0.603291
Si Si6 0.186549 0.515018 0.828638
O O1 0.750000 0.675980 0.250000
O O2 0.500000 0.676771 0.165529
O O3 0.775931 0.725009 0.117861
O O4 0.724636 0.567185 0.144174
O O5 0.000000 0.265903 0.982351
O O6 0.221756 0.153235 0.974447
O O7 0.291917 0.302543 0.019276
O O8 0.250000 0.135185 0.250000
O O9 0.500000 0.159534 0.332675
O O10 0.238133 0.102173 0.388781
O O11 0.255155 0.257147 0.343839
O O12 0.500000 0.895212 0.980082
O O13 0.261212 0.000000 0.000000
O O14 0.278576 0.587853 0.615128
O O15 0.000000 0.660592 0.621200
O O16 0.250000 0.543185 0.750000
O O17 0.000000 0.495300 0.824160
#
# Coordination Sequence:
#
# PCOD8221491 Si02
#       6
#     8   8   8   8   8   8
#     4  11  22  39  59  81 109 145 187 231 277 323
#     4  11  22  38  59  84 111 143 182 224 274 330
#     4  11  21  35  56  83 115 149 185 226 274 328
#     4  10  21  39  62  87 115 146 181 224 275 331
#     4  11  21  35  54  80 112 147 186 228 275 326
#     4  11  21  35  53  78 110 147 189 231 276 324
#
# _framework density 19.259266
#
# number of rings (size 3 to 8) (size 9 to 14) (size 15 to 20)
#    0.000    1.167    0.000   11.500    0.000    2.000 
#    0.000    4.167    0.000    4.000    0.000    0.000 
#    0.000    0.000    0.000    0.000    0.000    0.000 
#
# Total GULP energy -595501.764074 kJ/mol
# GULP energy per Si atom -12406.286752 kJ/mol
# Density = 1.921543 g / cm^3
# Si number density = 19.259266 Si / 1000 Ang^3
#
#
#
# Elastic Constant Matrix: (Units=GPa)
#
#
# Indices 1 2 3 4 5 6 
#
# 1 86.6761 23.7897 10.8323 0.0000 0.0000 0.0000
# 2 23.7897 107.5214 72.9061 0.0000 0.0000 0.0000
# 3 10.8323 72.9061 103.8436 0.0000 0.0000 0.0000
# 4 0.0000 0.0000 0.0000 31.4106 0.0000 0.0000
# 5 0.0000 0.0000 0.0000 0.0000 33.8016 0.0000
# 6 0.0000 0.0000 0.0000 0.0000 0.0000 30.9166
#
#
#
# Elastic Compliance Matrix: (Units=1/GPa)
#
#
# Indices 1 2 3 4 5 6 
#
# 1 0.012361 -0.003551 0.001204 0.000000 0.000000 0.000000
# 2 -0.003551 0.018771 -0.012808 0.000000 0.000000 0.000000
# 3 0.001204 -0.012808 0.018497 0.000000 0.000000 0.000000
# 4 0.000000 0.000000 0.000000 0.031836 0.000000 0.000000
# 5 0.000000 0.000000 0.000000 0.000000 0.029584 0.000000
# 6 0.000000 0.000000 0.000000 0.000000 0.000000 0.032345
#
#
# Mechanical properties :
#
#
# Convention : Reuss Voigt Hill
#
# Bulk Modulus (GPa) = 51.76601 57.01079 54.38840
# Shear Modulus (GPa) = 27.75538 31.92665 29.84101
#
# Velocity S-wave (km/s) = 3.80036 4.07594 3.94056
# Velocity P-wave (km/s) = 6.79660 7.19841 7.00039
#
# Compressibility (1/GPa) = 0.01931769
#
# Stress axis : x y z
#
# Youngs Moduli (GPa) = 80.89654 53.27390 54.06403
#
# Poissons Ratio (x) = 0.18919 -0.06508
# Poissons Ratio (y) = 0.28729 0.69246
# Poissons Ratio (z) = -0.09738 0.68234
#
# Static dielectric constant tensor:
#      x y z
#    x 3.664840 0.000000 0.000000 
#    y 0.000000 3.489340 0.000000 
#    z 0.000000 0.000000 3.629510 
# 
# 
# High freq. dielectric constant tensor:
#      x y z
#    x 1.773210 0.000000 0.000000 
#    y 0.000000 1.736040 0.000000 
#    z 0.000000 0.000000 1.746430 
# 
# From -- ./inp_files/20251.got.cif
#   From: 2010.03.12/outbox.cif.g09.slc.cpg/sg53_11_cif.got.tgz:20251.got - 2010.04.16 14:36:59.
