data_PCOD8221086
_publ_section_title
;
Structure prediction by ZEFSAII (Michael W. Deem and Ramdas Pophale) SiO2 
 PCOD8221086
Probable space group: P M N A
;
_chemical_formula_sum "Si O2"
_cell_formula_units_Z 48
_cell_length_a 9.041415
_cell_length_b 30.348034
_cell_length_c 9.110476
_cell_angle_alpha 90.000000
_cell_angle_beta 90.000000
_cell_angle_gamma 90.000000
_cell_volume 2499.815946
_symmetry_space_group_name_H-M "P M N A"
_symmetry_group_IT_number 53
_symmetry_cell_setting 'orthorhombic'
loop_
_space_group_symop_operation_xyz
x,y,z
1/2-x,-y,1/2+z
x,-y,-z
1/2-x,y,1/2-z
-x,-y,-z
1/2+x,y,1/2-z
-x,y,z
1/2+x,-y,1/2+z
loop_
_atom_site_type_symbol
_atom_site_label
_atom_site_fract_x
_atom_site_fract_y
_atom_site_fract_z
Si Si1 0.674077 0.458309 0.094335
Si Si2 0.173766 0.375507 0.596118
Si Si3 0.328400 0.197001 0.102336
Si Si4 0.173754 0.703907 0.600698
Si Si5 0.829218 0.043147 0.097592
Si Si6 0.174314 0.883669 0.406198
O O1 0.750000 0.460560 0.250000
O O2 0.500000 0.459056 0.119316
O O3 0.727153 0.500000 0.000000
O O4 0.725589 0.414000 0.012776
O O5 0.250000 0.382823 0.750000
O O6 0.224114 0.328546 0.529187
O O7 0.000000 0.377338 0.622061
O O8 0.250000 0.180144 0.250000
O O9 0.500000 0.196029 0.139598
O O10 0.276529 0.246355 0.059107
O O11 0.291204 0.165254 0.966349
O O12 0.250000 0.688281 0.750000
O O13 0.000000 0.700549 0.626736
O O14 0.750000 0.032549 0.250000
O O15 0.000000 0.056507 0.123604
O O16 0.743325 0.082535 0.020285
O O17 0.817155 0.000000 0.000000
O O18 0.250000 0.889549 0.250000
O O19 0.000000 0.892609 0.390564
#
# Coordination Sequence:
#
# PCOD8221086 Si02
#       6
#     8   8   8   8   8   8
#     4  10  21  36  54  78 106 136 174 218 263 314
#     4  10  21  35  52  76 106 139 176 218 263 315
#     4   9  19  35  55  79 107 140 178 222 269 319
#     4   9  18  34  54  77 105 137 177 221 266 318
#     4  11  24  41  62  87 115 147 183 224 270 320
#     4  11  23  38  57  82 113 147 184 226 272 322
#
# _framework density 19.201412999999999
#
# number of rings (size 3 to 8) (size 9 to 14) (size 15 to 20)
#    0.000    2.000    0.000    3.000    0.000    7.667 
#    0.000    0.000    0.000    0.000    0.000    0.000 
#    0.000    0.000    0.000    0.000    0.000    0.000 
#
# Total GULP energy -595353.646870 kJ/mol
# GULP energy per Si atom -12403.200976 kJ/mol
# Density = 1.915771 g / cm^3
# Si number density = 19.201413 Si / 1000 Ang^3
#
#
#
# Elastic Constant Matrix: (Units=GPa)
#
#
# Indices 1 2 3 4 5 6 
#
# 1 72.1208 47.7320 60.2947 0.0000 0.0000 0.0000
# 2 47.7320 108.0096 60.9635 0.0000 0.0000 0.0000
# 3 60.2947 60.9635 150.2794 0.0000 0.0000 0.0000
# 4 0.0000 0.0000 0.0000 143.6575 0.0000 0.0000
# 5 0.0000 0.0000 0.0000 0.0000 39.3254 0.0000
# 6 0.0000 0.0000 0.0000 0.0000 0.0000 8.7830
#
#
#
# Elastic Compliance Matrix: (Units=1/GPa)
#
#
# Indices 1 2 3 4 5 6 
#
# 1 0.024139 -0.006746 -0.006949 0.000000 0.000000 0.000000
# 2 -0.006746 0.013893 -0.002929 0.000000 0.000000 0.000000
# 3 -0.006949 -0.002929 0.010631 0.000000 0.000000 0.000000
# 4 0.000000 0.000000 0.000000 0.006961 0.000000 0.000000
# 5 0.000000 0.000000 0.000000 0.000000 0.025429 0.000000
# 6 0.000000 0.000000 0.000000 0.000000 0.000000 0.113856
#
#
# Mechanical properties :
#
#
# Convention : Reuss Voigt Hill
#
# Bulk Modulus (GPa) = 64.87048 74.26558 69.56803
# Shear Modulus (GPa) = 21.43210 49.11449 35.27330
#
# Velocity S-wave (km/s) = 3.34454 5.06301 4.29069
# Velocity P-wave (km/s) = 6.98371 8.54049 7.80103
#
# Compressibility (1/GPa) = 0.01541533
#
# Stress axis : x y z
#
# Youngs Moduli (GPa) = 41.42607 71.97867 94.06860
#
# Poissons Ratio (x) = 0.48555 0.65364
# Poissons Ratio (y) = 0.27945 0.27557
# Poissons Ratio (z) = 0.28785 0.21086
#
# Static dielectric constant tensor:
#      x y z
#    x 3.525130 0.000000 0.000000 
#    y 0.000000 3.922220 0.000000 
#    z 0.000000 0.000000 2.267390 
# 
# 
# High freq. dielectric constant tensor:
#      x y z
#    x 1.745710 0.000000 0.000000 
#    y 0.000000 1.764120 0.000000 
#    z 0.000000 0.000000 1.749860 
# 
# From -- ./inp_files/6585.got.cif
#   From: 2010.03.12/outbox.cif.g09.slc.cpg/sg53_4_cif.got.tgz:6585.got - 2010.04.16 14:36:59.
