data_PCOD8221547
_publ_section_title
;
Structure prediction by ZEFSAII (Michael W. Deem and Ramdas Pophale) SiO2 
 PCOD8221547
Probable space group: P M N A
;
_chemical_formula_sum "Si O2"
_cell_formula_units_Z 28
_cell_length_a 25.169166
_cell_length_b 5.736182
_cell_length_c 8.558601
_cell_angle_alpha 90.000000
_cell_angle_beta 90.000000
_cell_angle_gamma 90.000000
_cell_volume 1235.647309
_symmetry_space_group_name_H-M "P M N A"
_symmetry_group_IT_number 53
_symmetry_cell_setting 'orthorhombic'
loop_
_space_group_symop_operation_xyz
x,y,z
1/2-x,-y,1/2+z
x,-y,-z
1/2-x,y,1/2-z
-x,-y,-z
1/2+x,y,1/2-z
-x,y,z
1/2+x,-y,1/2+z
loop_
_atom_site_type_symbol
_atom_site_label
_atom_site_fract_x
_atom_site_fract_y
_atom_site_fract_z
Si Si1 0.116042 0.000000 0.000000
Si Si2 0.058563 0.619690 0.166984
Si Si3 0.346294 0.668073 0.749224
Si Si4 0.250000 0.322486 0.750000
Si Si5 0.701788 0.000000 0.000000
O O1 0.080216 0.119579 0.864592
O O2 0.152814 0.814687 0.911022
O O3 0.098380 0.471261 0.277070
O O4 0.000000 0.631555 0.245569
O O5 0.054566 0.500000 0.000000
O O6 0.300748 0.480712 0.720185
O O7 0.335906 0.832808 0.897437
O O8 0.240678 0.158150 0.601958
#
# Coordination Sequence:
#
# PCOD8221547 Si02
#       5
#     4   8   8   4   4
#     4  10  21  39  67  98 129 168 211 261 318 372
#     4   9  19  37  63  96 131 168 213 261 310 370
#     4  11  25  42  65  97 130 167 211 261 315 378
#     4  12  28  46  66  92 126 166 212 264 318 382
#     4  12  28  45  64  92 126 168 212 261 322 382
#
# _framework density 22.660185999999999
#
# number of rings (size 3 to 8) (size 9 to 14) (size 15 to 20)
#    0.000    1.429    0.000    3.857    0.000   22.857 
#    0.000    0.714    0.000    8.571    0.000    0.000 
#    0.000    0.000    0.000    0.000    0.000    0.000 
#
# Total GULP energy -347233.171153 kJ/mol
# GULP energy per Si atom -12401.184684 kJ/mol
# Density = 2.260861 g / cm^3
# Si number density = 22.660186 Si / 1000 Ang^3
#
#
#
# Elastic Constant Matrix: (Units=GPa)
#
#
# Indices 1 2 3 4 5 6 
#
# 1 185.6722 96.3513 80.3574 0.0000 0.0000 0.0000
# 2 96.3513 168.6470 68.5304 0.0000 0.0000 0.0000
# 3 80.3574 68.5304 91.8907 0.0000 0.0000 0.0000
# 4 0.0000 0.0000 0.0000 43.1682 0.0000 0.0000
# 5 0.0000 0.0000 0.0000 0.0000 29.5516 0.0000
# 6 0.0000 0.0000 0.0000 0.0000 0.0000 15.9452
#
#
#
# Elastic Compliance Matrix: (Units=1/GPa)
#
#
# Indices 1 2 3 4 5 6 
#
# 1 0.009605 -0.002976 -0.006180 0.000000 0.000000 0.000000
# 2 -0.002976 0.009430 -0.004430 0.000000 0.000000 0.000000
# 3 -0.006180 -0.004430 0.019590 0.000000 0.000000 0.000000
# 4 0.000000 0.000000 0.000000 0.023165 0.000000 0.000000
# 5 0.000000 0.000000 0.000000 0.000000 0.033839 0.000000
# 6 0.000000 0.000000 0.000000 0.000000 0.000000 0.062715
#
#
# Mechanical properties :
#
#
# Convention : Reuss Voigt Hill
#
# Bulk Modulus (GPa) = 87.31099 104.07646 95.69372
# Shear Modulus (GPa) = 26.40833 31.13107 28.76970
#
# Velocity S-wave (km/s) = 3.41751 3.71053 3.56703
# Velocity P-wave (km/s) = 7.36116 8.02411 7.69977
#
# Compressibility (1/GPa) = 0.01145331
#
# Stress axis : x y z
#
# Youngs Moduli (GPa) = 104.11422 106.04287 51.04534
#
# Poissons Ratio (x) = 0.31562 0.31544
# Poissons Ratio (y) = 0.30987 0.22614
# Poissons Ratio (z) = 0.64339 0.46978
#
# Static dielectric constant tensor:
#      x y z
#    x 4.519780 0.000000 0.000000 
#    y 0.000000 4.705620 0.000000 
#    z 0.000000 0.000000 3.851150 
# 
# 
# High freq. dielectric constant tensor:
#      x y z
#    x 1.898830 0.000000 0.000000 
#    y 0.000000 1.920690 0.000000 
#    z 0.000000 0.000000 1.858880 
# 
# From -- ./inp_files/12117.got.cif
#   From: 2010.03.12/outbox.cif.g09.slc.cpg/sg53_7_cif.got.tgz:12117.got - 2010.04.16 14:36:59.
