data_PCOD8221300
_publ_section_title
;
Structure prediction by ZEFSAII (Michael W. Deem and Ramdas Pophale) SiO2 
 PCOD8221300
Probable space group: P M N A
;
_chemical_formula_sum "Si O2"
_cell_formula_units_Z 64
_cell_length_a 8.815007
_cell_length_b 23.822052
_cell_length_c 15.142555
_cell_angle_alpha 90.000000
_cell_angle_beta 90.000000
_cell_angle_gamma 90.000000
_cell_volume 3179.808673
_symmetry_space_group_name_H-M "P M N A"
_symmetry_group_IT_number 53
_symmetry_cell_setting 'orthorhombic'
loop_
_space_group_symop_operation_xyz
x,y,z
1/2-x,-y,1/2+z
x,-y,-z
1/2-x,y,1/2-z
-x,-y,-z
1/2+x,y,1/2-z
-x,y,z
1/2+x,-y,1/2+z
loop_
_atom_site_type_symbol
_atom_site_label
_atom_site_fract_x
_atom_site_fract_y
_atom_site_fract_z
Si Si1 0.822644 0.878604 0.339158
Si Si2 0.177658 0.691784 0.994055
Si Si3 0.820745 0.603863 0.846879
Si Si4 0.178743 0.106232 0.337581
Si Si5 0.676981 0.630567 0.154092
Si Si6 0.175695 0.808924 0.510419
Si Si7 0.321003 0.994077 0.398887
Si Si8 0.322774 0.506428 0.154929
O O1 0.750000 0.853761 0.250000
O O2 0.791598 0.832104 0.413128
O O3 0.000000 0.890551 0.327834
O O4 0.740625 0.936285 0.361475
O O5 0.258164 0.674633 0.084852
O O6 0.222287 0.755007 0.971039
O O7 0.000000 0.686341 0.009434
O O8 0.230112 0.653861 0.911494
O O9 0.750000 0.614055 0.750000
O O10 0.759064 0.546051 0.893114
O O11 0.000000 0.600262 0.836648
O O12 0.250000 0.134396 0.250000
O O13 0.227118 0.143536 0.420879
O O14 0.246457 0.044303 0.345169
O O15 0.000000 0.102043 0.328554
O O16 0.750000 0.639189 0.250000
O O17 0.500000 0.641506 0.166250
O O18 0.707323 0.567936 0.113553
O O19 0.000000 0.792913 0.523128
O O20 0.500000 0.996356 0.386156
O O21 0.271446 0.000000 0.500000
O O22 0.250000 0.508333 0.250000
O O23 0.500000 0.493056 0.160283
#
# Coordination Sequence:
#
# PCOD8221300 Si02
#       8
#     8   8   8   8   8   8   8   8
#     4  11  23  41  64  91 121 156 197 240 293 352
#     4  11  25  41  60  86 117 155 201 249 297 351
#     4  10  21  37  58  86 118 155 195 241 296 353
#     4  11  23  41  64  91 122 158 198 243 295 352
#     4  10  21  38  61  88 120 155 195 241 295 354
#     4  10  24  44  63  83 115 157 200 248 299 348
#     4  11  22  37  62  94 126 160 195 238 292 348
#     4   9  17  31  55  86 117 152 190 236 292 352
#
# _framework density 20.126998
#
# number of rings (size 3 to 8) (size 9 to 14) (size 15 to 20)
#    0.000    1.625    1.250    3.750    0.000    7.500 
#    0.000    6.250    0.000    0.000    0.000    0.000 
#    0.000    0.000    0.000    0.000    0.000    0.000 
#
# Total GULP energy -793658.463457 kJ/mol
# GULP energy per Si atom -12400.913492 kJ/mol
# Density = 2.008119 g / cm^3
# Si number density = 20.126998 Si / 1000 Ang^3
#
#
#
# Elastic Constant Matrix: (Units=GPa)
#
#
# Indices 1 2 3 4 5 6 
#
# 1 83.8442 27.7403 33.9913 0.0000 0.0000 0.0000
# 2 27.7403 81.6929 13.1058 0.0000 0.0000 0.0000
# 3 33.9913 13.1058 88.7195 0.0000 0.0000 0.0000
# 4 0.0000 0.0000 0.0000 20.9411 0.0000 0.0000
# 5 0.0000 0.0000 0.0000 0.0000 26.9452 0.0000
# 6 0.0000 0.0000 0.0000 0.0000 0.0000 33.8641
#
#
#
# Elastic Compliance Matrix: (Units=1/GPa)
#
#
# Indices 1 2 3 4 5 6 
#
# 1 0.015540 -0.004427 -0.005300 0.000000 0.000000 0.000000
# 2 -0.004427 0.013799 -0.000342 0.000000 0.000000 0.000000
# 3 -0.005300 -0.000342 0.013353 0.000000 0.000000 0.000000
# 4 0.000000 0.000000 0.000000 0.047753 0.000000 0.000000
# 5 0.000000 0.000000 0.000000 0.000000 0.037112 0.000000
# 6 0.000000 0.000000 0.000000 0.000000 0.000000 0.029530
#
#
# Mechanical properties :
#
#
# Convention : Reuss Voigt Hill
#
# Bulk Modulus (GPa) = 44.33871 44.88128 44.60999
# Shear Modulus (GPa) = 27.06459 28.31135 27.68797
#
# Velocity S-wave (km/s) = 3.67098 3.75458 3.71302
# Velocity P-wave (km/s) = 6.32815 6.41430 6.37137
#
# Compressibility (1/GPa) = 0.02255366
#
# Stress axis : x y z
#
# Youngs Moduli (GPa) = 64.34941 72.46871 74.89134
#
# Poissons Ratio (x) = 0.32080 0.39693
# Poissons Ratio (y) = 0.28485 0.02564
# Poissons Ratio (z) = 0.34105 0.02481
#
# Static dielectric constant tensor:
#      x y z
#    x 3.727260 0.000000 0.000000 
#    y 0.000000 3.853570 0.000000 
#    z 0.000000 0.000000 3.811610 
# 
# 
# High freq. dielectric constant tensor:
#      x y z
#    x 1.796840 0.000000 0.000000 
#    y 0.000000 1.787050 0.000000 
#    z 0.000000 0.000000 1.788120 
# 
# From -- ./inp_files/20876.got.cif
#   From: 2010.03.12/outbox.cif.g09.slc.cpg/sg53_11_cif.got.tgz:20876.got - 2010.04.16 14:36:59.
