data_PCOD8221675
_publ_section_title
;
Structure prediction by ZEFSAII (Michael W. Deem and Ramdas Pophale) SiO2 
 PCOD8221675
Probable space group: P M N A
;
_chemical_formula_sum "Si O2"
_cell_formula_units_Z 28
_cell_length_a 8.276102
_cell_length_b 5.103297
_cell_length_c 27.158314
_cell_angle_alpha 90.000000
_cell_angle_beta 90.000000
_cell_angle_gamma 90.000000
_cell_volume 1147.042432
_symmetry_space_group_name_H-M "P M N A"
_symmetry_group_IT_number 53
_symmetry_cell_setting 'orthorhombic'
loop_
_space_group_symop_operation_xyz
x,y,z
1/2-x,-y,1/2+z
x,-y,-z
1/2-x,y,1/2-z
-x,-y,-z
1/2+x,y,1/2-z
-x,y,z
1/2+x,-y,1/2+z
loop_
_atom_site_type_symbol
_atom_site_label
_atom_site_fract_x
_atom_site_fract_y
_atom_site_fract_z
Si Si1 0.814705 0.747644 0.696944
Si Si2 0.323387 0.432153 0.442981
Si Si3 0.818855 0.763323 0.147324
Si Si4 0.500000 0.753930 0.965724
O O1 0.750000 0.834847 0.750000
O O2 0.796231 0.995554 0.660616
O O3 0.000000 0.666546 0.699792
O O4 0.717514 0.498014 0.678004
O O5 0.328167 0.500000 0.500000
O O6 0.500000 0.302242 0.428812
O O7 0.299833 0.695184 0.410721
O O8 0.165574 0.248044 0.432787
O O9 0.000000 0.851733 0.160168
O O10 0.500000 0.500000 0.000000
O O11 0.500000 0.000000 0.000000
#
# Coordination Sequence:
#
# PCOD8221675 Si02
#       4
#     8   8   8   4
#     4  12  26  45  70  99 135 175 224 283 345 412
#     4   9  21  42  67  97 137 181 226 276 333 398
#     4  11  24  44  70 100 136 179 227 279 340 409
#     4  10  22  38  60  90 126 170 218 270 320 382
#
# _framework density 24.410605
#
# number of rings (size 3 to 8) (size 9 to 14) (size 15 to 20)
#    0.000    1.429    0.000    4.286    4.000    5.143 
#    0.000    8.571    0.000    0.000    0.000    0.000 
#    0.000    0.000    0.000    0.000    0.000    0.000 
#
# Total GULP energy -347076.962164 kJ/mol
# GULP energy per Si atom -12395.605792 kJ/mol
# Density = 2.435504 g / cm^3
# Si number density = 24.410605 Si / 1000 Ang^3
#
#
#
# Elastic Constant Matrix: (Units=GPa)
#
#
# Indices 1 2 3 4 5 6 
#
# 1 168.3290 5.1401 10.8302 0.0000 0.0000 0.0000
# 2 5.1401 100.5973 8.2912 0.0000 0.0000 0.0000
# 3 10.8302 8.2912 98.2947 0.0000 0.0000 0.0000
# 4 0.0000 0.0000 0.0000 35.5216 0.0000 0.0000
# 5 0.0000 0.0000 0.0000 0.0000 34.7685 0.0000
# 6 0.0000 0.0000 0.0000 0.0000 0.0000 14.5703
#
#
#
# Elastic Compliance Matrix: (Units=1/GPa)
#
#
# Indices 1 2 3 4 5 6 
#
# 1 0.005990 -0.000253 -0.000639 0.000000 0.000000 0.000000
# 2 -0.000253 0.010021 -0.000817 0.000000 0.000000 0.000000
# 3 -0.000639 -0.000817 0.010313 0.000000 0.000000 0.000000
# 4 0.000000 0.000000 0.000000 0.028152 0.000000 0.000000
# 5 0.000000 0.000000 0.000000 0.000000 0.028762 0.000000
# 6 0.000000 0.000000 0.000000 0.000000 0.000000 0.068633
#
#
# Mechanical properties :
#
#
# Convention : Reuss Voigt Hill
#
# Bulk Modulus (GPa) = 43.65927 46.19380 44.92654
# Shear Modulus (GPa) = 30.68926 39.83602 35.26264
#
# Velocity S-wave (km/s) = 3.54956 4.04408 3.80486
# Velocity P-wave (km/s) = 5.89266 6.38520 6.14387
#
# Compressibility (1/GPa) = 0.02290464
#
# Stress axis : x y z
#
# Youngs Moduli (GPa) = 166.95691 99.79102 96.96698
#
# Poissons Ratio (x) = 0.02529 0.06192
# Poissons Ratio (y) = 0.04231 0.07926
# Poissons Ratio (z) = 0.10661 0.08156
#
# Static dielectric constant tensor:
#      x y z
#    x 5.946380 0.000000 0.000000 
#    y 0.000000 4.189540 0.000000 
#    z 0.000000 0.000000 4.490770 
# 
# 
# High freq. dielectric constant tensor:
#      x y z
#    x 1.999030 0.000000 0.000000 
#    y 0.000000 1.947890 0.000000 
#    z 0.000000 0.000000 1.975240 
# 
# From -- ./inp_files/35877.got.cif
#   From: 2010.03.12/outbox.cif.g09.slc.cpg/sg53_18_cif.got.tgz:35877.got - 2010.04.16 14:36:59.
