data_PCOD8221649
_publ_section_title
;
Structure prediction by ZEFSAII (Michael W. Deem and Ramdas Pophale) SiO2 
 PCOD8221649
Probable space group: P M N A
;
_chemical_formula_sum "Si O2"
_cell_formula_units_Z 48
_cell_length_a 16.757248
_cell_length_b 9.728543
_cell_length_c 16.358351
_cell_angle_alpha 90.000000
_cell_angle_beta 90.000000
_cell_angle_gamma 90.000000
_cell_volume 2666.797397
_symmetry_space_group_name_H-M "P M N A"
_symmetry_group_IT_number 53
_symmetry_cell_setting 'orthorhombic'
loop_
_space_group_symop_operation_xyz
x,y,z
1/2-x,-y,1/2+z
x,-y,-z
1/2-x,y,1/2-z
-x,-y,-z
1/2+x,y,1/2-z
-x,y,z
1/2+x,-y,1/2+z
loop_
_atom_site_type_symbol
_atom_site_label
_atom_site_fract_x
_atom_site_fract_y
_atom_site_fract_z
Si Si1 0.672434 0.732118 0.305416
Si Si2 0.275028 0.376454 0.943578
Si Si3 0.303926 0.878367 0.942718
Si Si4 0.818864 0.038102 0.183378
Si Si5 0.592511 0.459820 0.816317
Si Si6 0.907134 0.773447 0.704007
O O1 0.750000 0.741660 0.250000
O O2 0.698171 0.659241 0.389164
O O3 0.605196 0.641069 0.260997
O O4 0.640599 0.886774 0.322601
O O5 0.354062 0.413219 0.892307
O O6 0.247042 0.500000 0.000000
O O7 0.297389 0.252422 0.001109
O O8 0.218169 0.919587 0.904027
O O9 0.367081 0.850836 0.871672
O O10 0.336447 0.000000 0.000000
O O11 0.750000 0.035384 0.250000
O O12 0.883216 0.152109 0.211076
O O13 0.500000 0.453836 0.842683
O O14 0.618765 0.613855 0.790872
O O15 0.000000 0.787467 0.690464
#
# Coordination Sequence:
#
# PCOD8221649 Si02
#       6
#     8   8   8   8   8   8
#     4   9  19  35  54  78 105 140 185 222 261 318
#     4  11  21  34  57  85 108 141 179 222 275 320
#     4  11  21  36  56  82 112 140 176 229 273 314
#     4   9  19  35  55  76 105 143 184 223 259 315
#     4  10  22  37  54  79 113 147 180 219 264 323
#     4  10  22  37  54  79 111 148 182 216 266 325
#
# _framework density 17.999117999999999
#
# number of rings (size 3 to 8) (size 9 to 14) (size 15 to 20)
#    0.000    2.000    3.333    0.000    4.667    4.000 
#    0.000    0.000    0.000    2.000    0.000    0.000 
#    0.000    0.000    0.000    0.000    0.000    0.000 
#
# Total GULP energy -595171.331791 kJ/mol
# GULP energy per Si atom -12399.402746 kJ/mol
# Density = 1.795815 g / cm^3
# Si number density = 17.999118 Si / 1000 Ang^3
#
#
#
# Elastic Constant Matrix: (Units=GPa)
#
#
# Indices 1 2 3 4 5 6 
#
# 1 40.5316 42.5114 42.4100 0.0000 0.0000 0.0000
# 2 42.5114 163.6330 56.5246 0.0000 0.0000 0.0000
# 3 42.4100 56.5246 76.2035 0.0000 0.0000 0.0000
# 4 0.0000 0.0000 0.0000 39.9012 0.0000 0.0000
# 5 0.0000 0.0000 0.0000 0.0000 23.1789 0.0000
# 6 0.0000 0.0000 0.0000 0.0000 0.0000 21.9665
#
#
#
# Elastic Compliance Matrix: (Units=1/GPa)
#
#
# Indices 1 2 3 4 5 6 
#
# 1 0.062794 -0.005703 -0.030717 0.000000 0.000000 0.000000
# 2 -0.005703 0.008735 -0.003305 0.000000 0.000000 0.000000
# 3 -0.030717 -0.003305 0.032669 0.000000 0.000000 0.000000
# 4 0.000000 0.000000 0.000000 0.025062 0.000000 0.000000
# 5 0.000000 0.000000 0.000000 0.000000 0.043143 0.000000
# 6 0.000000 0.000000 0.000000 0.000000 0.000000 0.045524
#
#
# Mechanical properties :
#
#
# Convention : Reuss Voigt Hill
#
# Bulk Modulus (GPa) = 40.40710 62.58444 51.49577
# Shear Modulus (GPa) = 16.35989 26.27080 21.31534
#
# Velocity S-wave (km/s) = 3.01811 3.82456 3.44502
# Velocity P-wave (km/s) = 5.88588 7.37220 6.67057
#
# Compressibility (1/GPa) = 0.02474812
#
# Stress axis : x y z
#
# Youngs Moduli (GPa) = 15.92506 114.48832 30.60973
#
# Poissons Ratio (x) = 0.65293 0.94024
# Poissons Ratio (y) = 0.09082 0.10116
# Poissons Ratio (z) = 0.48917 0.37838
#
# Static dielectric constant tensor:
#      x y z
#    x 3.072370 0.000000 0.000000 
#    y 0.000000 3.711840 0.000000 
#    z 0.000000 0.000000 3.524890 
# 
# 
# High freq. dielectric constant tensor:
#      x y z
#    x 1.661150 0.000000 0.000000 
#    y 0.000000 1.722010 0.000000 
#    z 0.000000 0.000000 1.695870 
# 
# From -- ./inp_files/23632.got.cif
#   From: 2010.03.12/outbox.cif.g09.slc.cpg/sg53_12_cif.got.tgz:23632.got - 2010.04.16 14:36:59.
