data_PCOD8221860
_publ_section_title
;
Structure prediction by ZEFSAII (Michael W. Deem and Ramdas Pophale) SiO2 
 PCOD8221860
Probable space group: P M N A
;
_chemical_formula_sum "Si O2"
_cell_formula_units_Z 56
_cell_length_a 26.990446
_cell_length_b 5.443969
_cell_length_c 17.284506
_cell_angle_alpha 90.000000
_cell_angle_beta 90.000000
_cell_angle_gamma 90.000000
_cell_volume 2539.701505
_symmetry_space_group_name_H-M "P M N A"
_symmetry_group_IT_number 53
_symmetry_cell_setting 'orthorhombic'
loop_
_space_group_symop_operation_xyz
x,y,z
1/2-x,-y,1/2+z
x,-y,-z
1/2-x,y,1/2-z
-x,-y,-z
1/2+x,y,1/2-z
-x,y,z
1/2+x,-y,1/2+z
loop_
_atom_site_type_symbol
_atom_site_label
_atom_site_fract_x
_atom_site_fract_y
_atom_site_fract_z
Si Si1 0.772125 0.997137 0.590358
Si Si2 0.943008 0.752086 0.953462
Si Si3 0.130393 0.122425 0.323894
Si Si4 0.944957 0.746723 0.270858
Si Si5 0.214363 0.493226 0.909933
Si Si6 0.381060 0.410625 0.321323
Si Si7 0.054831 0.402107 0.416100
O O1 0.821358 0.004717 0.641960
O O2 0.741267 0.751212 0.612429
O O3 0.785990 0.000000 0.500000
O O4 0.745666 0.251813 0.612199
O O5 0.906079 0.782877 0.880137
O O6 0.000000 0.745833 0.926384
O O7 0.930229 0.500000 0.000000
O O8 0.931926 0.000000 0.000000
O O9 0.144058 0.324303 0.259548
O O10 0.097900 0.211785 0.396475
O O11 0.095735 0.954662 0.271733
O O12 0.928459 0.577422 0.199773
O O13 0.944738 0.618127 0.354109
O O14 0.000000 0.849161 0.252828
O O15 0.163560 0.453647 0.864521
O O16 0.202011 0.500000 0.000000
O O17 0.068421 0.500000 0.500000
O O18 0.000000 0.276536 0.416367
#
# Coordination Sequence:
#
# PCOD8221860 Si02
#       7
#     8   8   8   8   8   8   8
#     4  10  25  46  72 100 134 175 231 291 344 405
#     4  10  23  42  68 102 137 180 231 283 339 409
#     4  11  25  40  65  99 131 187 225 280 348 416
#     4  10  23  41  62  97 139 180 222 275 344 411
#     4  10  24  47  73  99 131 176 229 292 350 404
#     4  11  25  43  67  99 135 181 224 285 345 420
#     4   9  20  38  62  94 133 176 230 285 333 403
#
# _framework density 22.049834000000001
#
# number of rings (size 3 to 8) (size 9 to 14) (size 15 to 20)
#    0.000    1.857    0.000    1.286   10.000    4.571 
#    0.000    2.143    0.000    0.000    0.000    0.000 
#    0.000    0.000    0.000    0.000    0.000    0.000 
#
# Total GULP energy -694071.184529 kJ/mol
# GULP energy per Si atom -12394.128295 kJ/mol
# Density = 2.199965 g / cm^3
# Si number density = 22.049834 Si / 1000 Ang^3
#
#
#
# Elastic Constant Matrix: (Units=GPa)
#
#
# Indices 1 2 3 4 5 6 
#
# 1 142.9612 49.4859 81.0799 0.0000 0.0000 0.0000
# 2 49.4859 117.0024 39.6218 0.0000 0.0000 0.0000
# 3 81.0799 39.6218 108.3134 0.0000 0.0000 0.0000
# 4 0.0000 0.0000 0.0000 15.5009 0.0000 0.0000
# 5 0.0000 0.0000 0.0000 0.0000 43.6470 0.0000
# 6 0.0000 0.0000 0.0000 0.0000 0.0000 27.8321
#
#
#
# Elastic Compliance Matrix: (Units=1/GPa)
#
#
# Indices 1 2 3 4 5 6 
#
# 1 0.012750 -0.002466 -0.008642 0.000000 0.000000 0.000000
# 2 -0.002466 0.010232 -0.001897 0.000000 0.000000 0.000000
# 3 -0.008642 -0.001897 0.016396 0.000000 0.000000 0.000000
# 4 0.000000 0.000000 0.000000 0.064513 0.000000 0.000000
# 5 0.000000 0.000000 0.000000 0.000000 0.022911 0.000000
# 6 0.000000 0.000000 0.000000 0.000000 0.000000 0.035930
#
#
# Mechanical properties :
#
#
# Convention : Reuss Voigt Hill
#
# Bulk Modulus (GPa) = 74.80843 78.73912 76.77378
# Shear Modulus (GPa) = 25.88034 30.60194 28.24114
#
# Velocity S-wave (km/s) = 3.42968 3.72943 3.58269
# Velocity P-wave (km/s) = 7.04870 7.37103 7.21167
#
# Compressibility (1/GPa) = 0.01336748
#
# Stress axis : x y z
#
# Youngs Moduli (GPa) = 78.43273 97.73037 60.99210
#
# Poissons Ratio (x) = 0.24100 0.52709
# Poissons Ratio (y) = 0.19341 0.11571
# Poissons Ratio (z) = 0.67782 0.18540
#
# Static dielectric constant tensor:
#      x y z
#    x 3.987580 0.000000 0.000000 
#    y 0.000000 3.217390 0.000000 
#    z 0.000000 0.000000 3.936700 
# 
# 
# High freq. dielectric constant tensor:
#      x y z
#    x 1.873390 0.000000 0.000000 
#    y 0.000000 1.858000 0.000000 
#    z 0.000000 0.000000 1.876990 
# 
# From -- ./inp_files/25144.got.cif
#   From: 2010.03.12/outbox.cif.g09.slc.cpg/sg53_13_cif.got.tgz:25144.got - 2010.04.16 14:36:59.
