data_PCOD8221356
_publ_section_title
;
Structure prediction by ZEFSAII (Michael W. Deem and Ramdas Pophale) SiO2 
 PCOD8221356
Probable space group: P M N A
;
_chemical_formula_sum "Si O2"
_cell_formula_units_Z 48
_cell_length_a 28.204724
_cell_length_b 9.784184
_cell_length_c 8.965623
_cell_angle_alpha 90.000000
_cell_angle_beta 90.000000
_cell_angle_gamma 90.000000
_cell_volume 2474.155199
_symmetry_space_group_name_H-M "P M N A"
_symmetry_group_IT_number 53
_symmetry_cell_setting 'orthorhombic'
loop_
_space_group_symop_operation_xyz
x,y,z
1/2-x,-y,1/2+z
x,-y,-z
1/2-x,y,1/2-z
-x,-y,-z
1/2+x,y,1/2-z
-x,y,z
1/2+x,-y,1/2+z
loop_
_atom_site_type_symbol
_atom_site_label
_atom_site_fract_x
_atom_site_fract_y
_atom_site_fract_z
Si Si1 0.051723 0.911049 0.145724
Si Si2 0.298036 0.731994 0.172484
Si Si3 0.860706 0.984033 0.329616
Si Si4 0.448085 0.405562 0.644293
Si Si5 0.149383 0.506475 0.820579
Si Si6 0.301237 0.752535 0.821003
O O1 0.089709 0.989604 0.245750
O O2 0.063595 0.752790 0.106196
O O3 0.000000 0.916160 0.224958
O O4 0.049778 0.000000 0.000000
O O5 0.250000 0.783588 0.250000
O O6 0.338282 0.839733 0.212870
O O7 0.311045 0.588823 0.247009
O O8 0.294202 0.717786 0.994586
O O9 0.874363 0.000000 0.500000
O O10 0.822242 0.098391 0.287439
O O11 0.450830 0.500000 0.500000
O O12 0.500000 0.416440 0.725928
O O13 0.403341 0.463264 0.738595
O O14 0.160623 0.655871 0.759343
O O15 0.152516 0.500000 0.000000
O O16 0.250000 0.738770 0.750000
#
# Coordination Sequence:
#
# PCOD8221356 Si02
#       6
#     8   8   8   8   8   8
#     4  10  21  37  62  92 120 155 200 246 290 348
#     4  11  22  40  61  83 115 153 198 244 293 352
#     4  10  23  40  59  86 119 157 192 241 299 350
#     4   9  19  36  59  88 121 153 193 243 293 342
#     4  11  22  37  60  89 115 156 194 240 296 346
#     4  11  24  40  59  86 119 154 195 245 292 351
#
# _framework density 19.400561
#
# number of rings (size 3 to 8) (size 9 to 14) (size 15 to 20)
#    0.000    1.667    1.667    2.500    4.667    1.667 
#    0.000    0.000    0.000    3.000    0.000    0.000 
#    0.000    0.000    0.000    0.000    0.000    0.000 
#
# Total GULP energy -594903.988094 kJ/mol
# GULP energy per Si atom -12393.833085 kJ/mol
# Density = 1.935640 g / cm^3
# Si number density = 19.400561 Si / 1000 Ang^3
#
#
#
# Elastic Constant Matrix: (Units=GPa)
#
#
# Indices 1 2 3 4 5 6 
#
# 1 143.2491 28.8503 50.9645 0.0000 0.0000 0.0000
# 2 28.8503 78.8038 33.3917 0.0000 0.0000 0.0000
# 3 50.9645 33.3917 76.8428 0.0000 0.0000 0.0000
# 4 0.0000 0.0000 0.0000 25.9887 0.0000 0.0000
# 5 0.0000 0.0000 0.0000 0.0000 28.8137 0.0000
# 6 0.0000 0.0000 0.0000 0.0000 0.0000 -19.3300
#
#
#
# Elastic Compliance Matrix: (Units=1/GPa)
#
#
# Indices 1 2 3 4 5 6 
#
# 1 0.009195 -0.000959 -0.005682 0.000000 0.000000 0.000000
# 2 -0.000959 0.015654 -0.006166 0.000000 0.000000 0.000000
# 3 -0.005682 -0.006166 0.019462 0.000000 0.000000 0.000000
# 4 0.000000 0.000000 0.000000 0.038478 0.000000 0.000000
# 5 0.000000 0.000000 0.000000 0.000000 0.034706 0.000000
# 6 0.000000 0.000000 0.000000 0.000000 0.000000 -0.051733
#
#
# Mechanical properties :
#
#
# Convention : Reuss Voigt Hill
#
# Bulk Modulus (GPa) = 53.48629 58.36762 55.92696
# Shear Modulus (GPa) = 51.22527 19.47377 35.34952
#
# Velocity S-wave (km/s) = 5.14406 3.17168 4.27322
# Velocity P-wave (km/s) = 7.93165 6.60027 7.29639
#
# Compressibility (1/GPa) = 0.01869638
#
# Stress axis : x y z
#
# Youngs Moduli (GPa) = 108.74886 63.88293 51.38310
#
# Poissons Ratio (x) = 0.06125 0.29196
# Poissons Ratio (y) = 0.10427 0.31684
# Poissons Ratio (z) = 0.61792 0.39392
#
# Static dielectric constant tensor:
#      x y z
#    x 4.094650 0.000000 0.000000 
#    y 0.000000 4.019290 0.000000 
#    z 0.000000 0.000000 3.329780 
# 
# 
# High freq. dielectric constant tensor:
#      x y z
#    x 1.778410 0.000000 0.000000 
#    y 0.000000 1.770930 0.000000 
#    z 0.000000 0.000000 1.727380 
# 
# From -- ./inp_files/13001.got.cif
#   From: 2010.03.12/outbox.cif.g09.slc.cpg/sg53_7_cif.got.tgz:13001.got - 2010.04.16 14:36:59.
