data_PCOD8221539
_publ_section_title
;
Structure prediction by ZEFSAII (Michael W. Deem and Ramdas Pophale) SiO2 
 PCOD8221539
Probable space group: P M N A
;
_chemical_formula_sum "Si O2"
_cell_formula_units_Z 56
_cell_length_a 14.807954
_cell_length_b 12.844744
_cell_length_c 14.220527
_cell_angle_alpha 90.000000
_cell_angle_beta 90.000000
_cell_angle_gamma 90.000000
_cell_volume 2704.806497
_symmetry_space_group_name_H-M "P M N A"
_symmetry_group_IT_number 53
_symmetry_cell_setting 'orthorhombic'
loop_
_space_group_symop_operation_xyz
x,y,z
1/2-x,-y,1/2+z
x,-y,-z
1/2-x,y,1/2-z
-x,-y,-z
1/2+x,y,1/2-z
-x,y,z
1/2+x,-y,1/2+z
loop_
_atom_site_type_symbol
_atom_site_label
_atom_site_fract_x
_atom_site_fract_y
_atom_site_fract_z
Si Si1 0.600688 0.100198 0.106389
Si Si2 0.227596 0.381020 0.475444
Si Si3 0.653403 0.920427 0.225010
Si Si4 0.105480 0.277993 0.105591
Si Si5 0.602971 0.955264 0.594910
Si Si6 0.600195 0.322852 0.187361
Si Si7 0.898395 0.774846 0.428078
O O1 0.500000 0.050386 0.107878
O O2 0.603093 0.199348 0.173447
O O3 0.667261 0.013700 0.149238
O O4 0.628599 0.132460 0.000756
O O5 0.239776 0.500000 0.500000
O O6 0.327872 0.331513 0.469796
O O7 0.175391 0.377483 0.376006
O O8 0.169980 0.321188 0.556252
O O9 0.750000 0.874993 0.250000
O O10 0.602773 0.822364 0.177095
O O11 0.606128 0.963575 0.318531
O O12 0.141773 0.159262 0.118645
O O13 0.119211 0.341076 0.202759
O O14 0.000000 0.284822 0.073255
O O15 0.500000 0.935127 0.569973
O O16 0.650657 0.000000 0.500000
O O17 0.500000 0.365151 0.160663
O O18 0.000000 0.735614 0.451067
#
# Coordination Sequence:
#
# PCOD8221539 Si02
#       7
#     8   8   8   8   8   8   8
#     4   9  17  33  57  86 120 157 196 245 306 374
#     4  11  24  40  65  92 123 162 215 279 328 379
#     4  12  24  32  55  91 130 168 202 249 305 385
#     4  10  21  39  65  93 128 168 210 260 316 386
#     4  10  22  38  60  87 123 169 211 248 298 372
#     4   9  18  35  62  94 120 155 207 263 320 377
#     4  10  23  41  62  88 126 166 209 263 324 383
#
# _framework density 20.703883999999999
#
# number of rings (size 3 to 8) (size 9 to 14) (size 15 to 20)
#    0.000    1.857    1.429    3.429    6.000    2.571 
#    0.000    1.429    0.000    0.000    0.000    0.000 
#    0.000    0.000    0.000    0.000    0.000    0.000 
#
# Total GULP energy -694092.346791 kJ/mol
# GULP energy per Si atom -12394.506193 kJ/mol
# Density = 2.065676 g / cm^3
# Si number density = 20.703884 Si / 1000 Ang^3
#
#
#
# Elastic Constant Matrix: (Units=GPa)
#
#
# Indices 1 2 3 4 5 6 
#
# 1 93.3357 41.2162 30.9694 0.0000 0.0000 0.0000
# 2 41.2162 89.3478 60.6980 0.0000 0.0000 0.0000
# 3 30.9694 60.6980 90.2801 0.0000 0.0000 0.0000
# 4 0.0000 0.0000 0.0000 20.6742 0.0000 0.0000
# 5 0.0000 0.0000 0.0000 0.0000 27.3918 0.0000
# 6 0.0000 0.0000 0.0000 0.0000 0.0000 17.2737
#
#
#
# Elastic Compliance Matrix: (Units=1/GPa)
#
#
# Indices 1 2 3 4 5 6 
#
# 1 0.013487 -0.005667 -0.000817 0.000000 0.000000 0.000000
# 2 -0.005667 0.022983 -0.013508 0.000000 0.000000 0.000000
# 3 -0.000817 -0.013508 0.020439 0.000000 0.000000 0.000000
# 4 0.000000 0.000000 0.000000 0.048369 0.000000 0.000000
# 5 0.000000 0.000000 0.000000 0.000000 0.036507 0.000000
# 6 0.000000 0.000000 0.000000 0.000000 0.000000 0.057891
#
#
# Mechanical properties :
#
#
# Convention : Reuss Voigt Hill
#
# Bulk Modulus (GPa) = 59.08195 59.85898 59.47047
# Shear Modulus (GPa) = 20.38292 22.40661 21.39477
#
# Velocity S-wave (km/s) = 3.14107 3.29331 3.21809
# Velocity P-wave (km/s) = 6.46171 6.59060 6.52647
#
# Compressibility (1/GPa) = 0.01692564
#
# Stress axis : x y z
#
# Youngs Moduli (GPa) = 74.14285 43.50999 48.92652
#
# Poissons Ratio (x) = 0.24657 0.03995
# Poissons Ratio (y) = 0.42017 0.66091
# Poissons Ratio (z) = 0.06054 0.58775
#
# Static dielectric constant tensor:
#      x y z
#    x 3.749540 0.000000 0.000000 
#    y 0.000000 3.365540 0.000000 
#    z 0.000000 0.000000 3.770340 
# 
# 
# High freq. dielectric constant tensor:
#      x y z
#    x 1.812920 0.000000 0.000000 
#    y 0.000000 1.766340 0.000000 
#    z 0.000000 0.000000 1.802110 
# 
# From -- ./inp_files/22847.got.cif
#   From: 2010.03.12/outbox.cif.g09.slc.cpg/sg53_12_cif.got.tgz:22847.got - 2010.04.16 14:36:59.
