data_PCOD8221324
_publ_section_title
;
Structure prediction by ZEFSAII (Michael W. Deem and Ramdas Pophale) SiO2 
 PCOD8221324
Probable space group: P M N A
;
_chemical_formula_sum "Si O2"
_cell_formula_units_Z 32
_cell_length_a 8.931274
_cell_length_b 7.336084
_cell_length_c 24.024369
_cell_angle_alpha 90.000000
_cell_angle_beta 90.000000
_cell_angle_gamma 90.000000
_cell_volume 1574.090502
_symmetry_space_group_name_H-M "P M N A"
_symmetry_group_IT_number 53
_symmetry_cell_setting 'orthorhombic'
loop_
_space_group_symop_operation_xyz
x,y,z
1/2-x,-y,1/2+z
x,-y,-z
1/2-x,y,1/2-z
-x,-y,-z
1/2+x,y,1/2-z
-x,y,z
1/2+x,-y,1/2+z
loop_
_atom_site_type_symbol
_atom_site_label
_atom_site_fract_x
_atom_site_fract_y
_atom_site_fract_z
Si Si1 0.835276 0.284419 0.496951
Si Si2 0.173966 0.275511 0.894155
Si Si3 0.324715 0.959884 0.692652
Si Si4 0.177584 0.658050 0.623996
O O1 0.846719 0.500000 0.500000
O O2 0.723191 0.209101 0.543937
O O3 0.778684 0.241177 0.434330
O O4 0.000000 0.199291 0.507636
O O5 0.211830 0.114668 0.852029
O O6 0.264610 0.451575 0.874237
O O7 0.000000 0.325032 0.895580
O O8 0.250000 0.022162 0.750000
O O9 0.500000 0.931845 0.701368
O O10 0.253895 0.768628 0.673664
O O11 0.000000 0.653828 0.632029
#
# Coordination Sequence:
#
# PCOD8221324 Si02
#       4
#     8   8   8   8
#     4   8  16  32  55  85 117 150 187 225 277 342
#     4  10  21  37  59  87 118 151 188 235 287 338
#     4  11  25  42  59  82 112 149 195 240 283 335
#     4  10  21  38  61  87 117 152 188 232 284 339
#
# _framework density 20.329201000000001
#
# number of rings (size 3 to 8) (size 9 to 14) (size 15 to 20)
#    0.000    2.250    0.000    3.750    0.000   11.500 
#    0.000    7.500    0.000    0.000    0.000    0.000 
#    0.000    0.000    0.000    0.000    0.000    0.000 
#
# Total GULP energy -396784.892873 kJ/mol
# GULP energy per Si atom -12399.527902 kJ/mol
# Density = 2.028293 g / cm^3
# Si number density = 20.329201 Si / 1000 Ang^3
#
#
#
# Elastic Constant Matrix: (Units=GPa)
#
#
# Indices 1 2 3 4 5 6 
#
# 1 94.3984 29.2971 37.0004 0.0000 0.0000 0.0000
# 2 29.2971 51.0512 11.3618 0.0000 0.0000 0.0000
# 3 37.0004 11.3618 84.3091 0.0000 0.0000 0.0000
# 4 0.0000 0.0000 0.0000 29.4010 0.0000 0.0000
# 5 0.0000 0.0000 0.0000 0.0000 38.2549 0.0000
# 6 0.0000 0.0000 0.0000 0.0000 0.0000 -10.9287
#
#
#
# Elastic Compliance Matrix: (Units=1/GPa)
#
#
# Indices 1 2 3 4 5 6 
#
# 1 0.015100 -0.007413 -0.005628 0.000000 0.000000 0.000000
# 2 -0.007413 0.023833 0.000041 0.000000 0.000000 0.000000
# 3 -0.005628 0.000041 0.014325 0.000000 0.000000 0.000000
# 4 0.000000 0.000000 0.000000 0.034012 0.000000 0.000000
# 5 0.000000 0.000000 0.000000 0.000000 0.026140 0.000000
# 6 0.000000 0.000000 0.000000 0.000000 0.000000 -0.091502
#
#
# Mechanical properties :
#
#
# Convention : Reuss Voigt Hill
#
# Bulk Modulus (GPa) = 36.68417 42.78635 39.73526
# Shear Modulus (GPa) = 87.72789 21.48541 54.60665
#
# Velocity S-wave (km/s) = 6.57627 3.25449 5.18840
# Velocity P-wave (km/s) = 8.70329 5.93420 7.44856
#
# Compressibility (1/GPa) = 0.02725971
#
# Stress axis : x y z
#
# Youngs Moduli (GPa) = 66.22531 41.95843 69.80613
#
# Poissons Ratio (x) = 0.31104 0.39286
# Poissons Ratio (y) = 0.49093 -0.00290
# Poissons Ratio (z) = 0.37271 -0.00174
#
# Static dielectric constant tensor:
#      x y z
#    x 3.728320 0.000000 0.000000 
#    y 0.000000 3.428260 0.000000 
#    z 0.000000 0.000000 4.095000 
# 
# 
# High freq. dielectric constant tensor:
#      x y z
#    x 1.799460 0.000000 0.000000 
#    y 0.000000 1.785310 0.000000 
#    z 0.000000 0.000000 1.798370 
# 
# From -- ./inp_files/30004.got.cif
#   From: 2010.03.12/outbox.cif.g09.slc.cpg/sg53_16_cif.got.tgz:30004.got - 2010.04.16 14:36:59.
