data_PCOD8221824
_publ_section_title
;
Structure prediction by ZEFSAII (Michael W. Deem and Ramdas Pophale) SiO2 
 PCOD8221824
Probable space group: P M N A
;
_chemical_formula_sum "Si O2"
_cell_formula_units_Z 56
_cell_length_a 14.873041
_cell_length_b 12.289223
_cell_length_c 14.244256
_cell_angle_alpha 90.000000
_cell_angle_beta 90.000000
_cell_angle_gamma 90.000000
_cell_volume 2603.538297
_symmetry_space_group_name_H-M "P M N A"
_symmetry_group_IT_number 53
_symmetry_cell_setting 'orthorhombic'
loop_
_space_group_symop_operation_xyz
x,y,z
1/2-x,-y,1/2+z
x,-y,-z
1/2-x,y,1/2-z
-x,-y,-z
1/2+x,y,1/2-z
-x,y,z
1/2+x,-y,1/2+z
loop_
_atom_site_type_symbol
_atom_site_label
_atom_site_fract_x
_atom_site_fract_y
_atom_site_fract_z
Si Si1 0.603190 0.973222 0.268913
Si Si2 0.746599 0.356691 0.360118
Si Si3 0.752411 0.396694 0.860502
Si Si4 0.098500 0.818393 0.884434
Si Si5 0.656227 0.815703 0.423000
Si Si6 0.846649 0.908036 0.431765
Si Si7 0.602214 0.681244 0.010733
O O1 0.500000 0.989067 0.242790
O O2 0.616202 0.863679 0.327910
O O3 0.656797 0.955318 0.173381
O O4 0.638159 0.080164 0.324883
O O5 0.750000 0.336590 0.250000
O O6 0.716967 0.480392 0.381228
O O7 0.666349 0.281059 0.392855
O O8 0.840157 0.325867 0.413181
O O9 0.750000 0.371480 0.750000
O O10 0.822168 0.312908 0.908201
O O11 0.653254 0.386187 0.907498
O O12 0.000000 0.786013 0.844186
O O13 0.085743 0.845051 0.994885
O O14 0.746085 0.875405 0.456735
O O15 0.908869 0.803515 0.449745
O O16 0.883886 0.000000 0.500000
O O17 0.500000 0.636651 0.994420
#
# Coordination Sequence:
#
# PCOD8221824 Si02
#       7
#     8   8   8   8   8   8   8
#     4  11  24  39  61  93 130 167 216 273 326 399
#     4  11  25  44  67  95 136 178 227 283 343 402
#     4  10  22  43  68  96 135 174 221 285 342 400
#     4  11  24  42  65  95 132 176 220 267 334 407
#     4  11  21  39  67  92 123 169 219 266 325 399
#     4  11  23  39  62  92 133 172 214 267 334 393
#     4  11  24  43  72 101 134 180 231 284 345 411
#
# _framework density 21.509191000000001
#
# number of rings (size 3 to 8) (size 9 to 14) (size 15 to 20)
#    0.000    1.143    2.857    4.714    2.000    4.000 
#    0.000    5.000    0.000    0.000    0.000    0.000 
#    0.000    0.000    0.000    0.000    0.000    0.000 
#
# Total GULP energy -694100.916145 kJ/mol
# GULP energy per Si atom -12394.659217 kJ/mol
# Density = 2.146024 g / cm^3
# Si number density = 21.509191 Si / 1000 Ang^3
#
#
#
# Elastic Constant Matrix: (Units=GPa)
#
#
# Indices 1 2 3 4 5 6 
#
# 1 96.7822 32.7356 32.1160 0.0000 0.0000 0.0000
# 2 32.7356 131.8980 49.2429 0.0000 0.0000 0.0000
# 3 32.1160 49.2429 154.2085 0.0000 0.0000 0.0000
# 4 0.0000 0.0000 0.0000 32.3362 0.0000 0.0000
# 5 0.0000 0.0000 0.0000 0.0000 6.2323 0.0000
# 6 0.0000 0.0000 0.0000 0.0000 0.0000 15.8278
#
#
#
# Elastic Compliance Matrix: (Units=1/GPa)
#
#
# Indices 1 2 3 4 5 6 
#
# 1 0.011663 -0.002257 -0.001708 0.000000 0.000000 0.000000
# 2 -0.002257 0.009045 -0.002418 0.000000 0.000000 0.000000
# 3 -0.001708 -0.002418 0.007613 0.000000 0.000000 0.000000
# 4 0.000000 0.000000 0.000000 0.030925 0.000000 0.000000
# 5 0.000000 0.000000 0.000000 0.000000 0.160455 0.000000
# 6 0.000000 0.000000 0.000000 0.000000 0.000000 0.063180
#
#
# Mechanical properties :
#
#
# Convention : Reuss Voigt Hill
#
# Bulk Modulus (GPa) = 64.29427 67.89751 66.09589
# Shear Modulus (GPa) = 16.62061 28.79886 22.70973
#
# Velocity S-wave (km/s) = 2.78280 3.66308 3.25286
# Velocity P-wave (km/s) = 6.34679 7.03748 6.70104
#
# Compressibility (1/GPa) = 0.01555349
#
# Stress axis : x y z
#
# Youngs Moduli (GPa) = 85.74367 110.56415 131.35987
#
# Poissons Ratio (x) = 0.24952 0.22440
# Poissons Ratio (y) = 0.19350 0.31765
# Poissons Ratio (z) = 0.14647 0.26736
#
# Static dielectric constant tensor:
#      x y z
#    x 3.710600 0.000000 0.000000 
#    y 0.000000 4.043810 0.000000 
#    z 0.000000 0.000000 4.150510 
# 
# 
# High freq. dielectric constant tensor:
#      x y z
#    x 1.828930 0.000000 0.000000 
#    y 0.000000 1.849800 0.000000 
#    z 0.000000 0.000000 1.860330 
# 
# From -- ./inp_files/22802.got.cif
#   From: 2010.03.12/outbox.cif.g09.slc.cpg/sg53_12_cif.got.tgz:22802.got - 2010.04.16 14:36:59.
