data_PCOD8221528
_publ_section_title
;
Structure prediction by ZEFSAII (Michael W. Deem and Ramdas Pophale) SiO2 
 PCOD8221528
Probable space group: P M N A
;
_chemical_formula_sum "Si O2"
_cell_formula_units_Z 24
_cell_length_a 16.553444
_cell_length_b 12.835648
_cell_length_c 4.938192
_cell_angle_alpha 90.000000
_cell_angle_beta 90.000000
_cell_angle_gamma 90.000000
_cell_volume 1049.238298
_symmetry_space_group_name_H-M "P M N A"
_symmetry_group_IT_number 53
_symmetry_cell_setting 'orthorhombic'
loop_
_space_group_symop_operation_xyz
x,y,z
1/2-x,-y,1/2+z
x,-y,-z
1/2-x,y,1/2-z
-x,-y,-z
1/2+x,y,1/2-z
-x,y,z
1/2+x,-y,1/2+z
loop_
_atom_site_type_symbol
_atom_site_label
_atom_site_fract_x
_atom_site_fract_y
_atom_site_fract_z
Si Si1 0.408173 0.292577 0.199136
Si Si2 0.342792 0.928184 0.754853
Si Si3 0.658937 0.598190 0.330133
O O1 0.500000 0.319160 0.277863
O O2 0.399283 0.169396 0.167506
O O3 0.347694 0.310121 0.452194
O O4 0.387095 0.366174 0.941704
O O5 0.250000 0.890333 0.750000
O O6 0.367195 0.000000 0.500000
O O7 0.360643 0.000000 0.000000
O O8 0.621154 0.500000 0.500000
O O9 0.750000 0.571925 0.250000
#
# Coordination Sequence:
#
# PCOD8221528 Si02
#       3
#     8   8   8
#     4  12  26  42  66 101 138 173 214 276 344 400
#     4  10  21  39  64  93 128 173 222 269 320 389
#     4  12  25  45  70  95 128 175 229 276 327 398
#
# _framework density 22.873736000000001
#
# number of rings (size 3 to 8) (size 9 to 14) (size 15 to 20)
#    0.000    0.667    0.000    9.000    0.000    8.000 
#    0.000    0.000    0.000    0.000    0.000    0.000 
#    0.000    0.000    0.000    0.000    0.000    0.000 
#
# Total GULP energy -297313.983630 kJ/mol
# GULP energy per Si atom -12388.082651 kJ/mol
# Density = 2.282167 g / cm^3
# Si number density = 22.873736 Si / 1000 Ang^3
#
#
#
# Elastic Constant Matrix: (Units=GPa)
#
#
# Indices 1 2 3 4 5 6 
#
# 1 68.6744 52.4706 44.6923 0.0000 0.0000 0.0000
# 2 52.4706 75.5505 27.3002 0.0000 0.0000 0.0000
# 3 44.6923 27.3002 168.7000 0.0000 0.0000 0.0000
# 4 0.0000 0.0000 0.0000 63.2764 0.0000 0.0000
# 5 0.0000 0.0000 0.0000 0.0000 4.3405 0.0000
# 6 0.0000 0.0000 0.0000 0.0000 0.0000 41.8896
#
#
#
# Elastic Compliance Matrix: (Units=1/GPa)
#
#
# Indices 1 2 3 4 5 6 
#
# 1 0.035632 -0.022661 -0.005773 0.000000 0.000000 0.000000
# 2 -0.022661 0.028470 0.001396 0.000000 0.000000 0.000000
# 3 -0.005773 0.001396 0.007231 0.000000 0.000000 0.000000
# 4 0.000000 0.000000 0.000000 0.015804 0.000000 0.000000
# 5 0.000000 0.000000 0.000000 0.000000 0.230390 0.000000
# 6 0.000000 0.000000 0.000000 0.000000 0.000000 0.023872
#
#
# Mechanical properties :
#
#
# Convention : Reuss Voigt Hill
#
# Bulk Modulus (GPa) = 57.94280 62.42790 60.18535
# Shear Modulus (GPa) = 12.46175 34.46540 23.46357
#
# Velocity S-wave (km/s) = 2.33664 3.88592 3.20627
# Velocity P-wave (km/s) = 5.71546 6.89097 6.33056
#
# Compressibility (1/GPa) = 0.01725840
#
# Stress axis : x y z
#
# Youngs Moduli (GPa) = 28.06433 35.12464 138.29279
#
# Poissons Ratio (x) = 0.79596 0.79831
# Poissons Ratio (y) = 0.63597 -0.19309
# Poissons Ratio (z) = 0.16200 -0.04904
#
# Static dielectric constant tensor:
#      x y z
#    x 3.767410 0.000000 0.000000 
#    y 0.000000 4.132790 0.000000 
#    z 0.000000 0.000000 4.391800 
# 
# 
# High freq. dielectric constant tensor:
#      x y z
#    x 1.882680 0.000000 0.000000 
#    y 0.000000 1.921840 0.000000 
#    z 0.000000 0.000000 1.925990 
# 
# From -- ./inp_files/1107.got.cif
#   From: 2010.03.12/outbox.cif.g09.slc.cpg/sg53_1_cif.got.tgz:1107.got - 2010.04.16 14:36:59.
