data_PCOD8221802
_publ_section_title
;
Structure prediction by ZEFSAII (Michael W. Deem and Ramdas Pophale) SiO2 
 PCOD8221802
Probable space group: P M N A
;
_chemical_formula_sum "Si O2"
_cell_formula_units_Z 56
_cell_length_a 14.050084
_cell_length_b 9.528289
_cell_length_c 20.533196
_cell_angle_alpha 90.000000
_cell_angle_beta 90.000000
_cell_angle_gamma 90.000000
_cell_volume 2748.845904
_symmetry_space_group_name_H-M "P M N A"
_symmetry_group_IT_number 53
_symmetry_cell_setting 'orthorhombic'
loop_
_space_group_symop_operation_xyz
x,y,z
1/2-x,-y,1/2+z
x,-y,-z
1/2-x,y,1/2-z
-x,-y,-z
1/2+x,y,1/2-z
-x,y,z
1/2+x,-y,1/2+z
loop_
_atom_site_type_symbol
_atom_site_label
_atom_site_fract_x
_atom_site_fract_y
_atom_site_fract_z
Si Si1 0.389912 0.028408 0.809774
Si Si2 0.392397 0.887025 0.336082
Si Si3 0.110637 0.796879 0.875402
Si Si4 0.609401 0.738697 0.764325
Si Si5 0.249211 0.647184 0.528544
Si Si6 0.389397 0.480736 0.128918
Si Si7 0.217194 0.240959 0.607501
O O1 0.500000 0.033597 0.828655
O O2 0.370016 0.102947 0.740683
O O3 0.333947 0.100008 0.868667
O O4 0.348523 0.869449 0.805578
O O5 0.500000 0.836520 0.347197
O O6 0.326165 0.767272 0.367775
O O7 0.375067 0.035799 0.371780
O O8 0.152650 0.727299 0.808369
O O9 0.168230 0.728723 0.934195
O O10 0.000000 0.759760 0.886494
O O11 0.500000 0.782572 0.752796
O O12 0.621930 0.593853 0.801491
O O13 0.289977 0.500000 0.500000
O O14 0.157470 0.614109 0.572862
O O15 0.213656 0.747875 0.470497
O O16 0.500000 0.503295 0.110956
O O17 0.336256 0.626958 0.138949
#
# Coordination Sequence:
#
# PCOD8221802 Si02
#       7
#     8   8   8   8   8   8   8
#     4   9  18  36  62  92 121 150 196 254 309 359
#     4   9  20  39  62  89 121 157 200 253 308 361
#     4   9  19  40  66  89 121 161 203 257 310 357
#     4   8  17  37  65  92 115 151 202 254 308 362
#     4  10  24  40  55  88 123 168 211 243 294 371
#     4  10  22  42  62  86 122 163 206 254 311 364
#     4  11  22  37  59  88 124 164 202 245 300 364
#
# _framework density 20.372185999999999
#
# number of rings (size 3 to 8) (size 9 to 14) (size 15 to 20)
#    0.000    2.571    0.000    2.571    2.000    5.143 
#   10.286    3.571    0.000    2.571    0.000    0.000 
#    0.000    0.000    0.000    0.000    0.000    0.000 
#
# Total GULP energy -694321.683890 kJ/mol
# GULP energy per Si atom -12398.601498 kJ/mol
# Density = 2.032582 g / cm^3
# Si number density = 20.372186 Si / 1000 Ang^3
#
#
#
# Elastic Constant Matrix: (Units=GPa)
#
#
# Indices 1 2 3 4 5 6 
#
# 1 117.2417 55.3792 43.2748 0.0000 0.0000 0.0000
# 2 55.3792 76.3795 49.2225 0.0000 0.0000 0.0000
# 3 43.2748 49.2225 93.6160 0.0000 0.0000 0.0000
# 4 0.0000 0.0000 0.0000 39.1207 0.0000 0.0000
# 5 0.0000 0.0000 0.0000 0.0000 31.3608 0.0000
# 6 0.0000 0.0000 0.0000 0.0000 0.0000 36.2036
#
#
#
# Elastic Compliance Matrix: (Units=1/GPa)
#
#
# Indices 1 2 3 4 5 6 
#
# 1 0.013130 -0.008483 -0.001609 0.000000 0.000000 0.000000
# 2 -0.008483 0.025283 -0.009372 0.000000 0.000000 0.000000
# 3 -0.001609 -0.009372 0.016354 0.000000 0.000000 0.000000
# 4 0.000000 0.000000 0.000000 0.025562 0.000000 0.000000
# 5 0.000000 0.000000 0.000000 0.000000 0.031887 0.000000
# 6 0.000000 0.000000 0.000000 0.000000 0.000000 0.027622
#
#
# Mechanical properties :
#
#
# Convention : Reuss Voigt Hill
#
# Bulk Modulus (GPa) = 63.13975 64.77670 63.95822
# Shear Modulus (GPa) = 27.16706 30.62772 28.89739
#
# Velocity S-wave (km/s) = 3.65572 3.88159 3.77035
# Velocity P-wave (km/s) = 6.99139 7.20796 7.10050
#
# Compressibility (1/GPa) = 0.01583788
#
# Stress axis : x y z
#
# Youngs Moduli (GPa) = 76.15909 39.55201 61.14826
#
# Poissons Ratio (x) = 0.33553 0.09840
# Poissons Ratio (y) = 0.64607 0.57310
# Poissons Ratio (z) = 0.12256 0.37069
#
# Static dielectric constant tensor:
#      x y z
#    x 3.756110 0.000000 0.000000 
#    y 0.000000 3.565420 0.000000 
#    z 0.000000 0.000000 3.623300 
# 
# 
# High freq. dielectric constant tensor:
#      x y z
#    x 1.805210 0.000000 0.000000 
#    y 0.000000 1.783970 0.000000 
#    z 0.000000 0.000000 1.788390 
# 
# From -- ./inp_files/32453.got.cif
#   From: 2010.03.12/outbox.cif.g09.slc.cpg/sg53_17_cif.got.tgz:32453.got - 2010.04.16 14:36:59.
