data_PCOD8221923
_publ_section_title
;
Structure prediction by ZEFSAII (Michael W. Deem and Ramdas Pophale) SiO2 
 PCOD8221923
Probable space group: P M N A
;
_chemical_formula_sum "Si O2"
_cell_formula_units_Z 32
_cell_length_a 25.039848
_cell_length_b 6.290600
_cell_length_c 9.269156
_cell_angle_alpha 90.000000
_cell_angle_beta 90.000000
_cell_angle_gamma 90.000000
_cell_volume 1460.037298
_symmetry_space_group_name_H-M "P M N A"
_symmetry_group_IT_number 53
_symmetry_cell_setting 'orthorhombic'
loop_
_space_group_symop_operation_xyz
x,y,z
1/2-x,-y,1/2+z
x,-y,-z
1/2-x,y,1/2-z
-x,-y,-z
1/2+x,y,1/2-z
-x,y,z
1/2+x,-y,1/2+z
loop_
_atom_site_type_symbol
_atom_site_label
_atom_site_fract_x
_atom_site_fract_y
_atom_site_fract_z
Si Si1 0.907172 0.500000 0.000000
Si Si2 0.386061 0.221661 0.238459
Si Si3 0.659998 0.500000 0.000000
Si Si4 0.800861 0.108479 0.651422
Si Si5 0.000000 0.212284 0.906198
Si Si6 0.000000 0.940756 0.665509
O O1 0.872376 0.630236 0.879424
O O2 0.944842 0.331774 0.924303
O O3 0.449169 0.182700 0.230246
O O4 0.351208 0.002852 0.235147
O O5 0.375728 0.338790 0.088852
O O6 0.692566 0.639752 0.118058
O O7 0.750000 0.074494 0.750000
O O8 0.788888 0.000000 0.500000
O O9 0.000000 0.171013 0.736351
O O10 0.000000 0.000000 0.000000
O O11 0.000000 0.000000 0.500000
#
# Coordination Sequence:
#
# PCOD8221923 Si02
#       6
#     4   8   4   8   4   4
#     4  11  24  40  67  97 135 190 229 277 344 406
#     4  11  25  43  66 105 137 186 231 282 350 417
#     4  10  24  43  69 101 139 167 239 284 334 440
#     4  10  24  48  72  99 136 176 230 294 350 417
#     4  11  22  43  60  94 146 180 234 286 318 408
#     4  12  24  41  69  96 143 189 222 283 352 398
#
# _framework density 21.917248000000001
#
# number of rings (size 3 to 8) (size 9 to 14) (size 15 to 20)
#    0.000    1.250    2.500    3.000    7.000    6.500 
#    0.000    1.250    0.000    0.000    0.000    0.000 
#    0.000    0.000    0.000    0.000    0.000    0.000 
#
# Total GULP energy -396461.410230 kJ/mol
# GULP energy per Si atom -12389.419070 kJ/mol
# Density = 2.186736 g / cm^3
# Si number density = 21.917248 Si / 1000 Ang^3
#
#
#
# Elastic Constant Matrix: (Units=GPa)
#
#
# Indices 1 2 3 4 5 6 
#
# 1 125.8827 44.0125 35.7329 0.0000 0.0000 0.0000
# 2 44.0125 124.9408 41.7408 0.0000 0.0000 0.0000
# 3 35.7329 41.7408 126.1741 0.0000 0.0000 0.0000
# 4 0.0000 0.0000 0.0000 55.0577 0.0000 0.0000
# 5 0.0000 0.0000 0.0000 0.0000 37.6875 0.0000
# 6 0.0000 0.0000 0.0000 0.0000 0.0000 14.1100
#
#
#
# Elastic Compliance Matrix: (Units=1/GPa)
#
#
# Indices 1 2 3 4 5 6 
#
# 1 0.009395 -0.002721 -0.001760 0.000000 0.000000 0.000000
# 2 -0.002721 0.009787 -0.002467 0.000000 0.000000 0.000000
# 3 -0.001760 -0.002467 0.009240 0.000000 0.000000 0.000000
# 4 0.000000 0.000000 0.000000 0.018163 0.000000 0.000000
# 5 0.000000 0.000000 0.000000 0.000000 0.026534 0.000000
# 6 0.000000 0.000000 0.000000 0.000000 0.000000 0.070872
#
#
# Mechanical properties :
#
#
# Convention : Reuss Voigt Hill
#
# Bulk Modulus (GPa) = 68.84948 68.88554 68.86751
# Shear Modulus (GPa) = 30.72589 38.40514 34.56551
#
# Velocity S-wave (km/s) = 3.74826 4.19056 3.97557
# Velocity P-wave (km/s) = 7.08620 7.41030 7.25006
#
# Compressibility (1/GPa) = 0.01452444
#
# Stress axis : x y z
#
# Youngs Moduli (GPa) = 106.43830 102.18041 108.22276
#
# Poissons Ratio (x) = 0.27808 0.19052
# Poissons Ratio (y) = 0.28967 0.26697
# Poissons Ratio (z) = 0.18738 0.25207
#
# Static dielectric constant tensor:
#      x y z
#    x 3.838040 0.000000 0.000000 
#    y 0.000000 4.545630 0.000000 
#    z 0.000000 0.000000 4.295000 
# 
# 
# High freq. dielectric constant tensor:
#      x y z
#    x 1.840040 0.000000 0.000000 
#    y 0.000000 1.874670 0.000000 
#    z 0.000000 0.000000 1.880320 
# 
# From -- ./inp_files/12806.got.cif
#   From: 2010.03.12/outbox.cif.g09.slc.cpg/sg53_7_cif.got.tgz:12806.got - 2010.04.16 14:36:59.
