data_PCOD8221939
_publ_section_title
;
Structure prediction by ZEFSAII (Michael W. Deem and Ramdas Pophale) SiO2 
 PCOD8221939
Probable space group: P M N A
;
_chemical_formula_sum "Si O2"
_cell_formula_units_Z 20
_cell_length_a 27.768182
_cell_length_b 5.556586
_cell_length_c 5.083013
_cell_angle_alpha 90.000000
_cell_angle_beta 90.000000
_cell_angle_gamma 90.000000
_cell_volume 784.290055
_symmetry_space_group_name_H-M "P M N A"
_symmetry_group_IT_number 53
_symmetry_cell_setting 'orthorhombic'
loop_
_space_group_symop_operation_xyz
x,y,z
1/2-x,-y,1/2+z
x,-y,-z
1/2-x,y,1/2-z
-x,-y,-z
1/2+x,y,1/2-z
-x,y,z
1/2+x,-y,1/2+z
loop_
_atom_site_type_symbol
_atom_site_label
_atom_site_fract_x
_atom_site_fract_y
_atom_site_fract_z
Si Si1 0.750000 0.344410 0.750000
Si Si2 0.103771 0.658466 0.760962
Si Si3 0.673134 0.000000 0.500000
Si Si4 0.000000 0.249398 0.344526
O O1 0.768013 0.500000 0.500000
O O2 0.705278 0.187655 0.657761
O O3 0.107471 0.500000 0.500000
O O4 0.049295 0.750961 0.822178
O O5 0.122018 0.500000 0.000000
O O6 0.139927 0.884465 0.769112
O O7 0.000000 0.500000 0.500000
O O8 0.000000 0.000000 0.500000
#
# Coordination Sequence:
#
# PCOD8221939 Si02
#       4
#     4   8   4   4
#     4  12  30  56  78 114 160 204 272 342 420 488
#     4  11  28  50  79 119 159 209 268 327 400 490
#     4  12  30  51  86 112 160 213 272 338 418 490
#     4  10  25  51  79 119 172 214 268 333 407 490
#
# _framework density 25.500768999999998
#
# number of rings (size 3 to 8) (size 9 to 14) (size 15 to 20)
#    0.000    0.800    0.000    3.000   11.200   16.800 
#    0.000    0.000    0.000    0.000    0.000    0.000 
#    0.000    0.000    0.000    0.000    0.000    0.000 
#
# Total GULP energy -247921.515024 kJ/mol
# GULP energy per Si atom -12396.075751 kJ/mol
# Density = 2.544273 g / cm^3
# Si number density = 25.500769 Si / 1000 Ang^3
#
#
#
# Elastic Constant Matrix: (Units=GPa)
#
#
# Indices 1 2 3 4 5 6 
#
# 1 220.9205 85.8981 58.0470 0.0000 0.0000 0.0000
# 2 85.8981 168.8128 67.5359 0.0000 0.0000 0.0000
# 3 58.0470 67.5359 160.3114 0.0000 0.0000 0.0000
# 4 0.0000 0.0000 0.0000 39.8552 0.0000 0.0000
# 5 0.0000 0.0000 0.0000 0.0000 39.1669 0.0000
# 6 0.0000 0.0000 0.0000 0.0000 0.0000 49.5755
#
#
#
# Elastic Compliance Matrix: (Units=1/GPa)
#
#
# Indices 1 2 3 4 5 6 
#
# 1 0.005780 -0.002530 -0.001027 0.000000 0.000000 0.000000
# 2 -0.002530 0.008232 -0.002552 0.000000 0.000000 0.000000
# 3 -0.001027 -0.002552 0.007685 0.000000 0.000000 0.000000
# 4 0.000000 0.000000 0.000000 0.025091 0.000000 0.000000
# 5 0.000000 0.000000 0.000000 0.000000 0.025532 0.000000
# 6 0.000000 0.000000 0.000000 0.000000 0.000000 0.020171
#
#
# Mechanical properties :
#
#
# Convention : Reuss Voigt Hill
#
# Bulk Modulus (GPa) = 105.49821 108.11186 106.80503
# Shear Modulus (GPa) = 46.35262 48.29043 47.32153
#
# Velocity S-wave (km/s) = 4.26807 4.35637 4.31245
# Velocity P-wave (km/s) = 8.10857 8.23356 8.17131
#
# Compressibility (1/GPa) = 0.00947883
#
# Stress axis : x y z
#
# Youngs Moduli (GPa) = 173.00479 121.47520 130.12791
#
# Poissons Ratio (x) = 0.30737 0.13364
# Poissons Ratio (y) = 0.43776 0.33206
# Poissons Ratio (z) = 0.17767 0.30998
#
# Static dielectric constant tensor:
#      x y z
#    x 5.254600 0.000000 0.000000 
#    y 0.000000 4.932850 0.000000 
#    z 0.000000 0.000000 4.537470 
# 
# 
# High freq. dielectric constant tensor:
#      x y z
#    x 2.050400 0.000000 0.000000 
#    y 0.000000 2.040810 0.000000 
#    z 0.000000 0.000000 2.001800 
# 
# From -- ./inp_files/4809.got.cif
#   From: 2010.03.12/outbox.cif.g09.slc.cpg/sg53_3_cif.got.tgz:4809.got - 2010.04.16 14:36:59.
