data_PCOD8221080
_publ_section_title
;
Structure prediction by ZEFSAII (Michael W. Deem and Ramdas Pophale) SiO2 
 PCOD8221080
Probable space group: P M N A
;
_chemical_formula_sum "Si O2"
_cell_formula_units_Z 40
_cell_length_a 9.555940
_cell_length_b 25.713273
_cell_length_c 8.981847
_cell_angle_alpha 90.000000
_cell_angle_beta 90.000000
_cell_angle_gamma 90.000000
_cell_volume 2206.969991
_symmetry_space_group_name_H-M "P M N A"
_symmetry_group_IT_number 53
_symmetry_cell_setting 'orthorhombic'
loop_
_space_group_symop_operation_xyz
x,y,z
1/2-x,-y,1/2+z
x,-y,-z
1/2-x,y,1/2-z
-x,-y,-z
1/2+x,y,1/2-z
-x,y,z
1/2+x,-y,1/2+z
loop_
_atom_site_type_symbol
_atom_site_label
_atom_site_fract_x
_atom_site_fract_y
_atom_site_fract_z
Si Si1 0.662734 0.352852 0.599981
Si Si2 0.338986 0.161524 0.602384
Si Si3 0.836859 0.549343 0.900453
Si Si4 0.660523 0.954769 0.394104
Si Si5 0.837092 0.255164 0.101634
O O1 0.750000 0.356703 0.750000
O O2 0.500000 0.356072 0.642833
O O3 0.706022 0.399550 0.491460
O O4 0.699686 0.299483 0.517167
O O5 0.250000 0.171796 0.750000
O O6 0.500000 0.171554 0.646704
O O7 0.317355 0.103076 0.538611
O O8 0.292515 0.200356 0.471620
O O9 0.750000 0.547304 0.750000
O O10 0.000000 0.549614 0.858232
O O11 0.797079 0.500000 0.000000
O O12 0.750000 0.960808 0.250000
O O13 0.500000 0.964412 0.352248
O O14 0.716541 0.000000 0.500000
O O15 0.750000 0.264498 0.250000
O O16 0.000000 0.256359 0.144818
#
# Coordination Sequence:
#
# PCOD8221080 Si02
#       5
#     8   8   8   8   8
#     4  10  21  36  54  77 103 132 168 207 247 294
#     4   9  18  33  51  71  96 127 163 201 242 290
#     4  10  21  36  54  78 106 135 170 209 248 294
#     4   9  18  32  49  70  97 127 160 200 243 288
#     4  10  21  35  51  74 102 130 163 203 246 293
#
# _framework density 18.124396999999998
#
# number of rings (size 3 to 8) (size 9 to 14) (size 15 to 20)
#    0.000    2.400    0.000    1.800    0.000    4.000 
#    0.000    0.000    0.000    0.000    0.000    0.000 
#    0.000    0.000    0.000    0.000    0.000    0.000 
#
# Total GULP energy -496046.527996 kJ/mol
# GULP energy per Si atom -12401.163200 kJ/mol
# Density = 1.808314 g / cm^3
# Si number density = 18.124397 Si / 1000 Ang^3
#
#
#
# Elastic Constant Matrix: (Units=GPa)
#
#
# Indices 1 2 3 4 5 6 
#
# 1 60.9602 49.1210 66.6368 0.0000 0.0000 0.0000
# 2 49.1210 145.7657 76.7262 0.0000 0.0000 0.0000
# 3 66.6368 76.7262 132.3446 0.0000 0.0000 0.0000
# 4 0.0000 0.0000 0.0000 30.0142 0.0000 0.0000
# 5 0.0000 0.0000 0.0000 0.0000 36.1963 0.0000
# 6 0.0000 0.0000 0.0000 0.0000 0.0000 3.9995
#
#
#
# Elastic Compliance Matrix: (Units=1/GPa)
#
#
# Indices 1 2 3 4 5 6 
#
# 1 0.037991 -0.003934 -0.016848 0.000000 0.000000 0.000000
# 2 -0.003934 0.010281 -0.003979 0.000000 0.000000 0.000000
# 3 -0.016848 -0.003979 0.018346 0.000000 0.000000 0.000000
# 4 0.000000 0.000000 0.000000 0.033318 0.000000 0.000000
# 5 0.000000 0.000000 0.000000 0.000000 0.027627 0.000000
# 6 0.000000 0.000000 0.000000 0.000000 0.000000 0.250033
#
#
# Mechanical properties :
#
#
# Convention : Reuss Voigt Hill
#
# Bulk Modulus (GPa) = 58.49693 80.44873 69.47283
# Shear Modulus (GPa) = 11.55221 23.81442 17.68332
#
# Velocity S-wave (km/s) = 2.52739 3.62877 3.12695
# Velocity P-wave (km/s) = 6.39236 7.87659 7.17296
#
# Compressibility (1/GPa) = 0.01709492
#
# Stress axis : x y z
#
# Youngs Moduli (GPa) = 26.32183 97.27014 54.50736
#
# Poissons Ratio (x) = 0.38269 0.91835
# Poissons Ratio (y) = 0.10356 0.21690
# Poissons Ratio (z) = 0.44347 0.38706
#
# Static dielectric constant tensor:
#      x y z
#    x 3.317960 0.000000 0.000000 
#    y 0.000000 3.847210 0.000000 
#    z 0.000000 0.000000 3.178760 
# 
# 
# High freq. dielectric constant tensor:
#      x y z
#    x 1.699220 0.000000 0.000000 
#    y 0.000000 1.726170 0.000000 
#    z 0.000000 0.000000 1.693400 
# 
# From -- ./inp_files/748.got.cif
#   From: 2010.03.12/outbox.cif.g09.slc.cpg/sg53_1_cif.got.tgz:748.got - 2010.04.16 14:36:59.
