data_PCOD8221278
_publ_section_title
;
Structure prediction by ZEFSAII (Michael W. Deem and Ramdas Pophale) SiO2 
 PCOD8221278
Probable space group: P M N A
;
_chemical_formula_sum "Si O2"
_cell_formula_units_Z 40
_cell_length_a 15.382878
_cell_length_b 14.668769
_cell_length_c 8.781279
_cell_angle_alpha 90.000000
_cell_angle_beta 90.000000
_cell_angle_gamma 90.000000
_cell_volume 1981.477025
_symmetry_space_group_name_H-M "P M N A"
_symmetry_group_IT_number 53
_symmetry_cell_setting 'orthorhombic'
loop_
_space_group_symop_operation_xyz
x,y,z
1/2-x,-y,1/2+z
x,-y,-z
1/2-x,y,1/2-z
-x,-y,-z
1/2+x,y,1/2-z
-x,y,z
1/2+x,-y,1/2+z
loop_
_atom_site_type_symbol
_atom_site_label
_atom_site_fract_x
_atom_site_fract_y
_atom_site_fract_z
Si Si1 0.500000 0.897612 0.180986
Si Si2 0.844171 0.772929 0.322304
Si Si3 0.098636 0.393531 0.144031
Si Si4 0.155340 0.413978 0.812307
Si Si5 0.500000 0.897437 0.818415
Si Si6 0.840445 0.777287 0.681535
O O1 0.586942 0.846934 0.239828
O O2 0.500000 0.999944 0.246861
O O3 0.500000 0.897705 0.999708
O O4 0.750000 0.791340 0.250000
O O5 0.881680 0.673351 0.277871
O O6 0.834340 0.778798 0.501543
O O7 0.097928 0.495687 0.214496
O O8 0.138812 0.325184 0.266229
O O9 0.000000 0.366621 0.103414
O O10 0.157451 0.389406 0.992109
O O11 0.250000 0.437030 0.750000
O O12 0.585321 0.845607 0.757552
O O13 0.750000 0.812386 0.750000
#
# Coordination Sequence:
#
# PCOD8221278 Si02
#       6
#     4   8   8   8   4   8
#     4   9  20  38  64  79 124 152 193 247 302 355
#     4  10  22  38  60  91 116 157 201 241 297 354
#     4  11  23  39  60  88 121 162 204 245 295 349
#     4  10  21  37  57  86 120 159 198 238 291 345
#     4   9  20  40  58  91 112 158 195 243 302 359
#     4  11  21  39  63  88 121 157 199 246 296 353
#
# _framework density 20.186962000000001
#
# number of rings (size 3 to 8) (size 9 to 14) (size 15 to 20)
#    0.000    1.800    1.000    4.200    2.800    4.800 
#    0.000    1.000    0.000    8.400    0.000    0.000 
#    0.000    0.000    0.000    0.000    0.000    0.000 
#
# Total GULP energy -495990.685473 kJ/mol
# GULP energy per Si atom -12399.767137 kJ/mol
# Density = 2.014102 g / cm^3
# Si number density = 20.186962 Si / 1000 Ang^3
#
#
#
# Elastic Constant Matrix: (Units=GPa)
#
#
# Indices 1 2 3 4 5 6 
#
# 1 154.8866 69.3007 51.2450 0.0000 0.0000 0.0000
# 2 69.3007 150.2693 35.8009 0.0000 0.0000 0.0000
# 3 51.2450 35.8009 74.3463 0.0000 0.0000 0.0000
# 4 0.0000 0.0000 0.0000 19.6704 0.0000 0.0000
# 5 0.0000 0.0000 0.0000 0.0000 27.5011 0.0000
# 6 0.0000 0.0000 0.0000 0.0000 0.0000 28.9783
#
#
#
# Elastic Compliance Matrix: (Units=1/GPa)
#
#
# Indices 1 2 3 4 5 6 
#
# 1 0.009561 -0.003207 -0.005046 0.000000 0.000000 0.000000
# 2 -0.003207 0.008593 -0.001927 0.000000 0.000000 0.000000
# 3 -0.005046 -0.001927 0.017856 0.000000 0.000000 0.000000
# 4 0.000000 0.000000 0.000000 0.050838 0.000000 0.000000
# 5 0.000000 0.000000 0.000000 0.000000 0.036362 0.000000
# 6 0.000000 0.000000 0.000000 0.000000 0.000000 0.034509
#
#
# Mechanical properties :
#
#
# Convention : Reuss Voigt Hill
#
# Bulk Modulus (GPa) = 63.89729 76.91059 70.40394
# Shear Modulus (GPa) = 27.27841 30.10700 28.69271
#
# Velocity S-wave (km/s) = 3.67998 3.86606 3.77417
# Velocity P-wave (km/s) = 7.05534 7.62302 7.34467
#
# Compressibility (1/GPa) = 0.01565011
#
# Stress axis : x y z
#
# Youngs Moduli (GPa) = 104.59581 116.37501 56.00222
#
# Poissons Ratio (x) = 0.37322 0.28256
# Poissons Ratio (y) = 0.33544 0.10793
# Poissons Ratio (z) = 0.52774 0.22429
#
# Static dielectric constant tensor:
#      x y z
#    x 3.813810 0.000000 0.000000 
#    y 0.000000 3.922010 0.000000 
#    z 0.000000 0.000000 3.432990 
# 
# 
# High freq. dielectric constant tensor:
#      x y z
#    x 1.797380 0.000000 0.000000 
#    y 0.000000 1.790440 0.000000 
#    z 0.000000 0.000000 1.769410 
# 
# From -- ./inp_files/8470.got.cif
#   From: 2010.03.12/outbox.cif.g09.slc.cpg/sg53_5_cif.got.tgz:8470.got - 2010.04.16 14:36:59.
