data_PCOD8221961
_publ_section_title
;
Structure prediction by ZEFSAII (Michael W. Deem and Ramdas Pophale) SiO2 
 PCOD8221961
Probable space group: P M N A
;
_chemical_formula_sum "Si O2"
_cell_formula_units_Z 48
_cell_length_a 18.998025
_cell_length_b 12.317291
_cell_length_c 11.327619
_cell_angle_alpha 90.000000
_cell_angle_beta 90.000000
_cell_angle_gamma 90.000000
_cell_volume 2650.710449
_symmetry_space_group_name_H-M "P M N A"
_symmetry_group_IT_number 53
_symmetry_cell_setting 'orthorhombic'
loop_
_space_group_symop_operation_xyz
x,y,z
1/2-x,-y,1/2+z
x,-y,-z
1/2-x,y,1/2-z
-x,-y,-z
1/2+x,y,1/2-z
-x,y,z
1/2+x,-y,1/2+z
loop_
_atom_site_type_symbol
_atom_site_label
_atom_site_fract_x
_atom_site_fract_y
_atom_site_fract_z
Si Si1 0.079071 0.628033 0.857926
Si Si2 0.078640 0.981321 0.135558
Si Si3 0.744100 0.883243 0.941398
Si Si4 0.144334 0.166834 0.248156
Si Si5 0.186010 0.798357 0.163264
Si Si6 0.579901 0.619545 0.366163
O O1 0.130301 0.707772 0.785323
O O2 0.101823 0.503750 0.837614
O O3 0.000000 0.646441 0.811139
O O4 0.081987 0.651284 0.996511
O O5 0.133290 0.896829 0.189420
O O6 0.000000 0.932080 0.137243
O O7 0.077327 0.090833 0.216500
O O8 0.102033 0.000000 0.000000
O O9 0.797646 0.891334 0.833630
O O10 0.670148 0.839007 0.884897
O O11 0.778410 0.798675 0.033661
O O12 0.730636 0.000000 0.000000
O O13 0.250000 0.807214 0.250000
O O14 0.140205 0.691708 0.193267
O O15 0.500000 0.641549 0.319820
#
# Coordination Sequence:
#
# PCOD8221961 Si02
#       6
#     8   8   8   8   8   8
#     4   9  17  33  57  82 109 138 177 236 287 318
#     4  11  20  31  54  82 105 133 180 233 277 328
#     4  11  21  34  50  78 112 152 181 217 278 335
#     4  11  19  33  56  78 110 142 177 228 278 334
#     4  12  21  35  52  76 113 149 180 221 274 333
#     4   9  18  34  55  81 111 139 178 233 283 324
#
# _framework density 18.108353000000001
#
# number of rings (size 3 to 8) (size 9 to 14) (size 15 to 20)
#    0.000    1.500    5.000    3.000    0.000    2.667 
#    3.000    0.000    0.000   11.000    0.000    2.333 
#    0.000    0.000    0.000    0.000    0.000    0.000 
#
# Total GULP energy -594850.605898 kJ/mol
# GULP energy per Si atom -12392.720956 kJ/mol
# Density = 1.806714 g / cm^3
# Si number density = 18.108353 Si / 1000 Ang^3
#
#
#
# Elastic Constant Matrix: (Units=GPa)
#
#
# Indices 1 2 3 4 5 6 
#
# 1 101.0099 61.5829 38.5457 0.0000 0.0000 0.0000
# 2 61.5829 122.8522 34.3638 0.0000 0.0000 0.0000
# 3 38.5457 34.3638 51.1855 0.0000 0.0000 0.0000
# 4 0.0000 0.0000 0.0000 19.5704 0.0000 0.0000
# 5 0.0000 0.0000 0.0000 0.0000 28.5650 0.0000
# 6 0.0000 0.0000 0.0000 0.0000 0.0000 3.0598
#
#
#
# Elastic Compliance Matrix: (Units=1/GPa)
#
#
# Indices 1 2 3 4 5 6 
#
# 1 0.016890 -0.006044 -0.008662 0.000000 0.000000 0.000000
# 2 -0.006044 0.012185 -0.003629 0.000000 0.000000 0.000000
# 3 -0.008662 -0.003629 0.028496 0.000000 0.000000 0.000000
# 4 0.000000 0.000000 0.000000 0.051098 0.000000 0.000000
# 5 0.000000 0.000000 0.000000 0.000000 0.035008 0.000000
# 6 0.000000 0.000000 0.000000 0.000000 0.000000 0.326814
#
#
# Mechanical properties :
#
#
# Convention : Reuss Voigt Hill
#
# Bulk Modulus (GPa) = 47.84289 60.44806 54.14547
# Shear Modulus (GPa) = 9.72525 19.60938 14.66731
#
# Velocity S-wave (km/s) = 2.31997 3.29430 2.84909
# Velocity P-wave (km/s) = 5.80121 6.92269 6.38662
#
# Compressibility (1/GPa) = 0.02090175
#
# Stress axis : x y z
#
# Youngs Moduli (GPa) = 59.20643 82.07132 35.09294
#
# Poissons Ratio (x) = 0.49602 0.30396
# Poissons Ratio (y) = 0.35783 0.12735
# Poissons Ratio (z) = 0.51283 0.29783
#
# Static dielectric constant tensor:
#      x y z
#    x 3.527690 0.000000 0.000000 
#    y 0.000000 3.399180 0.000000 
#    z 0.000000 0.000000 3.347670 
# 
# 
# High freq. dielectric constant tensor:
#      x y z
#    x 1.704990 0.000000 0.000000 
#    y 0.000000 1.702010 0.000000 
#    z 0.000000 0.000000 1.657520 
# 
# From -- ./inp_files/17770.got.cif
#   From: 2010.03.12/outbox.cif.g09.slc.cpg/sg53_9_cif.got.tgz:17770.got - 2010.04.16 14:36:59.
