data_PCOD8221465
_publ_section_title
;
Structure prediction by ZEFSAII (Michael W. Deem and Ramdas Pophale) SiO2 
 PCOD8221465
Probable space group: P M N A
;
_chemical_formula_sum "Si O2"
_cell_formula_units_Z 56
_cell_length_a 9.008654
_cell_length_b 21.578385
_cell_length_c 14.998529
_cell_angle_alpha 90.000000
_cell_angle_beta 90.000000
_cell_angle_gamma 90.000000
_cell_volume 2915.597114
_symmetry_space_group_name_H-M "P M N A"
_symmetry_group_IT_number 53
_symmetry_cell_setting 'orthorhombic'
loop_
_space_group_symop_operation_xyz
x,y,z
1/2-x,-y,1/2+z
x,-y,-z
1/2-x,y,1/2-z
-x,-y,-z
1/2+x,y,1/2-z
-x,y,z
1/2+x,-y,1/2+z
loop_
_atom_site_type_symbol
_atom_site_label
_atom_site_fract_x
_atom_site_fract_y
_atom_site_fract_z
Si Si1 0.676216 0.505227 0.652011
Si Si2 0.673357 0.186561 0.665411
Si Si3 0.174408 0.267931 0.003944
Si Si4 0.324456 0.066459 0.893164
Si Si5 0.824108 0.198699 0.338481
Si Si6 0.824893 0.069008 0.404781
Si Si7 0.325118 0.591301 0.493292
O O1 0.750000 0.508221 0.750000
O O2 0.500000 0.505178 0.667427
O O3 0.731141 0.444885 0.595444
O O4 0.728214 0.562721 0.588524
O O5 0.750000 0.219619 0.750000
O O6 0.500000 0.183862 0.680812
O O7 0.717201 0.226343 0.580123
O O8 0.735170 0.116651 0.662626
O O9 0.000000 0.263796 0.026854
O O10 0.272907 0.243405 0.083771
O O11 0.226358 0.337891 0.985229
O O12 0.500000 0.078382 0.883868
O O13 0.279912 0.996820 0.859981
O O14 0.267236 0.072674 0.994348
O O15 0.750000 0.225493 0.250000
O O16 0.762148 0.128373 0.351985
O O17 0.000000 0.200550 0.330669
O O18 0.000000 0.072969 0.409309
O O19 0.500000 0.584661 0.492715
#
# Coordination Sequence:
#
# PCOD8221465 Si02
#       7
#     8   8   8   8   8   8   8
#     4   9  17  33  58  85 112 143 177 216 261 309
#     4  11  23  36  53  78 107 141 181 225 274 326
#     4  10  21  39  58  78 108 145 186 227 263 313
#     4   9  16  33  57  78 102 134 175 222 276 331
#     4  11  22  37  56  80 108 142 181 224 274 327
#     4   8  16  31  55  79 102 135 172 219 278 329
#     4   8  17  35  57  79 109 148 180 211 263 317
#
# _framework density 19.207042000000001
#
# number of rings (size 3 to 8) (size 9 to 14) (size 15 to 20)
#    0.000    2.571    1.429    2.571    0.000    2.286 
#    0.000    8.571    0.000    0.000    0.000    0.000 
#    0.000    0.000    0.000    0.000    0.000    0.000 
#
# Total GULP energy -694025.765181 kJ/mol
# GULP energy per Si atom -12393.317235 kJ/mol
# Density = 1.916333 g / cm^3
# Si number density = 19.207042 Si / 1000 Ang^3
#
#
#
# Elastic Constant Matrix: (Units=GPa)
#
#
# Indices 1 2 3 4 5 6 
#
# 1 43.8649 25.2700 39.3573 0.0000 0.0000 0.0000
# 2 25.2700 114.8698 41.8092 0.0000 0.0000 0.0000
# 3 39.3573 41.8092 129.5515 0.0000 0.0000 0.0000
# 4 0.0000 0.0000 0.0000 -27.1754 0.0000 0.0000
# 5 0.0000 0.0000 0.0000 0.0000 32.2564 0.0000
# 6 0.0000 0.0000 0.0000 0.0000 0.0000 20.0935
#
#
#
# Elastic Compliance Matrix: (Units=1/GPa)
#
#
# Indices 1 2 3 4 5 6 
#
# 1 0.032949 -0.004085 -0.008691 0.000000 0.000000 0.000000
# 2 -0.004085 0.010371 -0.002106 0.000000 0.000000 0.000000
# 3 -0.008691 -0.002106 0.011039 0.000000 0.000000 0.000000
# 4 0.000000 0.000000 0.000000 -0.036798 0.000000 0.000000
# 5 0.000000 0.000000 0.000000 0.000000 0.031002 0.000000
# 6 0.000000 0.000000 0.000000 0.000000 0.000000 0.049767
#
#
# Mechanical properties :
#
#
# Convention : Reuss Voigt Hill
#
# Bulk Modulus (GPa) = 40.66035 55.68438 48.17236
# Shear Modulus (GPa) = 36.68599 17.15821 26.92210
#
# Velocity S-wave (km/s) = 4.37513 2.99210 3.74796
# Velocity P-wave (km/s) = 6.83650 6.40246 6.62304
#
# Compressibility (1/GPa) = 0.02459399
#
# Stress axis : x y z
#
# Youngs Moduli (GPa) = 30.35008 96.42640 90.58810
#
# Poissons Ratio (x) = 0.39389 0.78734
# Poissons Ratio (y) = 0.12398 0.19076
# Poissons Ratio (z) = 0.26379 0.20306
#
# Static dielectric constant tensor:
#      x y z
#    x 3.155420 0.000000 0.000000 
#    y 0.000000 3.927720 0.000000 
#    z 0.000000 0.000000 3.756390 
# 
# 
# High freq. dielectric constant tensor:
#      x y z
#    x 1.715310 0.000000 0.000000 
#    y 0.000000 1.749040 0.000000 
#    z 0.000000 0.000000 1.753200 
# 
# From -- ./inp_files/20559.got.cif
#   From: 2010.03.12/outbox.cif.g09.slc.cpg/sg53_11_cif.got.tgz:20559.got - 2010.04.16 14:36:59.
