data_PCOD8221519
_publ_section_title
;
Structure prediction by ZEFSAII (Michael W. Deem and Ramdas Pophale) SiO2 
 PCOD8221519
Probable space group: P M N A
;
_chemical_formula_sum "Si O2"
_cell_formula_units_Z 24
_cell_length_a 16.565514
_cell_length_b 13.542608
_cell_length_c 4.933082
_cell_angle_alpha 90.000000
_cell_angle_beta 90.000000
_cell_angle_gamma 90.000000
_cell_volume 1106.688910
_symmetry_space_group_name_H-M "P M N A"
_symmetry_group_IT_number 53
_symmetry_cell_setting 'orthorhombic'
loop_
_space_group_symop_operation_xyz
x,y,z
1/2-x,-y,1/2+z
x,-y,-z
1/2-x,y,1/2-z
-x,-y,-z
1/2+x,y,1/2-z
-x,y,z
1/2+x,-y,1/2+z
loop_
_atom_site_type_symbol
_atom_site_label
_atom_site_fract_x
_atom_site_fract_y
_atom_site_fract_z
Si Si1 0.193201 0.611224 0.000238
Si Si2 0.592395 0.206924 0.615927
Si Si3 0.338270 0.892598 0.876165
O O1 0.250000 0.629361 0.250000
O O2 0.118082 0.686035 0.002423
O O3 0.157748 0.500000 0.000000
O O4 0.250000 0.634556 0.750000
O O5 0.500000 0.209597 0.710707
O O6 0.601071 0.127076 0.373230
O O7 0.647718 0.182346 0.875989
O O8 0.250000 0.878457 0.750000
O O9 0.352862 0.000000 0.000000
#
# Coordination Sequence:
#
# PCOD8221519 Si02
#       3
#     8   8   8
#     4  10  21  39  64  90 119 162 211 253 297 360
#     4  12  25  40  63  95 130 162 197 255 318 367
#     4  12  25  43  66  90 120 165 215 254 298 364
#
# _framework density 21.686312000000001
#
# number of rings (size 3 to 8) (size 9 to 14) (size 15 to 20)
#    0.000    0.667    0.000   10.000    0.000    4.667 
#    0.000    0.000    0.000   10.000    0.000    0.000 
#    0.000    0.000    0.000    0.000    0.000    0.000 
#
# Total GULP energy -297651.573726 kJ/mol
# GULP energy per Si atom -12402.148905 kJ/mol
# Density = 2.163695 g / cm^3
# Si number density = 21.686312 Si / 1000 Ang^3
#
#
#
# Elastic Constant Matrix: (Units=GPa)
#
#
# Indices 1 2 3 4 5 6 
#
# 1 95.5814 75.0040 38.2450 0.0000 0.0000 0.0000
# 2 75.0040 133.4575 53.2201 0.0000 0.0000 0.0000
# 3 38.2450 53.2201 161.4008 0.0000 0.0000 0.0000
# 4 0.0000 0.0000 0.0000 37.2037 0.0000 0.0000
# 5 0.0000 0.0000 0.0000 0.0000 35.5189 0.0000
# 6 0.0000 0.0000 0.0000 0.0000 0.0000 17.7749
#
#
#
# Elastic Compliance Matrix: (Units=1/GPa)
#
#
# Indices 1 2 3 4 5 6 
#
# 1 0.018892 -0.010169 -0.001123 0.000000 0.000000 0.000000
# 2 -0.010169 0.014102 -0.002240 0.000000 0.000000 0.000000
# 3 -0.001123 -0.002240 0.007201 0.000000 0.000000 0.000000
# 4 0.000000 0.000000 0.000000 0.026879 0.000000 0.000000
# 5 0.000000 0.000000 0.000000 0.000000 0.028154 0.000000
# 6 0.000000 0.000000 0.000000 0.000000 0.000000 0.056259
#
#
# Mechanical properties :
#
#
# Convention : Reuss Voigt Hill
#
# Bulk Modulus (GPa) = 76.17101 80.37534 78.27318
# Shear Modulus (GPa) = 27.33320 33.03088 30.18204
#
# Velocity S-wave (km/s) = 3.55405 3.90695 3.73467
# Velocity P-wave (km/s) = 7.21401 7.58258 7.40059
#
# Compressibility (1/GPa) = 0.01312835
#
# Stress axis : x y z
#
# Youngs Moduli (GPa) = 52.93307 70.91397 138.87748
#
# Poissons Ratio (x) = 0.72115 0.15600
# Poissons Ratio (y) = 0.53830 0.31111
# Poissons Ratio (z) = 0.05946 0.15886
#
# Static dielectric constant tensor:
#      x y z
#    x 3.571490 0.000000 0.000000 
#    y 0.000000 4.033390 0.000000 
#    z 0.000000 0.000000 4.242420 
# 
# 
# High freq. dielectric constant tensor:
#      x y z
#    x 1.827290 0.000000 0.000000 
#    y 0.000000 1.863540 0.000000 
#    z 0.000000 0.000000 1.880670 
# 
# From -- ./inp_files/1058.got.cif
#   From: 2010.03.12/outbox.cif.g09.slc.cpg/sg53_1_cif.got.tgz:1058.got - 2010.04.16 14:36:59.
