data_PCOD8221701
_publ_section_title
;
Structure prediction by ZEFSAII (Michael W. Deem and Ramdas Pophale) SiO2 
 PCOD8221701
Probable space group: P M N A
;
_chemical_formula_sum "Si O2"
_cell_formula_units_Z 40
_cell_length_a 8.915257
_cell_length_b 25.306284
_cell_length_c 8.839853
_cell_angle_alpha 90.000000
_cell_angle_beta 90.000000
_cell_angle_gamma 90.000000
_cell_volume 1994.377141
_symmetry_space_group_name_H-M "P M N A"
_symmetry_group_IT_number 53
_symmetry_cell_setting 'orthorhombic'
loop_
_space_group_symop_operation_xyz
x,y,z
1/2-x,-y,1/2+z
x,-y,-z
1/2-x,y,1/2-z
-x,-y,-z
1/2+x,y,1/2-z
-x,y,z
1/2+x,-y,1/2+z
loop_
_atom_site_type_symbol
_atom_site_label
_atom_site_fract_x
_atom_site_fract_y
_atom_site_fract_z
Si Si1 0.329302 0.052674 0.404343
Si Si2 0.175594 0.551310 0.912451
Si Si3 0.676534 0.342406 0.586721
Si Si4 0.326753 0.143444 0.910623
Si Si5 0.825657 0.249083 0.407326
O O1 0.250000 0.038210 0.250000
O O2 0.500000 0.069981 0.376051
O O3 0.245577 0.101232 0.479412
O O4 0.318722 0.000000 0.500000
O O5 0.250000 0.557831 0.750000
O O6 0.000000 0.545994 0.883626
O O7 0.238569 0.500000 0.000000
O O8 0.215132 0.600677 0.018258
O O9 0.750000 0.336733 0.750000
O O10 0.500000 0.332828 0.602641
O O11 0.744507 0.300138 0.472673
O O12 0.250000 0.140398 0.750000
O O13 0.500000 0.129254 0.890941
O O14 0.302797 0.201517 0.976562
O O15 0.750000 0.232889 0.250000
O O16 0.000000 0.261792 0.380682
#
# Coordination Sequence:
#
# PCOD8221701 Si02
#       5
#     8   8   8   8   8
#     4  11  24  41  63  91 123 159 199 245 296 351
#     4  10  22  39  59  86 118 153 195 242 293 350
#     4  11  23  39  61  88 119 156 198 244 296 353
#     4  11  24  41  63  90 121 158 199 245 296 351
#     4  11  24  41  62  89 121 157 198 245 296 351
#
# _framework density 20.056387000000001
#
# number of rings (size 3 to 8) (size 9 to 14) (size 15 to 20)
#    0.000    1.200    0.000    5.400    0.000   13.200 
#    0.000    0.000    0.000    0.000    0.000    0.000 
#    0.000    0.000    0.000    0.000    0.000    0.000 
#
# Total GULP energy -496267.746081 kJ/mol
# GULP energy per Si atom -12406.693652 kJ/mol
# Density = 2.001074 g / cm^3
# Si number density = 20.056387 Si / 1000 Ang^3
#
#
#
# Elastic Constant Matrix: (Units=GPa)
#
#
# Indices 1 2 3 4 5 6 
#
# 1 125.1252 54.1835 50.4235 0.0000 0.0000 0.0000
# 2 54.1835 84.7647 5.8193 0.0000 0.0000 0.0000
# 3 50.4235 5.8193 106.1180 0.0000 0.0000 0.0000
# 4 0.0000 0.0000 0.0000 33.7699 0.0000 0.0000
# 5 0.0000 0.0000 0.0000 0.0000 42.3581 0.0000
# 6 0.0000 0.0000 0.0000 0.0000 0.0000 34.1493
#
#
#
# Elastic Compliance Matrix: (Units=1/GPa)
#
#
# Indices 1 2 3 4 5 6 
#
# 1 0.014315 -0.008716 -0.006324 0.000000 0.000000 0.000000
# 2 -0.008716 0.017149 0.003201 0.000000 0.000000 0.000000
# 3 -0.006324 0.003201 0.012253 0.000000 0.000000 0.000000
# 4 0.000000 0.000000 0.000000 0.029612 0.000000 0.000000
# 5 0.000000 0.000000 0.000000 0.000000 0.023608 0.000000
# 6 0.000000 0.000000 0.000000 0.000000 0.000000 0.029283
#
#
# Mechanical properties :
#
#
# Convention : Reuss Voigt Hill
#
# Bulk Modulus (GPa) = 49.90269 59.65117 54.77693
# Shear Modulus (GPa) = 31.93294 35.76088 33.84691
#
# Velocity S-wave (km/s) = 3.99451 4.22716 4.11248
# Velocity P-wave (km/s) = 6.79780 7.32335 7.06546
#
# Compressibility (1/GPa) = 0.02003900
#
# Stress axis : x y z
#
# Youngs Moduli (GPa) = 69.85740 58.31169 81.61377
#
# Poissons Ratio (x) = 0.50826 0.51612
# Poissons Ratio (y) = 0.60889 -0.26126
# Poissons Ratio (z) = 0.44177 -0.18667
#
# Static dielectric constant tensor:
#      x y z
#    x 3.895010 0.000000 0.000000 
#    y 0.000000 3.870990 0.000000 
#    z 0.000000 0.000000 3.697680 
# 
# 
# High freq. dielectric constant tensor:
#      x y z
#    x 1.796930 0.000000 0.000000 
#    y 0.000000 1.800450 0.000000 
#    z 0.000000 0.000000 1.801360 
# 
# From -- ./inp_files/6261.got.cif
#   From: 2010.03.12/outbox.cif.g09.slc.cpg/sg53_4_cif.got.tgz:6261.got - 2010.04.16 14:36:59.
