data_PCOD8221416
_publ_section_title
;
Structure prediction by ZEFSAII (Michael W. Deem and Ramdas Pophale) SiO2 
 PCOD8221416
Probable space group: P M N A
;
_chemical_formula_sum "Si O2"
_cell_formula_units_Z 64
_cell_length_a 13.631901
_cell_length_b 10.077710
_cell_length_c 22.436082
_cell_angle_alpha 90.000000
_cell_angle_beta 90.000000
_cell_angle_gamma 90.000000
_cell_volume 3082.231814
_symmetry_space_group_name_H-M "P M N A"
_symmetry_group_IT_number 53
_symmetry_cell_setting 'orthorhombic'
loop_
_space_group_symop_operation_xyz
x,y,z
1/2-x,-y,1/2+z
x,-y,-z
1/2-x,y,1/2-z
-x,-y,-z
1/2+x,y,1/2-z
-x,y,z
1/2+x,-y,1/2+z
loop_
_atom_site_type_symbol
_atom_site_label
_atom_site_fract_x
_atom_site_fract_y
_atom_site_fract_z
Si Si1 0.647576 0.128556 0.223194
Si Si2 0.111961 0.989288 0.069567
Si Si3 0.616189 0.342162 0.999313
Si Si4 0.896441 0.844612 0.290486
Si Si5 0.243292 0.234644 0.608193
Si Si6 0.397364 0.343126 0.318231
Si Si7 0.261874 0.781470 0.892272
Si Si8 0.666980 0.614702 0.293259
O O1 0.750000 0.086429 0.250000
O O2 0.604744 0.251503 0.259556
O O3 0.656266 0.165330 0.153345
O O4 0.585075 0.995099 0.231465
O O5 0.180792 0.107721 0.092497
O O6 0.000000 0.991279 0.097246
O O7 0.168084 0.852044 0.082223
O O8 0.100031 0.000000 0.000000
O O9 0.500000 0.305497 0.003015
O O10 0.663729 0.281482 0.940034
O O11 0.630055 0.500000 0.000000
O O12 0.677487 0.276210 0.052753
O O13 0.813479 0.846556 0.340621
O O14 0.873621 0.752212 0.233652
O O15 0.000000 0.794056 0.317565
O O16 0.291934 0.361129 0.640016
O O17 0.500000 0.309187 0.352066
O O18 0.302480 0.332442 0.360242
O O19 0.409625 0.495312 0.297030
O O20 0.750000 0.557691 0.250000
#
# Coordination Sequence:
#
# PCOD8221416 Si02
#       8
#     8   8   8   8   8   8   8   8
#     4  10  21  38  60  89 128 164 208 256 316 371
#     4  11  23  41  65  93 125 168 214 263 321 379
#     4  11  25  44  67  94 125 166 211 259 320 381
#     4  11  22  37  62  95 129 165 209 260 314 373
#     4  11  22  43  64  92 126 167 208 265 313 376
#     4  11  23  39  62  92 127 169 214 261 315 377
#     4  11  22  42  65  91 128 166 207 265 313 378
#     4  10  22  39  61  88 128 172 212 258 314 375
#
# _framework density 20.764174000000001
#
# number of rings (size 3 to 8) (size 9 to 14) (size 15 to 20)
#    0.000    1.250    2.500    4.500    1.750    3.000 
#    0.000    3.125    0.000    1.875    0.000    0.000 
#    0.000    0.000    0.000    0.000    0.000    0.000 
#
# Total GULP energy -792964.284534 kJ/mol
# GULP energy per Si atom -12390.066946 kJ/mol
# Density = 2.071691 g / cm^3
# Si number density = 20.764174 Si / 1000 Ang^3
#
#
#
# Elastic Constant Matrix: (Units=GPa)
#
#
# Indices 1 2 3 4 5 6 
#
# 1 145.6980 51.1744 41.3676 0.0000 0.0000 0.0000
# 2 51.1744 126.4055 50.4173 0.0000 0.0000 0.0000
# 3 41.3676 50.4173 101.8993 0.0000 0.0000 0.0000
# 4 0.0000 0.0000 0.0000 14.1938 0.0000 0.0000
# 5 0.0000 0.0000 0.0000 0.0000 17.4580 0.0000
# 6 0.0000 0.0000 0.0000 0.0000 0.0000 18.0954
#
#
#
# Elastic Compliance Matrix: (Units=1/GPa)
#
#
# Indices 1 2 3 4 5 6 
#
# 1 0.008360 -0.002530 -0.002142 0.000000 0.000000 0.000000
# 2 -0.002530 0.010622 -0.004228 0.000000 0.000000 0.000000
# 3 -0.002142 -0.004228 0.012775 0.000000 0.000000 0.000000
# 4 0.000000 0.000000 0.000000 0.070453 0.000000 0.000000
# 5 0.000000 0.000000 0.000000 0.000000 0.057280 0.000000
# 6 0.000000 0.000000 0.000000 0.000000 0.000000 0.055263
#
#
# Mechanical properties :
#
#
# Convention : Reuss Voigt Hill
#
# Bulk Modulus (GPa) = 71.65227 73.32460 72.48844
# Shear Modulus (GPa) = 21.07863 25.35235 23.21549
#
# Velocity S-wave (km/s) = 3.18959 3.49802 3.34736
# Velocity P-wave (km/s) = 6.93882 7.19059 7.06583
#
# Compressibility (1/GPa) = 0.01395629
#
# Stress axis : x y z
#
# Youngs Moduli (GPa) = 119.61091 94.14546 78.27627
#
# Poissons Ratio (x) = 0.23821 0.16768
# Poissons Ratio (y) = 0.30265 0.33097
# Poissons Ratio (z) = 0.25622 0.39807
#
# Static dielectric constant tensor:
#      x y z
#    x 4.250300 0.000000 0.000000 
#    y 0.000000 3.849070 0.000000 
#    z 0.000000 0.000000 3.812500 
# 
# 
# High freq. dielectric constant tensor:
#      x y z
#    x 1.830480 0.000000 0.000000 
#    y 0.000000 1.818400 0.000000 
#    z 0.000000 0.000000 1.804480 
# 
# From -- ./inp_files/35332.got.cif
#   From: 2010.03.12/outbox.cif.g09.slc.cpg/sg53_18_cif.got.tgz:35332.got - 2010.04.16 14:36:59.
