data_PCOD8221828
_publ_section_title
;
Structure prediction by ZEFSAII (Michael W. Deem and Ramdas Pophale) SiO2 
 PCOD8221828
Probable space group: P M N A
;
_chemical_formula_sum "Si O2"
_cell_formula_units_Z 20
_cell_length_a 15.443009
_cell_length_b 10.986071
_cell_length_c 5.086303
_cell_angle_alpha 90.000000
_cell_angle_beta 90.000000
_cell_angle_gamma 90.000000
_cell_volume 862.931960
_symmetry_space_group_name_H-M "P M N A"
_symmetry_group_IT_number 53
_symmetry_cell_setting 'orthorhombic'
loop_
_space_group_symop_operation_xyz
x,y,z
1/2-x,-y,1/2+z
x,-y,-z
1/2-x,y,1/2-z
-x,-y,-z
1/2+x,y,1/2-z
-x,y,z
1/2+x,-y,1/2+z
loop_
_atom_site_type_symbol
_atom_site_label
_atom_site_fract_x
_atom_site_fract_y
_atom_site_fract_z
Si Si1 0.750000 0.580781 0.750000
Si Si2 0.842728 0.259747 0.605421
Si Si3 0.500000 0.414508 0.747008
Si Si4 0.691379 0.000000 0.000000
O O1 0.720489 0.500000 0.500000
O O2 0.831373 0.665424 0.667842
O O3 0.750000 0.263922 0.750000
O O4 0.917021 0.325853 0.768838
O O5 0.868201 0.118863 0.552232
O O6 0.500000 0.500000 0.500000
O O7 0.500000 0.500000 0.000000
O O8 0.750000 0.968155 0.750000
#
# Coordination Sequence:
#
# PCOD8221828 Si02
#       4
#     4   8   4   4
#     4  12  24  38  72 100 134 190 226 278 366 412
#     4  11  26  47  73 101 145 184 240 294 359 418
#     4  12  32  43  68 111 144 188 243 288 351 438
#     4  10  22  43  74 103 132 186 244 287 352 427
#
# _framework density 23.176801999999999
#
# number of rings (size 3 to 8) (size 9 to 14) (size 15 to 20)
#    0.000    0.800    4.000    1.200   11.200    0.800 
#    0.000    0.000    0.000    8.400    0.000    0.000 
#    0.000    0.000    0.000    0.000    0.000    0.000 
#
# Total GULP energy -247899.507499 kJ/mol
# GULP energy per Si atom -12394.975375 kJ/mol
# Density = 2.312405 g / cm^3
# Si number density = 23.176802 Si / 1000 Ang^3
#
#
#
# Elastic Constant Matrix: (Units=GPa)
#
#
# Indices 1 2 3 4 5 6 
#
# 1 129.3507 82.1296 41.1506 0.0000 0.0000 0.0000
# 2 82.1296 258.6221 74.9181 0.0000 0.0000 0.0000
# 3 41.1506 74.9181 146.3913 0.0000 0.0000 0.0000
# 4 0.0000 0.0000 0.0000 38.1327 0.0000 0.0000
# 5 0.0000 0.0000 0.0000 0.0000 23.8890 0.0000
# 6 0.0000 0.0000 0.0000 0.0000 0.0000 39.0081
#
#
#
# Elastic Compliance Matrix: (Units=1/GPa)
#
#
# Indices 1 2 3 4 5 6 
#
# 1 0.009915 -0.002749 -0.001380 0.000000 0.000000 0.000000
# 2 -0.002749 0.005302 -0.001941 0.000000 0.000000 0.000000
# 3 -0.001380 -0.001941 0.008212 0.000000 0.000000 0.000000
# 4 0.000000 0.000000 0.000000 0.026224 0.000000 0.000000
# 5 0.000000 0.000000 0.000000 0.000000 0.041860 0.000000
# 6 0.000000 0.000000 0.000000 0.000000 0.000000 0.025636
#
#
# Mechanical properties :
#
#
# Convention : Reuss Voigt Hill
#
# Bulk Modulus (GPa) = 88.57722 103.41785 95.99754
# Shear Modulus (GPa) = 37.57913 42.61701 40.09807
#
# Velocity S-wave (km/s) = 4.03104 4.29275 4.16395
# Velocity P-wave (km/s) = 7.74382 8.32397 8.03913
#
# Compressibility (1/GPa) = 0.01128958
#
# Stress axis : x y z
#
# Youngs Moduli (GPa) = 100.85237 188.61695 121.77088
#
# Poissons Ratio (x) = 0.51850 0.16810
# Poissons Ratio (y) = 0.27724 0.23630
# Poissons Ratio (z) = 0.13922 0.36602
#
# Static dielectric constant tensor:
#      x y z
#    x 3.862440 0.000000 0.000000 
#    y 0.000000 5.025640 0.000000 
#    z 0.000000 0.000000 4.339880 
# 
# 
# High freq. dielectric constant tensor:
#      x y z
#    x 1.871470 0.000000 0.000000 
#    y 0.000000 1.949150 0.000000 
#    z 0.000000 0.000000 1.928100 
# 
# From -- ./inp_files/1028.got.cif
#   From: 2010.03.12/outbox.cif.g09.slc.cpg/sg53_1_cif.got.tgz:1028.got - 2010.04.16 14:36:59.
