data_PCOD8221941
_publ_section_title
;
Structure prediction by ZEFSAII (Michael W. Deem and Ramdas Pophale) SiO2 
 PCOD8221941
Probable space group: P M N A
;
_chemical_formula_sum "Si O2"
_cell_formula_units_Z 32
_cell_length_a 9.495144
_cell_length_b 10.476043
_cell_length_c 14.917438
_cell_angle_alpha 90.000000
_cell_angle_beta 90.000000
_cell_angle_gamma 90.000000
_cell_volume 1483.860484
_symmetry_space_group_name_H-M "P M N A"
_symmetry_group_IT_number 53
_symmetry_cell_setting 'orthorhombic'
loop_
_space_group_symop_operation_xyz
x,y,z
1/2-x,-y,1/2+z
x,-y,-z
1/2-x,y,1/2-z
-x,-y,-z
1/2+x,y,1/2-z
-x,y,z
1/2+x,-y,1/2+z
loop_
_atom_site_type_symbol
_atom_site_label
_atom_site_fract_x
_atom_site_fract_y
_atom_site_fract_z
Si Si1 0.500000 0.947265 0.693869
Si Si2 0.500000 0.100305 0.852910
Si Si3 0.500000 0.345587 0.357823
Si Si4 0.297742 0.092054 0.578639
Si Si5 0.500000 0.315590 0.559700
Si Si6 0.750000 0.472959 0.250000
Si Si7 0.500000 0.632842 0.237667
O O1 0.500000 0.806421 0.654999
O O2 0.500000 0.962957 0.801956
O O3 0.359929 0.025634 0.666766
O O4 0.368435 0.109785 0.918108
O O5 0.500000 0.217035 0.780896
O O6 0.500000 0.388305 0.463065
O O7 0.648754 0.388404 0.313289
O O8 0.359657 0.231528 0.562496
O O9 0.346265 0.000000 0.500000
O O10 0.500000 0.400134 0.652279
O O11 0.640517 0.566488 0.196452
#
# Coordination Sequence:
#
# PCOD8221941 Si02
#       7
#     4   4   4   8   4   4   4
#     4  11  22  37  65  95 128 167 214 245 328 408
#     4  12  24  35  68  99 129 175 203 277 332 361
#     4  11  24  45  66  96 127 172 212 266 325 390
#     4  11  21  38  58 105 136 165 204 260 331 396
#     4  11  21  40  74  88 128 171 213 266 323 383
#     4  10  26  42  64  90 124 170 224 270 306 374
#     4  11  22  45  65  93 125 163 233 272 302 385
#
# _framework density 21.565367999999999
#
# number of rings (size 3 to 8) (size 9 to 14) (size 15 to 20)
#    0.000    1.000    5.000    3.375    3.500    2.000 
#    0.000    2.500    0.000    7.500    0.000    0.000 
#    0.000    0.000    0.000    0.000    0.000    0.000 
#
# Total GULP energy -396498.666168 kJ/mol
# GULP energy per Si atom -12390.583318 kJ/mol
# Density = 2.151628 g / cm^3
# Si number density = 21.565368 Si / 1000 Ang^3
#
#
#
# Elastic Constant Matrix: (Units=GPa)
#
#
# Indices 1 2 3 4 5 6 
#
# 1 181.8405 27.7345 21.9249 0.0000 0.0000 0.0000
# 2 27.7345 52.6194 17.8287 0.0000 0.0000 0.0000
# 3 21.9249 17.8287 75.9712 0.0000 0.0000 0.0000
# 4 0.0000 0.0000 0.0000 35.9165 0.0000 0.0000
# 5 0.0000 0.0000 0.0000 0.0000 17.7035 0.0000
# 6 0.0000 0.0000 0.0000 0.0000 0.0000 34.9486
#
#
#
# Elastic Compliance Matrix: (Units=1/GPa)
#
#
# Indices 1 2 3 4 5 6 
#
# 1 0.006061 -0.002827 -0.001086 0.000000 0.000000 0.000000
# 2 -0.002827 0.021964 -0.004339 0.000000 0.000000 0.000000
# 3 -0.001086 -0.004339 0.014494 0.000000 0.000000 0.000000
# 4 0.000000 0.000000 0.000000 0.027842 0.000000 0.000000
# 5 0.000000 0.000000 0.000000 0.000000 0.056486 0.000000
# 6 0.000000 0.000000 0.000000 0.000000 0.000000 0.028613
#
#
# Mechanical properties :
#
#
# Convention : Reuss Voigt Hill
#
# Bulk Modulus (GPa) = 38.43595 49.48969 43.96282
# Shear Modulus (GPa) = 27.67974 33.90992 30.79483
#
# Velocity S-wave (km/s) = 3.58652 3.96968 3.78296
# Velocity P-wave (km/s) = 5.91714 6.63398 6.28579
#
# Compressibility (1/GPa) = 0.02601731
#
# Stress axis : x y z
#
# Youngs Moduli (GPa) = 164.97794 45.52808 68.99181
#
# Poissons Ratio (x) = 0.12870 0.07492
# Poissons Ratio (y) = 0.46638 0.29934
# Poissons Ratio (z) = 0.17915 0.19753
#
# Static dielectric constant tensor:
#      x y z
#    x 3.940170 0.000000 0.000000 
#    y 0.000000 4.127890 0.000000 
#    z 0.000000 0.000000 3.674630 
# 
# 
# High freq. dielectric constant tensor:
#      x y z
#    x 1.861710 0.000000 0.000000 
#    y 0.000000 1.855270 0.000000 
#    z 0.000000 0.000000 1.821210 
# 
# From -- ./inp_files/19588.got.cif
#   From: 2010.03.12/outbox.cif.g09.slc.cpg/sg53_10_cif.got.tgz:19588.got - 2010.04.16 14:36:59.
