data_PCOD8221574
_publ_section_title
;
Structure prediction by ZEFSAII (Michael W. Deem and Ramdas Pophale) SiO2 
 PCOD8221574
Probable space group: P M N A
;
_chemical_formula_sum "Si O2"
_cell_formula_units_Z 40
_cell_length_a 8.793178
_cell_length_b 12.099631
_cell_length_c 18.473620
_cell_angle_alpha 90.000000
_cell_angle_beta 90.000000
_cell_angle_gamma 90.000000
_cell_volume 1965.486189
_symmetry_space_group_name_H-M "P M N A"
_symmetry_group_IT_number 53
_symmetry_cell_setting 'orthorhombic'
loop_
_space_group_symop_operation_xyz
x,y,z
1/2-x,-y,1/2+z
x,-y,-z
1/2-x,y,1/2-z
-x,-y,-z
1/2+x,y,1/2-z
-x,y,z
1/2+x,-y,1/2+z
loop_
_atom_site_type_symbol
_atom_site_label
_atom_site_fract_x
_atom_site_fract_y
_atom_site_fract_z
Si Si1 0.674242 0.883282 0.327495
Si Si2 0.176475 0.320436 0.602411
Si Si3 0.173801 0.924716 0.933462
Si Si4 0.178886 0.528839 0.826003
Si Si5 0.824825 0.307143 0.436388
O O1 0.750000 0.880431 0.250000
O O2 0.500000 0.846495 0.320338
O O3 0.757288 0.800060 0.381846
O O4 0.688360 0.006163 0.359549
O O5 0.260735 0.409100 0.651753
O O6 0.203023 0.347260 0.518263
O O7 0.000000 0.322894 0.622687
O O8 0.283141 0.820547 0.926602
O O9 0.000000 0.885647 0.946651
O O10 0.228996 0.000000 0.000000
O O11 0.250000 0.565583 0.750000
O O12 0.220124 0.619360 0.885583
O O13 0.000000 0.522737 0.817386
O O14 0.000000 0.323836 0.414339
#
# Coordination Sequence:
#
# PCOD8221574 Si02
#       5
#     8   8   8   8   8
#     4  11  23  39  62  92 127 165 209 260 315 374
#     4  11  23  41  65  94 128 164 208 259 313 373
#     4  10  21  40  64  90 124 166 212 259 307 367
#     4  12  26  44  66  91 126 167 210 260 316 376
#     4  11  24  41  66  96 128 165 209 260 314 376
#
# _framework density 20.351199999999999
#
# number of rings (size 3 to 8) (size 9 to 14) (size 15 to 20)
#    0.000    1.000    2.000    4.800    0.000    7.600 
#    0.000    2.000    0.000    0.000    0.000    0.000 
#    0.000    0.000    0.000    0.000    0.000    0.000 
#
# Total GULP energy -496313.101019 kJ/mol
# GULP energy per Si atom -12407.827525 kJ/mol
# Density = 2.030488 g / cm^3
# Si number density = 20.351200 Si / 1000 Ang^3
#
#
#
# Elastic Constant Matrix: (Units=GPa)
#
#
# Indices 1 2 3 4 5 6 
#
# 1 145.9584 31.7421 57.8225 0.0000 0.0000 0.0000
# 2 31.7421 63.3854 15.6286 0.0000 0.0000 0.0000
# 3 57.8225 15.6286 94.0604 0.0000 0.0000 0.0000
# 4 0.0000 0.0000 0.0000 31.2661 0.0000 0.0000
# 5 0.0000 0.0000 0.0000 0.0000 30.8211 0.0000
# 6 0.0000 0.0000 0.0000 0.0000 0.0000 37.4071
#
#
#
# Elastic Compliance Matrix: (Units=1/GPa)
#
#
# Indices 1 2 3 4 5 6 
#
# 1 0.009770 -0.003558 -0.005415 0.000000 0.000000 0.000000
# 2 -0.003558 0.017746 -0.000762 0.000000 0.000000 0.000000
# 3 -0.005415 -0.000762 0.014087 0.000000 0.000000 0.000000
# 4 0.000000 0.000000 0.000000 0.031984 0.000000 0.000000
# 5 0.000000 0.000000 0.000000 0.000000 0.032445 0.000000
# 6 0.000000 0.000000 0.000000 0.000000 0.000000 0.026733
#
#
# Mechanical properties :
#
#
# Convention : Reuss Voigt Hill
#
# Bulk Modulus (GPa) = 45.17823 57.08783 51.13303
# Shear Modulus (GPa) = 31.32620 33.11294 32.21957
#
# Velocity S-wave (km/s) = 3.92762 4.03808 3.98323
# Velocity P-wave (km/s) = 6.54338 7.06071 6.80696
#
# Compressibility (1/GPa) = 0.02213455
#
# Stress axis : x y z
#
# Youngs Moduli (GPa) = 102.35291 56.35125 70.98844
#
# Poissons Ratio (x) = 0.20047 0.38440
# Poissons Ratio (y) = 0.36412 0.05406
# Poissons Ratio (z) = 0.55424 0.04292
#
# Static dielectric constant tensor:
#      x y z
#    x 3.800450 0.000000 0.000000 
#    y 0.000000 3.690450 0.000000 
#    z 0.000000 0.000000 3.756200 
# 
# 
# High freq. dielectric constant tensor:
#      x y z
#    x 1.806740 0.000000 0.000000 
#    y 0.000000 1.799370 0.000000 
#    z 0.000000 0.000000 1.805800 
# 
# From -- ./inp_files/25827.got.cif
#   From: 2010.03.12/outbox.cif.g09.slc.cpg/sg53_13_cif.got.tgz:25827.got - 2010.04.16 14:36:59.
