data_PCOD8221328
_publ_section_title
;
Structure prediction by ZEFSAII (Michael W. Deem and Ramdas Pophale) SiO2 
 PCOD8221328
Probable space group: P M N A
;
_chemical_formula_sum "Si O2"
_cell_formula_units_Z 64
_cell_length_a 8.778629
_cell_length_b 21.228473
_cell_length_c 18.038550
_cell_angle_alpha 90.000000
_cell_angle_beta 90.000000
_cell_angle_gamma 90.000000
_cell_volume 3361.608055
_symmetry_space_group_name_H-M "P M N A"
_symmetry_group_IT_number 53
_symmetry_cell_setting 'orthorhombic'
loop_
_space_group_symop_operation_xyz
x,y,z
1/2-x,-y,1/2+z
x,-y,-z
1/2-x,y,1/2-z
-x,-y,-z
1/2+x,y,1/2-z
-x,y,z
1/2+x,-y,1/2+z
loop_
_atom_site_type_symbol
_atom_site_label
_atom_site_fract_x
_atom_site_fract_y
_atom_site_fract_z
Si Si1 0.671666 0.676141 0.456491
Si Si2 0.821290 0.113657 0.597022
Si Si3 0.323440 0.233113 0.671713
Si Si4 0.679303 0.371555 0.328132
Si Si5 0.675206 0.243730 0.403570
Si Si6 0.822455 0.115584 0.424631
Si Si7 0.820544 0.007381 0.170466
Si Si8 0.822214 0.566173 0.532625
O O1 0.500000 0.651020 0.469834
O O2 0.694178 0.702206 0.374060
O O3 0.702861 0.733686 0.512513
O O4 0.786827 0.619092 0.470938
O O5 0.770735 0.178941 0.631999
O O6 0.777801 0.113214 0.510782
O O7 0.000000 0.104065 0.608829
O O8 0.734526 0.059045 0.639729
O O9 0.250000 0.247990 0.750000
O O10 0.500000 0.213113 0.678821
O O11 0.750000 0.390933 0.250000
O O12 0.500000 0.378191 0.323561
O O13 0.726271 0.299845 0.348432
O O14 0.737100 0.419606 0.390603
O O15 0.500000 0.224819 0.390336
O O16 0.779518 0.182988 0.389085
O O17 0.726327 0.061732 0.385817
O O18 0.000000 0.102871 0.411743
O O19 0.750000 0.021923 0.250000
O O20 0.000000 0.005737 0.178871
O O21 0.764746 0.500000 0.500000
O O22 0.000000 0.564946 0.549591
#
# Coordination Sequence:
#
# PCOD8221328 Si02
#       8
#     8   8   8   8   8   8   8   8
#     4   9  19  36  58  83 115 152 191 236 283 339
#     4  11  23  40  61  86 115 149 191 237 289 348
#     4  11  22  37  58  86 118 151 192 239 291 346
#     4  10  21  37  59  88 121 158 197 243 291 342
#     4   9  18  35  57  83 114 149 190 232 283 342
#     4  11  23  38  60  88 116 148 189 237 288 347
#     4  12  26  43  61  80 110 150 191 241 295 347
#     4  10  21  37  60  89 120 157 200 242 287 343
#
# _framework density 19.038506999999999
#
# number of rings (size 3 to 8) (size 9 to 14) (size 15 to 20)
#    0.000    1.625    1.250    4.500    0.000    8.000 
#    0.000    1.875    0.000    1.500    0.000    0.000 
#    0.000    0.000    0.000    0.000    0.000    0.000 
#
# Total GULP energy -793863.673417 kJ/mol
# GULP energy per Si atom -12404.119897 kJ/mol
# Density = 1.899517 g / cm^3
# Si number density = 19.038507 Si / 1000 Ang^3
#
#
#
# Elastic Constant Matrix: (Units=GPa)
#
#
# Indices 1 2 3 4 5 6 
#
# 1 83.6492 20.9416 48.3527 0.0000 0.0000 0.0000
# 2 20.9416 49.3137 39.2421 0.0000 0.0000 0.0000
# 3 48.3527 39.2421 126.1656 0.0000 0.0000 0.0000
# 4 0.0000 0.0000 0.0000 21.1289 0.0000 0.0000
# 5 0.0000 0.0000 0.0000 0.0000 12.1912 0.0000
# 6 0.0000 0.0000 0.0000 0.0000 0.0000 39.3174
#
#
#
# Elastic Compliance Matrix: (Units=1/GPa)
#
#
# Indices 1 2 3 4 5 6 
#
# 1 0.015581 -0.002478 -0.005201 0.000000 0.000000 0.000000
# 2 -0.002478 0.027343 -0.007555 0.000000 0.000000 0.000000
# 3 -0.005201 -0.007555 0.012269 0.000000 0.000000 0.000000
# 4 0.000000 0.000000 0.000000 0.047329 0.000000 0.000000
# 5 0.000000 0.000000 0.000000 0.000000 0.082027 0.000000
# 6 0.000000 0.000000 0.000000 0.000000 0.000000 0.025434
#
#
# Mechanical properties :
#
#
# Convention : Reuss Voigt Hill
#
# Bulk Modulus (GPa) = 40.44400 52.91127 46.67763
# Shear Modulus (GPa) = 20.10524 24.56697 22.33611
#
# Velocity S-wave (km/s) = 3.25319 3.59609 3.42893
# Velocity P-wave (km/s) = 5.94982 6.71524 6.34409
#
# Compressibility (1/GPa) = 0.02472555
#
# Stress axis : x y z
#
# Youngs Moduli (GPa) = 64.17938 36.57302 81.50593
#
# Poissons Ratio (x) = 0.09064 0.42389
# Poissons Ratio (y) = 0.15905 0.61576
# Poissons Ratio (z) = 0.33378 0.27630
#
# Static dielectric constant tensor:
#      x y z
#    x 3.545870 0.000000 0.000000 
#    y 0.000000 3.426590 0.000000 
#    z 0.000000 0.000000 3.587300 
# 
# 
# High freq. dielectric constant tensor:
#      x y z
#    x 1.750610 0.000000 0.000000 
#    y 0.000000 1.734570 0.000000 
#    z 0.000000 0.000000 1.743300 
# 
# From -- ./inp_files/26945.got.cif
#   From: 2010.03.12/outbox.cif.g09.slc.cpg/sg53_14_cif.got.tgz:26945.got - 2010.04.16 14:36:59.
