data_PCOD8221400
_publ_section_title
;
Structure prediction by ZEFSAII (Michael W. Deem and Ramdas Pophale) SiO2 
 PCOD8221400
Probable space group: P M N A
;
_chemical_formula_sum "Si O2"
_cell_formula_units_Z 48
_cell_length_a 8.977290
_cell_length_b 7.573444
_cell_length_c 33.785970
_cell_angle_alpha 90.000000
_cell_angle_beta 90.000000
_cell_angle_gamma 90.000000
_cell_volume 2297.074419
_symmetry_space_group_name_H-M "P M N A"
_symmetry_group_IT_number 53
_symmetry_cell_setting 'orthorhombic'
loop_
_space_group_symop_operation_xyz
x,y,z
1/2-x,-y,1/2+z
x,-y,-z
1/2-x,y,1/2-z
-x,-y,-z
1/2+x,y,1/2-z
-x,y,z
1/2+x,-y,1/2+z
loop_
_atom_site_type_symbol
_atom_site_label
_atom_site_fract_x
_atom_site_fract_y
_atom_site_fract_z
Si Si1 0.161915 0.704300 0.494846
Si Si2 0.336883 0.793871 0.571438
Si Si3 0.324410 0.548290 0.209528
Si Si4 0.661232 0.795977 0.419629
Si Si5 0.176744 0.860469 0.166159
Si Si6 0.825063 0.767714 0.649748
O O1 0.144341 0.500000 0.500000
O O2 0.270281 0.782120 0.527595
O O3 0.218583 0.730436 0.450487
O O4 0.000000 0.796142 0.498810
O O5 0.500000 0.701141 0.572063
O O6 0.233541 0.712366 0.605853
O O7 0.357767 0.996410 0.579905
O O8 0.250000 0.482273 0.250000
O O9 0.500000 0.574033 0.214845
O O10 0.252497 0.738063 0.199118
O O11 0.287895 0.397188 0.177615
O O12 0.500000 0.708793 0.429226
O O13 0.712067 0.755924 0.374850
O O14 0.000000 0.877586 0.173457
O O15 0.246014 0.057088 0.166867
O O16 0.000000 0.806018 0.646753
#
# Coordination Sequence:
#
# PCOD8221400 Si02
#       6
#     8   8   8   8   8   8
#     4  11  24  36  50  80 118 156 199 247 299 354
#     4  10  21  38  60  84 113 153 201 250 301 360
#     4  11  25  43  66  95 127 163 203 251 307 369
#     4   9  20  38  58  83 112 151 199 245 296 355
#     4  10  22  41  66  95 127 164 207 254 307 369
#     4  10  22  41  65  94 127 164 207 255 310 368
#
# _framework density 20.896146000000002
#
# number of rings (size 3 to 8) (size 9 to 14) (size 15 to 20)
#    0.000    1.833    0.000    4.000    2.333   10.667 
#    0.000    1.667    0.000    0.000    0.000    0.000 
#    0.000    0.000    0.000    0.000    0.000    0.000 
#
# Total GULP energy -595079.776778 kJ/mol
# GULP energy per Si atom -12397.495350 kJ/mol
# Density = 2.084859 g / cm^3
# Si number density = 20.896146 Si / 1000 Ang^3
#
#
#
# Elastic Constant Matrix: (Units=GPa)
#
#
# Indices 1 2 3 4 5 6 
#
# 1 141.7579 25.8247 41.6177 0.0000 0.0000 0.0000
# 2 25.8247 42.3772 5.4883 0.0000 0.0000 0.0000
# 3 41.6177 5.4883 77.7941 0.0000 0.0000 0.0000
# 4 0.0000 0.0000 0.0000 32.9564 0.0000 0.0000
# 5 0.0000 0.0000 0.0000 0.0000 51.1822 0.0000
# 6 0.0000 0.0000 0.0000 0.0000 0.0000 103.9014
#
#
#
# Elastic Compliance Matrix: (Units=1/GPa)
#
#
# Indices 1 2 3 4 5 6 
#
# 1 0.009344 -0.005094 -0.004640 0.000000 0.000000 0.000000
# 2 -0.005094 0.026592 0.000849 0.000000 0.000000 0.000000
# 3 -0.004640 0.000849 0.015277 0.000000 0.000000 0.000000
# 4 0.000000 0.000000 0.000000 0.030343 0.000000 0.000000
# 5 0.000000 0.000000 0.000000 0.000000 0.019538 0.000000
# 6 0.000000 0.000000 0.000000 0.000000 0.000000 0.009625
#
#
# Mechanical properties :
#
#
# Convention : Reuss Voigt Hill
#
# Bulk Modulus (GPa) = 29.90063 45.31004 37.60534
# Shear Modulus (GPa) = 35.80771 50.20793 43.00782
#
# Velocity S-wave (km/s) = 4.14406 4.90709 4.54163
# Velocity P-wave (km/s) = 6.10228 7.33734 6.74813
#
# Compressibility (1/GPa) = 0.03344411
#
# Stress axis : x y z
#
# Youngs Moduli (GPa) = 107.01712 37.60575 65.45953
#
# Poissons Ratio (x) = 0.19155 0.30371
# Poissons Ratio (y) = 0.54510 -0.05557
# Poissons Ratio (z) = 0.49652 -0.03192
#
# Static dielectric constant tensor:
#      x y z
#    x 3.562440 0.000000 0.000000 
#    y 0.000000 3.603270 0.000000 
#    z 0.000000 0.000000 3.511990 
# 
# 
# High freq. dielectric constant tensor:
#      x y z
#    x 1.832730 0.000000 0.000000 
#    y 0.000000 1.814020 0.000000 
#    z 0.000000 0.000000 1.820800 
# 
# From -- ./inp_files/37699.got.cif
#   From: 2010.03.12/outbox.cif.g09.slc.cpg/sg53_19_cif.got.tgz:37699.got - 2010.04.16 14:36:59.
