data_PCOD8221676
_publ_section_title
;
Structure prediction by ZEFSAII (Michael W. Deem and Ramdas Pophale) SiO2 
 PCOD8221676
Probable space group: P M N A
;
_chemical_formula_sum "Si O2"
_cell_formula_units_Z 28
_cell_length_a 11.011845
_cell_length_b 5.024120
_cell_length_c 22.932785
_cell_angle_alpha 90.000000
_cell_angle_beta 90.000000
_cell_angle_gamma 90.000000
_cell_volume 1268.752448
_symmetry_space_group_name_H-M "P M N A"
_symmetry_group_IT_number 53
_symmetry_cell_setting 'orthorhombic'
loop_
_space_group_symop_operation_xyz
x,y,z
1/2-x,-y,1/2+z
x,-y,-z
1/2-x,y,1/2-z
-x,-y,-z
1/2+x,y,1/2-z
-x,y,z
1/2+x,-y,1/2+z
loop_
_atom_site_type_symbol
_atom_site_label
_atom_site_fract_x
_atom_site_fract_y
_atom_site_fract_z
Si Si1 0.138655 0.468076 0.066249
Si Si2 0.254591 0.959987 0.377154
Si Si3 0.500000 0.307796 0.215600
Si Si4 0.250000 0.157341 0.250000
Si Si5 0.000000 0.192130 0.639294
O O1 0.147945 0.748833 0.099660
O O2 0.000000 0.370633 0.068374
O O3 0.222107 0.250817 0.097221
O O4 0.182958 0.500000 0.000000
O O5 0.121105 0.862912 0.398480
O O6 0.257335 0.970888 0.306961
O O7 0.372784 0.342553 0.250999
O O8 0.500000 0.503949 0.160772
O O9 0.500000 0.002560 0.194934
#
# Coordination Sequence:
#
# PCOD8221676 Si02
#       5
#     8   8   4   4   4
#     4  11  25  44  68  98 134 175 229 287 329 387
#     4  11  23  43  67  95 136 177 219 279 335 405
#     4  10  22  38  60  92 138 172 212 270 323 408
#     4  10  24  40  64 104 132 178 224 270 346 408
#     4  10  22  42  61  90 134 168 203 278 331 376
#
# _framework density 22.068923000000002
#
# number of rings (size 3 to 8) (size 9 to 14) (size 15 to 20)
#    0.000    1.429    0.000    5.143    4.000   12.571 
#    0.000    4.286    0.000    0.000    0.000    0.000 
#    0.000    0.000    0.000    0.000    0.000    0.000 
#
# Total GULP energy -347176.683705 kJ/mol
# GULP energy per Si atom -12399.167275 kJ/mol
# Density = 2.201869 g / cm^3
# Si number density = 22.068923 Si / 1000 Ang^3
#
#
#
# Elastic Constant Matrix: (Units=GPa)
#
#
# Indices 1 2 3 4 5 6 
#
# 1 141.2260 22.6785 32.4932 0.0000 0.0000 0.0000
# 2 22.6785 98.0938 45.2043 0.0000 0.0000 0.0000
# 3 32.4932 45.2043 128.4337 0.0000 0.0000 0.0000
# 4 0.0000 0.0000 0.0000 27.9665 0.0000 0.0000
# 5 0.0000 0.0000 0.0000 0.0000 26.9081 0.0000
# 6 0.0000 0.0000 0.0000 0.0000 0.0000 26.1558
#
#
#
# Elastic Compliance Matrix: (Units=1/GPa)
#
#
# Indices 1 2 3 4 5 6 
#
# 1 0.007606 -0.001040 -0.001558 0.000000 0.000000 0.000000
# 2 -0.001040 0.012310 -0.004070 0.000000 0.000000 0.000000
# 3 -0.001558 -0.004070 0.009613 0.000000 0.000000 0.000000
# 4 0.000000 0.000000 0.000000 0.035757 0.000000 0.000000
# 5 0.000000 0.000000 0.000000 0.000000 0.037164 0.000000
# 6 0.000000 0.000000 0.000000 0.000000 0.000000 0.038233
#
#
# Mechanical properties :
#
#
# Convention : Reuss Voigt Hill
#
# Bulk Modulus (GPa) = 61.75541 63.16727 62.46134
# Shear Modulus (GPa) = 31.36438 34.03124 32.69781
#
# Velocity S-wave (km/s) = 3.77397 3.93115 3.85336
# Velocity P-wave (km/s) = 6.85815 7.02069 6.93989
#
# Compressibility (1/GPa) = 0.01619291
#
# Stress axis : x y z
#
# Youngs Moduli (GPa) = 131.46755 81.23317 104.02928
#
# Poissons Ratio (x) = 0.08452 0.16210
# Poissons Ratio (y) = 0.13679 0.42335
# Poissons Ratio (z) = 0.20485 0.33058
#
# Static dielectric constant tensor:
#      x y z
#    x 4.627510 0.000000 0.000000 
#    y 0.000000 3.730340 0.000000 
#    z 0.000000 0.000000 3.731000 
# 
# 
# High freq. dielectric constant tensor:
#      x y z
#    x 1.891960 0.000000 0.000000 
#    y 0.000000 1.867930 0.000000 
#    z 0.000000 0.000000 1.839440 
# 
# From -- ./inp_files/31523.got.cif
#   From: 2010.03.12/outbox.cif.g09.slc.cpg/sg53_16_cif.got.tgz:31523.got - 2010.04.16 14:36:59.
