data_PCOD8221741
_publ_section_title
;
Structure prediction by ZEFSAII (Michael W. Deem and Ramdas Pophale) SiO2 
 PCOD8221741
Probable space group: P M N A
;
_chemical_formula_sum "Si O2"
_cell_formula_units_Z 40
_cell_length_a 18.479523
_cell_length_b 4.997785
_cell_length_c 19.973943
_cell_angle_alpha 90.000000
_cell_angle_beta 90.000000
_cell_angle_gamma 90.000000
_cell_volume 1844.727119
_symmetry_space_group_name_H-M "P M N A"
_symmetry_group_IT_number 53
_symmetry_cell_setting 'orthorhombic'
loop_
_space_group_symop_operation_xyz
x,y,z
1/2-x,-y,1/2+z
x,-y,-z
1/2-x,y,1/2-z
-x,-y,-z
1/2+x,y,1/2-z
-x,y,z
1/2+x,-y,1/2+z
loop_
_atom_site_type_symbol
_atom_site_label
_atom_site_fract_x
_atom_site_fract_y
_atom_site_fract_z
Si Si1 0.914144 0.921471 0.632666
Si Si2 0.076548 0.749165 0.041063
Si Si3 0.162783 0.579447 0.423489
Si Si4 0.315264 0.634156 0.352035
Si Si5 0.330680 0.125739 0.268473
O O1 0.894415 0.631902 0.604612
O O2 0.885811 0.941266 0.708790
O O3 0.000000 0.963225 0.632318
O O4 0.876456 0.134469 0.582801
O O5 0.135418 0.595121 0.084719
O O6 0.000000 0.851013 0.075414
O O7 0.050085 0.500000 0.000000
O O8 0.110877 0.000000 0.000000
O O9 0.183392 0.500000 0.500000
O O10 0.232556 0.587959 0.374920
O O11 0.336054 0.432153 0.292137
O O12 0.342152 0.929015 0.330652
O O13 0.250000 0.047246 0.250000
#
# Coordination Sequence:
#
# PCOD8221741 Si02
#       5
#     8   8   8   8   8
#     4  12  27  45  66  96 132 173 220 273 328 391
#     4  10  22  40  61  93 137 172 208 264 321 379
#     4  12  25  43  68  97 130 174 221 269 326 392
#     4  12  23  40  71  97 129 169 222 266 325 396
#     4  12  23  43  68  92 130 168 209 274 333 380
#
# _framework density 21.683422
#
# number of rings (size 3 to 8) (size 9 to 14) (size 15 to 20)
#    0.000    0.400    4.000    4.800    0.000    5.600 
#    0.000    0.000    0.000    0.000    0.000    0.000 
#    0.000    0.000    0.000    0.000    0.000    0.000 
#
# Total GULP energy -495596.555482 kJ/mol
# GULP energy per Si atom -12389.913887 kJ/mol
# Density = 2.163407 g / cm^3
# Si number density = 21.683422 Si / 1000 Ang^3
#
#
#
# Elastic Constant Matrix: (Units=GPa)
#
#
# Indices 1 2 3 4 5 6 
#
# 1 96.0589 25.4637 30.2213 0.0000 0.0000 0.0000
# 2 25.4637 91.6802 18.7868 0.0000 0.0000 0.0000
# 3 30.2213 18.7868 86.9639 0.0000 0.0000 0.0000
# 4 0.0000 0.0000 0.0000 37.9416 0.0000 0.0000
# 5 0.0000 0.0000 0.0000 0.0000 30.2274 0.0000
# 6 0.0000 0.0000 0.0000 0.0000 0.0000 13.7607
#
#
#
# Elastic Compliance Matrix: (Units=1/GPa)
#
#
# Indices 1 2 3 4 5 6 
#
# 1 0.012275 -0.002653 -0.003693 0.000000 0.000000 0.000000
# 2 -0.002653 0.011986 -0.001667 0.000000 0.000000 0.000000
# 3 -0.003693 -0.001667 0.013143 0.000000 0.000000 0.000000
# 4 0.000000 0.000000 0.000000 0.026356 0.000000 0.000000
# 5 0.000000 0.000000 0.000000 0.000000 0.033083 0.000000
# 6 0.000000 0.000000 0.000000 0.000000 0.000000 0.072671
#
#
# Mechanical properties :
#
#
# Convention : Reuss Voigt Hill
#
# Bulk Modulus (GPa) = 46.77733 47.07184 46.92459
# Shear Modulus (GPa) = 25.95176 29.73469 27.84322
#
# Velocity S-wave (km/s) = 3.46330 3.70714 3.58729
# Velocity P-wave (km/s) = 6.13289 6.33085 6.23265
#
# Compressibility (1/GPa) = 0.02137788
#
# Stress axis : x y z
#
# Youngs Moduli (GPa) = 81.46475 83.43105 76.08870
#
# Poissons Ratio (x) = 0.22131 0.28098
# Poissons Ratio (y) = 0.21610 0.12688
# Poissons Ratio (z) = 0.30083 0.13912
#
# Static dielectric constant tensor:
#      x y z
#    x 3.803180 0.000000 0.000000 
#    y 0.000000 4.098100 0.000000 
#    z 0.000000 0.000000 25.984680 
# 
# 
# High freq. dielectric constant tensor:
#      x y z
#    x 1.857290 0.000000 0.000000 
#    y 0.000000 1.870750 0.000000 
#    z 0.000000 0.000000 1.847040 
# 
# From -- ./inp_files/32676.got.cif
#   From: 2010.03.12/outbox.cif.g09.slc.cpg/sg53_17_cif.got.tgz:32676.got - 2010.04.16 14:36:59.
