data_PCOD8221981
_publ_section_title
;
Structure prediction by ZEFSAII (Michael W. Deem and Ramdas Pophale) SiO2 
 PCOD8221981
Probable space group: P M N A
;
_chemical_formula_sum "Si O2"
_cell_formula_units_Z 64
_cell_length_a 8.511305
_cell_length_b 20.409165
_cell_length_c 19.956574
_cell_angle_alpha 90.000000
_cell_angle_beta 90.000000
_cell_angle_gamma 90.000000
_cell_volume 3466.629091
_symmetry_space_group_name_H-M "P M N A"
_symmetry_group_IT_number 53
_symmetry_cell_setting 'orthorhombic'
loop_
_space_group_symop_operation_xyz
x,y,z
1/2-x,-y,1/2+z
x,-y,-z
1/2-x,y,1/2-z
-x,-y,-z
1/2+x,y,1/2-z
-x,y,z
1/2+x,-y,1/2+z
loop_
_atom_site_type_symbol
_atom_site_label
_atom_site_fract_x
_atom_site_fract_y
_atom_site_fract_z
Si Si1 0.316160 0.831694 0.677827
Si Si2 0.686638 0.671067 0.176183
Si Si3 0.687006 0.051645 0.408097
Si Si4 0.315448 0.270054 0.074485
Si Si5 0.314331 0.769072 0.432063
Si Si6 0.185437 0.085955 0.945528
Si Si7 0.813709 0.586350 0.556189
Si Si8 0.186337 0.552538 0.410097
O O1 0.250000 0.814260 0.750000
O O2 0.500000 0.836998 0.684873
O O3 0.245888 0.901116 0.650501
O O4 0.277976 0.774385 0.625999
O O5 0.750000 0.681005 0.250000
O O6 0.500000 0.677572 0.174298
O O7 0.761598 0.727174 0.130948
O O8 0.745130 0.599857 0.149456
O O9 0.500000 0.055683 0.406779
O O10 0.751363 0.079363 0.478880
O O11 0.745441 0.975844 0.400184
O O12 0.500000 0.261314 0.086643
O O13 0.258739 0.345093 0.088370
O O14 0.276620 0.253173 0.998077
O O15 0.500000 0.763016 0.444587
O O16 0.264459 0.844222 0.415093
O O17 0.000000 0.080310 0.949896
O O18 0.756535 0.523162 0.599975
O O19 0.746382 0.579716 0.480596
O O20 0.000000 0.586194 0.551194
O O21 0.000000 0.554287 0.412484
#
# Coordination Sequence:
#
# PCOD8221981 Si02
#       8
#     8   8   8   8   8   8   8   8
#     4  11  22  37  55  78 108 145 182 224 273 329
#     4  11  22  37  55  78 108 145 182 224 273 329
#     4   8  14  28  51  77 103 133 174 217 262 317
#     4  11  20  33  55  83 112 144 181 224 271 321
#     4  11  20  33  55  83 112 144 181 224 271 321
#     4   8  14  27  51  80 104 132 172 218 265 313
#     4   8  14  27  51  80 104 132 172 218 265 313
#     4   8  14  28  51  77 103 133 174 217 262 317
#
# _framework density 18.461738
#
# number of rings (size 3 to 8) (size 9 to 14) (size 15 to 20)
#    0.000    2.500    2.500    3.000    0.000    0.000 
#    0.000    1.250    0.000   10.500    0.000    0.000 
#    0.000    0.000    0.000    0.000    0.000    0.000 
#
# Total GULP energy -793011.395894 kJ/mol
# GULP energy per Si atom -12390.803061 kJ/mol
# Density = 1.841972 g / cm^3
# Si number density = 18.461738 Si / 1000 Ang^3
#
#
#
# Elastic Constant Matrix: (Units=GPa)
#
#
# Indices 1 2 3 4 5 6 
#
# 1 25.1375 14.4817 2.1511 0.0000 0.0000 0.0000
# 2 14.4817 164.1067 58.3121 0.0000 0.0000 0.0000
# 3 2.1511 58.3121 96.0405 0.0000 0.0000 0.0000
# 4 0.0000 0.0000 0.0000 26.5464 0.0000 0.0000
# 5 0.0000 0.0000 0.0000 0.0000 22.1698 0.0000
# 6 0.0000 0.0000 0.0000 0.0000 0.0000 20.8218
#
#
#
# Elastic Compliance Matrix: (Units=1/GPa)
#
#
# Indices 1 2 3 4 5 6 
#
# 1 0.042122 -0.004312 0.001675 0.000000 0.000000 0.000000
# 2 -0.004312 0.008211 -0.004889 0.000000 0.000000 0.000000
# 3 0.001675 -0.004889 0.013343 0.000000 0.000000 0.000000
# 4 0.000000 0.000000 0.000000 0.037670 0.000000 0.000000
# 5 0.000000 0.000000 0.000000 0.000000 0.045106 0.000000
# 6 0.000000 0.000000 0.000000 0.000000 0.000000 0.048026
#
#
# Mechanical properties :
#
#
# Convention : Reuss Voigt Hill
#
# Bulk Modulus (GPa) = 20.56612 48.35272 34.45942
# Shear Modulus (GPa) = 22.14936 27.93027 25.03981
#
# Velocity S-wave (km/s) = 3.46749 3.89379 3.68680
# Velocity P-wave (km/s) = 5.21492 6.81638 6.06871
#
# Compressibility (1/GPa) = 0.04862366
#
# Stress axis : x y z
#
# Youngs Moduli (GPa) = 23.74053 121.78271 74.94454
#
# Poissons Ratio (x) = 0.52515 -0.12551
# Poissons Ratio (y) = 0.10237 0.36641
# Poissons Ratio (z) = -0.03976 0.59540
#
# Static dielectric constant tensor:
#      x y z
#    x 3.033530 0.000000 0.000000 
#    y 0.000000 4.162140 0.000000 
#    z 0.000000 0.000000 3.324750 
# 
# 
# High freq. dielectric constant tensor:
#      x y z
#    x 1.679980 0.000000 0.000000 
#    y 0.000000 1.741410 0.000000 
#    z 0.000000 0.000000 1.685140 
# 
# From -- ./inp_files/26888.got.cif
#   From: 2010.03.12/outbox.cif.g09.slc.cpg/sg53_14_cif.got.tgz:26888.got - 2010.04.16 14:36:59.
