data_PCOD8221687
_publ_section_title
;
Structure prediction by ZEFSAII (Michael W. Deem and Ramdas Pophale) SiO2 
 PCOD8221687
Probable space group: P M N A
;
_chemical_formula_sum "Si O2"
_cell_formula_units_Z 64
_cell_length_a 8.487590
_cell_length_b 12.051799
_cell_length_c 31.083629
_cell_angle_alpha 90.000000
_cell_angle_beta 90.000000
_cell_angle_gamma 90.000000
_cell_volume 3179.567060
_symmetry_space_group_name_H-M "P M N A"
_symmetry_group_IT_number 53
_symmetry_cell_setting 'orthorhombic'
loop_
_space_group_symop_operation_xyz
x,y,z
1/2-x,-y,1/2+z
x,-y,-z
1/2-x,y,1/2-z
-x,-y,-z
1/2+x,y,1/2-z
-x,y,z
1/2+x,-y,1/2+z
loop_
_atom_site_type_symbol
_atom_site_label
_atom_site_fract_x
_atom_site_fract_y
_atom_site_fract_z
Si Si1 0.818960 0.757564 0.942642
Si Si2 0.817246 0.247738 0.294920
Si Si3 0.314421 0.988566 0.702579
Si Si4 0.817681 0.380443 0.514243
Si Si5 0.684378 0.011705 0.048227
Si Si6 0.317976 0.362411 0.605487
Si Si7 0.186169 0.863318 0.373179
Si Si8 0.818419 0.397309 0.135546
O O1 0.720431 0.867612 0.932173
O O2 0.774209 0.660004 0.909638
O O3 0.000000 0.791094 0.939894
O O4 0.778590 0.715011 0.990156
O O5 0.750000 0.291797 0.250000
O O6 0.722991 0.138508 0.309767
O O7 0.793913 0.346411 0.328491
O O8 0.000000 0.216824 0.290359
O O9 0.250000 0.016628 0.750000
O O10 0.500000 0.009409 0.700721
O O11 0.227680 0.064960 0.668280
O O12 0.751634 0.500000 0.500000
O O13 0.794620 0.362900 0.564441
O O14 0.000000 0.367890 0.502016
O O15 0.500000 0.994593 0.044344
O O16 0.748539 0.921200 0.082527
O O17 0.760104 0.000000 0.000000
O O18 0.500000 0.361802 0.591113
O O19 0.274346 0.254044 0.632951
O O20 0.282430 0.471941 0.633440
O O21 0.000000 0.845142 0.374970
O O22 0.000000 0.374481 0.147418
#
# Coordination Sequence:
#
# PCOD8221687 Si02
#       8
#     8   8   8   8   8   8   8   8
#     4  11  22  36  58  85 114 149 193 246 295 347
#     4  11  22  38  63  92 122 154 190 238 296 355
#     4  11  22  40  66  94 124 157 199 249 305 365
#     4  11  22  36  56  82 115 156 201 247 295 351
#     4  10  22  39  57  81 118 159 199 246 298 356
#     4  11  23  40  61  85 119 160 202 249 299 354
#     4  11  23  40  62  90 124 162 205 252 306 365
#     4  10  22  39  58  85 119 152 191 240 293 350
#
# _framework density 20.128526999999998
#
# number of rings (size 3 to 8) (size 9 to 14) (size 15 to 20)
#    0.000    1.250    1.250    6.000    0.000    6.750 
#    0.000    0.625    0.000    3.000    0.000    0.000 
#    0.000    0.000    0.000    0.000    0.000    0.000 
#
# Total GULP energy -793921.082911 kJ/mol
# GULP energy per Si atom -12405.016920 kJ/mol
# Density = 2.008271 g / cm^3
# Si number density = 20.128527 Si / 1000 Ang^3
#
#
#
# Elastic Constant Matrix: (Units=GPa)
#
#
# Indices 1 2 3 4 5 6 
#
# 1 47.0682 19.1071 20.3561 0.0000 0.0000 0.0000
# 2 19.1071 123.1432 50.6157 0.0000 0.0000 0.0000
# 3 20.3561 50.6157 99.6870 0.0000 0.0000 0.0000
# 4 0.0000 0.0000 0.0000 27.5947 0.0000 0.0000
# 5 0.0000 0.0000 0.0000 0.0000 29.4721 0.0000
# 6 0.0000 0.0000 0.0000 0.0000 0.0000 31.8874
#
#
#
# Elastic Compliance Matrix: (Units=1/GPa)
#
#
# Indices 1 2 3 4 5 6 
#
# 1 0.023741 -0.002137 -0.003763 0.000000 0.000000 0.000000
# 2 -0.002137 0.010455 -0.004872 0.000000 0.000000 0.000000
# 3 -0.003763 -0.004872 0.013273 0.000000 0.000000 0.000000
# 4 0.000000 0.000000 0.000000 0.036239 0.000000 0.000000
# 5 0.000000 0.000000 0.000000 0.000000 0.033930 0.000000
# 6 0.000000 0.000000 0.000000 0.000000 0.000000 0.031360
#
#
# Mechanical properties :
#
#
# Convention : Reuss Voigt Hill
#
# Bulk Modulus (GPa) = 38.57233 50.00623 44.28928
# Shear Modulus (GPa) = 27.90433 29.77882 28.84157
#
# Velocity S-wave (km/s) = 3.72735 3.85051 3.78943
# Velocity P-wave (km/s) = 6.14238 6.68326 6.41852
#
# Compressibility (1/GPa) = 0.02592532
#
# Stress axis : x y z
#
# Youngs Moduli (GPa) = 42.12193 95.65039 75.33819
#
# Poissons Ratio (x) = 0.20441 0.28348
# Poissons Ratio (y) = 0.09001 0.36705
# Poissons Ratio (z) = 0.15850 0.46601
#
# Static dielectric constant tensor:
#      x y z
#    x 3.567900 0.000000 0.000000 
#    y 0.000000 3.746730 0.000000 
#    z 0.000000 0.000000 3.652900 
# 
# 
# High freq. dielectric constant tensor:
#      x y z
#    x 1.787800 0.000000 0.000000 
#    y 0.000000 1.790160 0.000000 
#    z 0.000000 0.000000 1.779040 
# 
# From -- ./inp_files/38109.got.cif
#   From: 2010.03.12/outbox.cif.g09.slc.cpg/sg53_20_cif.got.tgz:38109.got - 2010.04.16 14:36:59.
