data_PCOD8221651
_publ_section_title
;
Structure prediction by ZEFSAII (Michael W. Deem and Ramdas Pophale) SiO2 
 PCOD8221651
Probable space group: P M N A
;
_chemical_formula_sum "Si O2"
_cell_formula_units_Z 48
_cell_length_a 8.742926
_cell_length_b 30.729300
_cell_length_c 9.052417
_cell_angle_alpha 90.000000
_cell_angle_beta 90.000000
_cell_angle_gamma 90.000000
_cell_volume 2432.058524
_symmetry_space_group_name_H-M "P M N A"
_symmetry_group_IT_number 53
_symmetry_cell_setting 'orthorhombic'
loop_
_space_group_symop_operation_xyz
x,y,z
1/2-x,-y,1/2+z
x,-y,-z
1/2-x,y,1/2-z
-x,-y,-z
1/2+x,y,1/2-z
-x,y,z
1/2+x,-y,1/2+z
loop_
_atom_site_type_symbol
_atom_site_label
_atom_site_fract_x
_atom_site_fract_y
_atom_site_fract_z
Si Si1 0.681381 0.120454 0.089309
Si Si2 0.178833 0.283450 0.092337
Si Si3 0.679958 0.635875 0.409853
Si Si4 0.820311 0.460309 0.907520
Si Si5 0.319808 0.801275 0.411751
Si Si6 0.823784 0.956481 0.093009
O O1 0.750000 0.111993 0.250000
O O2 0.500000 0.123025 0.101498
O O3 0.744891 0.165076 0.024125
O O4 0.728423 0.081401 0.983211
O O5 0.250000 0.272830 0.250000
O O6 0.000000 0.286527 0.118264
O O7 0.243896 0.328862 0.026447
O O8 0.220042 0.246231 0.974523
O O9 0.750000 0.644458 0.250000
O O10 0.500000 0.641489 0.390562
O O11 0.722070 0.587591 0.471468
O O12 0.750000 0.465374 0.750000
O O13 0.000000 0.465750 0.894992
O O14 0.748464 0.500000 0.000000
O O15 0.250000 0.806704 0.250000
O O16 0.500000 0.809806 0.403142
O O17 0.750000 0.966310 0.250000
O O18 0.000000 0.941897 0.109803
O O19 0.809199 0.000000 0.000000
#
# Coordination Sequence:
#
# PCOD8221651 Si02
#       6
#     8   8   8   8   8   8
#     4  12  25  42  64  90 122 157 195 240 289 340
#     4  10  22  37  55  80 110 143 180 226 277 330
#     4   9  18  34  53  75 103 137 178 221 269 324
#     4   9  18  32  50  73 103 137 174 219 268 321
#     4  11  23  40  61  86 115 149 190 233 282 337
#     4  11  24  42  65  93 125 161 201 244 291 342
#
# _framework density 19.736366
#
# number of rings (size 3 to 8) (size 9 to 14) (size 15 to 20)
#    0.000    1.667    0.000    4.500    0.000    7.000 
#    0.000    0.000    0.000    0.000    0.000    0.000 
#    0.000    0.000    0.000    0.000    0.000    0.000 
#
# Total GULP energy -595255.093711 kJ/mol
# GULP energy per Si atom -12401.147786 kJ/mol
# Density = 1.969145 g / cm^3
# Si number density = 19.736366 Si / 1000 Ang^3
#
#
#
# Elastic Constant Matrix: (Units=GPa)
#
#
# Indices 1 2 3 4 5 6 
#
# 1 82.5366 46.8618 43.5422 0.0000 0.0000 0.0000
# 2 46.8618 115.4733 36.8056 0.0000 0.0000 0.0000
# 3 43.5422 36.8056 100.8690 0.0000 0.0000 0.0000
# 4 0.0000 0.0000 0.0000 -12.0308 0.0000 0.0000
# 5 0.0000 0.0000 0.0000 0.0000 34.4071 0.0000
# 6 0.0000 0.0000 0.0000 0.0000 0.0000 59.5104
#
#
#
# Elastic Compliance Matrix: (Units=1/GPa)
#
#
# Indices 1 2 3 4 5 6 
#
# 1 0.018403 -0.005586 -0.005906 0.000000 0.000000 0.000000
# 2 -0.005586 0.011495 -0.001783 0.000000 0.000000 0.000000
# 3 -0.005906 -0.001783 0.013114 0.000000 0.000000 0.000000
# 4 0.000000 0.000000 0.000000 -0.083120 0.000000 0.000000
# 5 0.000000 0.000000 0.000000 0.000000 0.029064 0.000000
# 6 0.000000 0.000000 0.000000 0.000000 0.000000 0.016804
#
#
# Mechanical properties :
#
#
# Convention : Reuss Voigt Hill
#
# Bulk Modulus (GPa) = 60.74493 61.47757 61.11125
# Shear Modulus (GPa) = 132.28511 27.82196 80.05353
#
# Velocity S-wave (km/s) = 8.19583 3.75864 6.37570
# Velocity P-wave (km/s) = 10.97302 7.07485 9.23203
#
# Compressibility (1/GPa) = 0.01646228
#
# Stress axis : x y z
#
# Youngs Moduli (GPa) = 54.33902 86.99215 76.25519
#
# Poissons Ratio (x) = 0.48594 0.45035
# Poissons Ratio (y) = 0.30354 0.13597
# Poissons Ratio (z) = 0.32092 0.15512
#
# Static dielectric constant tensor:
#      x y z
#    x 3.656480 0.000000 0.000000 
#    y 0.000000 4.153090 0.000000 
#    z 0.000000 0.000000 3.652670 
# 
# 
# High freq. dielectric constant tensor:
#      x y z
#    x 1.770940 0.000000 0.000000 
#    y 0.000000 1.791000 0.000000 
#    z 0.000000 0.000000 1.773630 
# 
# From -- ./inp_files/6632.got.cif
#   From: 2010.03.12/outbox.cif.g09.slc.cpg/sg53_4_cif.got.tgz:6632.got - 2010.04.16 14:36:59.
