data_PCOD8221231
_publ_section_title
;
Structure prediction by ZEFSAII (Michael W. Deem and Ramdas Pophale) SiO2 
 PCOD8221231
Probable space group: P M N A
;
_chemical_formula_sum "Si O2"
_cell_formula_units_Z 64
_cell_length_a 8.775124
_cell_length_b 24.214383
_cell_length_c 15.083610
_cell_angle_alpha 90.000000
_cell_angle_beta 90.000000
_cell_angle_gamma 90.000000
_cell_volume 3205.029006
_symmetry_space_group_name_H-M "P M N A"
_symmetry_group_IT_number 53
_symmetry_cell_setting 'orthorhombic'
loop_
_space_group_symop_operation_xyz
x,y,z
1/2-x,-y,1/2+z
x,-y,-z
1/2-x,y,1/2-z
-x,-y,-z
1/2+x,y,1/2-z
-x,y,z
1/2+x,-y,1/2+z
loop_
_atom_site_type_symbol
_atom_site_label
_atom_site_fract_x
_atom_site_fract_y
_atom_site_fract_z
Si Si1 0.179426 0.574208 0.159449
Si Si2 0.180583 0.186721 0.847748
Si Si3 0.679657 0.838700 0.847056
Si Si4 0.679744 0.550040 0.659124
Si Si5 0.819799 0.752899 0.506080
Si Si6 0.822522 0.041281 0.344828
Si Si7 0.180414 0.923574 0.347248
Si Si8 0.680109 0.637162 0.513598
O O1 0.250000 0.597249 0.250000
O O2 0.238778 0.512092 0.138829
O O3 0.230178 0.615763 0.082777
O O4 0.000000 0.573127 0.169110
O O5 0.250000 0.195734 0.750000
O O6 0.236686 0.234871 0.912934
O O7 0.238702 0.128985 0.892729
O O8 0.000000 0.187435 0.840153
O O9 0.750000 0.828788 0.750000
O O10 0.500000 0.832906 0.835544
O O11 0.723696 0.899796 0.888342
O O12 0.740671 0.793989 0.917015
O O13 0.750000 0.572582 0.750000
O O14 0.500000 0.550583 0.667633
O O15 0.734019 0.590260 0.581588
O O16 0.773151 0.691976 0.536529
O O17 0.000000 0.758139 0.493051
O O18 0.750000 0.039169 0.250000
O O19 0.000000 0.040939 0.328006
O O20 0.782350 0.983069 0.395872
O O21 0.250000 0.926816 0.250000
O O22 0.000000 0.912238 0.344408
O O23 0.500000 0.648570 0.519647
#
# Coordination Sequence:
#
# PCOD8221231 Si02
#       8
#     8   8   8   8   8   8   8   8
#     4   9  18  34  57  84 112 142 176 216 264 319
#     4  11  22  38  59  80 106 141 180 224 275 328
#     4   9  19  36  57  79 106 142 182 226 274 324
#     4   9  18  34  57  84 113 144 178 217 264 319
#     4  11  24  40  56  78 109 145 189 233 271 318
#     4   8  14  26  47  75 103 133 170 213 266 325
#     4   9  15  26  48  77 106 134 168 213 267 328
#     4  10  21  37  56  78 108 146 184 222 267 318
#
# _framework density 19.968617999999999
#
# number of rings (size 3 to 8) (size 9 to 14) (size 15 to 20)
#    0.000    2.500    0.000    3.000    0.000    5.000 
#    0.000    4.375    0.000    7.500    0.000    0.000 
#    0.000    0.000    0.000    0.000    0.000    0.000 
#
# Total GULP energy -793025.960152 kJ/mol
# GULP energy per Si atom -12391.030627 kJ/mol
# Density = 1.992317 g / cm^3
# Si number density = 19.968618 Si / 1000 Ang^3
#
#
#
# Elastic Constant Matrix: (Units=GPa)
#
#
# Indices 1 2 3 4 5 6 
#
# 1 56.4076 21.2546 19.0681 0.0000 0.0000 0.0000
# 2 21.2546 84.1858 18.4783 0.0000 0.0000 0.0000
# 3 19.0681 18.4783 59.6458 0.0000 0.0000 0.0000
# 4 0.0000 0.0000 0.0000 23.8797 0.0000 0.0000
# 5 0.0000 0.0000 0.0000 0.0000 24.1008 0.0000
# 6 0.0000 0.0000 0.0000 0.0000 0.0000 31.4650
#
#
#
# Elastic Compliance Matrix: (Units=1/GPa)
#
#
# Indices 1 2 3 4 5 6 
#
# 1 0.021137 -0.004135 -0.005476 0.000000 0.000000 0.000000
# 2 -0.004135 0.013554 -0.002877 0.000000 0.000000 0.000000
# 3 -0.005476 -0.002877 0.019408 0.000000 0.000000 0.000000
# 4 0.000000 0.000000 0.000000 0.041877 0.000000 0.000000
# 5 0.000000 0.000000 0.000000 0.000000 0.041492 0.000000
# 6 0.000000 0.000000 0.000000 0.000000 0.000000 0.031781
#
#
# Mechanical properties :
#
#
# Convention : Reuss Voigt Hill
#
# Bulk Modulus (GPa) = 34.33776 35.31569 34.82673
# Shear Modulus (GPa) = 24.51782 25.31830 24.91806
#
# Velocity S-wave (km/s) = 3.50782 3.56463 3.53634
# Velocity P-wave (km/s) = 5.79997 5.88779 5.84404
#
# Compressibility (1/GPa) = 0.02912246
#
# Stress axis : x y z
#
# Youngs Moduli (GPa) = 47.30978 73.77956 51.52573
#
# Poissons Ratio (x) = 0.30504 0.28218
# Poissons Ratio (y) = 0.19560 0.14825
# Poissons Ratio (z) = 0.25909 0.21228
#
# Static dielectric constant tensor:
#      x y z
#    x 3.506890 0.000000 0.000000 
#    y 0.000000 4.185500 0.000000 
#    z 0.000000 0.000000 3.456120 
# 
# 
# High freq. dielectric constant tensor:
#      x y z
#    x 1.770150 0.000000 0.000000 
#    y 0.000000 1.793180 0.000000 
#    z 0.000000 0.000000 1.759160 
# 
# From -- ./inp_files/20851.got.cif
#   From: 2010.03.12/outbox.cif.g09.slc.cpg/sg53_11_cif.got.tgz:20851.got - 2010.04.16 14:36:59.
