data_PCOD8221252
_publ_section_title
;
Structure prediction by ZEFSAII (Michael W. Deem and Ramdas Pophale) SiO2 
 PCOD8221252
Probable space group: P M N A
;
_chemical_formula_sum "Si O2"
_cell_formula_units_Z 48
_cell_length_a 8.620209
_cell_length_b 30.695484
_cell_length_c 9.298162
_cell_angle_alpha 90.000000
_cell_angle_beta 90.000000
_cell_angle_gamma 90.000000
_cell_volume 2460.307496
_symmetry_space_group_name_H-M "P M N A"
_symmetry_group_IT_number 53
_symmetry_cell_setting 'orthorhombic'
loop_
_space_group_symop_operation_xyz
x,y,z
1/2-x,-y,1/2+z
x,-y,-z
1/2-x,y,1/2-z
-x,-y,-z
1/2+x,y,1/2-z
-x,y,z
1/2+x,-y,1/2+z
loop_
_atom_site_type_symbol
_atom_site_label
_atom_site_fract_x
_atom_site_fract_y
_atom_site_fract_z
Si Si1 0.816786 0.041433 0.091050
Si Si2 0.182571 0.541615 0.093668
Si Si3 0.316381 0.630001 0.091250
Si Si4 0.316725 0.293448 0.404822
Si Si5 0.681333 0.798476 0.902635
Si Si6 0.681143 0.881025 0.091474
O O1 0.750000 0.038194 0.250000
O O2 0.000000 0.042722 0.102662
O O3 0.759814 0.084552 0.012931
O O4 0.758785 0.000000 0.000000
O O5 0.250000 0.532537 0.250000
O O6 0.262315 0.584178 0.020688
O O7 0.000000 0.549911 0.103524
O O8 0.225889 0.500000 0.000000
O O9 0.250000 0.630070 0.250000
O O10 0.500000 0.634005 0.089436
O O11 0.243236 0.670898 0.013559
O O12 0.250000 0.305107 0.250000
O O13 0.500000 0.293920 0.399058
O O14 0.259897 0.246032 0.456018
O O15 0.750000 0.814281 0.750000
O O16 0.500000 0.790377 0.880188
O O17 0.715605 0.833729 0.025360
O O18 0.750000 0.883848 0.250000
O O19 0.500000 0.891204 0.099398
#
# Coordination Sequence:
#
# PCOD8221252 Si02
#       6
#     8   8   8   8   8   8
#     4  11  24  41  63  90 121 157 197 242 291 345
#     4  10  21  37  57  82 112 146 187 233 282 338
#     4  11  22  38  59  83 114 150 189 234 285 341
#     4  11  22  38  60  86 116 151 192 237 286 340
#     4  10  21  38  59  85 115 150 192 237 288 342
#     4  11  24  40  61  88 120 156 196 242 290 344
#
# _framework density 19.509755999999999
#
# number of rings (size 3 to 8) (size 9 to 14) (size 15 to 20)
#    0.000    1.333    0.000    8.000    0.000    9.333 
#    0.000    3.333    0.000    0.000    0.000    0.000 
#    0.000    0.000    0.000    0.000    0.000    0.000 
#
# Total GULP energy -595365.946757 kJ/mol
# GULP energy per Si atom -12403.457224 kJ/mol
# Density = 1.946535 g / cm^3
# Si number density = 19.509756 Si / 1000 Ang^3
#
#
#
# Elastic Constant Matrix: (Units=GPa)
#
#
# Indices 1 2 3 4 5 6 
#
# 1 136.1191 64.7263 49.1087 0.0000 0.0000 0.0000
# 2 64.7263 122.5468 68.2982 0.0000 0.0000 0.0000
# 3 49.1087 68.2982 112.5103 0.0000 0.0000 0.0000
# 4 0.0000 0.0000 0.0000 42.5034 0.0000 0.0000
# 5 0.0000 0.0000 0.0000 0.0000 37.7497 0.0000
# 6 0.0000 0.0000 0.0000 0.0000 0.0000 36.2845
#
#
#
# Elastic Compliance Matrix: (Units=1/GPa)
#
#
# Indices 1 2 3 4 5 6 
#
# 1 0.010035 -0.004321 -0.001757 0.000000 0.000000 0.000000
# 2 -0.004321 0.014193 -0.006730 0.000000 0.000000 0.000000
# 3 -0.001757 -0.006730 0.013740 0.000000 0.000000 0.000000
# 4 0.000000 0.000000 0.000000 0.023528 0.000000 0.000000
# 5 0.000000 0.000000 0.000000 0.000000 0.026490 0.000000
# 6 0.000000 0.000000 0.000000 0.000000 0.000000 0.027560
#
#
# Mechanical properties :
#
#
# Convention : Reuss Voigt Hill
#
# Bulk Modulus (GPa) = 80.95388 81.71584 81.33486
# Shear Modulus (GPa) = 34.41647 35.91041 35.16344
#
# Velocity S-wave (km/s) = 4.20463 4.29492 4.25002
# Velocity P-wave (km/s) = 8.07193 8.15908 8.11562
#
# Compressibility (1/GPa) = 0.01235271
#
# Stress axis : x y z
#
# Youngs Moduli (GPa) = 99.64988 70.45718 72.77915
#
# Poissons Ratio (x) = 0.30445 0.12788
# Poissons Ratio (y) = 0.43059 0.48978
# Poissons Ratio (z) = 0.17510 0.47415
#
# Static dielectric constant tensor:
#      x y z
#    x 3.802420 0.000000 0.000000 
#    y 0.000000 3.967590 0.000000 
#    z 0.000000 0.000000 4.030670 
# 
# 
# High freq. dielectric constant tensor:
#      x y z
#    x 1.782440 0.000000 0.000000 
#    y 0.000000 1.779280 0.000000 
#    z 0.000000 0.000000 1.758340 
# 
# From -- ./inp_files/6682.got.cif
#   From: 2010.03.12/outbox.cif.g09.slc.cpg/sg53_4_cif.got.tgz:6682.got - 2010.04.16 14:36:59.
