data_PCOD8221023
_publ_section_title
;
Structure prediction by ZEFSAII (Michael W. Deem and Ramdas Pophale) SiO2 
 PCOD8221023
Probable space group: P M N A
;
_chemical_formula_sum "Si O2"
_cell_formula_units_Z 64
_cell_length_a 8.739034
_cell_length_b 14.914726
_cell_length_c 23.683161
_cell_angle_alpha 90.000000
_cell_angle_beta 90.000000
_cell_angle_gamma 90.000000
_cell_volume 3086.870253
_symmetry_space_group_name_H-M "P M N A"
_symmetry_group_IT_number 53
_symmetry_cell_setting 'orthorhombic'
loop_
_space_group_symop_operation_xyz
x,y,z
1/2-x,-y,1/2+z
x,-y,-z
1/2-x,y,1/2-z
-x,-y,-z
1/2+x,y,1/2-z
-x,y,z
1/2+x,-y,1/2+z
loop_
_atom_site_type_symbol
_atom_site_label
_atom_site_fract_x
_atom_site_fract_y
_atom_site_fract_z
Si Si1 0.320781 0.144422 0.594128
Si Si2 0.678218 0.680545 0.120168
Si Si3 0.330454 0.101933 0.017759
Si Si4 0.180702 0.351268 0.115286
Si Si5 0.680204 0.201653 0.191211
Si Si6 0.321197 0.603565 0.999206
Si Si7 0.680630 0.492043 0.811319
Si Si8 0.821327 0.052299 0.128079
O O1 0.500000 0.141959 0.583139
O O2 0.271713 0.228083 0.633270
O O3 0.238114 0.158718 0.533879
O O4 0.269570 0.051552 0.623853
O O5 0.500000 0.703430 0.121837
O O6 0.720812 0.608261 0.168050
O O7 0.727545 0.643655 0.059227
O O8 0.500000 0.139781 0.032695
O O9 0.219118 0.107416 0.071309
O O10 0.343806 0.000000 0.000000
O O11 0.251392 0.262982 0.142449
O O12 0.224923 0.347535 0.049442
O O13 0.249360 0.439568 0.144035
O O14 0.000000 0.351000 0.123002
O O15 0.750000 0.234600 0.250000
O O16 0.500000 0.211387 0.193820
O O17 0.728858 0.098488 0.179176
O O18 0.500000 0.616656 0.986565
O O19 0.276246 0.500000 0.000000
O O20 0.750000 0.508818 0.750000
O O21 0.500000 0.508149 0.809413
O O22 0.000000 0.061320 0.140160
#
# Coordination Sequence:
#
# PCOD8221023 Si02
#       8
#     8   8   8   8   8   8   8   8
#     4  10  21  36  58  87 124 161 200 253 306 361
#     4  10  22  39  62  89 126 169 211 255 308 372
#     4   9  17  31  53  81 113 152 196 240 293 356
#     4  12  25  41  64  95 128 164 204 253 309 374
#     4  12  26  45  67  91 122 161 207 261 314 375
#     4  10  20  40  64  90 127 169 209 254 312 373
#     4  11  23  43  66  91 121 161 207 257 307 361
#     4  10  21  39  60  86 119 157 202 252 307 361
#
# _framework density 20.732973999999999
#
# number of rings (size 3 to 8) (size 9 to 14) (size 15 to 20)
#    0.000    1.500    1.250    4.125    1.750    4.750 
#    0.000    0.625    0.000    1.500    0.000    0.000 
#    0.000    0.000    0.000    0.000    0.000    0.000 
#
# Total GULP energy -793831.085772 kJ/mol
# GULP energy per Si atom -12403.610715 kJ/mol
# Density = 2.068578 g / cm^3
# Si number density = 20.732974 Si / 1000 Ang^3
#
#
#
# Elastic Constant Matrix: (Units=GPa)
#
#
# Indices 1 2 3 4 5 6 
#
# 1 110.7158 32.9136 28.3185 0.0000 0.0000 0.0000
# 2 32.9136 86.1671 10.1621 0.0000 0.0000 0.0000
# 3 28.3185 10.1621 67.4674 0.0000 0.0000 0.0000
# 4 0.0000 0.0000 0.0000 24.2125 0.0000 0.0000
# 5 0.0000 0.0000 0.0000 0.0000 33.5579 0.0000
# 6 0.0000 0.0000 0.0000 0.0000 0.0000 30.7150
#
#
#
# Elastic Compliance Matrix: (Units=1/GPa)
#
#
# Indices 1 2 3 4 5 6 
#
# 1 0.011219 -0.003798 -0.004137 0.000000 0.000000 0.000000
# 2 -0.003798 0.013101 -0.000379 0.000000 0.000000 0.000000
# 3 -0.004137 -0.000379 0.016616 0.000000 0.000000 0.000000
# 4 0.000000 0.000000 0.000000 0.041301 0.000000 0.000000
# 5 0.000000 0.000000 0.000000 0.000000 0.029799 0.000000
# 6 0.000000 0.000000 0.000000 0.000000 0.000000 0.032557
#
#
# Mechanical properties :
#
#
# Convention : Reuss Voigt Hill
#
# Bulk Modulus (GPa) = 41.13943 45.23764 43.18854
# Shear Modulus (GPa) = 29.52925 30.56080 30.04502
#
# Velocity S-wave (km/s) = 3.77804 3.84346 3.81089
# Velocity P-wave (km/s) = 6.23835 6.44692 6.34349
#
# Compressibility (1/GPa) = 0.02430758
#
# Stress axis : x y z
#
# Youngs Moduli (GPa) = 89.13255 76.33201 60.18440
#
# Poissons Ratio (x) = 0.28987 0.24899
# Poissons Ratio (y) = 0.33849 0.02283
# Poissons Ratio (z) = 0.36875 0.02895
#
# Static dielectric constant tensor:
#      x y z
#    x 3.738390 0.000000 0.000000 
#    y 0.000000 3.896280 0.000000 
#    z 0.000000 0.000000 3.682420 
# 
# 
# High freq. dielectric constant tensor:
#      x y z
#    x 1.814310 0.000000 0.000000 
#    y 0.000000 1.821670 0.000000 
#    z 0.000000 0.000000 1.797030 
# 
# From -- ./inp_files/34315.got.cif
#   From: 2010.03.12/outbox.cif.g09.slc.cpg/sg53_18_cif.got.tgz:34315.got - 2010.04.16 14:36:59.
