data_PCOD8221115
_publ_section_title
;
Structure prediction by ZEFSAII (Michael W. Deem and Ramdas Pophale) SiO2 
 PCOD8221115
Probable space group: P M N A
;
_chemical_formula_sum "Si O2"
_cell_formula_units_Z 64
_cell_length_a 15.768677
_cell_length_b 20.669436
_cell_length_c 9.720389
_cell_angle_alpha 90.000000
_cell_angle_beta 90.000000
_cell_angle_gamma 90.000000
_cell_volume 3168.163082
_symmetry_space_group_name_H-M "P M N A"
_symmetry_group_IT_number 53
_symmetry_cell_setting 'orthorhombic'
loop_
_space_group_symop_operation_xyz
x,y,z
1/2-x,-y,1/2+z
x,-y,-z
1/2-x,y,1/2-z
-x,-y,-z
1/2+x,y,1/2-z
-x,y,z
1/2+x,-y,1/2+z
loop_
_atom_site_type_symbol
_atom_site_label
_atom_site_fract_x
_atom_site_fract_y
_atom_site_fract_z
Si Si1 0.828203 0.869608 0.157432
Si Si2 0.742380 0.562778 0.086882
Si Si3 0.402948 0.357858 0.531581
Si Si4 0.648498 0.260718 0.754341
Si Si5 0.649547 0.724225 0.727022
Si Si6 0.091628 0.000687 0.163108
Si Si7 0.096348 0.664750 0.494252
Si Si8 0.333999 0.135236 0.333669
O O1 0.750000 0.849340 0.250000
O O2 0.887533 0.807815 0.193529
O O3 0.854018 0.939912 0.215007
O O4 0.811839 0.869538 0.995124
O O5 0.750000 0.548635 0.250000
O O6 0.717106 0.500000 0.000000
O O7 0.835042 0.584195 0.032462
O O8 0.666725 0.612962 0.053685
O O9 0.500000 0.383572 0.514333
O O10 0.395672 0.318808 0.672628
O O11 0.376471 0.310170 0.411312
O O12 0.750000 0.270434 0.750000
O O13 0.614775 0.269293 0.909519
O O14 0.750000 0.723131 0.750000
O O15 0.603646 0.685940 0.847949
O O16 0.617143 0.798810 0.707437
O O17 0.000000 0.986701 0.224686
O O18 0.117366 0.071160 0.216575
O O19 0.090564 0.000000 0.000000
O O20 0.000000 0.638616 0.471153
O O21 0.250000 0.133665 0.250000
#
# Coordination Sequence:
#
# PCOD8221115 Si02
#       8
#     8   8   8   8   8   8   8   8
#     4  10  21  35  62  90 117 163 219 265 317 384
#     4  12  28  49  72  99 135 174 212 259 313 381
#     4  12  23  42  70  99 131 169 216 267 314 374
#     4  11  20  40  66  95 129 169 214 271 325 376
#     4  11  22  40  66  97 134 170 215 272 325 382
#     4   9  19  36  54  80 123 165 210 266 320 379
#     4  12  25  44  70  99 135 173 213 267 325 379
#     4  10  21  36  61  88 120 167 212 263 321 384
#
# _framework density 20.200982
#
# number of rings (size 3 to 8) (size 9 to 14) (size 15 to 20)
#    0.000    1.125    5.000    1.125    7.000    2.500 
#    0.000    0.000    0.000    0.750    0.000    0.000 
#    0.000    0.000    0.000    0.000    0.000    0.000 
#
# Total GULP energy -792975.900144 kJ/mol
# GULP energy per Si atom -12390.248440 kJ/mol
# Density = 2.015500 g / cm^3
# Si number density = 20.200982 Si / 1000 Ang^3
#
#
#
# Elastic Constant Matrix: (Units=GPa)
#
#
# Indices 1 2 3 4 5 6 
#
# 1 111.1738 40.5669 22.2889 0.0000 0.0000 0.0000
# 2 40.5669 117.9683 44.2242 0.0000 0.0000 0.0000
# 3 22.2889 44.2242 55.3649 0.0000 0.0000 0.0000
# 4 0.0000 0.0000 0.0000 51.1987 0.0000 0.0000
# 5 0.0000 0.0000 0.0000 0.0000 -29.0575 0.0000
# 6 0.0000 0.0000 0.0000 0.0000 0.0000 2.0826
#
#
#
# Elastic Compliance Matrix: (Units=1/GPa)
#
#
# Indices 1 2 3 4 5 6 
#
# 1 0.010424 -0.002871 -0.001903 0.000000 0.000000 0.000000
# 2 -0.002871 0.012891 -0.009141 0.000000 0.000000 0.000000
# 3 -0.001903 -0.009141 0.026130 0.000000 0.000000 0.000000
# 4 0.000000 0.000000 0.000000 0.019532 0.000000 0.000000
# 5 0.000000 0.000000 0.000000 0.000000 -0.034415 0.000000
# 6 0.000000 0.000000 0.000000 0.000000 0.000000 0.480176
#
#
# Mechanical properties :
#
#
# Convention : Reuss Voigt Hill
#
# Bulk Modulus (GPa) = 46.26609 55.40743 50.83676
# Shear Modulus (GPa) = 9.09464 16.67321 12.88393
#
# Velocity S-wave (km/s) = 2.12411 2.87604 2.52818
# Velocity P-wave (km/s) = 5.38223 6.20616 5.80882
#
# Compressibility (1/GPa) = 0.02161410
#
# Stress axis : x y z
#
# Youngs Moduli (GPa) = 95.93090 77.57314 38.27032
#
# Poissons Ratio (x) = 0.22273 0.07283
# Poissons Ratio (y) = 0.27544 0.34984
# Poissons Ratio (z) = 0.18257 0.70911
#
# Static dielectric constant tensor:
#      x y z
#    x 2.140410 0.000000 0.000000 
#    y 0.000000 4.773100 0.000000 
#    z 0.000000 0.000000 3.793010 
# 
# 
# High freq. dielectric constant tensor:
#      x y z
#    x 1.780710 0.000000 0.000000 
#    y 0.000000 1.794900 0.000000 
#    z 0.000000 0.000000 1.789530 
# 
# From -- ./inp_files/8967.got.cif
#   From: 2010.03.12/outbox.cif.g09.slc.cpg/sg53_5_cif.got.tgz:8967.got - 2010.04.16 14:36:59.
