data_PCOD8221619
_publ_section_title
;
Structure prediction by ZEFSAII (Michael W. Deem and Ramdas Pophale) SiO2 
 PCOD8221619
Probable space group: P M N A
;
_chemical_formula_sum "Si O2"
_cell_formula_units_Z 36
_cell_length_a 13.498334
_cell_length_b 8.286358
_cell_length_c 14.734292
_cell_angle_alpha 90.000000
_cell_angle_beta 90.000000
_cell_angle_gamma 90.000000
_cell_volume 1648.060440
_symmetry_space_group_name_H-M "P M N A"
_symmetry_group_IT_number 53
_symmetry_cell_setting 'orthorhombic'
loop_
_space_group_symop_operation_xyz
x,y,z
1/2-x,-y,1/2+z
x,-y,-z
1/2-x,y,1/2-z
-x,-y,-z
1/2+x,y,1/2-z
-x,y,z
1/2+x,-y,1/2+z
loop_
_atom_site_type_symbol
_atom_site_label
_atom_site_fract_x
_atom_site_fract_y
_atom_site_fract_z
Si Si1 0.250000 0.395481 0.750000
Si Si2 0.110552 0.814876 0.370797
Si Si3 0.648451 0.149730 0.207330
Si Si4 0.390893 0.373773 0.361656
Si Si5 0.787434 0.675732 0.534566
O O1 0.333364 0.288427 0.796290
O O2 0.188478 0.497597 0.823369
O O3 0.174539 0.809669 0.463433
O O4 0.000000 0.744227 0.386824
O O5 0.094921 0.997874 0.337315
O O6 0.750000 0.085405 0.250000
O O7 0.588018 0.231383 0.289281
O O8 0.663020 0.289352 0.132113
O O9 0.500000 0.444253 0.387166
O O10 0.333199 0.311328 0.452616
O O11 0.821887 0.500000 0.500000
#
# Coordination Sequence:
#
# PCOD8221619 Si02
#       5
#     4   8   8   8   8
#     4  12  22  44  64  98 126 164 216 274 310 384
#     4  12  25  41  66  95 128 169 212 266 326 377
#     4  10  21  42  69  92 130 167 211 270 313 380
#     4  11  22  42  69  94 125 174 215 258 323 377
#     4  11  22  41  63  98 131 164 210 265 314 377
#
# _framework density 21.843858999999998
#
# number of rings (size 3 to 8) (size 9 to 14) (size 15 to 20)
#    0.000    0.889    6.667    2.000    0.000    3.556 
#    0.000    0.000    0.000    2.667    0.000    0.000 
#    0.000    0.000    0.000    0.000    0.000    0.000 
#
# Total GULP energy -446152.582476 kJ/mol
# GULP energy per Si atom -12393.127291 kJ/mol
# Density = 2.179414 g / cm^3
# Si number density = 21.843859 Si / 1000 Ang^3
#
#
#
# Elastic Constant Matrix: (Units=GPa)
#
#
# Indices 1 2 3 4 5 6 
#
# 1 179.0006 41.5831 49.2173 0.0000 0.0000 0.0000
# 2 41.5831 99.1282 32.2430 0.0000 0.0000 0.0000
# 3 49.2173 32.2430 97.2369 0.0000 0.0000 0.0000
# 4 0.0000 0.0000 0.0000 33.2461 0.0000 0.0000
# 5 0.0000 0.0000 0.0000 0.0000 18.5295 0.0000
# 6 0.0000 0.0000 0.0000 0.0000 0.0000 10.8809
#
#
#
# Elastic Compliance Matrix: (Units=1/GPa)
#
#
# Indices 1 2 3 4 5 6 
#
# 1 0.006809 -0.001945 -0.002801 0.000000 0.000000 0.000000
# 2 -0.001945 0.011863 -0.002949 0.000000 0.000000 0.000000
# 3 -0.002801 -0.002949 0.012680 0.000000 0.000000 0.000000
# 4 0.000000 0.000000 0.000000 0.030079 0.000000 0.000000
# 5 0.000000 0.000000 0.000000 0.000000 0.053968 0.000000
# 6 0.000000 0.000000 0.000000 0.000000 0.000000 0.091904
#
#
# Mechanical properties :
#
#
# Convention : Reuss Voigt Hill
#
# Bulk Modulus (GPa) = 62.65386 69.05027 65.85206
# Shear Modulus (GPa) = 21.92848 29.35279 25.64064
#
# Velocity S-wave (km/s) = 3.17183 3.66970 3.42981
# Velocity P-wave (km/s) = 6.49299 7.04522 6.77473
#
# Compressibility (1/GPa) = 0.01596071
#
# Stress axis : x y z
#
# Youngs Moduli (GPa) = 146.87209 84.29486 78.86418
#
# Poissons Ratio (x) = 0.16395 0.22092
# Poissons Ratio (y) = 0.28566 0.23259
# Poissons Ratio (z) = 0.41144 0.24861
#
# Static dielectric constant tensor:
#      x y z
#    x 3.920190 0.000000 0.000000 
#    y 0.000000 3.769620 0.000000 
#    z 0.000000 0.000000 4.147340 
# 
# 
# High freq. dielectric constant tensor:
#      x y z
#    x 1.863060 0.000000 0.000000 
#    y 0.000000 1.844350 0.000000 
#    z 0.000000 0.000000 1.861400 
# 
# From -- ./inp_files/22319.got.cif
#   From: 2010.03.12/outbox.cif.g09.slc.cpg/sg53_12_cif.got.tgz:22319.got - 2010.04.16 14:36:59.
