data_PCOD8221153
_publ_section_title
;
Structure prediction by ZEFSAII (Michael W. Deem and Ramdas Pophale) SiO2 
 PCOD8221153
Probable space group: P M N A
;
_chemical_formula_sum "Si O2"
_cell_formula_units_Z 56
_cell_length_a 8.917928
_cell_length_b 19.120758
_cell_length_c 15.861981
_cell_angle_alpha 90.000000
_cell_angle_beta 90.000000
_cell_angle_gamma 90.000000
_cell_volume 2704.746030
_symmetry_space_group_name_H-M "P M N A"
_symmetry_group_IT_number 53
_symmetry_cell_setting 'orthorhombic'
loop_
_space_group_symop_operation_xyz
x,y,z
1/2-x,-y,1/2+z
x,-y,-z
1/2-x,y,1/2-z
-x,-y,-z
1/2+x,y,1/2-z
-x,y,z
1/2+x,-y,1/2+z
loop_
_atom_site_type_symbol
_atom_site_label
_atom_site_fract_x
_atom_site_fract_y
_atom_site_fract_z
Si Si1 0.831916 0.201902 0.591099
Si Si2 0.178403 0.655290 0.836536
Si Si3 0.327158 0.582383 0.994317
Si Si4 0.670626 0.788652 0.902011
Si Si5 0.176074 0.654730 0.335738
Si Si6 0.326120 0.076370 0.661852
Si Si7 0.323278 0.080177 0.339933
O O1 0.825264 0.236441 0.498593
O O2 0.782058 0.263212 0.654693
O O3 0.725636 0.134383 0.595288
O O4 0.000000 0.176526 0.611589
O O5 0.250000 0.625056 0.750000
O O6 0.233841 0.735211 0.846172
O O7 0.000000 0.653165 0.830055
O O8 0.231285 0.609317 0.915477
O O9 0.500000 0.605289 0.980203
O O10 0.263803 0.613117 0.082476
O O11 0.310037 0.500000 0.000000
O O12 0.500000 0.791485 0.867928
O O13 0.745243 0.865344 0.902243
O O14 0.250000 0.625746 0.250000
O O15 0.000000 0.643130 0.327861
O O16 0.250000 0.093005 0.750000
O O17 0.500000 0.083807 0.677182
O O18 0.287046 0.998576 0.628237
O O19 0.250000 0.093083 0.250000
O O20 0.500000 0.093731 0.335312
#
# Coordination Sequence:
#
# PCOD8221153 Si02
#       7
#     8   8   8   8   8   8   8
#     4  10  21  37  58  83 116 155 202 256 307 367
#     4  12  25  42  67  96 130 170 214 262 313 375
#     4  10  22  44  70  96 132 171 208 257 312 367
#     4  11  22  39  61  86 119 157 205 259 312 372
#     4  10  21  39  62  92 126 163 207 253 307 367
#     4  10  21  36  55  79 113 153 200 253 306 369
#     4  10  21  37  55  80 113 153 200 252 310 368
#
# _framework density 20.704348
#
# number of rings (size 3 to 8) (size 9 to 14) (size 15 to 20)
#    0.000    1.571    1.429    3.429    0.000    6.571 
#    0.000    4.286    0.000    0.000    0.000    0.000 
#    0.000    0.000    0.000    0.000    0.000    0.000 
#
# Total GULP energy -694503.648166 kJ/mol
# GULP energy per Si atom -12401.850860 kJ/mol
# Density = 2.065722 g / cm^3
# Si number density = 20.704348 Si / 1000 Ang^3
#
#
#
# Elastic Constant Matrix: (Units=GPa)
#
#
# Indices 1 2 3 4 5 6 
#
# 1 111.7706 48.1691 54.1597 0.0000 0.0000 0.0000
# 2 48.1691 89.0062 46.8455 0.0000 0.0000 0.0000
# 3 54.1597 46.8455 129.2128 0.0000 0.0000 0.0000
# 4 0.0000 0.0000 0.0000 26.3223 0.0000 0.0000
# 5 0.0000 0.0000 0.0000 0.0000 35.9056 0.0000
# 6 0.0000 0.0000 0.0000 0.0000 0.0000 18.6935
#
#
#
# Elastic Compliance Matrix: (Units=1/GPa)
#
#
# Indices 1 2 3 4 5 6 
#
# 1 0.012859 -0.005095 -0.003543 0.000000 0.000000 0.000000
# 2 -0.005095 0.015903 -0.003630 0.000000 0.000000 0.000000
# 3 -0.003543 -0.003630 0.010540 0.000000 0.000000 0.000000
# 4 0.000000 0.000000 0.000000 0.037991 0.000000 0.000000
# 5 0.000000 0.000000 0.000000 0.000000 0.027851 0.000000
# 6 0.000000 0.000000 0.000000 0.000000 0.000000 0.053495
#
#
# Mechanical properties :
#
#
# Convention : Reuss Voigt Hill
#
# Bulk Modulus (GPa) = 67.71791 69.81534 68.76663
# Shear Modulus (GPa) = 26.58216 28.23862 27.41039
#
# Velocity S-wave (km/s) = 3.58703 3.69711 3.64248
# Velocity P-wave (km/s) = 7.06639 7.21236 7.13975
#
# Compressibility (1/GPa) = 0.01476714
#
# Stress axis : x y z
#
# Youngs Moduli (GPa) = 77.76499 62.88161 94.87403
#
# Poissons Ratio (x) = 0.32035 0.33613
# Poissons Ratio (y) = 0.39618 0.34441
# Poissons Ratio (z) = 0.27552 0.22827
#
# Static dielectric constant tensor:
#      x y z
#    x 3.742210 0.000000 0.000000 
#    y 0.000000 3.736270 0.000000 
#    z 0.000000 0.000000 3.684340 
# 
# 
# High freq. dielectric constant tensor:
#      x y z
#    x 1.807160 0.000000 0.000000 
#    y 0.000000 1.812200 0.000000 
#    z 0.000000 0.000000 1.811130 
# 
# From -- ./inp_files/20450.got.cif
#   From: 2010.03.12/outbox.cif.g09.slc.cpg/sg53_11_cif.got.tgz:20450.got - 2010.04.16 14:36:59.
