data_PCOD8221175
_publ_section_title
;
Structure prediction by ZEFSAII (Michael W. Deem and Ramdas Pophale) SiO2 
 PCOD8221175
Probable space group: P M N A
;
_chemical_formula_sum "Si O2"
_cell_formula_units_Z 48
_cell_length_a 8.794145
_cell_length_b 29.836151
_cell_length_c 9.461089
_cell_angle_alpha 90.000000
_cell_angle_beta 90.000000
_cell_angle_gamma 90.000000
_cell_volume 2482.433060
_symmetry_space_group_name_H-M "P M N A"
_symmetry_group_IT_number 53
_symmetry_cell_setting 'orthorhombic'
loop_
_space_group_symop_operation_xyz
x,y,z
1/2-x,-y,1/2+z
x,-y,-z
1/2-x,y,1/2-z
-x,-y,-z
1/2+x,y,1/2-z
-x,y,z
1/2+x,-y,1/2+z
loop_
_atom_site_type_symbol
_atom_site_label
_atom_site_fract_x
_atom_site_fract_y
_atom_site_fract_z
Si Si1 0.320426 0.459153 0.900905
Si Si2 0.678662 0.958168 0.597761
Si Si3 0.321223 0.715351 0.597952
Si Si4 0.820743 0.367320 0.901218
Si Si5 0.676783 0.889137 0.103391
Si Si6 0.323309 0.215530 0.896232
O O1 0.250000 0.469962 0.750000
O O2 0.500000 0.453424 0.887802
O O3 0.249853 0.413272 0.962574
O O4 0.273316 0.500000 0.000000
O O5 0.750000 0.966559 0.750000
O O6 0.500000 0.951958 0.614428
O O7 0.746826 0.913484 0.528874
O O8 0.722041 0.000000 0.500000
O O9 0.250000 0.708577 0.750000
O O10 0.500000 0.721584 0.611846
O O11 0.276448 0.672047 0.507309
O O12 0.253458 0.759656 0.526966
O O13 0.750000 0.355474 0.750000
O O14 0.000000 0.373110 0.884052
O O15 0.750000 0.905968 0.250000
O O16 0.500000 0.900966 0.109152
O O17 0.707208 0.836798 0.080927
O O18 0.250000 0.232361 0.750000
O O19 0.500000 0.227271 0.890524
#
# Coordination Sequence:
#
# PCOD8221175 Si02
#       6
#     8   8   8   8   8   8
#     4  10  21  36  56  82 110 143 182 224 272 326
#     4  11  24  40  60  86 116 152 192 235 284 337
#     4  11  24  39  57  83 114 149 188 233 284 334
#     4  10  21  37  58  82 108 143 185 227 274 329
#     4  10  21  38  61  88 117 150 189 233 281 334
#     4  10  21  38  61  87 115 150 190 231 278 335
#
# _framework density 19.33587
#
# number of rings (size 3 to 8) (size 9 to 14) (size 15 to 20)
#    0.000    1.667    0.000    5.000    0.000   11.333 
#    0.000    3.333    0.000    0.000    0.000    0.000 
#    0.000    0.000    0.000    0.000    0.000    0.000 
#
# Total GULP energy -595483.260198 kJ/mol
# GULP energy per Si atom -12405.901254 kJ/mol
# Density = 1.929186 g / cm^3
# Si number density = 19.335870 Si / 1000 Ang^3
#
#
#
# Elastic Constant Matrix: (Units=GPa)
#
#
# Indices 1 2 3 4 5 6 
#
# 1 118.0583 69.3902 72.8152 0.0000 0.0000 0.0000
# 2 69.3902 100.9737 76.1135 0.0000 0.0000 0.0000
# 3 72.8152 76.1135 141.6548 0.0000 0.0000 0.0000
# 4 0.0000 0.0000 0.0000 39.2233 0.0000 0.0000
# 5 0.0000 0.0000 0.0000 0.0000 37.7597 0.0000
# 6 0.0000 0.0000 0.0000 0.0000 0.0000 25.7649
#
#
#
# Elastic Compliance Matrix: (Units=1/GPa)
#
#
# Indices 1 2 3 4 5 6 
#
# 1 0.015295 -0.007705 -0.003722 0.000000 0.000000 0.000000
# 2 -0.007705 0.020527 -0.007069 0.000000 0.000000 0.000000
# 3 -0.003722 -0.007069 0.012771 0.000000 0.000000 0.000000
# 4 0.000000 0.000000 0.000000 0.025495 0.000000 0.000000
# 5 0.000000 0.000000 0.000000 0.000000 0.026483 0.000000
# 6 0.000000 0.000000 0.000000 0.000000 0.000000 0.038812
#
#
# Mechanical properties :
#
#
# Convention : Reuss Voigt Hill
#
# Bulk Modulus (GPa) = 86.20060 88.59161 87.39610
# Shear Modulus (GPa) = 27.74045 30.04077 28.89061
#
# Velocity S-wave (km/s) = 3.79180 3.94589 3.86961
# Velocity P-wave (km/s) = 7.99048 8.16558 8.07851
#
# Compressibility (1/GPa) = 0.01160085
#
# Stress axis : x y z
#
# Youngs Moduli (GPa) = 65.38188 48.71606 78.30368
#
# Poissons Ratio (x) = 0.37537 0.29144
# Poissons Ratio (y) = 0.50378 0.55352
# Poissons Ratio (z) = 0.24334 0.34437
#
# Static dielectric constant tensor:
#      x y z
#    x 3.684360 0.000000 0.000000 
#    y 0.000000 3.652880 0.000000 
#    z 0.000000 0.000000 3.496690 
# 
# 
# High freq. dielectric constant tensor:
#      x y z
#    x 1.771710 0.000000 0.000000 
#    y 0.000000 1.763730 0.000000 
#    z 0.000000 0.000000 1.752400 
# 
# From -- ./inp_files/6684.got.cif
#   From: 2010.03.12/outbox.cif.g09.slc.cpg/sg53_4_cif.got.tgz:6684.got - 2010.04.16 14:36:59.
