data_PCOD8221150
_publ_section_title
;
Structure prediction by ZEFSAII (Michael W. Deem and Ramdas Pophale) SiO2 
 PCOD8221150
Probable space group: P M N A
;
_chemical_formula_sum "Si O2"
_cell_formula_units_Z 64
_cell_length_a 8.564640
_cell_length_b 40.036008
_cell_length_c 10.033380
_cell_angle_alpha 90.000000
_cell_angle_beta 90.000000
_cell_angle_gamma 90.000000
_cell_volume 3440.385757
_symmetry_space_group_name_H-M "P M N A"
_symmetry_group_IT_number 53
_symmetry_cell_setting 'orthorhombic'
loop_
_space_group_symop_operation_xyz
x,y,z
1/2-x,-y,1/2+z
x,-y,-z
1/2-x,y,1/2-z
-x,-y,-z
1/2+x,y,1/2-z
-x,y,z
1/2+x,-y,1/2+z
loop_
_atom_site_type_symbol
_atom_site_label
_atom_site_fract_x
_atom_site_fract_y
_atom_site_fract_z
Si Si1 0.684520 0.275754 0.607203
Si Si2 0.815269 0.221441 0.107141
Si Si3 0.183191 0.972534 0.389825
Si Si4 0.815576 0.850083 0.606522
Si Si5 0.815373 0.527092 0.892910
Si Si6 0.684622 0.347267 0.892914
Si Si7 0.815343 0.401394 0.392944
Si Si8 0.184591 0.901014 0.105518
O O1 0.750000 0.264649 0.750000
O O2 0.500000 0.278249 0.616684
O O3 0.739878 0.248679 0.499775
O O4 0.750572 0.311452 0.562338
O O5 0.750000 0.232559 0.250000
O O6 0.747744 0.185916 0.061809
O O7 0.000000 0.218594 0.115875
O O8 0.250000 0.986023 0.250000
O O9 0.270625 0.938793 0.432076
O O10 0.000000 0.965058 0.375666
O O11 0.220013 0.000000 0.500000
O O12 0.750000 0.860596 0.750000
O O13 0.763075 0.877144 0.500773
O O14 0.000000 0.848577 0.615204
O O15 0.750000 0.516097 0.750000
O O16 0.749836 0.562832 0.937826
O O17 0.000000 0.529395 0.883954
O O18 0.758970 0.500000 0.000000
O O19 0.750000 0.358237 0.750000
O O20 0.500000 0.345144 0.884077
O O21 0.741488 0.374309 0.000063
O O22 0.750000 0.390436 0.250000
O O23 0.000000 0.403590 0.384156
O O24 0.250000 0.891368 0.250000
O O25 0.000000 0.896449 0.103246
#
# Coordination Sequence:
#
# PCOD8221150 Si02
#       8
#     8   8   8   8   8   8   8   8
#     4  10  21  36  56  80 108 141 178 220 266 317
#     4  10  21  37  56  81 110 142 181 223 269 321
#     4  10  21  37  57  82 112 145 184 228 274 326
#     4  11  22  38  59  83 112 146 184 227 275 326
#     4  10  21  36  55  79 106 138 175 216 262 312
#     4  10  21  36  55  79 107 139 177 218 263 314
#     4  10  21  36  55  79 106 139 176 217 263 312
#     4  11  22  38  59  83 113 147 185 229 276 327
#
# _framework density 18.602567000000001
#
# number of rings (size 3 to 8) (size 9 to 14) (size 15 to 20)
#    0.000    1.750    0.000    7.500    0.000    8.000 
#    0.000    7.500    0.000    0.000    0.000    0.000 
#    0.000    0.000    0.000    0.000    0.000    0.000 
#
# Total GULP energy -793843.121484 kJ/mol
# GULP energy per Si atom -12403.798773 kJ/mol
# Density = 1.856023 g / cm^3
# Si number density = 18.602567 Si / 1000 Ang^3
#
#
#
# Elastic Constant Matrix: (Units=GPa)
#
#
# Indices 1 2 3 4 5 6 
#
# 1 77.9134 29.4215 34.8143 0.0000 0.0000 0.0000
# 2 29.4215 118.9052 102.5191 0.0000 0.0000 0.0000
# 3 34.8143 102.5191 132.6927 0.0000 0.0000 0.0000
# 4 0.0000 0.0000 0.0000 46.1392 0.0000 0.0000
# 5 0.0000 0.0000 0.0000 0.0000 3.8194 0.0000
# 6 0.0000 0.0000 0.0000 0.0000 0.0000 130.6828
#
#
#
# Elastic Compliance Matrix: (Units=1/GPa)
#
#
# Indices 1 2 3 4 5 6 
#
# 1 0.014573 -0.000926 -0.003108 0.000000 0.000000 0.000000
# 2 -0.000926 0.025249 -0.019264 0.000000 0.000000 0.000000
# 3 -0.003108 -0.019264 0.023235 0.000000 0.000000 0.000000
# 4 0.000000 0.000000 0.000000 0.021674 0.000000 0.000000
# 5 0.000000 0.000000 0.000000 0.000000 0.261819 0.000000
# 6 0.000000 0.000000 0.000000 0.000000 0.000000 0.007652
#
#
# Mechanical properties :
#
#
# Convention : Reuss Voigt Hill
#
# Bulk Modulus (GPa) = 60.75218 73.66900 67.21059
# Shear Modulus (GPa) = 12.30660 46.97871 29.64265
#
# Velocity S-wave (km/s) = 2.57486 5.03078 3.99616
# Velocity P-wave (km/s) = 6.44738 8.56927 7.58291
#
# Compressibility (1/GPa) = 0.01646031
#
# Stress axis : x y z
#
# Youngs Moduli (GPa) = 68.61879 39.60582 43.03801
#
# Poissons Ratio (x) = 0.03669 0.13375
# Poissons Ratio (y) = 0.06357 0.82910
# Poissons Ratio (z) = 0.21325 0.76298
#
# Static dielectric constant tensor:
#      x y z
#    x 3.584570 0.000000 0.000000 
#    y 0.000000 3.535510 0.000000 
#    z 0.000000 0.000000 3.312070 
# 
# 
# High freq. dielectric constant tensor:
#      x y z
#    x 1.743560 0.000000 0.000000 
#    y 0.000000 1.726240 0.000000 
#    z 0.000000 0.000000 1.727340 
# 
# From -- ./inp_files/14253.got.cif
#   From: 2010.03.12/outbox.cif.g09.slc.cpg/sg53_8_cif.got.tgz:14253.got - 2010.04.16 14:36:59.
