data_PCOD8221998
_publ_section_title
;
Structure prediction by ZEFSAII (Michael W. Deem and Ramdas Pophale) SiO2 
 PCOD8221998
Probable space group: P M N A
;
_chemical_formula_sum "Si O2"
_cell_formula_units_Z 64
_cell_length_a 25.596141
_cell_length_b 9.180877
_cell_length_c 16.028332
_cell_angle_alpha 90.000000
_cell_angle_beta 90.000000
_cell_angle_gamma 90.000000
_cell_volume 3766.578234
_symmetry_space_group_name_H-M "P M N A"
_symmetry_group_IT_number 53
_symmetry_cell_setting 'orthorhombic'
loop_
_space_group_symop_operation_xyz
x,y,z
1/2-x,-y,1/2+z
x,-y,-z
1/2-x,y,1/2-z
-x,-y,-z
1/2+x,y,1/2-z
-x,y,z
1/2+x,-y,1/2+z
loop_
_atom_site_type_symbol
_atom_site_label
_atom_site_fract_x
_atom_site_fract_y
_atom_site_fract_z
Si Si1 0.284697 0.360482 0.450588
Si Si2 0.795008 0.576468 0.683471
Si Si3 0.142360 0.755220 0.802901
Si Si4 0.559710 0.594953 0.615477
Si Si5 0.356768 0.080328 0.657684
Si Si6 0.805713 0.740601 0.294187
Si Si7 0.751732 0.112361 0.932619
Si Si8 0.438969 0.275193 0.562474
O O1 0.307687 0.500000 0.500000
O O2 0.228713 0.390140 0.407192
O O3 0.324592 0.298354 0.383033
O O4 0.276206 0.252607 0.525790
O O5 0.750000 0.554939 0.750000
O O6 0.830363 0.711902 0.715204
O O7 0.825219 0.421047 0.679232
O O8 0.089425 0.662487 0.805993
O O9 0.126662 0.924382 0.805113
O O10 0.500000 0.595925 0.639123
O O11 0.570192 0.699671 0.535732
O O12 0.577259 0.427881 0.604148
O O13 0.349537 0.192587 0.733865
O O14 0.300977 0.042968 0.615754
O O15 0.401034 0.145697 0.595618
O O16 0.750000 0.730350 0.250000
O O17 0.797078 0.845417 0.373986
O O18 0.729143 0.000000 0.000000
O O19 0.500000 0.235058 0.580015
#
# Coordination Sequence:
#
# PCOD8221998 Si02
#       8
#     8   8   8   8   8   8   8   8
#     4  11  21  32  49  70  92 126 168 201 231 279
#     4   9  19  33  47  66  90 125 164 200 234 273
#     4  11  22  31  48  70  97 128 161 199 239 285
#     4   9  19  34  51  71  93 124 164 204 236 274
#     4  11  22  32  46  70  99 130 159 192 246 290
#     4   9  19  33  47  64  93 128 159 197 236 281
#     4  11  21  32  47  70  98 127 161 199 239 284
#     4   9  19  34  52  70  94 125 162 202 238 281
#
# _framework density 16.99155
#
# number of rings (size 3 to 8) (size 9 to 14) (size 15 to 20)
#    0.000    2.000    2.500    2.250    7.000    2.000 
#    0.000    1.250    0.000    0.000    0.000    0.000 
#    0.000    2.000    0.000    0.125    0.000    0.000 
#
# Total GULP energy -793191.619785 kJ/mol
# GULP energy per Si atom -12393.619059 kJ/mol
# Density = 1.695288 g / cm^3
# Si number density = 16.991550 Si / 1000 Ang^3
#
#
#
# Elastic Constant Matrix: (Units=GPa)
#
#
# Indices 1 2 3 4 5 6 
#
# 1 42.4869 21.7623 10.3311 0.0000 0.0000 0.0000
# 2 21.7623 88.4902 8.3582 0.0000 0.0000 0.0000
# 3 10.3311 8.3582 31.4911 0.0000 0.0000 0.0000
# 4 0.0000 0.0000 0.0000 19.1358 0.0000 0.0000
# 5 0.0000 0.0000 0.0000 0.0000 24.5071 0.0000
# 6 0.0000 0.0000 0.0000 0.0000 0.0000 18.4296
#
#
#
# Elastic Compliance Matrix: (Units=1/GPa)
#
#
# Indices 1 2 3 4 5 6 
#
# 1 0.028650 -0.006316 -0.007722 0.000000 0.000000 0.000000
# 2 -0.006316 0.012984 -0.001374 0.000000 0.000000 0.000000
# 3 -0.007722 -0.001374 0.034653 0.000000 0.000000 0.000000
# 4 0.000000 0.000000 0.000000 0.052258 0.000000 0.000000
# 5 0.000000 0.000000 0.000000 0.000000 0.040804 0.000000
# 6 0.000000 0.000000 0.000000 0.000000 0.000000 0.054260
#
#
# Mechanical properties :
#
#
# Convention : Reuss Voigt Hill
#
# Bulk Modulus (GPa) = 21.99682 27.04127 24.51905
# Shear Modulus (GPa) = 18.54675 20.54895 19.54785
#
# Velocity S-wave (km/s) = 3.30741 3.48136 3.39550
# Velocity P-wave (km/s) = 5.24968 5.66647 5.46205
#
# Compressibility (1/GPa) = 0.04546112
#
# Stress axis : x y z
#
# Youngs Moduli (GPa) = 34.90431 77.01884 28.85746
#
# Poissons Ratio (x) = 0.48648 0.22285
# Poissons Ratio (y) = 0.22047 0.03965
# Poissons Ratio (z) = 0.26955 0.10582
#
# Static dielectric constant tensor:
#      x y z
#    x 3.005620 0.000000 0.000000 
#    y 0.000000 3.616910 0.000000 
#    z 0.000000 0.000000 3.290650 
# 
# 
# High freq. dielectric constant tensor:
#      x y z
#    x 1.614390 0.000000 0.000000 
#    y 0.000000 1.672720 0.000000 
#    z 0.000000 0.000000 1.629640 
# 
# From -- ./inp_files/29746.got.cif
#   From: 2010.03.12/outbox.cif.g09.slc.cpg/sg53_15_cif.got.tgz:29746.got - 2010.04.16 14:36:59.
