data_PCOD8221125
_publ_section_title
;
Structure prediction by ZEFSAII (Michael W. Deem and Ramdas Pophale) SiO2 
 PCOD8221125
Probable space group: P M N A
;
_chemical_formula_sum "Si O2"
_cell_formula_units_Z 64
_cell_length_a 9.009974
_cell_length_b 19.560720
_cell_length_c 19.976725
_cell_angle_alpha 90.000000
_cell_angle_beta 90.000000
_cell_angle_gamma 90.000000
_cell_volume 3520.729550
_symmetry_space_group_name_H-M "P M N A"
_symmetry_group_IT_number 53
_symmetry_cell_setting 'orthorhombic'
loop_
_space_group_symop_operation_xyz
x,y,z
1/2-x,-y,1/2+z
x,-y,-z
1/2-x,y,1/2-z
-x,-y,-z
1/2+x,y,1/2-z
-x,y,z
1/2+x,-y,1/2+z
loop_
_atom_site_type_symbol
_atom_site_label
_atom_site_fract_x
_atom_site_fract_y
_atom_site_fract_z
Si Si1 0.325544 0.304843 0.603812
Si Si2 0.672391 0.529002 0.926571
Si Si3 0.827828 0.337770 0.041343
Si Si4 0.674111 0.054703 0.817893
Si Si5 0.173247 0.897377 0.682577
Si Si6 0.325085 0.434989 0.681003
Si Si7 0.826703 0.844077 0.085587
Si Si8 0.831109 0.816848 0.931791
O O1 0.500000 0.299329 0.591650
O O2 0.261827 0.333896 0.534024
O O3 0.282701 0.356223 0.663520
O O4 0.269979 0.227777 0.618386
O O5 0.500000 0.526087 0.907330
O O6 0.730046 0.606573 0.919684
O O7 0.765985 0.484046 0.875912
O O8 0.703511 0.500000 0.000000
O O9 0.807297 0.264306 0.076100
O O10 0.000000 0.360402 0.042306
O O11 0.750000 0.082167 0.750000
O O12 0.500000 0.065857 0.810730
O O13 0.733053 0.095503 0.881894
O O14 0.717064 0.976024 0.830075
O O15 0.250000 0.869718 0.750000
O O16 0.222626 0.854142 0.618935
O O17 0.000000 0.888101 0.692654
O O18 0.250000 0.455493 0.750000
O O19 0.500000 0.444256 0.687157
O O20 0.000000 0.856744 0.099710
O O21 0.793577 0.841905 0.006601
O O22 0.000000 0.836202 0.914142
#
# Coordination Sequence:
#
# PCOD8221125 Si02
#       8
#     8   8   8   8   8   8   8   8
#     4   8  16  32  54  77 104 140 179 215 261 320
#     4  11  22  35  55  84 112 140 181 227 268 319
#     4   9  17  34  58  82 106 139 181 219 264 322
#     4  10  21  36  53  76 105 143 186 228 271 324
#     4  10  21  37  57  78 106 142 184 228 275 329
#     4  11  22  37  56  78 110 147 183 226 274 324
#     4   9  18  34  55  81 112 144 179 221 266 319
#     4   9  19  35  57  84 113 141 177 223 270 324
#
# _framework density 18.178049999999999
#
# number of rings (size 3 to 8) (size 9 to 14) (size 15 to 20)
#    0.000    2.375    1.250    3.000    0.000    4.000 
#    0.000    7.500    0.000    3.000    0.000    0.000 
#    0.000    0.000    0.000    0.000    0.000    0.000 
#
# Total GULP energy -793619.063158 kJ/mol
# GULP energy per Si atom -12400.297862 kJ/mol
# Density = 1.813668 g / cm^3
# Si number density = 18.178050 Si / 1000 Ang^3
#
#
#
# Elastic Constant Matrix: (Units=GPa)
#
#
# Indices 1 2 3 4 5 6 
#
# 1 77.6163 47.9164 48.4162 0.0000 0.0000 0.0000
# 2 47.9164 88.1638 50.2376 0.0000 0.0000 0.0000
# 3 48.4162 50.2376 91.1042 0.0000 0.0000 0.0000
# 4 0.0000 0.0000 0.0000 18.1260 0.0000 0.0000
# 5 0.0000 0.0000 0.0000 0.0000 32.3023 0.0000
# 6 0.0000 0.0000 0.0000 0.0000 0.0000 26.8152
#
#
#
# Elastic Compliance Matrix: (Units=1/GPa)
#
#
# Indices 1 2 3 4 5 6 
#
# 1 0.022502 -0.007897 -0.007604 0.000000 0.000000 0.000000
# 2 -0.007897 0.019311 -0.006452 0.000000 0.000000 0.000000
# 3 -0.007604 -0.006452 0.018575 0.000000 0.000000 0.000000
# 4 0.000000 0.000000 0.000000 0.055169 0.000000 0.000000
# 5 0.000000 0.000000 0.000000 0.000000 0.030958 0.000000
# 6 0.000000 0.000000 0.000000 0.000000 0.000000 0.037292
#
#
# Mechanical properties :
#
#
# Convention : Reuss Voigt Hill
#
# Bulk Modulus (GPa) = 60.66906 61.11388 60.89147
# Shear Modulus (GPa) = 21.44014 22.80298 22.12156
#
# Velocity S-wave (km/s) = 3.43804 3.54563 3.49225
# Velocity P-wave (km/s) = 7.01481 7.10314 7.05911
#
# Compressibility (1/GPa) = 0.01648287
#
# Stress axis : x y z
#
# Youngs Moduli (GPa) = 44.43984 51.78430 53.83519
#
# Poissons Ratio (x) = 0.40894 0.40936
# Poissons Ratio (y) = 0.35094 0.34734
# Poissons Ratio (z) = 0.33792 0.33411
#
# Static dielectric constant tensor:
#      x y z
#    x 3.217650 0.000000 0.000000 
#    y 0.000000 3.442500 0.000000 
#    z 0.000000 0.000000 3.237910 
# 
# 
# High freq. dielectric constant tensor:
#      x y z
#    x 1.697540 0.000000 0.000000 
#    y 0.000000 1.708880 0.000000 
#    z 0.000000 0.000000 1.693700 
# 
# From -- ./inp_files/26758.got.cif
#   From: 2010.03.12/outbox.cif.g09.slc.cpg/sg53_14_cif.got.tgz:26758.got - 2010.04.16 14:36:59.
