data_PCOD8221496
_publ_section_title
;
Structure prediction by ZEFSAII (Michael W. Deem and Ramdas Pophale) SiO2 
 PCOD8221496
Probable space group: P M N A
;
_chemical_formula_sum "Si O2"
_cell_formula_units_Z 32
_cell_length_a 13.317317
_cell_length_b 5.028666
_cell_length_c 21.155196
_cell_angle_alpha 90.000000
_cell_angle_beta 90.000000
_cell_angle_gamma 90.000000
_cell_volume 1416.728342
_symmetry_space_group_name_H-M "P M N A"
_symmetry_group_IT_number 53
_symmetry_cell_setting 'orthorhombic'
loop_
_space_group_symop_operation_xyz
x,y,z
1/2-x,-y,1/2+z
x,-y,-z
1/2-x,y,1/2-z
-x,-y,-z
1/2+x,y,1/2-z
-x,y,z
1/2+x,-y,1/2+z
loop_
_atom_site_type_symbol
_atom_site_label
_atom_site_fract_x
_atom_site_fract_y
_atom_site_fract_z
Si Si1 0.617802 0.445759 0.138385
Si Si2 0.615185 0.951212 0.643221
Si Si3 0.697578 0.055774 0.928011
Si Si4 0.383948 0.463707 0.722563
O O1 0.500000 0.502912 0.140181
O O2 0.636750 0.143046 0.117705
O O3 0.666865 0.503022 0.208104
O O4 0.667535 0.643503 0.087949
O O5 0.500000 0.940582 0.620044
O O6 0.682887 0.021371 0.582623
O O7 0.657012 0.672552 0.670661
O O8 0.630781 0.165253 0.698812
O O9 0.669525 0.000000 0.000000
O O10 0.500000 0.541251 0.730977
#
# Coordination Sequence:
#
# PCOD8221496 Si02
#       4
#     8   8   8   8
#     4  11  24  42  63  88 120 153 193 250 298 343
#     4  10  21  39  62  89 122 152 188 246 298 346
#     4  12  26  40  59  88 118 161 209 233 278 355
#     4   9  19  37  62  91 117 148 192 240 303 359
#
# _framework density 22.587253
#
# number of rings (size 3 to 8) (size 9 to 14) (size 15 to 20)
#    0.000    1.500    0.000    4.500    0.000   13.500 
#    0.000    0.000    0.000    7.500    0.000    0.000 
#    0.000    0.000    0.000    0.000    0.000    0.000 
#
# Total GULP energy -397010.133449 kJ/mol
# GULP energy per Si atom -12406.566670 kJ/mol
# Density = 2.253584 g / cm^3
# Si number density = 22.587253 Si / 1000 Ang^3
#
#
#
# Elastic Constant Matrix: (Units=GPa)
#
#
# Indices 1 2 3 4 5 6 
#
# 1 56.5388 2.6654 -0.8711 0.0000 0.0000 0.0000
# 2 2.6654 89.7747 -7.3308 0.0000 0.0000 0.0000
# 3 -0.8711 -7.3308 72.2844 0.0000 0.0000 0.0000
# 4 0.0000 0.0000 0.0000 30.5638 0.0000 0.0000
# 5 0.0000 0.0000 0.0000 0.0000 22.6693 0.0000
# 6 0.0000 0.0000 0.0000 0.0000 0.0000 34.1551
#
#
#
# Elastic Compliance Matrix: (Units=1/GPa)
#
#
# Indices 1 2 3 4 5 6 
#
# 1 0.017714 -0.000513 0.000161 0.000000 0.000000 0.000000
# 2 -0.000513 0.011247 0.001134 0.000000 0.000000 0.000000
# 3 0.000161 0.001134 0.013951 0.000000 0.000000 0.000000
# 4 0.000000 0.000000 0.000000 0.032718 0.000000 0.000000
# 5 0.000000 0.000000 0.000000 0.000000 0.044113 0.000000
# 6 0.000000 0.000000 0.000000 0.000000 0.000000 0.029278
#
#
# Mechanical properties :
#
#
# Convention : Reuss Voigt Hill
#
# Bulk Modulus (GPa) = 22.48300 23.05833 22.77066
# Shear Modulus (GPa) = 30.81082 32.41992 31.61537
#
# Velocity S-wave (km/s) = 3.69735 3.79267 3.74531
# Velocity P-wave (km/s) = 5.31062 5.42309 5.36715
#
# Compressibility (1/GPa) = 0.04447806
#
# Stress axis : x y z
#
# Youngs Moduli (GPa) = 56.45370 88.91380 71.67822
#
# Poissons Ratio (x) = 0.04559 -0.01157
# Poissons Ratio (y) = 0.02895 -0.08131
# Poissons Ratio (z) = -0.00912 -0.10087
#
# Static dielectric constant tensor:
#      x y z
#    x 4.177460 0.000000 0.000000 
#    y 0.000000 3.991340 0.000000 
#    z 0.000000 0.000000 3.759540 
# 
# 
# High freq. dielectric constant tensor:
#      x y z
#    x 1.909300 0.000000 0.000000 
#    y 0.000000 1.900870 0.000000 
#    z 0.000000 0.000000 1.866400 
# 
# From -- ./inp_files/23160.got.cif
#   From: 2010.03.12/outbox.cif.g09.slc.cpg/sg53_12_cif.got.tgz:23160.got - 2010.04.16 14:36:59.
