data_PCOD8221249
_publ_section_title
;
Structure prediction by ZEFSAII (Michael W. Deem and Ramdas Pophale) SiO2 
 PCOD8221249
Probable space group: P M N A
;
_chemical_formula_sum "Si O2"
_cell_formula_units_Z 40
_cell_length_a 8.703470
_cell_length_b 24.859767
_cell_length_c 9.604274
_cell_angle_alpha 90.000000
_cell_angle_beta 90.000000
_cell_angle_gamma 90.000000
_cell_volume 2078.040618
_symmetry_space_group_name_H-M "P M N A"
_symmetry_group_IT_number 53
_symmetry_cell_setting 'orthorhombic'
loop_
_space_group_symop_operation_xyz
x,y,z
1/2-x,-y,1/2+z
x,-y,-z
1/2-x,y,1/2-z
-x,-y,-z
1/2+x,y,1/2-z
-x,y,z
1/2+x,-y,1/2+z
loop_
_atom_site_type_symbol
_atom_site_label
_atom_site_fract_x
_atom_site_fract_y
_atom_site_fract_z
Si Si1 0.678095 0.132535 0.603515
Si Si2 0.181541 0.548597 0.900993
Si Si3 0.681213 0.049389 0.097287
Si Si4 0.318462 0.658736 0.901124
Si Si5 0.178531 0.258154 0.895211
O O1 0.750000 0.113406 0.750000
O O2 0.500000 0.117452 0.607970
O O3 0.757173 0.103611 0.473380
O O4 0.706265 0.195347 0.578912
O O5 0.250000 0.536699 0.750000
O O6 0.251198 0.603465 0.965534
O O7 0.000000 0.554852 0.888961
O O8 0.230739 0.500000 0.000000
O O9 0.750000 0.041554 0.250000
O O10 0.500000 0.053278 0.111726
O O11 0.732845 0.000000 0.000000
O O12 0.250000 0.667373 0.750000
O O13 0.500000 0.654482 0.893249
O O14 0.269756 0.710272 0.987934
O O15 0.250000 0.276483 0.750000
O O16 0.000000 0.273301 0.898373
#
# Coordination Sequence:
#
# PCOD8221249 Si02
#       5
#     8   8   8   8   8
#     4  10  21  38  61  86 115 150 187 232 281 332
#     4  10  21  37  57  81 110 144 184 230 279 333
#     4  11  24  40  60  86 116 151 190 233 281 334
#     4  11  22  37  58  82 112 149 187 231 281 333
#     4  10  21  38  59  85 115 148 188 231 279 333
#
# _framework density 19.248902999999999
#
# number of rings (size 3 to 8) (size 9 to 14) (size 15 to 20)
#    0.000    1.600    0.000    6.000    0.000    8.800 
#    0.000    2.000    0.000    0.000    0.000    0.000 
#    0.000    0.000    0.000    0.000    0.000    0.000 
#
# Total GULP energy -496186.585932 kJ/mol
# GULP energy per Si atom -12404.664648 kJ/mol
# Density = 1.920509 g / cm^3
# Si number density = 19.248903 Si / 1000 Ang^3
#
#
#
# Elastic Constant Matrix: (Units=GPa)
#
#
# Indices 1 2 3 4 5 6 
#
# 1 115.7292 54.3984 63.1596 0.0000 0.0000 0.0000
# 2 54.3984 89.6540 70.0400 0.0000 0.0000 0.0000
# 3 63.1596 70.0400 125.1198 0.0000 0.0000 0.0000
# 4 0.0000 0.0000 0.0000 45.4927 0.0000 0.0000
# 5 0.0000 0.0000 0.0000 0.0000 38.9337 0.0000
# 6 0.0000 0.0000 0.0000 0.0000 0.0000 31.8691
#
#
#
# Elastic Compliance Matrix: (Units=1/GPa)
#
#
# Indices 1 2 3 4 5 6 
#
# 1 0.013045 -0.004924 -0.003828 0.000000 0.000000 0.000000
# 2 -0.004924 0.021682 -0.009651 0.000000 0.000000 0.000000
# 3 -0.003828 -0.009651 0.015328 0.000000 0.000000 0.000000
# 4 0.000000 0.000000 0.000000 0.021982 0.000000 0.000000
# 5 0.000000 0.000000 0.000000 0.000000 0.025685 0.000000
# 6 0.000000 0.000000 0.000000 0.000000 0.000000 0.031378
#
#
# Mechanical properties :
#
#
# Convention : Reuss Voigt Hill
#
# Bulk Modulus (GPa) = 75.49389 78.41100 76.95245
# Shear Modulus (GPa) = 29.35614 32.78611 31.07112
#
# Velocity S-wave (km/s) = 3.90947 4.13155 4.02204
# Velocity P-wave (km/s) = 7.72551 7.97392 7.85070
#
# Compressibility (1/GPa) = 0.01324611
#
# Stress axis : x y z
#
# Youngs Moduli (GPa) = 76.65841 46.12187 65.24188
#
# Poissons Ratio (x) = 0.22711 0.24978
# Poissons Ratio (y) = 0.37748 0.62967
# Poissons Ratio (z) = 0.29348 0.44514
#
# Static dielectric constant tensor:
#      x y z
#    x 3.685010 0.000000 0.000000 
#    y 0.000000 3.668280 0.000000 
#    z 0.000000 0.000000 3.497770 
# 
# 
# High freq. dielectric constant tensor:
#      x y z
#    x 1.769610 0.000000 0.000000 
#    y 0.000000 1.757930 0.000000 
#    z 0.000000 0.000000 1.749550 
# 
# From -- ./inp_files/6307.got.cif
#   From: 2010.03.12/outbox.cif.g09.slc.cpg/sg53_4_cif.got.tgz:6307.got - 2010.04.16 14:36:59.
