data_PCOD8221218
_publ_section_title
;
Structure prediction by ZEFSAII (Michael W. Deem and Ramdas Pophale) SiO2 
 PCOD8221218
Probable space group: P M N A
;
_chemical_formula_sum "Si O2"
_cell_formula_units_Z 64
_cell_length_a 8.790515
_cell_length_b 24.511266
_cell_length_c 15.274368
_cell_angle_alpha 90.000000
_cell_angle_beta 90.000000
_cell_angle_gamma 90.000000
_cell_volume 3291.116926
_symmetry_space_group_name_H-M "P M N A"
_symmetry_group_IT_number 53
_symmetry_cell_setting 'orthorhombic'
loop_
_space_group_symop_operation_xyz
x,y,z
1/2-x,-y,1/2+z
x,-y,-z
1/2-x,y,1/2-z
-x,-y,-z
1/2+x,y,1/2-z
-x,y,z
1/2+x,-y,1/2+z
loop_
_atom_site_type_symbol
_atom_site_label
_atom_site_fract_x
_atom_site_fract_y
_atom_site_fract_z
Si Si1 0.322953 0.451623 0.343278
Si Si2 0.819493 0.676565 0.346704
Si Si3 0.680048 0.432133 0.654112
Si Si4 0.679700 0.933886 0.340194
Si Si5 0.319392 0.256354 0.501939
Si Si6 0.179335 0.332917 0.154325
Si Si7 0.320121 0.942166 0.659708
Si Si8 0.180407 0.867947 0.995567
O O1 0.250000 0.454604 0.250000
O O2 0.500000 0.451147 0.326444
O O3 0.283784 0.509027 0.394045
O O4 0.275689 0.393350 0.385434
O O5 0.750000 0.685020 0.250000
O O6 0.761038 0.619596 0.391314
O O7 0.763209 0.724408 0.409898
O O8 0.000000 0.676744 0.339510
O O9 0.750000 0.435284 0.750000
O O10 0.500000 0.420894 0.657312
O O11 0.750000 0.912750 0.250000
O O12 0.500000 0.930059 0.332828
O O13 0.744607 0.894489 0.415469
O O14 0.730895 0.995870 0.360853
O O15 0.500000 0.262472 0.514430
O O16 0.261026 0.289666 0.416874
O O17 0.267375 0.194343 0.486876
O O18 0.250000 0.322001 0.250000
O O19 0.000000 0.327244 0.166106
O O20 0.250000 0.921319 0.750000
O O21 0.500000 0.937902 0.665981
O O22 0.253434 0.902666 0.585118
O O23 0.000000 0.872547 0.995728
#
# Coordination Sequence:
#
# PCOD8221218 Si02
#       8
#     8   8   8   8   8   8   8   8
#     4   8  14  25  44  71  98 126 161 201 250 306
#     4  11  22  37  56  76 101 133 169 211 260 311
#     4   9  15  26  47  73  99 126 160 203 252 308
#     4   9  17  31  52  77 104 133 167 207 252 302
#     4  10  21  37  54  74 102 137 179 219 253 297
#     4   9  18  33  53  75 102 136 171 211 258 306
#     4   9  17  31  52  78 106 135 167 205 251 301
#     4   9  18  33  53  74  99 136 176 210 247 295
#
# _framework density 19.446286000000001
#
# number of rings (size 3 to 8) (size 9 to 14) (size 15 to 20)
#    0.000    2.750    0.000    2.625    0.000    3.500 
#    0.000    3.750    0.000    6.750    0.000    0.000 
#    0.000    0.000    0.000    0.000    0.000    0.000 
#
# Total GULP energy -792913.140747 kJ/mol
# GULP energy per Si atom -12389.267824 kJ/mol
# Density = 1.940203 g / cm^3
# Si number density = 19.446286 Si / 1000 Ang^3
#
#
#
# Elastic Constant Matrix: (Units=GPa)
#
#
# Indices 1 2 3 4 5 6 
#
# 1 44.0192 27.4668 24.2501 0.0000 0.0000 0.0000
# 2 27.4668 129.4315 60.4986 0.0000 0.0000 0.0000
# 3 24.2501 60.4986 100.4651 0.0000 0.0000 0.0000
# 4 0.0000 0.0000 0.0000 20.8297 0.0000 0.0000
# 5 0.0000 0.0000 0.0000 0.0000 24.9722 0.0000
# 6 0.0000 0.0000 0.0000 0.0000 0.0000 18.8656
#
#
#
# Elastic Compliance Matrix: (Units=1/GPa)
#
#
# Indices 1 2 3 4 5 6 
#
# 1 0.027483 -0.003801 -0.004345 0.000000 0.000000 0.000000
# 2 -0.003801 0.011278 -0.005874 0.000000 0.000000 0.000000
# 3 -0.004345 -0.005874 0.014540 0.000000 0.000000 0.000000
# 4 0.000000 0.000000 0.000000 0.048008 0.000000 0.000000
# 5 0.000000 0.000000 0.000000 0.000000 0.040045 0.000000
# 6 0.000000 0.000000 0.000000 0.000000 0.000000 0.053007
#
#
# Mechanical properties :
#
#
# Convention : Reuss Voigt Hill
#
# Bulk Modulus (GPa) = 39.58727 55.37188 47.47958
# Shear Modulus (GPa) = 21.66180 23.71350 22.68765
#
# Velocity S-wave (km/s) = 3.34118 3.49583 3.41938
# Velocity P-wave (km/s) = 5.94021 6.69556 6.32916
#
# Compressibility (1/GPa) = 0.02526064
#
# Stress axis : x y z
#
# Youngs Moduli (GPa) = 36.38644 88.66439 68.77708
#
# Poissons Ratio (x) = 0.33705 0.29881
# Poissons Ratio (y) = 0.13832 0.40401
# Poissons Ratio (z) = 0.15808 0.52083
#
# Static dielectric constant tensor:
#      x y z
#    x 3.252620 0.000000 0.000000 
#    y 0.000000 4.152860 0.000000 
#    z 0.000000 0.000000 3.417650 
# 
# 
# High freq. dielectric constant tensor:
#      x y z
#    x 1.734520 0.000000 0.000000 
#    y 0.000000 1.770690 0.000000 
#    z 0.000000 0.000000 1.739940 
# 
# From -- ./inp_files/20828.got.cif
#   From: 2010.03.12/outbox.cif.g09.slc.cpg/sg53_11_cif.got.tgz:20828.got - 2010.04.16 14:36:59.
