data_PCOD8221502
_publ_section_title
;
Structure prediction by ZEFSAII (Michael W. Deem and Ramdas Pophale) SiO2 
 PCOD8221502
Probable space group: P M N A
;
_chemical_formula_sum "Si O2"
_cell_formula_units_Z 48
_cell_length_a 15.121815
_cell_length_b 11.853684
_cell_length_c 12.966072
_cell_angle_alpha 90.000000
_cell_angle_beta 90.000000
_cell_angle_gamma 90.000000
_cell_volume 2324.158247
_symmetry_space_group_name_H-M "P M N A"
_symmetry_group_IT_number 53
_symmetry_cell_setting 'orthorhombic'
loop_
_space_group_symop_operation_xyz
x,y,z
1/2-x,-y,1/2+z
x,-y,-z
1/2-x,y,1/2-z
-x,-y,-z
1/2+x,y,1/2-z
-x,y,z
1/2+x,-y,1/2+z
loop_
_atom_site_type_symbol
_atom_site_label
_atom_site_fract_x
_atom_site_fract_y
_atom_site_fract_z
Si Si1 0.500000 0.823027 0.961145
Si Si2 0.657558 0.663834 0.436129
Si Si3 0.764373 0.000000 0.000000
Si Si4 0.750000 0.305945 0.250000
Si Si5 0.811754 0.232571 0.458916
Si Si6 0.101040 0.429927 0.145897
Si Si7 0.000000 0.041829 0.670316
Si Si8 0.839317 0.887550 0.186674
O O1 0.584547 0.740381 0.953007
O O2 0.500000 0.911947 0.866686
O O3 0.500000 0.878516 0.072443
O O4 0.761540 0.678495 0.466769
O O5 0.643373 0.553141 0.369217
O O6 0.602799 0.646918 0.542386
O O7 0.626848 0.774019 0.372214
O O8 0.698902 0.894012 0.000139
O O9 0.825231 0.013940 0.898516
O O10 0.765583 0.228583 0.348115
O O11 0.661015 0.379131 0.263873
O O12 0.000000 0.439674 0.183493
O O13 0.913080 0.066544 0.736639
O O14 0.750000 0.860823 0.250000
#
# Coordination Sequence:
#
# PCOD8221502 Si02
#       8
#     4   8   4   4   8   8   4   8
#     4  11  22  40  58  88 129 168 210 248 309 389
#     4   9  20  39  62  89 119 158 207 264 317 364
#     4  10  22  40  60  86 130 168 210 263 313 364
#     4  10  24  38  62  96 118 160 216 254 316 380
#     4  10  21  39  63  86 127 169 206 255 310 381
#     4  10  21  40  67  88 122 164 204 266 322 372
#     4  11  24  37  62  90 122 171 214 249 312 380
#     4  11  23  38  61  91 124 164 210 260 316 371
#
# _framework density 20.652638
#
# number of rings (size 3 to 8) (size 9 to 14) (size 15 to 20)
#    0.000    1.833    0.000    5.000    8.167    0.333 
#    0.000    0.000    0.000    2.000    0.000    0.000 
#    0.000    0.000    0.000    0.000    0.000    0.000 
#
# Total GULP energy -595035.694495 kJ/mol
# GULP energy per Si atom -12396.576969 kJ/mol
# Density = 2.060563 g / cm^3
# Si number density = 20.652638 Si / 1000 Ang^3
#
#
#
# Elastic Constant Matrix: (Units=GPa)
#
#
# Indices 1 2 3 4 5 6 
#
# 1 171.8458 47.5130 37.1396 0.0000 0.0000 0.0000
# 2 47.5130 60.8968 20.3876 0.0000 0.0000 0.0000
# 3 37.1396 20.3876 82.3892 0.0000 0.0000 0.0000
# 4 0.0000 0.0000 0.0000 18.0164 0.0000 0.0000
# 5 0.0000 0.0000 0.0000 0.0000 33.6822 0.0000
# 6 0.0000 0.0000 0.0000 0.0000 0.0000 21.7293
#
#
#
# Elastic Compliance Matrix: (Units=1/GPa)
#
#
# Indices 1 2 3 4 5 6 
#
# 1 0.007763 -0.005327 -0.002181 0.000000 0.000000 0.000000
# 2 -0.005327 0.021560 -0.002934 0.000000 0.000000 0.000000
# 3 -0.002181 -0.002934 0.013847 0.000000 0.000000 0.000000
# 4 0.000000 0.000000 0.000000 0.055505 0.000000 0.000000
# 5 0.000000 0.000000 0.000000 0.000000 0.029689 0.000000
# 6 0.000000 0.000000 0.000000 0.000000 0.000000 0.046021
#
#
# Mechanical properties :
#
#
# Convention : Reuss Voigt Hill
#
# Bulk Modulus (GPa) = 44.87190 58.35692 51.61441
# Shear Modulus (GPa) = 24.66726 28.69167 26.67946
#
# Velocity S-wave (km/s) = 3.45974 3.73131 3.59809
# Velocity P-wave (km/s) = 6.14279 6.84699 6.50443
#
# Compressibility (1/GPa) = 0.02228566
#
# Stress axis : x y z
#
# Youngs Moduli (GPa) = 128.80894 46.38315 72.21855
#
# Poissons Ratio (x) = 0.24708 0.15754
# Poissons Ratio (y) = 0.68615 0.21187
# Poissons Ratio (z) = 0.28099 0.13608
#
# Static dielectric constant tensor:
#      x y z
#    x 3.880670 0.000000 0.000000 
#    y 0.000000 3.601410 0.000000 
#    z 0.000000 0.000000 3.892050 
# 
# 
# High freq. dielectric constant tensor:
#      x y z
#    x 1.810660 0.000000 0.000000 
#    y 0.000000 1.788860 0.000000 
#    z 0.000000 0.000000 1.814930 
# 
# From -- ./inp_files/22753.got.cif
#   From: 2010.03.12/outbox.cif.g09.slc.cpg/sg53_12_cif.got.tgz:22753.got - 2010.04.16 14:36:59.
