data_PCOD8221176
_publ_section_title
;
Structure prediction by ZEFSAII (Michael W. Deem and Ramdas Pophale) SiO2 
 PCOD8221176
Probable space group: P M N A
;
_chemical_formula_sum "Si O2"
_cell_formula_units_Z 64
_cell_length_a 14.791538
_cell_length_b 10.838590
_cell_length_c 18.708204
_cell_angle_alpha 90.000000
_cell_angle_beta 90.000000
_cell_angle_gamma 90.000000
_cell_volume 2999.288337
_symmetry_space_group_name_H-M "P M N A"
_symmetry_group_IT_number 53
_symmetry_cell_setting 'orthorhombic'
loop_
_space_group_symop_operation_xyz
x,y,z
1/2-x,-y,1/2+z
x,-y,-z
1/2-x,y,1/2-z
-x,-y,-z
1/2+x,y,1/2-z
-x,y,z
1/2+x,-y,1/2+z
loop_
_atom_site_type_symbol
_atom_site_label
_atom_site_fract_x
_atom_site_fract_y
_atom_site_fract_z
Si Si1 0.099696 0.161330 0.961338
Si Si2 0.399240 0.627302 0.348237
Si Si3 0.772418 0.799209 0.905508
Si Si4 0.604874 0.690251 0.091331
Si Si5 0.252205 0.517686 0.581579
Si Si6 0.606504 0.185064 0.765659
Si Si7 0.401568 0.870162 0.962182
Si Si8 0.604845 0.026484 0.334562
O O1 0.099050 0.284946 0.916311
O O2 0.000000 0.144260 0.996946
O O3 0.119767 0.045707 0.909556
O O4 0.176310 0.175482 0.020249
O O5 0.500000 0.575871 0.332382
O O6 0.333310 0.515961 0.365412
O O7 0.357468 0.699879 0.280641
O O8 0.738779 0.659371 0.897668
O O9 0.677878 0.874887 0.904028
O O10 0.834909 0.848710 0.840339
O O11 0.500000 0.653079 0.101650
O O12 0.662539 0.564590 0.095693
O O13 0.634194 0.789646 0.152493
O O14 0.621617 0.758976 0.017012
O O15 0.282896 0.500000 0.500000
O O16 0.500000 0.180372 0.753302
O O17 0.642405 0.055757 0.732341
O O18 0.500000 0.844799 0.926547
O O19 0.406605 0.000000 0.000000
O O20 0.500000 0.061740 0.323363
#
# Coordination Sequence:
#
# PCOD8221176 Si02
#       8
#     8   8   8   8   8   8   8   8
#     4   9  16  28  49  78 113 153 191 227 281 348
#     4   9  18  33  52  78 116 156 196 240 279 338
#     4  12  21  32  50  78 122 158 188 232 290 351
#     4  10  21  40  65  86 109 150 203 263 308 338
#     4  12  23  35  50  84 122 162 208 236 282 364
#     4   8  17  37  64  89 109 140 197 253 300 353
#     4  10  21  36  56  82 110 143 190 248 305 349
#     4   9  18  32  55  89 120 149 188 237 295 358
#
# _framework density 21.338394999999998
#
# number of rings (size 3 to 8) (size 9 to 14) (size 15 to 20)
#    0.000    2.125    2.500    3.000    0.000    4.500 
#    0.000    0.000    0.000    3.000    0.000    5.250 
#    0.000    0.000    0.000    0.000    0.000    0.000 
#
# Total GULP energy -793161.057637 kJ/mol
# GULP energy per Si atom -12393.141526 kJ/mol
# Density = 2.128983 g / cm^3
# Si number density = 21.338395 Si / 1000 Ang^3
#
#
#
# Elastic Constant Matrix: (Units=GPa)
#
#
# Indices 1 2 3 4 5 6 
#
# 1 113.4278 43.5749 16.6563 0.0000 0.0000 0.0000
# 2 43.5749 99.0082 10.9848 0.0000 0.0000 0.0000
# 3 16.6563 10.9848 40.6531 0.0000 0.0000 0.0000
# 4 0.0000 0.0000 0.0000 8.0249 0.0000 0.0000
# 5 0.0000 0.0000 0.0000 0.0000 10.9624 0.0000
# 6 0.0000 0.0000 0.0000 0.0000 0.0000 33.1600
#
#
#
# Elastic Compliance Matrix: (Units=1/GPa)
#
#
# Indices 1 2 3 4 5 6 
#
# 1 0.011025 -0.004485 -0.003305 0.000000 0.000000 0.000000
# 2 -0.004485 0.012237 -0.001469 0.000000 0.000000 0.000000
# 3 -0.003305 -0.001469 0.026349 0.000000 0.000000 0.000000
# 4 0.000000 0.000000 0.000000 0.124613 0.000000 0.000000
# 5 0.000000 0.000000 0.000000 0.000000 0.091221 0.000000
# 6 0.000000 0.000000 0.000000 0.000000 0.000000 0.030157
#
#
# Mechanical properties :
#
#
# Convention : Reuss Voigt Hill
#
# Bulk Modulus (GPa) = 32.16185 43.94678 38.05431
# Shear Modulus (GPa) = 15.40907 22.55433 18.98170
#
# Velocity S-wave (km/s) = 2.69016 3.25465 2.98578
# Velocity P-wave (km/s) = 4.97537 5.89607 5.45518
#
# Compressibility (1/GPa) = 0.03109274
#
# Stress axis : x y z
#
# Youngs Moduli (GPa) = 90.70591 81.71785 37.95157
#
# Poissons Ratio (x) = 0.36654 0.12543
# Poissons Ratio (y) = 0.40685 0.05574
# Poissons Ratio (z) = 0.29978 0.12003
#
# Static dielectric constant tensor:
#      x y z
#    x 4.146850 0.000000 0.000000 
#    y 0.000000 3.817780 0.000000 
#    z 0.000000 0.000000 3.669820 
# 
# 
# High freq. dielectric constant tensor:
#      x y z
#    x 1.846490 0.000000 0.000000 
#    y 0.000000 1.824760 0.000000 
#    z 0.000000 0.000000 1.802310 
# 
# From -- ./inp_files/28529.got.cif
#   From: 2010.03.12/outbox.cif.g09.slc.cpg/sg53_15_cif.got.tgz:28529.got - 2010.04.16 14:36:59.
