data_PCOD8221529
_publ_section_title
;
Structure prediction by ZEFSAII (Michael W. Deem and Ramdas Pophale) SiO2 
 PCOD8221529
Probable space group: P M N A
;
_chemical_formula_sum "Si O2"
_cell_formula_units_Z 64
_cell_length_a 8.790170
_cell_length_b 14.414642
_cell_length_c 24.853984
_cell_angle_alpha 90.000000
_cell_angle_beta 90.000000
_cell_angle_gamma 90.000000
_cell_volume 3149.177570
_symmetry_space_group_name_H-M "P M N A"
_symmetry_group_IT_number 53
_symmetry_cell_setting 'orthorhombic'
loop_
_space_group_symop_operation_xyz
x,y,z
1/2-x,-y,1/2+z
x,-y,-z
1/2-x,y,1/2-z
-x,-y,-z
1/2+x,y,1/2-z
-x,y,z
1/2+x,-y,1/2+z
loop_
_atom_site_type_symbol
_atom_site_label
_atom_site_fract_x
_atom_site_fract_y
_atom_site_fract_z
Si Si1 0.319756 0.789965 0.806173
Si Si2 0.827876 0.213253 0.016002
Si Si3 0.321972 0.516063 0.060768
Si Si4 0.321584 0.725635 0.090284
Si Si5 0.827604 0.346620 0.108254
Si Si6 0.675018 0.982486 0.662348
Si Si7 0.822851 0.187180 0.804806
Si Si8 0.676995 0.042434 0.056394
O O1 0.250000 0.755478 0.750000
O O2 0.500000 0.785766 0.803282
O O3 0.263773 0.720800 0.852297
O O4 0.273702 0.897123 0.815742
O O5 0.757332 0.216227 0.956883
O O6 0.000000 0.175262 0.011732
O O7 0.822982 0.311124 0.046503
O O8 0.725554 0.149299 0.054729
O O9 0.500000 0.495460 0.061759
O O10 0.282022 0.618292 0.081582
O O11 0.244570 0.448549 0.104583
O O12 0.260034 0.500000 0.000000
O O13 0.500000 0.745162 0.086837
O O14 0.259968 0.760453 0.146905
O O15 0.000000 0.352734 0.129602
O O16 0.500000 0.951134 0.663089
O O17 0.727737 0.009119 0.602244
O O18 0.702441 0.076132 0.695625
O O19 0.750000 0.226161 0.750000
O O20 0.000000 0.212075 0.807456
O O21 0.500000 0.031954 0.069232
O O22 0.725719 0.000000 0.000000
#
# Coordination Sequence:
#
# PCOD8221529 Si02
#       8
#     8   8   8   8   8   8   8   8
#     4  12  25  42  66  92 126 166 210 260 310 369
#     4  11  22  36  58  88 126 164 202 252 310 370
#     4  10  21  39  64  94 127 164 206 253 310 373
#     4  11  23  40  65  94 127 164 208 258 312 375
#     4  11  23  39  62  93 128 163 204 254 308 368
#     4  11  23  40  62  90 123 162 210 258 308 366
#     4  11  25  44  66  91 124 164 210 261 312 366
#     4  11  23  36  54  84 122 166 211 255 310 371
#
# _framework density 20.322766000000001
#
# number of rings (size 3 to 8) (size 9 to 14) (size 15 to 20)
#    0.000    1.000    2.500    4.500    0.000    8.250 
#    0.000    0.625    0.000    3.000    0.000    0.000 
#    0.000    0.000    0.000    0.000    0.000    0.000 
#
# Total GULP energy -793777.911558 kJ/mol
# GULP energy per Si atom -12402.779868 kJ/mol
# Density = 2.027651 g / cm^3
# Si number density = 20.322766 Si / 1000 Ang^3
#
#
#
# Elastic Constant Matrix: (Units=GPa)
#
#
# Indices 1 2 3 4 5 6 
#
# 1 97.3667 37.9680 45.8097 0.0000 0.0000 0.0000
# 2 37.9680 62.9691 23.6475 0.0000 0.0000 0.0000
# 3 45.8097 23.6475 120.1871 0.0000 0.0000 0.0000
# 4 0.0000 0.0000 0.0000 21.0209 0.0000 0.0000
# 5 0.0000 0.0000 0.0000 0.0000 34.9423 0.0000
# 6 0.0000 0.0000 0.0000 0.0000 0.0000 31.1488
#
#
#
# Elastic Compliance Matrix: (Units=1/GPa)
#
#
# Indices 1 2 3 4 5 6 
#
# 1 0.015260 -0.007577 -0.004326 0.000000 0.000000 0.000000
# 2 -0.007577 0.020910 -0.001226 0.000000 0.000000 0.000000
# 3 -0.004326 -0.001226 0.010210 0.000000 0.000000 0.000000
# 4 0.000000 0.000000 0.000000 0.047572 0.000000 0.000000
# 5 0.000000 0.000000 0.000000 0.000000 0.028619 0.000000
# 6 0.000000 0.000000 0.000000 0.000000 0.000000 0.032104
#
#
# Mechanical properties :
#
#
# Convention : Reuss Voigt Hill
#
# Bulk Modulus (GPa) = 49.69450 55.04149 52.36799
# Shear Modulus (GPa) = 26.64681 28.96226 27.80453
#
# Velocity S-wave (km/s) = 3.62495 3.77916 3.70286
# Velocity P-wave (km/s) = 6.48275 6.79597 6.64121
#
# Compressibility (1/GPa) = 0.02012295
#
# Stress axis : x y z
#
# Youngs Moduli (GPa) = 65.52987 47.82435 97.93963
#
# Poissons Ratio (x) = 0.36236 0.42366
# Poissons Ratio (y) = 0.49651 0.12009
# Poissons Ratio (z) = 0.28346 0.05864
#
# Static dielectric constant tensor:
#      x y z
#    x 3.748890 0.000000 0.000000 
#    y 0.000000 3.606540 0.000000 
#    z 0.000000 0.000000 3.797980 
# 
# 
# High freq. dielectric constant tensor:
#      x y z
#    x 1.806050 0.000000 0.000000 
#    y 0.000000 1.786810 0.000000 
#    z 0.000000 0.000000 1.796720 
# 
# From -- ./inp_files/34253.got.cif
#   From: 2010.03.12/outbox.cif.g09.slc.cpg/sg53_18_cif.got.tgz:34253.got - 2010.04.16 14:36:59.
