data_PCOD8221553
_publ_section_title
;
Structure prediction by ZEFSAII (Michael W. Deem and Ramdas Pophale) SiO2 
 PCOD8221553
Probable space group: P M N A
;
_chemical_formula_sum "Si O2"
_cell_formula_units_Z 56
_cell_length_a 8.720843
_cell_length_b 17.367773
_cell_length_c 19.874550
_cell_angle_alpha 90.000000
_cell_angle_beta 90.000000
_cell_angle_gamma 90.000000
_cell_volume 3010.231571
_symmetry_space_group_name_H-M "P M N A"
_symmetry_group_IT_number 53
_symmetry_cell_setting 'orthorhombic'
loop_
_space_group_symop_operation_xyz
x,y,z
1/2-x,-y,1/2+z
x,-y,-z
1/2-x,y,1/2-z
-x,-y,-z
1/2+x,y,1/2-z
-x,y,z
1/2+x,-y,1/2+z
loop_
_atom_site_type_symbol
_atom_site_label
_atom_site_fract_x
_atom_site_fract_y
_atom_site_fract_z
Si Si1 0.681368 0.451782 0.094305
Si Si2 0.181732 0.187424 0.082147
Si Si3 0.682004 0.390331 0.953203
Si Si4 0.818085 0.120600 0.820977
Si Si5 0.820730 0.945643 0.819391
Si Si6 0.681081 0.313356 0.178482
Si Si7 0.682477 0.781034 0.059607
O O1 0.500000 0.451488 0.087732
O O2 0.737621 0.541206 0.098034
O O3 0.730436 0.401222 0.159090
O O4 0.746975 0.411054 0.027090
O O5 0.231132 0.108733 0.119473
O O6 0.254408 0.258899 0.120831
O O7 0.000000 0.197288 0.079660
O O8 0.248516 0.181879 0.007578
O O9 0.500000 0.386772 0.954823
O O10 0.743920 0.306782 0.931392
O O11 0.750000 0.148288 0.750000
O O12 0.743027 0.172289 0.877548
O O13 0.000000 0.130759 0.821110
O O14 0.767455 0.032560 0.835165
O O15 0.750000 0.914502 0.750000
O O16 0.000000 0.942230 0.808722
O O17 0.750000 0.290955 0.250000
O O18 0.500000 0.303352 0.181681
O O19 0.500000 0.785105 0.055827
#
# Coordination Sequence:
#
# PCOD8221553 Si02
#       7
#     8   8   8   8   8   8   8
#     4   8  14  28  51  75 100 136 180 221 262 313
#     4  11  22  36  54  80 112 146 184 227 273 323
#     4   8  14  28  52  78 102 134 177 220 264 315
#     4  10  21  40  61  81 106 140 181 226 276 330
#     4   9  20  37  57  78 105 144 186 225 270 324
#     4  11  21  34  52  78 111 147 183 225 274 329
#     4  11  21  35  57  86 114 143 180 225 274 327
#
# _framework density 18.60322
#
# number of rings (size 3 to 8) (size 9 to 14) (size 15 to 20)
#    0.000    2.286    1.429    3.000    0.000    3.429 
#    0.000    3.571    0.000    6.000    0.000    0.000 
#    0.000    0.000    0.000    0.000    0.000    0.000 
#
# Total GULP energy -694159.002609 kJ/mol
# GULP energy per Si atom -12395.696475 kJ/mol
# Density = 1.856088 g / cm^3
# Si number density = 18.603220 Si / 1000 Ang^3
#
#
#
# Elastic Constant Matrix: (Units=GPa)
#
#
# Indices 1 2 3 4 5 6 
#
# 1 56.0288 37.2386 35.5983 0.0000 0.0000 0.0000
# 2 37.2386 130.0604 75.4421 0.0000 0.0000 0.0000
# 3 35.5983 75.4421 126.2279 0.0000 0.0000 0.0000
# 4 0.0000 0.0000 0.0000 58.3089 0.0000 0.0000
# 5 0.0000 0.0000 0.0000 0.0000 30.2002 0.0000
# 6 0.0000 0.0000 0.0000 0.0000 0.0000 20.8772
#
#
#
# Elastic Compliance Matrix: (Units=1/GPa)
#
#
# Indices 1 2 3 4 5 6 
#
# 1 0.023261 -0.004370 -0.003948 0.000000 0.000000 0.000000
# 2 -0.004370 0.012590 -0.006292 0.000000 0.000000 0.000000
# 3 -0.003948 -0.006292 0.012796 0.000000 0.000000 0.000000
# 4 0.000000 0.000000 0.000000 0.017150 0.000000 0.000000
# 5 0.000000 0.000000 0.000000 0.000000 0.033112 0.000000
# 6 0.000000 0.000000 0.000000 0.000000 0.000000 0.047899
#
#
# Mechanical properties :
#
#
# Convention : Reuss Voigt Hill
#
# Bulk Modulus (GPa) = 51.47617 67.65279 59.56448
# Shear Modulus (GPa) = 27.39669 32.81312 30.10490
#
# Velocity S-wave (km/s) = 3.84172 4.20437 4.02713
# Velocity P-wave (km/s) = 6.88542 7.74687 7.32882
#
# Compressibility (1/GPa) = 0.01942646
#
# Stress axis : x y z
#
# Youngs Moduli (GPa) = 42.99080 79.43070 78.14830
#
# Poissons Ratio (x) = 0.34709 0.30855
# Poissons Ratio (y) = 0.18786 0.49171
# Poissons Ratio (z) = 0.16974 0.49978
#
# Static dielectric constant tensor:
#      x y z
#    x 3.231880 0.000000 0.000000 
#    y 0.000000 3.936390 0.000000 
#    z 0.000000 0.000000 3.363250 
# 
# 
# High freq. dielectric constant tensor:
#      x y z
#    x 1.703790 0.000000 0.000000 
#    y 0.000000 1.734650 0.000000 
#    z 0.000000 0.000000 1.711250 
# 
# From -- ./inp_files/31024.got.cif
#   From: 2010.03.12/outbox.cif.g09.slc.cpg/sg53_16_cif.got.tgz:31024.got - 2010.04.16 14:36:59.
