data_PCOD8221239
_publ_section_title
;
Structure prediction by ZEFSAII (Michael W. Deem and Ramdas Pophale) SiO2 
 PCOD8221239
Probable space group: P M N A
;
_chemical_formula_sum "Si O2"
_cell_formula_units_Z 64
_cell_length_a 8.739511
_cell_length_b 19.042000
_cell_length_c 19.602945
_cell_angle_alpha 90.000000
_cell_angle_beta 90.000000
_cell_angle_gamma 90.000000
_cell_volume 3262.278362
_symmetry_space_group_name_H-M "P M N A"
_symmetry_group_IT_number 53
_symmetry_cell_setting 'orthorhombic'
loop_
_space_group_symop_operation_xyz
x,y,z
1/2-x,-y,1/2+z
x,-y,-z
1/2-x,y,1/2-z
-x,-y,-z
1/2+x,y,1/2-z
-x,y,z
1/2+x,-y,1/2+z
loop_
_atom_site_type_symbol
_atom_site_label
_atom_site_fract_x
_atom_site_fract_y
_atom_site_fract_z
Si Si1 0.320442 0.839544 0.678403
Si Si2 0.679805 0.696974 0.175965
Si Si3 0.680051 0.014090 0.178009
Si Si4 0.178193 0.277152 0.069545
Si Si5 0.178394 0.795027 0.447031
Si Si6 0.179436 0.057772 0.944309
Si Si7 0.819465 0.583855 0.567616
Si Si8 0.180483 0.569475 0.412942
O O1 0.250000 0.816118 0.750000
O O2 0.500000 0.850860 0.687008
O O3 0.248043 0.912127 0.652361
O O4 0.277572 0.781106 0.624277
O O5 0.750000 0.709909 0.250000
O O6 0.500000 0.688582 0.185130
O O7 0.717634 0.763929 0.127836
O O8 0.749066 0.625725 0.141077
O O9 0.750000 0.991710 0.250000
O O10 0.500000 0.020157 0.185354
O O11 0.725526 0.954803 0.124347
O O12 0.228291 0.351795 0.102072
O O13 0.000000 0.275733 0.051692
O O14 0.277114 0.264502 0.001500
O O15 0.277681 0.863528 0.466579
O O16 0.000000 0.813298 0.452901
O O17 0.000000 0.052167 0.929964
O O18 0.229759 0.000000 0.000000
O O19 0.776287 0.511111 0.606570
O O20 0.760152 0.582146 0.489486
O O21 0.000000 0.596837 0.571907
O O22 0.000000 0.579044 0.414315
#
# Coordination Sequence:
#
# PCOD8221239 Si02
#       8
#     8   8   8   8   8   8   8   8
#     4  10  21  37  56  80 111 147 184 228 282 342
#     4  10  21  38  58  83 115 152 194 239 287 339
#     4  11  22  38  61  85 110 145 190 235 281 343
#     4  11  22  35  54  84 119 148 182 235 290 336
#     4  11  23  39  60  84 112 150 198 239 279 345
#     4  11  24  41  60  85 119 152 184 236 298 348
#     4   9  16  31  58  82 106 144 186 229 275 331
#     4   8  15  32  56  81 107 141 187 232 274 328
#
# _framework density 19.618189999999998
#
# number of rings (size 3 to 8) (size 9 to 14) (size 15 to 20)
#    0.000    1.875    1.250    4.875    0.000    7.500 
#    0.000    3.750    0.000    3.000    0.000    0.000 
#    0.000    0.000    0.000    0.000    0.000    0.000 
#
# Total GULP energy -793577.949115 kJ/mol
# GULP energy per Si atom -12399.655455 kJ/mol
# Density = 1.957354 g / cm^3
# Si number density = 19.618190 Si / 1000 Ang^3
#
#
#
# Elastic Constant Matrix: (Units=GPa)
#
#
# Indices 1 2 3 4 5 6 
#
# 1 63.9141 27.1089 30.9945 0.0000 0.0000 0.0000
# 2 27.1089 104.0710 33.9398 0.0000 0.0000 0.0000
# 3 30.9945 33.9398 66.3568 0.0000 0.0000 0.0000
# 4 0.0000 0.0000 0.0000 32.0396 0.0000 0.0000
# 5 0.0000 0.0000 0.0000 0.0000 21.1941 0.0000
# 6 0.0000 0.0000 0.0000 0.0000 0.0000 24.9877
#
#
#
# Elastic Compliance Matrix: (Units=1/GPa)
#
#
# Indices 1 2 3 4 5 6 
#
# 1 0.020844 -0.002706 -0.008352 0.000000 0.000000 0.000000
# 2 -0.002706 0.011884 -0.004814 0.000000 0.000000 0.000000
# 3 -0.008352 -0.004814 0.021434 0.000000 0.000000 0.000000
# 4 0.000000 0.000000 0.000000 0.031211 0.000000 0.000000
# 5 0.000000 0.000000 0.000000 0.000000 0.047183 0.000000
# 6 0.000000 0.000000 0.000000 0.000000 0.000000 0.040020
#
#
# Mechanical properties :
#
#
# Convention : Reuss Voigt Hill
#
# Bulk Modulus (GPa) = 44.60921 46.49203 45.55062
# Shear Modulus (GPa) = 23.60807 25.13083 24.36945
#
# Velocity S-wave (km/s) = 3.47274 3.58298 3.52829
# Velocity P-wave (km/s) = 6.23441 6.39272 6.31406
#
# Compressibility (1/GPa) = 0.02241690
#
# Stress axis : x y z
#
# Youngs Moduli (GPa) = 47.97578 84.14876 46.65568
#
# Poissons Ratio (x) = 0.22768 0.38967
# Poissons Ratio (y) = 0.12981 0.22462
# Poissons Ratio (z) = 0.40069 0.40513
#
# Static dielectric constant tensor:
#      x y z
#    x 3.369870 0.000000 0.000000 
#    y 0.000000 3.766060 0.000000 
#    z 0.000000 0.000000 3.529490 
# 
# 
# High freq. dielectric constant tensor:
#      x y z
#    x 1.754690 0.000000 0.000000 
#    y 0.000000 1.778110 0.000000 
#    z 0.000000 0.000000 1.748160 
# 
# From -- ./inp_files/26889.got.cif
#   From: 2010.03.12/outbox.cif.g09.slc.cpg/sg53_14_cif.got.tgz:26889.got - 2010.04.16 14:36:59.
