data_PCOD8221402
_publ_section_title
;
Structure prediction by ZEFSAII (Michael W. Deem and Ramdas Pophale) SiO2 
 PCOD8221402
Probable space group: P M N A
;
_chemical_formula_sum "Si O2"
_cell_formula_units_Z 48
_cell_length_a 8.884553
_cell_length_b 29.593873
_cell_length_c 9.546187
_cell_angle_alpha 90.000000
_cell_angle_beta 90.000000
_cell_angle_gamma 90.000000
_cell_volume 2509.963036
_symmetry_space_group_name_H-M "P M N A"
_symmetry_group_IT_number 53
_symmetry_cell_setting 'orthorhombic'
loop_
_space_group_symop_operation_xyz
x,y,z
1/2-x,-y,1/2+z
x,-y,-z
1/2-x,y,1/2-z
-x,-y,-z
1/2+x,y,1/2-z
-x,y,z
1/2+x,-y,1/2+z
loop_
_atom_site_type_symbol
_atom_site_label
_atom_site_fract_x
_atom_site_fract_y
_atom_site_fract_z
Si Si1 0.322531 0.537480 0.104838
Si Si2 0.173912 0.891356 0.105642
Si Si3 0.674028 0.785095 0.393836
Si Si4 0.678347 0.282151 0.099020
Si Si5 0.176320 0.361324 0.604258
Si Si6 0.176587 0.042065 0.400538
O O1 0.250000 0.524460 0.250000
O O2 0.500000 0.533906 0.119045
O O3 0.273972 0.588098 0.058276
O O4 0.258111 0.500000 0.000000
O O5 0.250000 0.908011 0.250000
O O6 0.194838 0.838229 0.085991
O O7 0.000000 0.905638 0.111549
O O8 0.253002 0.913738 0.972108
O O9 0.750000 0.768533 0.250000
O O10 0.500000 0.770932 0.390248
O O11 0.757137 0.761977 0.523327
O O12 0.750000 0.286099 0.250000
O O13 0.500000 0.277586 0.111268
O O14 0.728776 0.326918 0.015376
O O15 0.250000 0.346742 0.750000
O O16 0.000000 0.358711 0.628505
O O17 0.250000 0.033422 0.250000
O O18 0.000000 0.049628 0.380447
O O19 0.213476 0.000000 0.500000
#
# Coordination Sequence:
#
# PCOD8221402 Si02
#       6
#     8   8   8   8   8   8
#     4   9  18  33  52  75 104 136 172 215 262 315
#     4  10  21  38  61  87 115 147 184 227 273 324
#     4  10  21  38  60  85 112 145 184 224 270 325
#     4  11  23  37  54  78 109 143 180 225 275 324
#     4   9  19  35  54  76 102 136 177 218 263 318
#     4  11  24  40  60  86 116 151 189 230 276 326
#
# _framework density 19.123787
#
# number of rings (size 3 to 8) (size 9 to 14) (size 15 to 20)
#    0.000    2.000    0.000    3.000    0.000    9.000 
#    0.000    0.000    0.000    0.000    0.000    0.000 
#    0.000    0.000    0.000    0.000    0.000    0.000 
#
# Total GULP energy -595377.875076 kJ/mol
# GULP energy per Si atom -12403.705731 kJ/mol
# Density = 1.908026 g / cm^3
# Si number density = 19.123787 Si / 1000 Ang^3
#
#
#
# Elastic Constant Matrix: (Units=GPa)
#
#
# Indices 1 2 3 4 5 6 
#
# 1 99.9311 54.7697 74.4780 0.0000 0.0000 0.0000
# 2 54.7697 82.1227 73.4084 0.0000 0.0000 0.0000
# 3 74.4780 73.4084 165.7758 0.0000 0.0000 0.0000
# 4 0.0000 0.0000 0.0000 38.8998 0.0000 0.0000
# 5 0.0000 0.0000 0.0000 0.0000 40.6873 0.0000
# 6 0.0000 0.0000 0.0000 0.0000 0.0000 20.8556
#
#
#
# Elastic Compliance Matrix: (Units=1/GPa)
#
#
# Indices 1 2 3 4 5 6 
#
# 1 0.017574 -0.007718 -0.004478 0.000000 0.000000 0.000000
# 2 -0.007718 0.023544 -0.006958 0.000000 0.000000 0.000000
# 3 -0.004478 -0.006958 0.011125 0.000000 0.000000 0.000000
# 4 0.000000 0.000000 0.000000 0.025707 0.000000 0.000000
# 5 0.000000 0.000000 0.000000 0.000000 0.024578 0.000000
# 6 0.000000 0.000000 0.000000 0.000000 0.000000 0.047949
#
#
# Mechanical properties :
#
#
# Convention : Reuss Voigt Hill
#
# Bulk Modulus (GPa) = 71.76014 83.68241 77.72127
# Shear Modulus (GPa) = 25.84904 29.76677 27.80790
#
# Velocity S-wave (km/s) = 3.68049 3.94957 3.81740
# Velocity P-wave (km/s) = 7.46102 8.04065 7.75625
#
# Compressibility (1/GPa) = 0.01393531
#
# Stress axis : x y z
#
# Youngs Moduli (GPa) = 56.90126 42.47344 89.88512
#
# Poissons Ratio (x) = 0.32781 0.40250
# Poissons Ratio (y) = 0.43916 0.62545
# Poissons Ratio (z) = 0.25480 0.29554
#
# Static dielectric constant tensor:
#      x y z
#    x 3.575650 0.000000 0.000000 
#    y 0.000000 3.691370 0.000000 
#    z 0.000000 0.000000 3.601340 
# 
# 
# High freq. dielectric constant tensor:
#      x y z
#    x 1.752060 0.000000 0.000000 
#    y 0.000000 1.753820 0.000000 
#    z 0.000000 0.000000 1.743780 
# 
# From -- ./inp_files/6591.got.cif
#   From: 2010.03.12/outbox.cif.g09.slc.cpg/sg53_4_cif.got.tgz:6591.got - 2010.04.16 14:36:59.
