data_PCOD8221389
_publ_section_title
;
Structure prediction by ZEFSAII (Michael W. Deem and Ramdas Pophale) SiO2 
 PCOD8221389
Probable space group: P M N A
;
_chemical_formula_sum "Si O2"
_cell_formula_units_Z 48
_cell_length_a 8.750280
_cell_length_b 16.933237
_cell_length_c 16.023329
_cell_angle_alpha 90.000000
_cell_angle_beta 90.000000
_cell_angle_gamma 90.000000
_cell_volume 2374.185712
_symmetry_space_group_name_H-M "P M N A"
_symmetry_group_IT_number 53
_symmetry_cell_setting 'orthorhombic'
loop_
_space_group_symop_operation_xyz
x,y,z
1/2-x,-y,1/2+z
x,-y,-z
1/2-x,y,1/2-z
-x,-y,-z
1/2+x,y,1/2-z
-x,y,z
1/2+x,-y,1/2+z
loop_
_atom_site_type_symbol
_atom_site_label
_atom_site_fract_x
_atom_site_fract_y
_atom_site_fract_z
Si Si1 0.822613 0.907974 0.502605
Si Si2 0.319929 0.646962 0.664125
Si Si3 0.836101 0.496298 0.407090
Si Si4 0.181241 0.190440 0.658867
Si Si5 0.180173 0.826148 0.837981
Si Si6 0.819672 0.644928 0.161278
O O1 0.769523 0.871196 0.413592
O O2 0.733081 0.875194 0.582238
O O3 0.000000 0.889775 0.517073
O O4 0.786609 0.000000 0.500000
O O5 0.250000 0.616327 0.750000
O O6 0.500000 0.640873 0.665687
O O7 0.251471 0.586842 0.598137
O O8 0.266353 0.736207 0.645529
O O9 0.889374 0.500000 0.500000
O O10 0.721565 0.568574 0.391764
O O11 0.000000 0.500035 0.356013
O O12 0.250000 0.167094 0.750000
O O13 0.243457 0.274798 0.626791
O O14 0.000000 0.193977 0.669606
O O15 0.250000 0.857248 0.750000
O O16 0.000000 0.833370 0.829128
O O17 0.750000 0.626095 0.250000
O O18 0.000000 0.657823 0.164398
#
# Coordination Sequence:
#
# PCOD8221389 Si02
#       6
#     8   8   8   8   8   8
#     4  10  23  42  64  92 126 162 200 247 306 367
#     4  10  21  38  59  84 114 152 197 243 294 347
#     4  11  24  38  54  81 116 155 197 240 292 346
#     4  10  21  39  63  90 122 160 203 250 302 360
#     4  10  22  40  64  93 124 162 205 251 304 362
#     4  11  22  38  60  83 114 152 196 244 293 349
#
# _framework density 20.217457
#
# number of rings (size 3 to 8) (size 9 to 14) (size 15 to 20)
#    0.000    1.667    0.000    5.000    2.333    5.667 
#    0.000    1.667    0.000    0.000    0.000    0.000 
#    0.000    0.000    0.000    0.000    0.000    0.000 
#
# Total GULP energy -594940.383887 kJ/mol
# GULP energy per Si atom -12394.591331 kJ/mol
# Density = 2.017144 g / cm^3
# Si number density = 20.217457 Si / 1000 Ang^3
#
#
#
# Elastic Constant Matrix: (Units=GPa)
#
#
# Indices 1 2 3 4 5 6 
#
# 1 107.2144 44.3874 51.7844 0.0000 0.0000 0.0000
# 2 44.3874 110.6547 63.5396 0.0000 0.0000 0.0000
# 3 51.7844 63.5396 109.9814 0.0000 0.0000 0.0000
# 4 0.0000 0.0000 0.0000 33.8701 0.0000 0.0000
# 5 0.0000 0.0000 0.0000 0.0000 26.7756 0.0000
# 6 0.0000 0.0000 0.0000 0.0000 0.0000 53.4483
#
#
#
# Elastic Compliance Matrix: (Units=1/GPa)
#
#
# Indices 1 2 3 4 5 6 
#
# 1 0.012500 -0.002446 -0.004472 0.000000 0.000000 0.000000
# 2 -0.002446 0.014002 -0.006938 0.000000 0.000000 0.000000
# 3 -0.004472 -0.006938 0.015206 0.000000 0.000000 0.000000
# 4 0.000000 0.000000 0.000000 0.029525 0.000000 0.000000
# 5 0.000000 0.000000 0.000000 0.000000 0.037347 0.000000
# 6 0.000000 0.000000 0.000000 0.000000 0.000000 0.018710
#
#
# Mechanical properties :
#
#
# Convention : Reuss Voigt Hill
#
# Bulk Modulus (GPa) = 71.44851 71.91923 71.68387
# Shear Modulus (GPa) = 31.31504 34.02808 32.67156
#
# Velocity S-wave (km/s) = 3.93989 4.10702 4.02432
# Velocity P-wave (km/s) = 7.49091 7.62497 7.55824
#
# Compressibility (1/GPa) = 0.01399609
#
# Stress axis : x y z
#
# Youngs Moduli (GPa) = 80.00034 71.41817 65.76184
#
# Poissons Ratio (x) = 0.17469 0.29411
# Poissons Ratio (y) = 0.19568 0.45624
# Poissons Ratio (z) = 0.35779 0.49548
#
# Static dielectric constant tensor:
#      x y z
#    x 3.731240 0.000000 0.000000 
#    y 0.000000 3.812840 0.000000 
#    z 0.000000 0.000000 3.641710 
# 
# 
# High freq. dielectric constant tensor:
#      x y z
#    x 1.805460 0.000000 0.000000 
#    y 0.000000 1.789710 0.000000 
#    z 0.000000 0.000000 1.787950 
# 
# From -- ./inp_files/20127.got.cif
#   From: 2010.03.12/outbox.cif.g09.slc.cpg/sg53_11_cif.got.tgz:20127.got - 2010.04.16 14:36:59.
