data_PCOD8221521
_publ_section_title
;
Structure prediction by ZEFSAII (Michael W. Deem and Ramdas Pophale) SiO2 
 PCOD8221521
Probable space group: P M N A
;
_chemical_formula_sum "Si O2"
_cell_formula_units_Z 64
_cell_length_a 17.951624
_cell_length_b 13.986662
_cell_length_c 13.650425
_cell_angle_alpha 90.000000
_cell_angle_beta 90.000000
_cell_angle_gamma 90.000000
_cell_volume 3427.393718
_symmetry_space_group_name_H-M "P M N A"
_symmetry_group_IT_number 53
_symmetry_cell_setting 'orthorhombic'
loop_
_space_group_symop_operation_xyz
x,y,z
1/2-x,-y,1/2+z
x,-y,-z
1/2-x,y,1/2-z
-x,-y,-z
1/2+x,y,1/2-z
-x,y,z
1/2+x,-y,1/2+z
loop_
_atom_site_type_symbol
_atom_site_label
_atom_site_fract_x
_atom_site_fract_y
_atom_site_fract_z
Si Si1 0.585621 0.498464 0.390521
Si Si2 0.585397 0.280419 0.359374
Si Si3 0.914328 0.954609 0.169915
Si Si4 0.414067 0.192792 0.843962
Si Si5 0.162994 0.131830 0.261047
Si Si6 0.334765 0.189937 0.538334
Si Si7 0.320490 0.889049 0.980115
Si Si8 0.829830 0.334844 0.786415
O O1 0.619328 0.500000 0.500000
O O2 0.500000 0.531780 0.394381
O O3 0.594912 0.393337 0.346624
O O4 0.628396 0.571345 0.321823
O O5 0.500000 0.249715 0.344385
O O6 0.637030 0.235524 0.275209
O O7 0.610049 0.246399 0.466984
O O8 0.904453 0.891763 0.266582
O O9 0.873852 0.906301 0.077431
O O10 0.000000 0.968783 0.141811
O O11 0.878058 0.056784 0.190474
O O12 0.500000 0.214781 0.865921
O O13 0.376657 0.288760 0.802344
O O14 0.375288 0.160301 0.943401
O O15 0.250000 0.115157 0.250000
O O16 0.140886 0.122216 0.374439
O O17 0.259336 0.163116 0.481690
O O18 0.316531 0.257693 0.629081
O O19 0.308876 0.000000 0.000000
O O20 0.750000 0.369546 0.750000
#
# Coordination Sequence:
#
# PCOD8221521 Si02
#       8
#     8   8   8   8   8   8   8   8
#     4  10  21  39  64  91 119 155 198 248 309 371
#     4  11  24  41  62  91 123 157 200 253 311 369
#     4  10  22  37  58  88 120 156 199 247 298 357
#     4  10  22  37  59  89 118 154 201 251 297 346
#     4  12  24  39  59  84 123 166 203 248 298 357
#     4  11  22  38  62  90 123 155 200 247 310 364
#     4  12  23  40  61  83 121 170 211 247 292 357
#     4  11  21  38  65  93 122 153 195 255 307 365
#
# _framework density 18.673081
#
# number of rings (size 3 to 8) (size 9 to 14) (size 15 to 20)
#    0.000    1.125    5.000    1.875    0.000    2.750 
#    0.000    1.250    0.000    0.000    0.000    2.625 
#    0.000    0.000    0.000    0.000    0.000    0.000 
#
# Total GULP energy -793960.242286 kJ/mol
# GULP energy per Si atom -12405.628786 kJ/mol
# Density = 1.863058 g / cm^3
# Si number density = 18.673081 Si / 1000 Ang^3
#
#
#
# Elastic Constant Matrix: (Units=GPa)
#
#
# Indices 1 2 3 4 5 6 
#
# 1 100.2020 43.9522 23.7801 0.0000 0.0000 0.0000
# 2 43.9522 98.5712 32.9849 0.0000 0.0000 0.0000
# 3 23.7801 32.9849 66.2951 0.0000 0.0000 0.0000
# 4 0.0000 0.0000 0.0000 29.0449 0.0000 0.0000
# 5 0.0000 0.0000 0.0000 0.0000 17.2809 0.0000
# 6 0.0000 0.0000 0.0000 0.0000 0.0000 31.8671
#
#
#
# Elastic Compliance Matrix: (Units=1/GPa)
#
#
# Indices 1 2 3 4 5 6 
#
# 1 0.012640 -0.004942 -0.002075 0.000000 0.000000 0.000000
# 2 -0.004942 0.014103 -0.005245 0.000000 0.000000 0.000000
# 3 -0.002075 -0.005245 0.018438 0.000000 0.000000 0.000000
# 4 0.000000 0.000000 0.000000 0.034429 0.000000 0.000000
# 5 0.000000 0.000000 0.000000 0.000000 0.057867 0.000000
# 6 0.000000 0.000000 0.000000 0.000000 0.000000 0.031380
#
#
# Mechanical properties :
#
#
# Convention : Reuss Voigt Hill
#
# Bulk Modulus (GPa) = 48.40658 51.83364 50.12011
# Shear Modulus (GPa) = 24.96666 26.59532 25.78099
#
# Velocity S-wave (km/s) = 3.66052 3.77803 3.71974
# Velocity P-wave (km/s) = 6.62158 6.84471 6.73407
#
# Compressibility (1/GPa) = 0.02065835
#
# Stress axis : x y z
#
# Youngs Moduli (GPa) = 79.11453 70.90519 54.23617
#
# Poissons Ratio (x) = 0.35038 0.11255
# Poissons Ratio (y) = 0.39095 0.28444
# Poissons Ratio (z) = 0.16418 0.37186
#
# Static dielectric constant tensor:
#      x y z
#    x 3.459460 0.000000 0.000000 
#    y 0.000000 3.365410 0.000000 
#    z 0.000000 0.000000 3.492370 
# 
# 
# High freq. dielectric constant tensor:
#      x y z
#    x 1.732240 0.000000 0.000000 
#    y 0.000000 1.722130 0.000000 
#    z 0.000000 0.000000 1.726690 
# 
# From -- ./inp_files/23871.got.cif
#   From: 2010.03.12/outbox.cif.g09.slc.cpg/sg53_12_cif.got.tgz:23871.got - 2010.04.16 14:36:59.
