data_PCOD8221632
_publ_section_title
;
Structure prediction by ZEFSAII (Michael W. Deem and Ramdas Pophale) SiO2 
 PCOD8221632
Probable space group: P M N A
;
_chemical_formula_sum "Si O2"
_cell_formula_units_Z 56
_cell_length_a 19.859508
_cell_length_b 14.815426
_cell_length_c 9.714923
_cell_angle_alpha 90.000000
_cell_angle_beta 90.000000
_cell_angle_gamma 90.000000
_cell_volume 2858.393341
_symmetry_space_group_name_H-M "P M N A"
_symmetry_group_IT_number 53
_symmetry_cell_setting 'orthorhombic'
loop_
_space_group_symop_operation_xyz
x,y,z
1/2-x,-y,1/2+z
x,-y,-z
1/2-x,y,1/2-z
-x,-y,-z
1/2+x,y,1/2-z
-x,y,z
1/2+x,-y,1/2+z
loop_
_atom_site_type_symbol
_atom_site_label
_atom_site_fract_x
_atom_site_fract_y
_atom_site_fract_z
Si Si1 0.000000 0.906940 0.583438
Si Si2 0.757470 0.921545 0.593908
Si Si3 0.000000 0.910021 0.907936
Si Si4 0.685070 0.521411 0.342807
Si Si5 0.365492 0.815155 0.510350
Si Si6 0.830578 0.286445 0.755056
Si Si7 0.371726 0.217141 0.036368
Si Si8 0.669718 0.668413 0.726246
O O1 0.064653 0.848643 0.540222
O O2 0.000000 0.932343 0.745203
O O3 0.000000 0.000000 0.500000
O O4 0.750000 0.955182 0.750000
O O5 0.683881 0.898271 0.538632
O O6 0.805171 0.835922 0.581963
O O7 0.789027 0.000000 0.500000
O O8 0.938010 0.847082 0.944318
O O9 0.000000 0.000000 0.000000
O O10 0.706114 0.500000 0.500000
O O11 0.750000 0.532279 0.250000
O O12 0.645984 0.615920 0.316848
O O13 0.642904 0.434079 0.293731
O O14 0.362342 0.791555 0.349589
O O15 0.343193 0.725906 0.590433
O O16 0.750000 0.276298 0.750000
O O17 0.863346 0.268111 0.607441
O O18 0.376442 0.295101 0.150142
O O19 0.750000 0.668456 0.750000
#
# Coordination Sequence:
#
# PCOD8221632 Si02
#       8
#     4   8   4   8   8   8   8   8
#     4  12  28  48  66  93 130 170 218 270 329 385
#     4  12  24  39  61  90 120 160 209 271 325 372
#     4  12  28  46  68  95 125 173 223 263 326 394
#     4  10  22  34  59 100 138 166 208 267 320 381
#     4  12  22  42  65  90 130 167 214 261 319 386
#     4  11  23  39  66 102 133 167 216 262 321 381
#     4  12  24  42  66  91 130 170 213 263 323 389
#     4  11  19  39  66  92 132 170 210 261 323 379
#
# _framework density 19.591425999999998
#
# number of rings (size 3 to 8) (size 9 to 14) (size 15 to 20)
#    0.000    0.571    7.143    0.857   10.000    0.000 
#    0.000    0.000    0.000    5.143    0.000    0.000 
#    0.000    0.000    0.000    0.000    0.000    0.000 
#
# Total GULP energy -694314.639277 kJ/mol
# GULP energy per Si atom -12398.475701 kJ/mol
# Density = 1.954683 g / cm^3
# Si number density = 19.591426 Si / 1000 Ang^3
#
#
#
# Elastic Constant Matrix: (Units=GPa)
#
#
# Indices 1 2 3 4 5 6 
#
# 1 84.6511 31.9667 16.1077 0.0000 0.0000 0.0000
# 2 31.9667 114.2098 58.7469 0.0000 0.0000 0.0000
# 3 16.1077 58.7469 150.4682 0.0000 0.0000 0.0000
# 4 0.0000 0.0000 0.0000 82.6841 0.0000 0.0000
# 5 0.0000 0.0000 0.0000 0.0000 24.8130 0.0000
# 6 0.0000 0.0000 0.0000 0.0000 0.0000 18.5945
#
#
#
# Elastic Compliance Matrix: (Units=1/GPa)
#
#
# Indices 1 2 3 4 5 6 
#
# 1 0.013210 -0.003716 0.000037 0.000000 0.000000 0.000000
# 2 -0.003716 0.012002 -0.004288 0.000000 0.000000 0.000000
# 3 0.000037 -0.004288 0.008316 0.000000 0.000000 0.000000
# 4 0.000000 0.000000 0.000000 0.012094 0.000000 0.000000
# 5 0.000000 0.000000 0.000000 0.000000 0.040301 0.000000
# 6 0.000000 0.000000 0.000000 0.000000 0.000000 0.053779
#
#
# Mechanical properties :
#
#
# Convention : Reuss Voigt Hill
#
# Bulk Modulus (GPa) = 56.84210 62.55239 59.69725
# Shear Modulus (GPa) = 30.95958 41.38552 36.17255
#
# Velocity S-wave (km/s) = 3.97956 4.60110 4.30157
# Velocity P-wave (km/s) = 7.08468 7.76045 7.43025
#
# Compressibility (1/GPa) = 0.01759259
#
# Stress axis : x y z
#
# Youngs Moduli (GPa) = 75.70287 83.32249 120.24870
#
# Poissons Ratio (x) = 0.30964 -0.00443
# Poissons Ratio (y) = 0.28133 0.51562
# Poissons Ratio (z) = -0.00279 0.35728
#
# Static dielectric constant tensor:
#      x y z
#    x 3.335060 0.000000 0.000000 
#    y 0.000000 4.010540 0.000000 
#    z 0.000000 0.000000 3.700730 
# 
# 
# High freq. dielectric constant tensor:
#      x y z
#    x 1.725100 0.000000 0.000000 
#    y 0.000000 1.779970 0.000000 
#    z 0.000000 0.000000 1.785230 
# 
# From -- ./inp_files/11116.got.cif
#   From: 2010.03.12/outbox.cif.g09.slc.cpg/sg53_6_cif.got.tgz:11116.got - 2010.04.16 14:36:59.
