data_PCOD8221934
_publ_section_title
;
Structure prediction by ZEFSAII (Michael W. Deem and Ramdas Pophale) SiO2 
 PCOD8221934
Probable space group: P M N A
;
_chemical_formula_sum "Si O2"
_cell_formula_units_Z 48
_cell_length_a 31.337548
_cell_length_b 7.504330
_cell_length_c 9.978487
_cell_angle_alpha 90.000000
_cell_angle_beta 90.000000
_cell_angle_gamma 90.000000
_cell_volume 2346.613862
_symmetry_space_group_name_H-M "P M N A"
_symmetry_group_IT_number 53
_symmetry_cell_setting 'orthorhombic'
loop_
_space_group_symop_operation_xyz
x,y,z
1/2-x,-y,1/2+z
x,-y,-z
1/2-x,y,1/2-z
-x,-y,-z
1/2+x,y,1/2-z
-x,y,z
1/2+x,-y,1/2+z
loop_
_atom_site_type_symbol
_atom_site_label
_atom_site_fract_x
_atom_site_fract_y
_atom_site_fract_z
Si Si1 0.343852 0.798896 0.028368
Si Si2 0.384622 0.768079 0.760354
Si Si3 0.548604 0.515221 0.342182
Si Si4 0.747018 0.670641 0.092040
Si Si5 0.396683 0.828832 0.274603
Si Si6 0.162971 0.288020 0.003318
O O1 0.293695 0.789657 0.058313
O O2 0.369167 0.731991 0.158722
O O3 0.361658 0.698620 0.896701
O O4 0.355698 0.000000 0.000000
O O5 0.421863 0.630445 0.728123
O O6 0.345804 0.773130 0.654505
O O7 0.406066 0.965410 0.762752
O O8 0.555877 0.500000 0.500000
O O9 0.500000 0.476021 0.301847
O O10 0.559936 0.715275 0.292354
O O11 0.750000 0.622496 0.250000
O O12 0.789945 0.771412 0.044836
O O13 0.741369 0.500000 0.000000
O O14 0.370853 0.813965 0.412228
O O15 0.156857 0.500000 0.000000
#
# Coordination Sequence:
#
# PCOD8221934 Si02
#       6
#     8   8   8   8   8   8
#     4  10  25  42  61  90 127 170 213 260 310 368
#     4  11  23  40  66  94 123 167 211 252 317 380
#     4  11  24  42  66  97 128 157 204 266 320 384
#     4  11  25  39  60  91 126 167 216 261 306 359
#     4  11  21  42  65  91 125 166 206 257 315 372
#     4  11  21  38  61  90 126 166 214 258 303 369
#
# _framework density 20.455005
#
# number of rings (size 3 to 8) (size 9 to 14) (size 15 to 20)
#    0.000    1.167    5.000    0.500    7.000    2.000 
#    0.000    3.333    0.000    3.000    0.000    0.000 
#    0.000    0.000    0.000    0.000    0.000    0.000 
#
# Total GULP energy -595049.637638 kJ/mol
# GULP energy per Si atom -12396.867451 kJ/mol
# Density = 2.040845 g / cm^3
# Si number density = 20.455005 Si / 1000 Ang^3
#
#
#
# Elastic Constant Matrix: (Units=GPa)
#
#
# Indices 1 2 3 4 5 6 
#
# 1 125.9148 26.1787 48.4613 0.0000 0.0000 0.0000
# 2 26.1787 71.1525 13.0066 0.0000 0.0000 0.0000
# 3 48.4613 13.0066 124.5799 0.0000 0.0000 0.0000
# 4 0.0000 0.0000 0.0000 26.1211 0.0000 0.0000
# 5 0.0000 0.0000 0.0000 0.0000 16.7247 0.0000
# 6 0.0000 0.0000 0.0000 0.0000 0.0000 19.2535
#
#
#
# Elastic Compliance Matrix: (Units=1/GPa)
#
#
# Indices 1 2 3 4 5 6 
#
# 1 0.009933 -0.003006 -0.003550 0.000000 0.000000 0.000000
# 2 -0.003006 0.015237 -0.000422 0.000000 0.000000 0.000000
# 3 -0.003550 -0.000422 0.009452 0.000000 0.000000 0.000000
# 4 0.000000 0.000000 0.000000 0.038283 0.000000 0.000000
# 5 0.000000 0.000000 0.000000 0.000000 0.059792 0.000000
# 6 0.000000 0.000000 0.000000 0.000000 0.000000 0.051939
#
#
# Mechanical properties :
#
#
# Convention : Reuss Voigt Hill
#
# Bulk Modulus (GPa) = 48.38520 55.21558 51.80039
# Shear Modulus (GPa) = 24.33326 28.01991 26.17658
#
# Velocity S-wave (km/s) = 3.45280 3.70514 3.58119
# Velocity P-wave (km/s) = 6.29298 6.73471 6.51759
#
# Compressibility (1/GPa) = 0.02066748
#
# Stress axis : x y z
#
# Youngs Moduli (GPa) = 100.67297 65.62859 105.79771
#
# Poissons Ratio (x) = 0.19726 0.37560
# Poissons Ratio (y) = 0.30259 0.04461
# Poissons Ratio (z) = 0.35741 0.02767
#
# Static dielectric constant tensor:
#      x y z
#    x 3.815520 0.000000 0.000000 
#    y 0.000000 3.680020 0.000000 
#    z 0.000000 0.000000 4.213650 
# 
# 
# High freq. dielectric constant tensor:
#      x y z
#    x 1.788090 0.000000 0.000000 
#    y 0.000000 1.795590 0.000000 
#    z 0.000000 0.000000 1.813820 
# 
# From -- ./inp_files/12968.got.cif
#   From: 2010.03.12/outbox.cif.g09.slc.cpg/sg53_7_cif.got.tgz:12968.got - 2010.04.16 14:36:59.
