data_PCOD8221731
_publ_section_title
;
Structure prediction by ZEFSAII (Michael W. Deem and Ramdas Pophale) SiO2 
 PCOD8221731
Probable space group: P M N A
;
_chemical_formula_sum "Si O2"
_cell_formula_units_Z 40
_cell_length_a 8.941525
_cell_length_b 12.642299
_cell_length_c 18.236143
_cell_angle_alpha 90.000000
_cell_angle_beta 90.000000
_cell_angle_gamma 90.000000
_cell_volume 2061.439729
_symmetry_space_group_name_H-M "P M N A"
_symmetry_group_IT_number 53
_symmetry_cell_setting 'orthorhombic'
loop_
_space_group_symop_operation_xyz
x,y,z
1/2-x,-y,1/2+z
x,-y,-z
1/2-x,y,1/2-z
-x,-y,-z
1/2+x,y,1/2-z
-x,y,z
1/2+x,-y,1/2+z
loop_
_atom_site_type_symbol
_atom_site_label
_atom_site_fract_x
_atom_site_fract_y
_atom_site_fract_z
Si Si1 0.323241 0.126049 0.574350
Si Si2 0.826848 0.708218 0.675398
Si Si3 0.176943 0.110326 0.089917
Si Si4 0.822697 0.681232 0.170985
Si Si5 0.672487 0.497176 0.084579
O O1 0.500000 0.132675 0.571176
O O2 0.264761 0.142057 0.491289
O O3 0.258708 0.217645 0.626484
O O4 0.276260 0.011299 0.605378
O O5 0.750000 0.669455 0.750000
O O6 0.758271 0.819000 0.649952
O O7 0.798228 0.620726 0.613391
O O8 0.000000 0.725324 0.691418
O O9 0.000000 0.126266 0.097026
O O10 0.750000 0.681759 0.250000
O O11 0.778429 0.575676 0.128580
O O12 0.000000 0.685223 0.179401
O O13 0.500000 0.530901 0.095625
O O14 0.719482 0.500000 0.000000
#
# Coordination Sequence:
#
# PCOD8221731 Si02
#       5
#     8   8   8   8   8
#     4   8  17  34  57  83 110 143 180 222 270 321
#     4  11  23  37  54  79 111 144 179 221 270 321
#     4   9  17  35  60  82 108 142 182 224 268 319
#     4  11  22  36  55  81 112 145 183 223 269 323
#     4  10  22  40  60  82 109 140 177 225 277 326
#
# _framework density 19.403912999999999
#
# number of rings (size 3 to 8) (size 9 to 14) (size 15 to 20)
#    0.000    2.200    0.000    4.200    0.000    4.400 
#    0.000    7.000    0.000    0.000    0.000    0.000 
#    0.000    0.000    0.000    0.000    0.000    0.000 
#
# Total GULP energy -496087.177514 kJ/mol
# GULP energy per Si atom -12402.179438 kJ/mol
# Density = 1.935975 g / cm^3
# Si number density = 19.403913 Si / 1000 Ang^3
#
#
#
# Elastic Constant Matrix: (Units=GPa)
#
#
# Indices 1 2 3 4 5 6 
#
# 1 67.2004 34.1237 32.9245 0.0000 0.0000 0.0000
# 2 34.1237 93.7108 32.4549 0.0000 0.0000 0.0000
# 3 32.9245 32.4549 97.3951 0.0000 0.0000 0.0000
# 4 0.0000 0.0000 0.0000 26.5780 0.0000 0.0000
# 5 0.0000 0.0000 0.0000 0.0000 -14.5099 0.0000
# 6 0.0000 0.0000 0.0000 0.0000 0.0000 10.8405
#
#
#
# Elastic Compliance Matrix: (Units=1/GPa)
#
#
# Indices 1 2 3 4 5 6 
#
# 1 0.020160 -0.005630 -0.004939 0.000000 0.000000 0.000000
# 2 -0.005630 0.013636 -0.002640 0.000000 0.000000 0.000000
# 3 -0.004939 -0.002640 0.012817 0.000000 0.000000 0.000000
# 4 0.000000 0.000000 0.000000 0.037625 0.000000 0.000000
# 5 0.000000 0.000000 0.000000 0.000000 -0.068918 0.000000
# 6 0.000000 0.000000 0.000000 0.000000 0.000000 0.092247
#
#
# Mechanical properties :
#
#
# Convention : Reuss Voigt Hill
#
# Bulk Modulus (GPa) = 49.52207 50.81250 50.16729
# Shear Modulus (GPa) = 35.53239 15.16858 25.35049
#
# Velocity S-wave (km/s) = 4.28389 2.79897 3.61842
# Velocity P-wave (km/s) = 7.07432 6.05716 6.58541
#
# Compressibility (1/GPa) = 0.02019302
#
# Stress axis : x y z
#
# Youngs Moduli (GPa) = 49.60396 73.33594 78.02201
#
# Poissons Ratio (x) = 0.41292 0.38533
# Poissons Ratio (y) = 0.27929 0.20602
# Poissons Ratio (z) = 0.24498 0.19364
#
# Static dielectric constant tensor:
#      x y z
#    x 3.320570 0.000000 0.000000 
#    y 0.000000 3.669040 0.000000 
#    z 0.000000 0.000000 3.727690 
# 
# 
# High freq. dielectric constant tensor:
#      x y z
#    x 1.736270 0.000000 0.000000 
#    y 0.000000 1.766540 0.000000 
#    z 0.000000 0.000000 1.762750 
# 
# From -- ./inp_files/25842.got.cif
#   From: 2010.03.12/outbox.cif.g09.slc.cpg/sg53_13_cif.got.tgz:25842.got - 2010.04.16 14:36:59.
