data_PCOD8221105
_publ_section_title
;
Structure prediction by ZEFSAII (Michael W. Deem and Ramdas Pophale) SiO2 
 PCOD8221105
Probable space group: P M N A
;
_chemical_formula_sum "Si O2"
_cell_formula_units_Z 40
_cell_length_a 9.010244
_cell_length_b 9.927840
_cell_length_c 23.896078
_cell_angle_alpha 90.000000
_cell_angle_beta 90.000000
_cell_angle_gamma 90.000000
_cell_volume 2137.558201
_symmetry_space_group_name_H-M "P M N A"
_symmetry_group_IT_number 53
_symmetry_cell_setting 'orthorhombic'
loop_
_space_group_symop_operation_xyz
x,y,z
1/2-x,-y,1/2+z
x,-y,-z
1/2-x,y,1/2-z
-x,-y,-z
1/2+x,y,1/2-z
-x,y,z
1/2+x,-y,1/2+z
loop_
_atom_site_type_symbol
_atom_site_label
_atom_site_fract_x
_atom_site_fract_y
_atom_site_fract_z
Si Si1 0.824652 0.050962 0.808247
Si Si2 0.673631 0.743729 0.521221
Si Si3 0.831930 0.835270 0.622030
Si Si4 0.827787 0.718109 0.105613
Si Si5 0.667770 0.548072 0.908319
O O1 0.750000 0.089460 0.750000
O O2 0.778879 0.166774 0.851684
O O3 0.000000 0.037680 0.800768
O O4 0.760702 0.909737 0.830164
O O5 0.500000 0.750673 0.533862
O O6 0.755350 0.855486 0.560507
O O7 0.710044 0.771503 0.456532
O O8 0.736602 0.594875 0.537268
O O9 0.829945 0.674145 0.635588
O O10 0.000000 0.891058 0.620255
O O11 0.737940 0.583071 0.120335
O O12 0.000000 0.682889 0.111302
O O13 0.500000 0.515943 0.927203
#
# Coordination Sequence:
#
# PCOD8221105 Si02
#       5
#     8   8   8   8   8
#     4  11  24  42  60  79 106 147 192 237 283 331
#     4   9  17  32  56  85 117 150 183 224 275 336
#     4   9  20  37  56  83 113 146 186 227 274 331
#     4  10  21  35  56  85 117 150 186 226 280 340
#     4   9  19  33  54  86 118 147 181 221 274 332
#
# _framework density 18.712942000000002
#
# number of rings (size 3 to 8) (size 9 to 14) (size 15 to 20)
#    1.200    1.200    0.000    2.400    0.000    6.400 
#    0.000    5.000    0.000    2.400    0.000    0.000 
#    0.000    0.000    0.000    0.000    0.000    0.000 
#
# Total GULP energy -495722.751147 kJ/mol
# GULP energy per Si atom -12393.068779 kJ/mol
# Density = 1.867035 g / cm^3
# Si number density = 18.712942 Si / 1000 Ang^3
#
#
#
# Elastic Constant Matrix: (Units=GPa)
#
#
# Indices 1 2 3 4 5 6 
#
# 1 110.1711 45.8215 45.7788 0.0000 0.0000 0.0000
# 2 45.8215 62.5781 48.9163 0.0000 0.0000 0.0000
# 3 45.7788 48.9163 80.6348 0.0000 0.0000 0.0000
# 4 0.0000 0.0000 0.0000 12.0343 0.0000 0.0000
# 5 0.0000 0.0000 0.0000 0.0000 28.0843 0.0000
# 6 0.0000 0.0000 0.0000 0.0000 0.0000 20.0204
#
#
#
# Elastic Compliance Matrix: (Units=1/GPa)
#
#
# Indices 1 2 3 4 5 6 
#
# 1 0.013463 -0.007385 -0.003163 0.000000 0.000000 0.000000
# 2 -0.007385 0.034443 -0.016702 0.000000 0.000000 0.000000
# 3 -0.003163 -0.016702 0.024329 0.000000 0.000000 0.000000
# 4 0.000000 0.000000 0.000000 0.083096 0.000000 0.000000
# 5 0.000000 0.000000 0.000000 0.000000 0.035607 0.000000
# 6 0.000000 0.000000 0.000000 0.000000 0.000000 0.049949
#
#
# Mechanical properties :
#
#
# Convention : Reuss Voigt Hill
#
# Bulk Modulus (GPa) = 56.38532 59.37967 57.88249
# Shear Modulus (GPa) = 16.59479 19.55229 18.07354
#
# Velocity S-wave (km/s) = 2.98116 3.23593 3.11115
# Velocity P-wave (km/s) = 6.48436 6.76479 6.62606
#
# Compressibility (1/GPa) = 0.01773511
#
# Stress axis : x y z
#
# Youngs Moduli (GPa) = 74.27908 29.03311 41.10275
#
# Poissons Ratio (x) = 0.21442 0.13000
# Poissons Ratio (y) = 0.54858 0.68649
# Poissons Ratio (z) = 0.23494 0.48491
#
# Static dielectric constant tensor:
#      x y z
#    x 3.508570 0.000000 0.000000 
#    y 0.000000 3.274460 0.000000 
#    z 0.000000 0.000000 3.159430 
# 
# 
# High freq. dielectric constant tensor:
#      x y z
#    x 1.741860 0.000000 0.000000 
#    y 0.000000 1.716520 0.000000 
#    z 0.000000 0.000000 1.696150 
# 
# From -- ./inp_files/36051.got.cif
#   From: 2010.03.12/outbox.cif.g09.slc.cpg/sg53_19_cif.got.tgz:36051.got - 2010.04.16 14:36:59.
