data_PCOD8221162
_publ_section_title
;
Structure prediction by ZEFSAII (Michael W. Deem and Ramdas Pophale) SiO2 
 PCOD8221162
Probable space group: P M N A
;
_chemical_formula_sum "Si O2"
_cell_formula_units_Z 40
_cell_length_a 17.008898
_cell_length_b 22.578960
_cell_length_c 5.016073
_cell_angle_alpha 90.000000
_cell_angle_beta 90.000000
_cell_angle_gamma 90.000000
_cell_volume 1926.388865
_symmetry_space_group_name_H-M "P M N A"
_symmetry_group_IT_number 53
_symmetry_cell_setting 'orthorhombic'
loop_
_space_group_symop_operation_xyz
x,y,z
1/2-x,-y,1/2+z
x,-y,-z
1/2-x,y,1/2-z
-x,-y,-z
1/2+x,y,1/2-z
-x,y,z
1/2+x,-y,1/2+z
loop_
_atom_site_type_symbol
_atom_site_label
_atom_site_fract_x
_atom_site_fract_y
_atom_site_fract_z
Si Si1 0.409136 0.752549 0.002028
Si Si2 0.086637 0.039782 0.249015
Si Si3 0.801328 0.860886 0.511298
Si Si4 0.089972 0.322924 0.016034
Si Si5 0.303800 0.433309 0.499194
O O1 0.500000 0.771453 0.971879
O O2 0.361895 0.811083 0.085157
O O3 0.374527 0.722531 0.734140
O O4 0.396613 0.704112 0.227946
O O5 0.152120 0.086607 0.338427
O O6 0.000000 0.067794 0.172523
O O7 0.071292 0.000000 0.500000
O O8 0.117933 0.000000 0.000000
O O9 0.750000 0.833321 0.750000
O O10 0.750000 0.881022 0.250000
O O11 0.124927 0.388197 0.018254
O O12 0.000000 0.331797 0.092605
O O13 0.338468 0.500000 0.500000
O O14 0.250000 0.419920 0.750000
O O15 0.250000 0.422263 0.250000
#
# Coordination Sequence:
#
# PCOD8221162 Si02
#       5
#     8   8   8   8   8
#     4  10  22  40  59  83 118 156 195 239 291 352
#     4  10  22  42  66  88 115 156 199 237 286 348
#     4  12  25  39  60  92 124 154 193 242 296 349
#     4  10  21  37  59  84 111 150 197 245 293 342
#     4  10  21  36  55  81 114 152 192 238 295 355
#
# _framework density 20.764240999999998
#
# number of rings (size 3 to 8) (size 9 to 14) (size 15 to 20)
#    0.000    1.600    0.000    4.200    0.000    6.800 
#    0.000    8.000    0.000    7.200    0.000    0.000 
#    0.000    0.000    0.000    0.000    0.000    0.000 
#
# Total GULP energy -495837.711313 kJ/mol
# GULP energy per Si atom -12395.942783 kJ/mol
# Density = 2.071698 g / cm^3
# Si number density = 20.764241 Si / 1000 Ang^3
#
#
#
# Elastic Constant Matrix: (Units=GPa)
#
#
# Indices 1 2 3 4 5 6 
#
# 1 88.5060 71.4265 43.0747 0.0000 0.0000 0.0000
# 2 71.4265 120.0663 32.6907 0.0000 0.0000 0.0000
# 3 43.0747 32.6907 129.7996 0.0000 0.0000 0.0000
# 4 0.0000 0.0000 0.0000 31.0323 0.0000 0.0000
# 5 0.0000 0.0000 0.0000 0.0000 35.5500 0.0000
# 6 0.0000 0.0000 0.0000 0.0000 0.0000 42.6387
#
#
#
# Elastic Compliance Matrix: (Units=1/GPa)
#
#
# Indices 1 2 3 4 5 6 
#
# 1 0.024156 -0.013085 -0.004721 0.000000 0.000000 0.000000
# 2 -0.013085 0.016030 0.000305 0.000000 0.000000 0.000000
# 3 -0.004721 0.000305 0.009194 0.000000 0.000000 0.000000
# 4 0.000000 0.000000 0.000000 0.032224 0.000000 0.000000
# 5 0.000000 0.000000 0.000000 0.000000 0.028129 0.000000
# 6 0.000000 0.000000 0.000000 0.000000 0.000000 0.023453
#
#
# Mechanical properties :
#
#
# Convention : Reuss Voigt Hill
#
# Bulk Modulus (GPa) = 69.54789 70.30618 69.92704
# Shear Modulus (GPa) = 28.90498 34.58954 31.74726
#
# Velocity S-wave (km/s) = 3.73507 4.08588 3.91441
# Velocity P-wave (km/s) = 7.22273 7.49613 7.36070
#
# Compressibility (1/GPa) = 0.01437858
#
# Stress axis : x y z
#
# Youngs Moduli (GPa) = 41.39748 62.38403 108.76695
#
# Poissons Ratio (x) = 0.81629 0.51347
# Poissons Ratio (y) = 0.54168 -0.03319
# Poissons Ratio (z) = 0.19543 -0.01904
#
# Static dielectric constant tensor:
#      x y z
#    x 3.858310 0.000000 0.000000 
#    y 0.000000 3.568490 0.000000 
#    z 0.000000 0.000000 3.982890 
# 
# 
# High freq. dielectric constant tensor:
#      x y z
#    x 1.810360 0.000000 0.000000 
#    y 0.000000 1.806450 0.000000 
#    z 0.000000 0.000000 1.835990 
# 
# From -- ./inp_files/2116.got.cif
#   From: 2010.03.12/outbox.cif.g09.slc.cpg/sg53_2_cif.got.tgz:2116.got - 2010.04.16 14:36:59.
