data_PCOD8221817
_publ_section_title
;
Structure prediction by ZEFSAII (Michael W. Deem and Ramdas Pophale) SiO2 
 PCOD8221817
Probable space group: P M N A
;
_chemical_formula_sum "Si O2"
_cell_formula_units_Z 48
_cell_length_a 27.283662
_cell_length_b 9.662982
_cell_length_c 8.541336
_cell_angle_alpha 90.000000
_cell_angle_beta 90.000000
_cell_angle_gamma 90.000000
_cell_volume 2251.850932
_symmetry_space_group_name_H-M "P M N A"
_symmetry_group_IT_number 53
_symmetry_cell_setting 'orthorhombic'
loop_
_space_group_symop_operation_xyz
x,y,z
1/2-x,-y,1/2+z
x,-y,-z
1/2-x,y,1/2-z
-x,-y,-z
1/2+x,y,1/2-z
-x,y,z
1/2+x,-y,1/2+z
loop_
_atom_site_type_symbol
_atom_site_label
_atom_site_fract_x
_atom_site_fract_y
_atom_site_fract_z
Si Si1 0.223015 0.133262 0.913635
Si Si2 0.554027 0.647561 0.421789
Si Si3 0.273423 0.642445 0.918336
Si Si4 0.136291 0.851322 0.585606
Si Si5 0.942211 0.348701 0.562035
Si Si6 0.379626 0.866604 0.552431
O O1 0.250000 0.134933 0.750000
O O2 0.229741 0.282191 0.992692
O O3 0.164217 0.122749 0.922156
O O4 0.246737 0.000000 0.000000
O O5 0.552544 0.500000 0.500000
O O6 0.500000 0.714083 0.426519
O O7 0.572900 0.648723 0.244056
O O8 0.590179 0.728574 0.534075
O O9 0.250000 0.611182 0.750000
O O10 0.318278 0.748664 0.937878
O O11 0.289142 0.500000 0.000000
O O12 0.087210 0.773368 0.525925
O O13 0.136609 0.879644 0.769402
O O14 0.142354 0.000000 0.500000
O O15 0.927542 0.500000 0.500000
O O16 0.000000 0.320449 0.535886
O O17 0.412338 0.000000 0.500000
#
# Coordination Sequence:
#
# PCOD8221817 Si02
#       6
#     8   8   8   8   8   8
#     4  11  25  43  70  97 133 179 222 275 331 401
#     4  10  22  42  69  99 138 181 222 277 339 398
#     4  12  26  47  66  98 135 178 225 280 336 399
#     4  12  26  45  71 100 138 181 229 279 340 403
#     4  10  22  43  71 104 138 181 230 278 339 404
#     4  11  25  43  65 102 133 176 228 276 335 400
#
# _framework density 21.315799999999999
#
# number of rings (size 3 to 8) (size 9 to 14) (size 15 to 20)
#    0.000    1.000    1.667    4.000    9.333    3.333 
#    3.000    0.000    0.000    0.000    0.000    0.000 
#    0.000    0.000    0.000    0.000    0.000    0.000 
#
# Total GULP energy -594766.495987 kJ/mol
# GULP energy per Si atom -12390.968666 kJ/mol
# Density = 2.126728 g / cm^3
# Si number density = 21.315800 Si / 1000 Ang^3
#
#
#
# Elastic Constant Matrix: (Units=GPa)
#
#
# Indices 1 2 3 4 5 6 
#
# 1 83.0218 57.1675 47.8204 0.0000 0.0000 0.0000
# 2 57.1675 159.8272 57.8558 0.0000 0.0000 0.0000
# 3 47.8204 57.8558 137.1114 0.0000 0.0000 0.0000
# 4 0.0000 0.0000 0.0000 42.4718 0.0000 0.0000
# 5 0.0000 0.0000 0.0000 0.0000 32.2614 0.0000
# 6 0.0000 0.0000 0.0000 0.0000 0.0000 81.1227
#
#
#
# Elastic Compliance Matrix: (Units=1/GPa)
#
#
# Indices 1 2 3 4 5 6 
#
# 1 0.017781 -0.004857 -0.004152 0.000000 0.000000 0.000000
# 2 -0.004857 0.008711 -0.001982 0.000000 0.000000 0.000000
# 3 -0.004152 -0.001982 0.009578 0.000000 0.000000 0.000000
# 4 0.000000 0.000000 0.000000 0.023545 0.000000 0.000000
# 5 0.000000 0.000000 0.000000 0.000000 0.030997 0.000000
# 6 0.000000 0.000000 0.000000 0.000000 0.000000 0.012327
#
#
# Mechanical properties :
#
#
# Convention : Reuss Voigt Hill
#
# Bulk Modulus (GPa) = 70.98069 78.40531 74.69300
# Shear Modulus (GPa) = 38.57516 45.64562 42.11039
#
# Velocity S-wave (km/s) = 4.25867 4.63254 4.44954
# Velocity P-wave (km/s) = 7.58641 8.09176 7.84315
#
# Compressibility (1/GPa) = 0.01408834
#
# Stress axis : x y z
#
# Youngs Moduli (GPa) = 56.23973 114.79136 104.40870
#
# Poissons Ratio (x) = 0.55754 0.43351
# Poissons Ratio (y) = 0.27315 0.20693
# Poissons Ratio (z) = 0.23351 0.22751
#
# Static dielectric constant tensor:
#      x y z
#    x 3.874920 0.000000 0.000000 
#    y 0.000000 4.087910 0.000000 
#    z 0.000000 0.000000 3.776290 
# 
# 
# High freq. dielectric constant tensor:
#      x y z
#    x 1.831320 0.000000 0.000000 
#    y 0.000000 1.853910 0.000000 
#    z 0.000000 0.000000 1.848610 
# 
# From -- ./inp_files/13045.got.cif
#   From: 2010.03.12/outbox.cif.g09.slc.cpg/sg53_7_cif.got.tgz:13045.got - 2010.04.16 14:36:59.
