data_PCOD8221909
_publ_section_title
;
Structure prediction by ZEFSAII (Michael W. Deem and Ramdas Pophale) SiO2 
 PCOD8221909
Probable space group: P M N A
;
_chemical_formula_sum "Si O2"
_cell_formula_units_Z 40
_cell_length_a 15.235074
_cell_length_b 12.588905
_cell_length_c 10.074904
_cell_angle_alpha 90.000000
_cell_angle_beta 90.000000
_cell_angle_gamma 90.000000
_cell_volume 1932.295048
_symmetry_space_group_name_H-M "P M N A"
_symmetry_group_IT_number 53
_symmetry_cell_setting 'orthorhombic'
loop_
_space_group_symop_operation_xyz
x,y,z
1/2-x,-y,1/2+z
x,-y,-z
1/2-x,y,1/2-z
-x,-y,-z
1/2+x,y,1/2-z
-x,y,z
1/2+x,-y,1/2+z
loop_
_atom_site_type_symbol
_atom_site_label
_atom_site_fract_x
_atom_site_fract_y
_atom_site_fract_z
Si Si1 0.599535 0.256746 0.977978
Si Si2 0.650812 0.401019 0.750136
Si Si3 0.897163 0.638553 0.750019
Si Si4 0.749939 0.901825 0.401750
Si Si5 0.599532 0.256972 0.522165
O O1 0.500000 0.212947 0.983329
O O2 0.602423 0.358186 0.880924
O O3 0.661917 0.164498 0.925881
O O4 0.631499 0.293675 0.122619
O O5 0.750000 0.356713 0.750000
O O6 0.653265 0.527626 0.750286
O O7 0.602324 0.358347 0.619338
O O8 0.868363 0.705999 0.877629
O O9 0.000000 0.613458 0.750123
O O10 0.750000 0.942359 0.250000
O O11 0.661890 0.835259 0.425622
O O12 0.749746 0.000000 0.500000
O O13 0.500000 0.213170 0.516556
#
# Coordination Sequence:
#
# PCOD8221909 Si02
#       5
#     8   8   8   8   8
#     4  11  23  44  67  94 135 172 214 266 318 382
#     4  12  22  38  64 100 135 180 216 255 315 381
#     4  10  24  38  62 101 134 177 218 252 310 383
#     4  12  28  48  69  99 122 164 219 273 335 384
#     4  11  23  44  67  94 135 172 214 266 318 382
#
# _framework density 20.700773999999999
#
# number of rings (size 3 to 8) (size 9 to 14) (size 15 to 20)
#    0.000    0.800    4.000    3.000    5.600    5.600 
#    0.000    0.000    0.000    0.000    0.000    0.000 
#    0.000    0.000    0.000    0.000    0.000    0.000 
#
# Total GULP energy -496273.421166 kJ/mol
# GULP energy per Si atom -12406.835529 kJ/mol
# Density = 2.065366 g / cm^3
# Si number density = 20.700774 Si / 1000 Ang^3
#
#
#
# Elastic Constant Matrix: (Units=GPa)
#
#
# Indices 1 2 3 4 5 6 
#
# 1 100.4061 43.0846 35.2100 0.0000 0.0000 0.0000
# 2 43.0846 98.0511 57.6518 0.0000 0.0000 0.0000
# 3 35.2100 57.6518 200.3616 0.0000 0.0000 0.0000
# 4 0.0000 0.0000 0.0000 37.0545 0.0000 0.0000
# 5 0.0000 0.0000 0.0000 0.0000 17.6771 0.0000
# 6 0.0000 0.0000 0.0000 0.0000 0.0000 16.4457
#
#
#
# Elastic Compliance Matrix: (Units=1/GPa)
#
#
# Indices 1 2 3 4 5 6 
#
# 1 0.012363 -0.005001 -0.000734 0.000000 0.000000 0.000000
# 2 -0.005001 0.014299 -0.003235 0.000000 0.000000 0.000000
# 3 -0.000734 -0.003235 0.006051 0.000000 0.000000 0.000000
# 4 0.000000 0.000000 0.000000 0.026987 0.000000 0.000000
# 5 0.000000 0.000000 0.000000 0.000000 0.056570 0.000000
# 6 0.000000 0.000000 0.000000 0.000000 0.000000 0.060806
#
#
# Mechanical properties :
#
#
# Convention : Reuss Voigt Hill
#
# Bulk Modulus (GPa) = 67.69453 74.52350 71.10901
# Shear Modulus (GPa) = 25.00751 31.76030 28.38390
#
# Velocity S-wave (km/s) = 3.47947 3.92121 3.70692
# Velocity P-wave (km/s) = 6.99390 7.52195 7.26273
#
# Compressibility (1/GPa) = 0.01477224
#
# Stress axis : x y z
#
# Youngs Moduli (GPa) = 80.88829 69.93694 165.26629
#
# Poissons Ratio (x) = 0.34975 0.12123
# Poissons Ratio (y) = 0.40452 0.53471
# Poissons Ratio (z) = 0.05934 0.22628
#
# Static dielectric constant tensor:
#      x y z
#    x 3.751580 0.000000 0.000000 
#    y 0.000000 3.454470 0.000000 
#    z 0.000000 0.000000 4.143610 
# 
# 
# High freq. dielectric constant tensor:
#      x y z
#    x 1.824120 0.000000 0.000000 
#    y 0.000000 1.784610 0.000000 
#    z 0.000000 0.000000 1.832740 
# 
# From -- ./inp_files/8340.got.cif
#   From: 2010.03.12/outbox.cif.g09.slc.cpg/sg53_5_cif.got.tgz:8340.got - 2010.04.16 14:36:59.
