data_PCOD8221715
_publ_section_title
;
Structure prediction by ZEFSAII (Michael W. Deem and Ramdas Pophale) SiO2 
 PCOD8221715
Probable space group: P M N A
;
_chemical_formula_sum "Si O2"
_cell_formula_units_Z 48
_cell_length_a 14.241355
_cell_length_b 5.248774
_cell_length_c 29.489987
_cell_angle_alpha 90.000000
_cell_angle_beta 90.000000
_cell_angle_gamma 90.000000
_cell_volume 2204.366320
_symmetry_space_group_name_H-M "P M N A"
_symmetry_group_IT_number 53
_symmetry_cell_setting 'orthorhombic'
loop_
_space_group_symop_operation_xyz
x,y,z
1/2-x,-y,1/2+z
x,-y,-z
1/2-x,y,1/2-z
-x,-y,-z
1/2+x,y,1/2-z
-x,y,z
1/2+x,-y,1/2+z
loop_
_atom_site_type_symbol
_atom_site_label
_atom_site_fract_x
_atom_site_fract_y
_atom_site_fract_z
Si Si1 0.272042 0.760263 0.527511
Si Si2 0.389560 0.177801 0.231197
Si Si3 0.110914 0.313621 0.678489
Si Si4 0.251931 0.540666 0.391748
Si Si5 0.396875 0.926936 0.417392
Si Si6 0.393306 0.741127 0.668119
O O1 0.279067 0.500000 0.500000
O O2 0.217690 0.691261 0.575149
O O3 0.224722 0.000000 0.500000
O O4 0.375239 0.851112 0.545574
O O5 0.500000 0.146737 0.232443
O O6 0.359647 0.438037 0.206936
O O7 0.352538 0.175072 0.282887
O O8 0.349072 0.935117 0.204136
O O9 0.160491 0.326381 0.629387
O O10 0.000000 0.299699 0.670017
O O11 0.313079 0.725380 0.424357
O O12 0.322315 0.467861 0.351046
O O13 0.500000 0.812636 0.427793
O O14 0.394464 0.020075 0.365498
O O15 0.500000 0.628355 0.672541
#
# Coordination Sequence:
#
# PCOD8221715 Si02
#       6
#     8   8   8   8   8   8
#     4  11  23  43  63  91 121 162 198 251 310 375
#     4   9  20  39  60  85 122 164 207 252 298 351
#     4  10  23  41  63  89 121 162 209 260 308 355
#     4  11  23  39  64  90 125 160 209 251 313 365
#     4  10  22  39  61  91 127 165 204 245 300 368
#     4   9  20  37  57  87 128 168 202 246 299 356
#
# _framework density 21.774964000000001
#
# number of rings (size 3 to 8) (size 9 to 14) (size 15 to 20)
#    0.000    2.000    1.667    0.500    7.000    2.000 
#    0.000    0.000    0.000    1.000    0.000    0.000 
#    0.000    0.000    0.000    0.000    0.000    0.000 
#
# Total GULP energy -594717.024692 kJ/mol
# GULP energy per Si atom -12389.938014 kJ/mol
# Density = 2.172540 g / cm^3
# Si number density = 21.774964 Si / 1000 Ang^3
#
#
#
# Elastic Constant Matrix: (Units=GPa)
#
#
# Indices 1 2 3 4 5 6 
#
# 1 46.5015 26.0774 19.7920 0.0000 0.0000 0.0000
# 2 26.0774 135.5855 49.2227 0.0000 0.0000 0.0000
# 3 19.7920 49.2227 91.8434 0.0000 0.0000 0.0000
# 4 0.0000 0.0000 0.0000 42.3843 0.0000 0.0000
# 5 0.0000 0.0000 0.0000 0.0000 17.2572 0.0000
# 6 0.0000 0.0000 0.0000 0.0000 0.0000 17.2363
#
#
#
# Elastic Compliance Matrix: (Units=1/GPa)
#
#
# Indices 1 2 3 4 5 6 
#
# 1 0.024972 -0.003538 -0.003485 0.000000 0.000000 0.000000
# 2 -0.003538 0.009658 -0.004414 0.000000 0.000000 0.000000
# 3 -0.003485 -0.004414 0.014005 0.000000 0.000000 0.000000
# 4 0.000000 0.000000 0.000000 0.023594 0.000000 0.000000
# 5 0.000000 0.000000 0.000000 0.000000 0.057947 0.000000
# 6 0.000000 0.000000 0.000000 0.000000 0.000000 0.058017
#
#
# Mechanical properties :
#
#
# Convention : Reuss Voigt Hill
#
# Bulk Modulus (GPa) = 38.81815 51.56828 45.19322
# Shear Modulus (GPa) = 22.76314 27.29812 25.03063
#
# Velocity S-wave (km/s) = 3.23674 3.54453 3.39413
# Velocity P-wave (km/s) = 5.64219 6.36281 6.01331
#
# Compressibility (1/GPa) = 0.02576114
#
# Stress axis : x y z
#
# Youngs Moduli (GPa) = 40.04486 103.53877 71.40405
#
# Poissons Ratio (x) = 0.36627 0.24888
# Poissons Ratio (y) = 0.14166 0.31517
# Poissons Ratio (z) = 0.13958 0.45701
#
# Static dielectric constant tensor:
#      x y z
#    x 3.575930 0.000000 0.000000 
#    y 0.000000 4.087180 0.000000 
#    z 0.000000 0.000000 4.236860 
# 
# 
# High freq. dielectric constant tensor:
#      x y z
#    x 1.811100 0.000000 0.000000 
#    y 0.000000 1.858400 0.000000 
#    z 0.000000 0.000000 1.870980 
# 
# From -- ./inp_files/36993.got.cif
#   From: 2010.03.12/outbox.cif.g09.slc.cpg/sg53_19_cif.got.tgz:36993.got - 2010.04.16 14:36:59.
