data_PCOD8221801
_publ_section_title
;
Structure prediction by ZEFSAII (Michael W. Deem and Ramdas Pophale) SiO2 
 PCOD8221801
Probable space group: P M N A
;
_chemical_formula_sum "Si O2"
_cell_formula_units_Z 40
_cell_length_a 21.243910
_cell_length_b 5.172727
_cell_length_c 16.231398
_cell_angle_alpha 90.000000
_cell_angle_beta 90.000000
_cell_angle_gamma 90.000000
_cell_volume 1783.651232
_symmetry_space_group_name_H-M "P M N A"
_symmetry_group_IT_number 53
_symmetry_cell_setting 'orthorhombic'
loop_
_space_group_symop_operation_xyz
x,y,z
1/2-x,-y,1/2+z
x,-y,-z
1/2-x,y,1/2-z
-x,-y,-z
1/2+x,y,1/2-z
-x,y,z
1/2+x,-y,1/2+z
loop_
_atom_site_type_symbol
_atom_site_label
_atom_site_fract_x
_atom_site_fract_y
_atom_site_fract_z
Si Si1 0.712815 0.038569 0.407130
Si Si2 0.156062 0.555254 0.160114
Si Si3 0.569456 0.750567 0.754233
Si Si4 0.569808 0.595922 0.089519
Si Si5 0.832030 0.136764 0.690836
O O1 0.691242 0.330877 0.390751
O O2 0.737222 0.000000 0.500000
O O3 0.658861 0.818318 0.393882
O O4 0.768823 0.988898 0.342660
O O5 0.084684 0.463934 0.183111
O O6 0.185851 0.616717 0.251641
O O7 0.500000 0.869069 0.735943
O O8 0.569677 0.637737 0.846130
O O9 0.627220 0.952425 0.748016
O O10 0.500000 0.725264 0.087824
O O11 0.622450 0.802124 0.114220
O O12 0.589340 0.500000 0.000000
#
# Coordination Sequence:
#
# PCOD8221801 Si02
#       5
#     8   8   8   8   8
#     4  12  28  44  69 101 139 180 225 280 344 404
#     4  11  25  47  68  98 135 175 226 281 333 402
#     4  10  22  41  69  99 131 178 231 279 338 400
#     4   9  20  36  57  93 141 183 223 271 326 396
#     4  11  24  38  69  95 138 174 231 268 338 400
#
# _framework density 22.425906999999999
#
# number of rings (size 3 to 8) (size 9 to 14) (size 15 to 20)
#    0.000    1.400    2.000    1.800   11.200    0.800 
#    0.000    3.000    0.000    3.600    0.000    0.000 
#    0.000    0.000    0.000    0.000    0.000    0.000 
#
# Total GULP energy -495533.013739 kJ/mol
# GULP energy per Si atom -12388.325343 kJ/mol
# Density = 2.237486 g / cm^3
# Si number density = 22.425907 Si / 1000 Ang^3
#
#
#
# Elastic Constant Matrix: (Units=GPa)
#
#
# Indices 1 2 3 4 5 6 
#
# 1 57.9477 25.8560 14.1626 0.0000 0.0000 0.0000
# 2 25.8560 98.7711 19.2581 0.0000 0.0000 0.0000
# 3 14.1626 19.2581 75.5313 0.0000 0.0000 0.0000
# 4 0.0000 0.0000 0.0000 30.9881 0.0000 0.0000
# 5 0.0000 0.0000 0.0000 0.0000 20.7172 0.0000
# 6 0.0000 0.0000 0.0000 0.0000 0.0000 21.8961
#
#
#
# Elastic Compliance Matrix: (Units=1/GPa)
#
#
# Indices 1 2 3 4 5 6 
#
# 1 0.019992 -0.004738 -0.002541 0.000000 0.000000 0.000000
# 2 -0.004738 0.011777 -0.002114 0.000000 0.000000 0.000000
# 3 -0.002541 -0.002114 0.014255 0.000000 0.000000 0.000000
# 4 0.000000 0.000000 0.000000 0.032270 0.000000 0.000000
# 5 0.000000 0.000000 0.000000 0.000000 0.048269 0.000000
# 6 0.000000 0.000000 0.000000 0.000000 0.000000 0.045670
#
#
# Mechanical properties :
#
#
# Convention : Reuss Voigt Hill
#
# Bulk Modulus (GPa) = 36.71340 38.97815 37.84577
# Shear Modulus (GPa) = 24.98764 26.25185 25.61975
#
# Velocity S-wave (km/s) = 3.34163 3.42512 3.38363
# Velocity P-wave (km/s) = 5.59421 5.74983 5.67255
#
# Compressibility (1/GPa) = 0.02723801
#
# Stress axis : x y z
#
# Youngs Moduli (GPa) = 50.02005 84.91132 70.15079
#
# Poissons Ratio (x) = 0.40232 0.17822
# Poissons Ratio (y) = 0.23700 0.14832
# Poissons Ratio (z) = 0.12708 0.17953
#
# Static dielectric constant tensor:
#      x y z
#    x 4.154980 0.000000 0.000000 
#    y 0.000000 4.193240 0.000000 
#    z 0.000000 0.000000 3.996350 
# 
# 
# High freq. dielectric constant tensor:
#      x y z
#    x 1.871790 0.000000 0.000000 
#    y 0.000000 1.883050 0.000000 
#    z 0.000000 0.000000 1.875590 
# 
# From -- ./inp_files/24545.got.cif
#   From: 2010.03.12/outbox.cif.g09.slc.cpg/sg53_13_cif.got.tgz:24545.got - 2010.04.16 14:36:59.
