data_PCOD8221130
_publ_section_title
;
Structure prediction by ZEFSAII (Michael W. Deem and Ramdas Pophale) SiO2 
 PCOD8221130
Probable space group: P M N A
;
_chemical_formula_sum "Si O2"
_cell_formula_units_Z 48
_cell_length_a 18.783528
_cell_length_b 26.164548
_cell_length_c 5.080939
_cell_angle_alpha 90.000000
_cell_angle_beta 90.000000
_cell_angle_gamma 90.000000
_cell_volume 2497.091085
_symmetry_space_group_name_H-M "P M N A"
_symmetry_group_IT_number 53
_symmetry_cell_setting 'orthorhombic'
loop_
_space_group_symop_operation_xyz
x,y,z
1/2-x,-y,1/2+z
x,-y,-z
1/2-x,y,1/2-z
-x,-y,-z
1/2+x,y,1/2-z
-x,y,z
1/2+x,-y,1/2+z
loop_
_atom_site_type_symbol
_atom_site_label
_atom_site_fract_x
_atom_site_fract_y
_atom_site_fract_z
Si Si1 0.580756 0.033175 0.241119
Si Si2 0.079475 0.297115 0.594756
Si Si3 0.833283 0.864774 0.744658
Si Si4 0.296197 0.559694 0.502993
Si Si5 0.579821 0.364272 0.391708
Si Si6 0.666964 0.198555 0.749332
O O1 0.500000 0.049617 0.174227
O O2 0.626124 0.083182 0.297037
O O3 0.584581 0.000000 0.500000
O O4 0.612557 0.000000 0.000000
O O5 0.110551 0.331155 0.353673
O O6 0.128254 0.249368 0.659345
O O7 0.000000 0.278302 0.517559
O O8 0.076612 0.329668 0.855166
O O9 0.750000 0.876711 0.750000
O O10 0.854223 0.844895 0.457441
O O11 0.855649 0.822241 0.962256
O O12 0.314354 0.500000 0.500000
O O13 0.250000 0.576336 0.250000
O O14 0.371094 0.588033 0.532166
O O15 0.250000 0.575724 0.750000
O O16 0.500000 0.384284 0.321244
O O17 0.750000 0.211477 0.750000
#
# Coordination Sequence:
#
# PCOD8221130 Si02
#       6
#     8   8   8   8   8   8
#     4  10  21  36  54  78 105 133 170 214 259 311
#     4  10  21  36  55  80 109 142 182 225 269 322
#     4  10  21  36  54  77 105 137 174 215 260 314
#     4  10  21  37  57  83 113 145 185 230 275 328
#     4  10  21  37  56  81 112 145 184 228 274 327
#     4  10  21  36  53  77 107 138 176 219 263 315
#
# _framework density 19.222366999999998
#
# number of rings (size 3 to 8) (size 9 to 14) (size 15 to 20)
#    0.000    2.000    0.000    3.000    0.000    4.333 
#    0.000    0.000    0.000    6.000    0.000    0.000 
#    0.000    0.000    0.000    0.000    0.000    0.000 
#
# Total GULP energy -595199.318452 kJ/mol
# GULP energy per Si atom -12399.985801 kJ/mol
# Density = 1.917862 g / cm^3
# Si number density = 19.222367 Si / 1000 Ang^3
#
#
#
# Elastic Constant Matrix: (Units=GPa)
#
#
# Indices 1 2 3 4 5 6 
#
# 1 85.9442 69.9691 38.0624 0.0000 0.0000 0.0000
# 2 69.9691 100.8027 33.4617 0.0000 0.0000 0.0000
# 3 38.0624 33.4617 124.5468 0.0000 0.0000 0.0000
# 4 0.0000 0.0000 0.0000 41.8856 0.0000 0.0000
# 5 0.0000 0.0000 0.0000 0.0000 36.5993 0.0000
# 6 0.0000 0.0000 0.0000 0.0000 0.0000 72.5262
#
#
#
# Elastic Compliance Matrix: (Units=1/GPa)
#
#
# Indices 1 2 3 4 5 6 
#
# 1 0.028219 -0.018362 -0.003691 0.000000 0.000000 0.000000
# 2 -0.018362 0.022840 -0.000525 0.000000 0.000000 0.000000
# 3 -0.003691 -0.000525 0.009298 0.000000 0.000000 0.000000
# 4 0.000000 0.000000 0.000000 0.023875 0.000000 0.000000
# 5 0.000000 0.000000 0.000000 0.000000 0.027323 0.000000
# 6 0.000000 0.000000 0.000000 0.000000 0.000000 0.013788
#
#
# Mechanical properties :
#
#
# Convention : Reuss Voigt Hill
#
# Bulk Modulus (GPa) = 65.78122 66.03113 65.90617
# Shear Modulus (GPa) = 28.47935 41.52224 35.00080
#
# Velocity S-wave (km/s) = 3.85330 4.65273 4.27176
# Velocity P-wave (km/s) = 7.35477 7.95548 7.66102
#
# Compressibility (1/GPa) = 0.01520191
#
# Stress axis : x y z
#
# Youngs Moduli (GPa) = 35.43691 43.78232 107.55035
#
# Poissons Ratio (x) = 0.80395 0.39692
# Poissons Ratio (y) = 0.65071 0.05644
# Poissons Ratio (z) = 0.13078 0.02298
#
# Static dielectric constant tensor:
#      x y z
#    x 3.483110 0.000000 0.000000 
#    y 0.000000 3.204120 0.000000 
#    z 0.000000 0.000000 3.861180 
# 
# 
# High freq. dielectric constant tensor:
#      x y z
#    x 1.742120 0.000000 0.000000 
#    y 0.000000 1.741700 0.000000 
#    z 0.000000 0.000000 1.773140 
# 
# From -- ./inp_files/1432.got.cif
#   From: 2010.03.12/outbox.cif.g09.slc.cpg/sg53_1_cif.got.tgz:1432.got - 2010.04.16 14:36:59.
