data_PCOD8221540
_publ_section_title
;
Structure prediction by ZEFSAII (Michael W. Deem and Ramdas Pophale) SiO2 
 PCOD8221540
Probable space group: P M N A
;
_chemical_formula_sum "Si O2"
_cell_formula_units_Z 32
_cell_length_a 14.594289
_cell_length_b 9.657728
_cell_length_c 9.774619
_cell_angle_alpha 90.000000
_cell_angle_beta 90.000000
_cell_angle_gamma 90.000000
_cell_volume 1377.709808
_symmetry_space_group_name_H-M "P M N A"
_symmetry_group_IT_number 53
_symmetry_cell_setting 'orthorhombic'
loop_
_space_group_symop_operation_xyz
x,y,z
1/2-x,-y,1/2+z
x,-y,-z
1/2-x,y,1/2-z
-x,-y,-z
1/2+x,y,1/2-z
-x,y,z
1/2+x,-y,1/2+z
loop_
_atom_site_type_symbol
_atom_site_label
_atom_site_fract_x
_atom_site_fract_y
_atom_site_fract_z
Si Si1 0.899732 0.242566 0.508493
Si Si2 0.647514 0.373068 0.719847
Si Si3 0.699618 0.156162 0.500698
Si Si4 0.399542 0.330415 0.291040
O O1 0.906321 0.339423 0.641303
O O2 0.809724 0.146072 0.526390
O O3 0.884080 0.333337 0.372493
O O4 0.000000 0.164857 0.498410
O O5 0.750000 0.417123 0.750000
O O6 0.645852 0.241733 0.617821
O O7 0.604808 0.511573 0.653789
O O8 0.676517 0.230488 0.357676
O O9 0.661564 0.000000 0.500000
O O10 0.500000 0.271037 0.328201
#
# Coordination Sequence:
#
# PCOD8221540 Si02
#       4
#     8   8   8   8
#     4  10  22  40  66  97 124 156 206 264 316 367
#     4  10  21  39  65  94 125 162 205 258 314 367
#     4  11  25  43  62  90 130 171 209 251 304 370
#     4  11  23  40  66  95 124 162 207 259 314 368
#
# _framework density 23.226953000000002
#
# number of rings (size 3 to 8) (size 9 to 14) (size 15 to 20)
#    0.000    1.500    0.000    4.500    0.000   16.000 
#    0.000    2.500    0.000    0.000    0.000    0.000 
#    0.000    0.000    0.000    0.000    0.000    0.000 
#
# Total GULP energy -396556.329773 kJ/mol
# GULP energy per Si atom -12392.385305 kJ/mol
# Density = 2.317409 g / cm^3
# Si number density = 23.226953 Si / 1000 Ang^3
#
#
#
# Elastic Constant Matrix: (Units=GPa)
#
#
# Indices 1 2 3 4 5 6 
#
# 1 101.2650 23.8353 43.2671 0.0000 0.0000 0.0000
# 2 23.8353 167.1029 60.5870 0.0000 0.0000 0.0000
# 3 43.2671 60.5870 135.4518 0.0000 0.0000 0.0000
# 4 0.0000 0.0000 0.0000 8.0747 0.0000 0.0000
# 5 0.0000 0.0000 0.0000 0.0000 30.5861 0.0000
# 6 0.0000 0.0000 0.0000 0.0000 0.0000 4.1445
#
#
#
# Elastic Compliance Matrix: (Units=1/GPa)
#
#
# Indices 1 2 3 4 5 6 
#
# 1 0.011455 -0.000367 -0.003495 0.000000 0.000000 0.000000
# 2 -0.000367 0.007154 -0.003083 0.000000 0.000000 0.000000
# 3 -0.003495 -0.003083 0.009878 0.000000 0.000000 0.000000
# 4 0.000000 0.000000 0.000000 0.123844 0.000000 0.000000
# 5 0.000000 0.000000 0.000000 0.000000 0.032695 0.000000
# 6 0.000000 0.000000 0.000000 0.000000 0.000000 0.241285
#
#
# Mechanical properties :
#
#
# Convention : Reuss Voigt Hill
#
# Bulk Modulus (GPa) = 68.50290 73.24427 70.87358
# Shear Modulus (GPa) = 11.23429 26.96973 19.10201
#
# Velocity S-wave (km/s) = 2.20165 3.41125 2.87088
# Velocity P-wave (km/s) = 6.00166 6.86426 6.44740
#
# Compressibility (1/GPa) = 0.01459792
#
# Stress axis : x y z
#
# Youngs Moduli (GPa) = 87.30079 139.77282 101.23410
#
# Poissons Ratio (x) = 0.05126 0.35380
# Poissons Ratio (y) = 0.03201 0.31211
# Poissons Ratio (z) = 0.30511 0.43092
#
# Static dielectric constant tensor:
#      x y z
#    x 4.547590 0.000000 0.000000 
#    y 0.000000 3.664210 0.000000 
#    z 0.000000 0.000000 4.192520 
# 
# 
# High freq. dielectric constant tensor:
#      x y z
#    x 1.931170 0.000000 0.000000 
#    y 0.000000 1.881610 0.000000 
#    z 0.000000 0.000000 1.922730 
# 
# From -- ./inp_files/8027.got.cif
#   From: 2010.03.12/outbox.cif.g09.slc.cpg/sg53_5_cif.got.tgz:8027.got - 2010.04.16 14:36:59.
