data_PCOD8221487
_publ_section_title
;
Structure prediction by ZEFSAII (Michael W. Deem and Ramdas Pophale) SiO2 
 PCOD8221487
Probable space group: P M N A
;
_chemical_formula_sum "Si O2"
_cell_formula_units_Z 48
_cell_length_a 14.741520
_cell_length_b 7.410171
_cell_length_c 22.188915
_cell_angle_alpha 90.000000
_cell_angle_beta 90.000000
_cell_angle_gamma 90.000000
_cell_volume 2423.854591
_symmetry_space_group_name_H-M "P M N A"
_symmetry_group_IT_number 53
_symmetry_cell_setting 'orthorhombic'
loop_
_space_group_symop_operation_xyz
x,y,z
1/2-x,-y,1/2+z
x,-y,-z
1/2-x,y,1/2-z
-x,-y,-z
1/2+x,y,1/2-z
-x,y,z
1/2+x,-y,1/2+z
loop_
_atom_site_type_symbol
_atom_site_label
_atom_site_fract_x
_atom_site_fract_y
_atom_site_fract_z
Si Si1 0.605129 0.765366 0.363900
Si Si2 0.105883 0.836425 0.269387
Si Si3 0.725314 0.473001 0.429757
Si Si4 0.149169 0.770931 0.744374
Si Si5 0.601210 0.508864 0.148026
Si Si6 0.100659 0.177970 0.120735
O O1 0.500000 0.708159 0.371191
O O2 0.636838 0.750492 0.294316
O O3 0.667029 0.634220 0.402454
O O4 0.621394 0.967283 0.387705
O O5 0.129950 0.699569 0.322614
O O6 0.000000 0.880790 0.264836
O O7 0.155516 0.025848 0.282342
O O8 0.736416 0.500000 0.500000
O O9 0.826346 0.461487 0.402907
O O10 0.675125 0.284615 0.417327
O O11 0.250000 0.691669 0.750000
O O12 0.094727 0.644203 0.699054
O O13 0.101229 0.767581 0.809031
O O14 0.500000 0.523790 0.119670
O O15 0.000000 0.223250 0.096145
#
# Coordination Sequence:
#
# PCOD8221487 Si02
#       6
#     8   8   8   8   8   8
#     4   9  20  38  61  90 123 148 177 232 298 360
#     4   9  20  36  59  91 121 147 179 229 294 362
#     4  12  26  40  57  82 112 157 211 247 276 326
#     4  11  20  34  62  94 121 147 179 230 295 359
#     4  11  24  40  59  85 118 156 196 240 288 338
#     4  10  21  39  61  90 122 149 180 231 298 360
#
# _framework density 19.803166999999998
#
# number of rings (size 3 to 8) (size 9 to 14) (size 15 to 20)
#    0.000    1.667    1.667    4.000    4.667    3.667 
#    0.000    1.667    0.000    0.000    0.000    5.833 
#    0.000    0.000    0.000    0.000    0.000    0.000 
#
# Total GULP energy -595347.771848 kJ/mol
# GULP energy per Si atom -12403.078580 kJ/mol
# Density = 1.975809 g / cm^3
# Si number density = 19.803167 Si / 1000 Ang^3
#
#
#
# Elastic Constant Matrix: (Units=GPa)
#
#
# Indices 1 2 3 4 5 6 
#
# 1 104.0891 24.8725 18.3877 0.0000 0.0000 0.0000
# 2 24.8725 53.4800 5.3646 0.0000 0.0000 0.0000
# 3 18.3877 5.3646 43.2778 0.0000 0.0000 0.0000
# 4 0.0000 0.0000 0.0000 10.2931 0.0000 0.0000
# 5 0.0000 0.0000 0.0000 0.0000 9.2680 0.0000
# 6 0.0000 0.0000 0.0000 0.0000 0.0000 36.7163
#
#
#
# Elastic Compliance Matrix: (Units=1/GPa)
#
#
# Indices 1 2 3 4 5 6 
#
# 1 0.011546 -0.004939 -0.004293 0.000000 0.000000 0.000000
# 2 -0.004939 0.021047 -0.000510 0.000000 0.000000 0.000000
# 3 -0.004293 -0.000510 0.024994 0.000000 0.000000 0.000000
# 4 0.000000 0.000000 0.000000 0.097152 0.000000 0.000000
# 5 0.000000 0.000000 0.000000 0.000000 0.107898 0.000000
# 6 0.000000 0.000000 0.000000 0.000000 0.000000 0.027236
#
#
# Mechanical properties :
#
#
# Convention : Reuss Voigt Hill
#
# Bulk Modulus (GPa) = 26.24604 33.12184 29.68394
# Shear Modulus (GPa) = 15.52514 21.40362 18.46438
#
# Velocity S-wave (km/s) = 2.80299 3.29115 3.05683
# Velocity P-wave (km/s) = 4.87421 5.58606 5.24223
#
# Compressibility (1/GPa) = 0.03810099
#
# Stress axis : x y z
#
# Youngs Moduli (GPa) = 86.61163 47.51305 40.00969
#
# Poissons Ratio (x) = 0.23467 0.17177
# Poissons Ratio (y) = 0.42778 0.02042
# Poissons Ratio (z) = 0.37185 0.02425
#
# Static dielectric constant tensor:
#      x y z
#    x 3.680180 0.000000 0.000000 
#    y 0.000000 3.741380 0.000000 
#    z 0.000000 0.000000 3.240540 
# 
# 
# High freq. dielectric constant tensor:
#      x y z
#    x 1.784480 0.000000 0.000000 
#    y 0.000000 1.784150 0.000000 
#    z 0.000000 0.000000 1.729740 
# 
# From -- ./inp_files/32262.got.cif
#   From: 2010.03.12/outbox.cif.g09.slc.cpg/sg53_17_cif.got.tgz:32262.got - 2010.04.16 14:36:59.
