data_PCOD8221658
_publ_section_title
;
Structure prediction by ZEFSAII (Michael W. Deem and Ramdas Pophale) SiO2 
 PCOD8221658
Probable space group: P M N A
;
_chemical_formula_sum "Si O2"
_cell_formula_units_Z 48
_cell_length_a 17.175317
_cell_length_b 5.691012
_cell_length_c 22.843929
_cell_angle_alpha 90.000000
_cell_angle_beta 90.000000
_cell_angle_gamma 90.000000
_cell_volume 2232.878359
_symmetry_space_group_name_H-M "P M N A"
_symmetry_group_IT_number 53
_symmetry_cell_setting 'orthorhombic'
loop_
_space_group_symop_operation_xyz
x,y,z
1/2-x,-y,1/2+z
x,-y,-z
1/2-x,y,1/2-z
-x,-y,-z
1/2+x,y,1/2-z
-x,y,z
1/2+x,-y,1/2+z
loop_
_atom_site_type_symbol
_atom_site_label
_atom_site_fract_x
_atom_site_fract_y
_atom_site_fract_z
Si Si1 0.644829 0.078364 0.747632
Si Si2 0.000000 0.294363 0.710857
Si Si3 0.909698 0.251318 0.151186
Si Si4 0.329942 0.773995 0.860067
Si Si5 0.000000 0.212663 0.353485
Si Si6 0.297762 0.003856 0.431447
Si Si7 0.719114 0.375476 0.654847
O O1 0.579699 0.281361 0.752897
O O2 0.714554 0.185034 0.707834
O O3 0.603733 0.862634 0.714565
O O4 0.674032 0.976565 0.810316
O O5 0.000000 0.559458 0.687965
O O6 0.000000 0.053452 0.671446
O O7 0.878091 0.080414 0.099805
O O8 0.862051 0.490437 0.150182
O O9 0.000000 0.305304 0.140211
O O10 0.417541 0.754924 0.887314
O O11 0.272473 0.821021 0.914232
O O12 0.296372 0.531366 0.831851
O O13 0.311198 0.000000 0.500000
O O14 0.271333 0.749720 0.407970
#
# Coordination Sequence:
#
# PCOD8221658 Si02
#       7
#     8   4   8   8   4   8   8
#     4  10  22  37  59  94 136 172 207 267 329 413
#     4  10  22  38  60  92 141 175 210 260 329 400
#     4  10  22  39  61  96 131 172 219 264 331 412
#     4  10  24  42  61  96 127 171 221 273 343 411
#     4  10  24  42  63  95 133 178 217 270 339 412
#     4  10  24  46  65  88 125 170 228 291 342 394
#     4  10  24  38  63  90 129 171 215 274 336 402
#
# _framework density 21.496915999999999
#
# number of rings (size 3 to 8) (size 9 to 14) (size 15 to 20)
#    0.000    2.000    0.833    0.000   10.500   11.000 
#    0.000    1.250    0.000    1.000    0.000    0.000 
#    0.000    0.000    0.000    0.000    0.000    0.000 
#
# Total GULP energy -594656.706868 kJ/mol
# GULP energy per Si atom -12388.681393 kJ/mol
# Density = 2.144799 g / cm^3
# Si number density = 21.496916 Si / 1000 Ang^3
#
#
#
# Elastic Constant Matrix: (Units=GPa)
#
#
# Indices 1 2 3 4 5 6 
#
# 1 154.5481 10.8289 5.7543 0.0000 0.0000 0.0000
# 2 10.8289 66.3256 0.2864 0.0000 0.0000 0.0000
# 3 5.7543 0.2864 80.3979 0.0000 0.0000 0.0000
# 4 0.0000 0.0000 0.0000 15.6067 0.0000 0.0000
# 5 0.0000 0.0000 0.0000 0.0000 20.1547 0.0000
# 6 0.0000 0.0000 0.0000 0.0000 0.0000 34.2550
#
#
#
# Elastic Compliance Matrix: (Units=1/GPa)
#
#
# Indices 1 2 3 4 5 6 
#
# 1 0.006563 -0.001069 -0.000466 0.000000 0.000000 0.000000
# 2 -0.001069 0.015252 0.000022 0.000000 0.000000 0.000000
# 3 -0.000466 0.000022 0.012471 0.000000 0.000000 0.000000
# 4 0.000000 0.000000 0.000000 0.064075 0.000000 0.000000
# 5 0.000000 0.000000 0.000000 0.000000 0.049616 0.000000
# 6 0.000000 0.000000 0.000000 0.000000 0.000000 0.029193
#
#
# Mechanical properties :
#
#
# Convention : Reuss Voigt Hill
#
# Bulk Modulus (GPa) = 31.99033 37.22345 34.60689
# Shear Modulus (GPa) = 26.23073 32.96341 29.59707
#
# Velocity S-wave (km/s) = 3.49694 3.92012 3.71456
# Velocity P-wave (km/s) = 5.58735 6.15167 5.87629
#
# Compressibility (1/GPa) = 0.03125944
#
# Stress axis : x y z
#
# Youngs Moduli (GPa) = 152.37491 65.56671 80.18342
#
# Poissons Ratio (x) = 0.07012 0.03736
# Poissons Ratio (y) = 0.16296 -0.00178
# Poissons Ratio (z) = 0.07099 -0.00146
#
# Static dielectric constant tensor:
#      x y z
#    x 4.492780 0.000000 0.000000 
#    y 0.000000 4.092050 0.000000 
#    z 0.000000 0.000000 3.314250 
# 
# 
# High freq. dielectric constant tensor:
#      x y z
#    x 1.870160 0.000000 0.000000 
#    y 0.000000 1.863890 0.000000 
#    z 0.000000 0.000000 1.783210 
# 
# From -- ./inp_files/35500.got.cif
#   From: 2010.03.12/outbox.cif.g09.slc.cpg/sg53_18_cif.got.tgz:35500.got - 2010.04.16 14:36:59.
