data_PCOD8221412
_publ_section_title
;
Structure prediction by ZEFSAII (Michael W. Deem and Ramdas Pophale) SiO2 
 PCOD8221412
Probable space group: P M N A
;
_chemical_formula_sum "Si O2"
_cell_formula_units_Z 48
_cell_length_a 8.735321
_cell_length_b 14.864106
_cell_length_c 19.220174
_cell_angle_alpha 90.000000
_cell_angle_beta 90.000000
_cell_angle_gamma 90.000000
_cell_volume 2495.600003
_symmetry_space_group_name_H-M "P M N A"
_symmetry_group_IT_number 53
_symmetry_cell_setting 'orthorhombic'
loop_
_space_group_symop_operation_xyz
x,y,z
1/2-x,-y,1/2+z
x,-y,-z
1/2-x,y,1/2-z
-x,-y,-z
1/2+x,y,1/2-z
-x,y,z
1/2+x,-y,1/2+z
loop_
_atom_site_type_symbol
_atom_site_label
_atom_site_fract_x
_atom_site_fract_y
_atom_site_fract_z
Si Si1 0.319792 0.377320 0.176970
Si Si2 0.180301 0.567258 0.176494
Si Si3 0.320478 0.038502 0.426625
Si Si4 0.180209 0.100787 0.674287
Si Si5 0.677639 0.722185 0.091923
Si Si6 0.676989 0.771649 0.935400
O O1 0.250000 0.344950 0.250000
O O2 0.500000 0.390407 0.185214
O O3 0.247736 0.471595 0.153080
O O4 0.277296 0.303683 0.119941
O O5 0.250000 0.598730 0.250000
O O6 0.221443 0.639679 0.118279
O O7 0.000000 0.558915 0.184675
O O8 0.500000 0.022831 0.419848
O O9 0.282497 0.143131 0.420643
O O10 0.258301 0.000000 0.500000
O O11 0.239176 0.988450 0.363263
O O12 0.250000 0.108999 0.750000
O O13 0.231815 0.187196 0.630033
O O14 0.000000 0.094346 0.680910
O O15 0.500000 0.702153 0.106834
O O16 0.712168 0.731565 0.010771
O O17 0.500000 0.800654 0.929123
#
# Coordination Sequence:
#
# PCOD8221412 Si02
#       6
#     8   8   8   8   8   8
#     4  10  21  39  62  86 116 153 197 245 292 348
#     4  11  22  37  59  85 118 157 196 241 295 351
#     4  11  23  39  61  88 120 157 197 243 295 352
#     4  11  23  39  62  88 120 156 199 248 296 353
#     4  10  21  38  60  87 118 155 197 242 295 354
#     4  10  22  40  63  88 116 157 200 242 297 354
#
# _framework density 19.233851999999999
#
# number of rings (size 3 to 8) (size 9 to 14) (size 15 to 20)
#    0.000    1.500    1.667    4.500    0.000    6.667 
#    0.000    5.000    0.000    0.000    0.000    0.000 
#    0.000    0.000    0.000    0.000    0.000    0.000 
#
# Total GULP energy -595514.851047 kJ/mol
# GULP energy per Si atom -12406.559397 kJ/mol
# Density = 1.919007 g / cm^3
# Si number density = 19.233852 Si / 1000 Ang^3
#
#
#
# Elastic Constant Matrix: (Units=GPa)
#
#
# Indices 1 2 3 4 5 6 
#
# 1 95.0955 54.7277 49.7411 0.0000 0.0000 0.0000
# 2 54.7277 126.0176 72.3813 0.0000 0.0000 0.0000
# 3 49.7411 72.3813 124.9488 0.0000 0.0000 0.0000
# 4 0.0000 0.0000 0.0000 39.2990 0.0000 0.0000
# 5 0.0000 0.0000 0.0000 0.0000 31.1903 0.0000
# 6 0.0000 0.0000 0.0000 0.0000 0.0000 33.7204
#
#
#
# Elastic Compliance Matrix: (Units=1/GPa)
#
#
# Indices 1 2 3 4 5 6 
#
# 1 0.014857 -0.004578 -0.003262 0.000000 0.000000 0.000000
# 2 -0.004578 0.013303 -0.005884 0.000000 0.000000 0.000000
# 3 -0.003262 -0.005884 0.012710 0.000000 0.000000 0.000000
# 4 0.000000 0.000000 0.000000 0.025446 0.000000 0.000000
# 5 0.000000 0.000000 0.000000 0.000000 0.032061 0.000000
# 6 0.000000 0.000000 0.000000 0.000000 0.000000 0.029656
#
#
# Mechanical properties :
#
#
# Convention : Reuss Voigt Hill
#
# Bulk Modulus (GPa) = 74.50610 77.75135 76.12872
# Shear Modulus (GPa) = 31.25855 32.12271 31.69063
#
# Velocity S-wave (km/s) = 4.03573 4.09114 4.06353
# Velocity P-wave (km/s) = 7.78057 7.92644 7.85384
#
# Compressibility (1/GPa) = 0.01342172
#
# Stress axis : x y z
#
# Youngs Moduli (GPa) = 67.30831 75.16961 78.67616
#
# Poissons Ratio (x) = 0.34416 0.25666
# Poissons Ratio (y) = 0.30817 0.46291
# Poissons Ratio (z) = 0.21957 0.44228
#
# Static dielectric constant tensor:
#      x y z
#    x 3.524810 0.000000 0.000000 
#    y 0.000000 3.525910 0.000000 
#    z 0.000000 0.000000 3.562710 
# 
# 
# High freq. dielectric constant tensor:
#      x y z
#    x 1.754880 0.000000 0.000000 
#    y 0.000000 1.755730 0.000000 
#    z 0.000000 0.000000 1.754500 
# 
# From -- ./inp_files/26209.got.cif
#   From: 2010.03.12/outbox.cif.g09.slc.cpg/sg53_14_cif.got.tgz:26209.got - 2010.04.16 14:36:59.
