data_PCOD8221360
_publ_section_title
;
Structure prediction by ZEFSAII (Michael W. Deem and Ramdas Pophale) SiO2 
 PCOD8221360
Probable space group: P M N A
;
_chemical_formula_sum "Si O2"
_cell_formula_units_Z 36
_cell_length_a 22.093162
_cell_length_b 5.712384
_cell_length_c 13.519309
_cell_angle_alpha 90.000000
_cell_angle_beta 90.000000
_cell_angle_gamma 90.000000
_cell_volume 1706.199324
_symmetry_space_group_name_H-M "P M N A"
_symmetry_group_IT_number 53
_symmetry_cell_setting 'orthorhombic'
loop_
_space_group_symop_operation_xyz
x,y,z
1/2-x,-y,1/2+z
x,-y,-z
1/2-x,y,1/2-z
-x,-y,-z
1/2+x,y,1/2-z
-x,y,z
1/2+x,-y,1/2+z
loop_
_atom_site_type_symbol
_atom_site_label
_atom_site_fract_x
_atom_site_fract_y
_atom_site_fract_z
Si Si1 0.322005 0.961994 0.609358
Si Si2 0.570553 0.750889 0.053662
Si Si3 0.250000 0.351700 0.250000
Si Si4 0.138838 0.649623 0.253729
Si Si5 0.430730 0.363580 0.399164
O O1 0.273117 0.792103 0.656601
O O2 0.390209 0.866384 0.602047
O O3 0.296157 0.000000 0.500000
O O4 0.325863 0.190570 0.675595
O O5 0.500000 0.740606 0.079382
O O6 0.608559 0.779486 0.154255
O O7 0.587816 0.500000 0.000000
O O8 0.584993 0.000000 0.000000
O O9 0.192705 0.488727 0.294837
O O10 0.085315 0.515328 0.196970
O O11 0.416864 0.500000 0.500000
O O12 0.500000 0.283316 0.392372
#
# Coordination Sequence:
#
# PCOD8221360 Si02
#       5
#     8   8   4   8   8
#     4  11  23  44  66  96 133 173 221 278 337 405
#     4  10  24  46  71 102 138 180 233 290 347 412
#     4  10  26  44  64  94 128 174 234 280 336 402
#     4  11  23  45  64  95 132 179 225 280 339 402
#     4  10  21  37  64 102 136 169 209 261 337 417
#
# _framework density 21.099526999999998
#
# number of rings (size 3 to 8) (size 9 to 14) (size 15 to 20)
#    0.000    1.556    2.222    1.333    6.222    2.222 
#    8.000    0.000    0.000    0.000    0.000    0.000 
#    0.000    0.000    0.000    0.000    0.000    0.000 
#
# Total GULP energy -446223.387445 kJ/mol
# GULP energy per Si atom -12395.094096 kJ/mol
# Density = 2.105150 g / cm^3
# Si number density = 21.099527 Si / 1000 Ang^3
#
#
#
# Elastic Constant Matrix: (Units=GPa)
#
#
# Indices 1 2 3 4 5 6 
#
# 1 112.0316 37.4325 66.3473 0.0000 0.0000 0.0000
# 2 37.4325 110.8111 53.6006 0.0000 0.0000 0.0000
# 3 66.3473 53.6006 149.7940 0.0000 0.0000 0.0000
# 4 0.0000 0.0000 0.0000 1.2298 0.0000 0.0000
# 5 0.0000 0.0000 0.0000 0.0000 6.0044 0.0000
# 6 0.0000 0.0000 0.0000 0.0000 0.0000 -303.9486
#
#
#
# Elastic Compliance Matrix: (Units=1/GPa)
#
#
# Indices 1 2 3 4 5 6 
#
# 1 0.012407 -0.001854 -0.004832 0.000000 0.000000 0.000000
# 2 -0.001854 0.011190 -0.003183 0.000000 0.000000 0.000000
# 3 -0.004832 -0.003183 0.009955 0.000000 0.000000 0.000000
# 4 0.000000 0.000000 0.000000 0.813150 0.000000 0.000000
# 5 0.000000 0.000000 0.000000 0.000000 0.166545 0.000000
# 6 0.000000 0.000000 0.000000 0.000000 0.000000 -0.003290
#
#
# Mechanical properties :
#
#
# Convention : Reuss Voigt Hill
#
# Bulk Modulus (GPa) = 72.38780 76.37752 74.38266
# Shear Modulus (GPa) = 4.83419 -44.99248 -20.07915
#
# Velocity S-wave (km/s) = 1.51529 -4.62279 -3.08821
# Velocity P-wave (km/s) = 6.11913 2.78992 4.75539
#
# Compressibility (1/GPa) = 0.01381448
#
# Stress axis : x y z
#
# Youngs Moduli (GPa) = 80.59896 89.36300 100.45138
#
# Poissons Ratio (x) = 0.16567 0.48538
# Poissons Ratio (y) = 0.14942 0.31975
# Poissons Ratio (z) = 0.38946 0.28445
#
# Static dielectric constant tensor:
#      x y z
#    x 3.816230 0.000000 0.000000 
#    y 0.000000 3.867370 0.000000 
#    z 0.000000 0.000000 3.887160 
# 
# 
# High freq. dielectric constant tensor:
#      x y z
#    x 1.833300 0.000000 0.000000 
#    y 0.000000 1.831690 0.000000 
#    z 0.000000 0.000000 1.831160 
# 
# From -- ./inp_files/18095.got.cif
#   From: 2010.03.12/outbox.cif.g09.slc.cpg/sg53_10_cif.got.tgz:18095.got - 2010.04.16 14:36:59.
