data_PCOD8221684
_publ_section_title
;
Structure prediction by ZEFSAII (Michael W. Deem and Ramdas Pophale) SiO2 
 PCOD8221684
Probable space group: P M N A
;
_chemical_formula_sum "Si O2"
_cell_formula_units_Z 56
_cell_length_a 9.073938
_cell_length_b 18.900850
_cell_length_c 17.208083
_cell_angle_alpha 90.000000
_cell_angle_beta 90.000000
_cell_angle_gamma 90.000000
_cell_volume 2951.274702
_symmetry_space_group_name_H-M "P M N A"
_symmetry_group_IT_number 53
_symmetry_cell_setting 'orthorhombic'
loop_
_space_group_symop_operation_xyz
x,y,z
1/2-x,-y,1/2+z
x,-y,-z
1/2-x,y,1/2-z
-x,-y,-z
1/2+x,y,1/2-z
-x,y,z
1/2+x,-y,1/2+z
loop_
_atom_site_type_symbol
_atom_site_label
_atom_site_fract_x
_atom_site_fract_y
_atom_site_fract_z
Si Si1 0.170890 0.968076 0.583148
Si Si2 0.825044 0.283798 0.070138
Si Si3 0.673432 0.352898 0.672336
Si Si4 0.673008 0.218730 0.587043
Si Si5 0.172893 0.826283 0.669388
Si Si6 0.326892 0.082411 0.672582
Si Si7 0.674777 0.577486 0.485766
O O1 0.200893 0.885071 0.600912
O O2 0.000000 0.986505 0.594605
O O3 0.224266 0.000000 0.500000
O O4 0.265085 0.006722 0.649017
O O5 0.740625 0.249546 0.143332
O O6 0.779589 0.365807 0.053145
O O7 0.000000 0.276537 0.083671
O O8 0.763963 0.239094 0.996717
O O9 0.750000 0.381197 0.750000
O O10 0.500000 0.359463 0.684429
O O11 0.726185 0.272383 0.654647
O O12 0.728670 0.399052 0.599277
O O13 0.500000 0.229690 0.580945
O O14 0.717445 0.138741 0.606225
O O15 0.250000 0.849695 0.750000
O O16 0.000000 0.817310 0.685000
O O17 0.250000 0.109504 0.750000
O O18 0.500000 0.077922 0.686181
O O19 0.744573 0.500000 0.500000
O O20 0.500000 0.573867 0.485763
#
# Coordination Sequence:
#
# PCOD8221684 Si02
#       7
#     8   8   8   8   8   8   8
#     4  10  22  39  56  75 100 130 168 216 268 317
#     4   9  17  33  57  79 100 130 171 213 250 299
#     4   9  16  28  47  71 100 132 166 202 243 296
#     4   8  16  30  48  72 100 131 165 200 243 300
#     4  11  23  38  56  77 104 138 176 220 267 315
#     4  11  21  32  48  71 100 131 164 203 248 298
#     4   8  15  30  53  78 104 137 172 205 250 309
#
# _framework density 18.974851000000001
#
# number of rings (size 3 to 8) (size 9 to 14) (size 15 to 20)
#    0.000    2.571    0.000    4.286    0.000    2.571 
#    0.000    5.000    0.000    3.429    0.000    0.000 
#    0.000    0.000    0.000    0.000    0.000    0.000 
#
# Total GULP energy -693969.650564 kJ/mol
# GULP energy per Si atom -12392.315189 kJ/mol
# Density = 1.893166 g / cm^3
# Si number density = 18.974851 Si / 1000 Ang^3
#
#
#
# Elastic Constant Matrix: (Units=GPa)
#
#
# Indices 1 2 3 4 5 6 
#
# 1 51.9630 36.5617 30.3680 0.0000 0.0000 0.0000
# 2 36.5617 118.8520 38.0889 0.0000 0.0000 0.0000
# 3 30.3680 38.0889 84.8624 0.0000 0.0000 0.0000
# 4 0.0000 0.0000 0.0000 21.1984 0.0000 0.0000
# 5 0.0000 0.0000 0.0000 0.0000 29.8156 0.0000
# 6 0.0000 0.0000 0.0000 0.0000 0.0000 16.3578
#
#
#
# Elastic Compliance Matrix: (Units=1/GPa)
#
#
# Indices 1 2 3 4 5 6 
#
# 1 0.027833 -0.006272 -0.007145 0.000000 0.000000 0.000000
# 2 -0.006272 0.011241 -0.002801 0.000000 0.000000 0.000000
# 3 -0.007145 -0.002801 0.015598 0.000000 0.000000 0.000000
# 4 0.000000 0.000000 0.000000 0.047173 0.000000 0.000000
# 5 0.000000 0.000000 0.000000 0.000000 0.033539 0.000000
# 6 0.000000 0.000000 0.000000 0.000000 0.000000 0.061133
#
#
# Mechanical properties :
#
#
# Convention : Reuss Voigt Hill
#
# Bulk Modulus (GPa) = 44.97239 51.74605 48.35922
# Shear Modulus (GPa) = 21.15367 23.51830 22.33599
#
# Velocity S-wave (km/s) = 3.34252 3.52440 3.43466
# Velocity P-wave (km/s) = 6.21684 6.62510 6.42421
#
# Compressibility (1/GPa) = 0.02223586
#
# Stress axis : x y z
#
# Youngs Moduli (GPa) = 35.92803 88.96066 64.11232
#
# Poissons Ratio (x) = 0.55800 0.45808
# Poissons Ratio (y) = 0.22536 0.17956
# Poissons Ratio (z) = 0.25670 0.24915
#
# Static dielectric constant tensor:
#      x y z
#    x 3.106360 0.000000 0.000000 
#    y 0.000000 3.697170 0.000000 
#    z 0.000000 0.000000 3.553260 
# 
# 
# High freq. dielectric constant tensor:
#      x y z
#    x 1.706680 0.000000 0.000000 
#    y 0.000000 1.733920 0.000000 
#    z 0.000000 0.000000 1.735000 
# 
# From -- ./inp_files/20644.got.cif
#   From: 2010.03.12/outbox.cif.g09.slc.cpg/sg53_11_cif.got.tgz:20644.got - 2010.04.16 14:36:59.
