data_PCOD8221933
_publ_section_title
;
Structure prediction by ZEFSAII (Michael W. Deem and Ramdas Pophale) SiO2 
 PCOD8221933
Probable space group: P M N A
;
_chemical_formula_sum "Si O2"
_cell_formula_units_Z 48
_cell_length_a 15.060170
_cell_length_b 15.332319
_cell_length_c 9.872660
_cell_angle_alpha 90.000000
_cell_angle_beta 90.000000
_cell_angle_gamma 90.000000
_cell_volume 2279.669567
_symmetry_space_group_name_H-M "P M N A"
_symmetry_group_IT_number 53
_symmetry_cell_setting 'orthorhombic'
loop_
_space_group_symop_operation_xyz
x,y,z
1/2-x,-y,1/2+z
x,-y,-z
1/2-x,y,1/2-z
-x,-y,-z
1/2+x,y,1/2-z
-x,y,z
1/2+x,-y,1/2+z
loop_
_atom_site_type_symbol
_atom_site_label
_atom_site_fract_x
_atom_site_fract_y
_atom_site_fract_z
Si Si1 0.856057 0.328258 0.749370
Si Si2 0.239079 0.918713 0.091564
Si Si3 0.101800 0.302085 0.277209
Si Si4 0.164798 0.490038 0.342515
Si Si5 0.102189 0.770731 0.002946
Si Si6 0.600911 0.193087 0.973939
O O1 0.750000 0.321156 0.750000
O O2 0.889410 0.423092 0.699275
O O3 0.897852 0.253898 0.656807
O O4 0.894224 0.312965 0.898900
O O5 0.250000 0.943125 0.250000
O O6 0.336343 0.889895 0.042539
O O7 0.163997 0.845516 0.067881
O O8 0.209337 0.000000 0.000000
O O9 0.109341 0.404301 0.308749
O O10 0.144423 0.266123 0.137587
O O11 0.141888 0.247744 0.401260
O O12 0.000000 0.279507 0.263973
O O13 0.190745 0.500000 0.500000
O O14 0.250000 0.483361 0.250000
O O15 0.000000 0.804029 0.988922
O O16 0.500000 0.160871 0.998563
#
# Coordination Sequence:
#
# PCOD8221933 Si02
#       6
#     8   8   8   8   8   8
#     4  11  21  40  65  96 130 180 224 260 326 384
#     4  12  28  47  70 102 129 166 213 267 338 404
#     4  10  25  41  63  97 131 178 225 267 326 378
#     4  11  25  38  61  95 134 177 225 277 319 371
#     4  11  24  45  70  96 133 175 217 268 326 393
#     4  11  22  43  70  96 130 174 217 264 322 390
#
# _framework density 21.055682000000001
#
# number of rings (size 3 to 8) (size 9 to 14) (size 15 to 20)
#    0.000    1.000    5.000    0.500    9.333    2.333 
#    0.000    1.667    0.000    0.000    0.000    0.000 
#    0.000    0.000    0.000    0.000    0.000    0.000 
#
# Total GULP energy -595068.065848 kJ/mol
# GULP energy per Si atom -12397.251372 kJ/mol
# Density = 2.100776 g / cm^3
# Si number density = 21.055682 Si / 1000 Ang^3
#
#
#
# Elastic Constant Matrix: (Units=GPa)
#
#
# Indices 1 2 3 4 5 6 
#
# 1 80.1921 22.7469 19.0712 0.0000 0.0000 0.0000
# 2 22.7469 98.6452 52.6500 0.0000 0.0000 0.0000
# 3 19.0712 52.6500 161.3626 0.0000 0.0000 0.0000
# 4 0.0000 0.0000 0.0000 40.5934 0.0000 0.0000
# 5 0.0000 0.0000 0.0000 0.0000 27.1066 0.0000
# 6 0.0000 0.0000 0.0000 0.0000 0.0000 16.6063
#
#
#
# Elastic Compliance Matrix: (Units=1/GPa)
#
#
# Indices 1 2 3 4 5 6 
#
# 1 0.013407 -0.002719 -0.000697 0.000000 0.000000 0.000000
# 2 -0.002719 0.012827 -0.003864 0.000000 0.000000 0.000000
# 3 -0.000697 -0.003864 0.007540 0.000000 0.000000 0.000000
# 4 0.000000 0.000000 0.000000 0.024635 0.000000 0.000000
# 5 0.000000 0.000000 0.000000 0.000000 0.036891 0.000000
# 6 0.000000 0.000000 0.000000 0.000000 0.000000 0.060218
#
#
# Mechanical properties :
#
#
# Convention : Reuss Voigt Hill
#
# Bulk Modulus (GPa) = 52.04731 58.79290 55.42010
# Shear Modulus (GPa) = 28.33127 33.24339 30.78733
#
# Velocity S-wave (km/s) = 3.67214 3.97776 3.82800
# Velocity P-wave (km/s) = 6.53850 7.00571 6.77614
#
# Compressibility (1/GPa) = 0.01921329
#
# Stress axis : x y z
#
# Youngs Moduli (GPa) = 74.58641 77.96292 132.62084
#
# Poissons Ratio (x) = 0.21202 0.09247
# Poissons Ratio (y) = 0.20284 0.51241
# Poissons Ratio (z) = 0.05201 0.30123
#
# Static dielectric constant tensor:
#      x y z
#    x 2.979590 0.000000 0.000000 
#    y 0.000000 4.040130 0.000000 
#    z 0.000000 0.000000 4.303810 
# 
# 
# High freq. dielectric constant tensor:
#      x y z
#    x 1.820370 0.000000 0.000000 
#    y 0.000000 1.811950 0.000000 
#    z 0.000000 0.000000 1.848000 
# 
# From -- ./inp_files/8675.got.cif
#   From: 2010.03.12/outbox.cif.g09.slc.cpg/sg53_5_cif.got.tgz:8675.got - 2010.04.16 14:36:59.
