data_PCOD8221717
_publ_section_title
;
Structure prediction by ZEFSAII (Michael W. Deem and Ramdas Pophale) SiO2 
 PCOD8221717
Probable space group: P M N A
;
_chemical_formula_sum "Si O2"
_cell_formula_units_Z 64
_cell_length_a 26.364562
_cell_length_b 13.631035
_cell_length_c 8.522702
_cell_angle_alpha 90.000000
_cell_angle_beta 90.000000
_cell_angle_gamma 90.000000
_cell_volume 3062.856833
_symmetry_space_group_name_H-M "P M N A"
_symmetry_group_IT_number 53
_symmetry_cell_setting 'orthorhombic'
loop_
_space_group_symop_operation_xyz
x,y,z
1/2-x,-y,1/2+z
x,-y,-z
1/2-x,y,1/2-z
-x,-y,-z
1/2+x,y,1/2-z
-x,y,z
1/2+x,-y,1/2+z
loop_
_atom_site_type_symbol
_atom_site_label
_atom_site_fract_x
_atom_site_fract_y
_atom_site_fract_z
Si Si1 0.879515 0.782666 0.934380
Si Si2 0.118758 0.098781 0.772512
Si Si3 0.442210 0.782845 0.054289
Si Si4 0.718073 0.901313 0.089786
Si Si5 0.559330 0.398435 0.412282
Si Si6 0.199124 0.736698 0.670263
Si Si7 0.112413 0.397095 0.416543
Si Si8 0.557142 0.910140 0.756340
O O1 0.899019 0.675592 0.990719
O O2 0.836766 0.788963 0.799368
O O3 0.932705 0.822060 0.863627
O O4 0.857525 0.851254 0.072266
O O5 0.074281 0.172328 0.719359
O O6 0.160412 0.083735 0.640027
O O7 0.095015 0.993416 0.803325
O O8 0.500000 0.750799 0.057313
O O9 0.410637 0.685077 0.028865
O O10 0.431544 0.870007 0.930075
O O11 0.750000 0.881070 0.250000
O O12 0.716766 0.809482 0.969955
O O13 0.737580 0.000000 0.000000
O O14 0.567380 0.500000 0.500000
O O15 0.500000 0.365785 0.422877
O O16 0.575541 0.408448 0.231562
O O17 0.250000 0.697599 0.750000
O O18 0.169709 0.639235 0.615550
O O19 0.116279 0.500000 0.500000
O O20 0.500000 0.948904 0.743659
#
# Coordination Sequence:
#
# PCOD8221717 Si02
#       8
#     8   8   8   8   8   8   8   8
#     4  11  23  40  63  92 133 175 220 275 327 388
#     4  12  24  38  61  98 132 176 223 274 318 397
#     4  11  22  40  64  94 134 177 216 269 334 401
#     4  12  25  42  68 100 135 172 225 278 331 396
#     4  10  22  39  62  92 129 171 217 274 333 392
#     4  11  23  47  70  92 128 176 215 276 345 399
#     4  11  24  44  68  94 126 167 221 281 340 406
#     4  11  22  39  60  88 133 183 220 260 325 396
#
# _framework density 20.895524999999999
#
# number of rings (size 3 to 8) (size 9 to 14) (size 15 to 20)
#    0.000    0.875    3.750    4.500    1.750    5.500 
#    0.000    3.125    0.000    0.000    0.000    0.000 
#    0.000    0.000    0.000    0.000    0.000    0.000 
#
# Total GULP energy -793302.294504 kJ/mol
# GULP energy per Si atom -12395.348352 kJ/mol
# Density = 2.084797 g / cm^3
# Si number density = 20.895525 Si / 1000 Ang^3
#
#
#
# Elastic Constant Matrix: (Units=GPa)
#
#
# Indices 1 2 3 4 5 6 
#
# 1 102.9379 48.5385 28.1515 0.0000 0.0000 0.0000
# 2 48.5385 91.8985 25.6585 0.0000 0.0000 0.0000
# 3 28.1515 25.6585 68.7183 0.0000 0.0000 0.0000
# 4 0.0000 0.0000 0.0000 39.6532 0.0000 0.0000
# 5 0.0000 0.0000 0.0000 0.0000 29.7700 0.0000
# 6 0.0000 0.0000 0.0000 0.0000 0.0000 18.7229
#
#
#
# Elastic Compliance Matrix: (Units=1/GPa)
#
#
# Indices 1 2 3 4 5 6 
#
# 1 0.013543 -0.006256 -0.003212 0.000000 0.000000 0.000000
# 2 -0.006256 0.015038 -0.003052 0.000000 0.000000 0.000000
# 3 -0.003212 -0.003052 0.017008 0.000000 0.000000 0.000000
# 4 0.000000 0.000000 0.000000 0.025219 0.000000 0.000000
# 5 0.000000 0.000000 0.000000 0.000000 0.033591 0.000000
# 6 0.000000 0.000000 0.000000 0.000000 0.000000 0.053410
#
#
# Mechanical properties :
#
#
# Convention : Reuss Voigt Hill
#
# Bulk Modulus (GPa) = 48.66665 52.02797 50.34731
# Shear Modulus (GPa) = 26.35754 28.37631 27.36693
#
# Velocity S-wave (km/s) = 3.55547 3.68912 3.62291
# Velocity P-wave (km/s) = 6.34004 6.56500 6.45350
#
# Compressibility (1/GPa) = 0.02054795
#
# Stress axis : x y z
#
# Youngs Moduli (GPa) = 73.83847 66.49761 58.79711
#
# Poissons Ratio (x) = 0.41603 0.18886
# Poissons Ratio (y) = 0.46195 0.17945
# Poissons Ratio (z) = 0.23718 0.20295
#
# Static dielectric constant tensor:
#      x y z
#    x 3.834550 0.000000 0.000000 
#    y 0.000000 3.346440 0.000000 
#    z 0.000000 0.000000 3.400540 
# 
# 
# High freq. dielectric constant tensor:
#      x y z
#    x 1.821810 0.000000 0.000000 
#    y 0.000000 1.815120 0.000000 
#    z 0.000000 0.000000 1.821140 
# 
# From -- ./inp_files/13242.got.cif
#   From: 2010.03.12/outbox.cif.g09.slc.cpg/sg53_7_cif.got.tgz:13242.got - 2010.04.16 14:36:59.
