data_PCOD8221757
_publ_section_title
;
Structure prediction by ZEFSAII (Michael W. Deem and Ramdas Pophale) SiO2 
 PCOD8221757
Probable space group: P M N A
;
_chemical_formula_sum "Si O2"
_cell_formula_units_Z 40
_cell_length_a 9.400356
_cell_length_b 24.093705
_cell_length_c 8.590025
_cell_angle_alpha 90.000000
_cell_angle_beta 90.000000
_cell_angle_gamma 90.000000
_cell_volume 1945.549646
_symmetry_space_group_name_H-M "P M N A"
_symmetry_group_IT_number 53
_symmetry_cell_setting 'orthorhombic'
loop_
_space_group_symop_operation_xyz
x,y,z
1/2-x,-y,1/2+z
x,-y,-z
1/2-x,y,1/2-z
-x,-y,-z
1/2+x,y,1/2-z
-x,y,z
1/2+x,-y,1/2+z
loop_
_atom_site_type_symbol
_atom_site_label
_atom_site_fract_x
_atom_site_fract_y
_atom_site_fract_z
Si Si1 0.000000 0.937300 0.063656
Si Si2 0.000000 0.940697 0.427195
Si Si3 0.832296 0.333744 0.087650
Si Si4 0.663352 0.446653 0.592925
Si Si5 0.172254 0.239886 0.590715
Si Si6 0.744175 0.128999 0.067584
O O1 0.000000 0.946256 0.244780
O O2 0.879577 0.896362 0.010272
O O3 0.000000 0.000000 0.000000
O O4 0.130813 0.907631 0.485489
O O5 0.000000 0.000000 0.500000
O O6 0.750000 0.329207 0.250000
O O7 0.000000 0.316380 0.104510
O O8 0.819844 0.395633 0.024105
O O9 0.747075 0.296150 0.965102
O O10 0.722325 0.500000 0.500000
O O11 0.750000 0.436430 0.750000
O O12 0.500000 0.455608 0.641827
O O13 0.250000 0.222335 0.750000
O O14 0.212291 0.193432 0.464334
O O15 0.000000 0.246470 0.609592
O O16 0.750000 0.119709 0.250000
#
# Coordination Sequence:
#
# PCOD8221757 Si02
#       6
#     4   4   8   8   8   8
#     4  12  26  44  70 100 132 176 217 274 333 404
#     4  12  24  46  68  96 134 170 221 270 333 400
#     4  11  24  42  67  98 135 179 227 281 339 402
#     4  10  22  40  63  95 133 175 225 278 339 404
#     4  12  26  45  69  98 134 176 225 280 341 408
#     4  12  26  44  68  98 132 173 220 273 335 403
#
# _framework density 20.559743000000001
#
# number of rings (size 3 to 8) (size 9 to 14) (size 15 to 20)
#    0.000    0.600    1.000    7.200    2.800    3.600 
#    0.000    0.000    0.000    0.000    0.000    0.000 
#    0.000    0.000    0.000    0.000    0.000    0.000 
#
# Total GULP energy -495814.160088 kJ/mol
# GULP energy per Si atom -12395.354002 kJ/mol
# Density = 2.051295 g / cm^3
# Si number density = 20.559743 Si / 1000 Ang^3
#
#
#
# Elastic Constant Matrix: (Units=GPa)
#
#
# Indices 1 2 3 4 5 6 
#
# 1 164.4992 42.8446 49.4872 0.0000 0.0000 0.0000
# 2 42.8446 114.1845 22.1416 0.0000 0.0000 0.0000
# 3 49.4872 22.1416 148.2221 0.0000 0.0000 0.0000
# 4 0.0000 0.0000 0.0000 43.6390 0.0000 0.0000
# 5 0.0000 0.0000 0.0000 0.0000 35.8083 0.0000
# 6 0.0000 0.0000 0.0000 0.0000 0.0000 39.5461
#
#
#
# Elastic Compliance Matrix: (Units=1/GPa)
#
#
# Indices 1 2 3 4 5 6 
#
# 1 0.007318 -0.002340 -0.002094 0.000000 0.000000 0.000000
# 2 -0.002340 0.009767 -0.000678 0.000000 0.000000 0.000000
# 3 -0.002094 -0.000678 0.007547 0.000000 0.000000 0.000000
# 4 0.000000 0.000000 0.000000 0.022915 0.000000 0.000000
# 5 0.000000 0.000000 0.000000 0.000000 0.027927 0.000000
# 6 0.000000 0.000000 0.000000 0.000000 0.000000 0.025287
#
#
# Mechanical properties :
#
#
# Convention : Reuss Voigt Hill
#
# Bulk Modulus (GPa) = 69.39964 72.87250 71.13607
# Shear Modulus (GPa) = 43.18245 44.62749 43.90497
#
# Velocity S-wave (km/s) = 4.58792 4.66405 4.62614
# Velocity P-wave (km/s) = 7.86726 8.03279 7.95045
#
# Compressibility (1/GPa) = 0.01440930
#
# Stress axis : x y z
#
# Youngs Moduli (GPa) = 136.64125 102.38342 132.50367
#
# Poissons Ratio (x) = 0.23958 0.27744
# Poissons Ratio (y) = 0.31974 0.08981
# Poissons Ratio (z) = 0.28611 0.06939
#
# Static dielectric constant tensor:
#      x y z
#    x 4.069140 0.000000 0.000000 
#    y 0.000000 3.938190 0.000000 
#    z 0.000000 0.000000 3.647370 
# 
# 
# High freq. dielectric constant tensor:
#      x y z
#    x 1.824860 0.000000 0.000000 
#    y 0.000000 1.824290 0.000000 
#    z 0.000000 0.000000 1.820500 
# 
# From -- ./inp_files/6362.got.cif
#   From: 2010.03.12/outbox.cif.g09.slc.cpg/sg53_4_cif.got.tgz:6362.got - 2010.04.16 14:36:59.
