data_PCOD8221168
_publ_section_title
;
Structure prediction by ZEFSAII (Michael W. Deem and Ramdas Pophale) SiO2 
 PCOD8221168
Probable space group: P M N A
;
_chemical_formula_sum "Si O2"
_cell_formula_units_Z 48
_cell_length_a 9.893372
_cell_length_b 29.150075
_cell_length_c 8.715109
_cell_angle_alpha 90.000000
_cell_angle_beta 90.000000
_cell_angle_gamma 90.000000
_cell_volume 2513.372384
_symmetry_space_group_name_H-M "P M N A"
_symmetry_group_IT_number 53
_symmetry_cell_setting 'orthorhombic'
loop_
_space_group_symop_operation_xyz
x,y,z
1/2-x,-y,1/2+z
x,-y,-z
1/2-x,y,1/2-z
-x,-y,-z
1/2+x,y,1/2-z
-x,y,z
1/2+x,-y,1/2+z
loop_
_atom_site_type_symbol
_atom_site_label
_atom_site_fract_x
_atom_site_fract_y
_atom_site_fract_z
Si Si1 0.754831 0.900875 0.426493
Si Si2 0.346121 0.284853 0.105560
Si Si3 0.500000 0.049045 0.074300
Si Si4 0.655722 0.630428 0.104387
Si Si5 0.500000 0.051351 0.435464
Si Si6 0.841709 0.798844 0.388633
Si Si7 0.655518 0.456801 0.103790
O O1 0.750000 0.916941 0.250000
O O2 0.872100 0.924064 0.518610
O O3 0.622380 0.917679 0.510099
O O4 0.774512 0.846501 0.439406
O O5 0.250000 0.289978 0.250000
O O6 0.500000 0.292769 0.160751
O O7 0.306064 0.322302 0.978949
O O8 0.329071 0.234808 0.032336
O O9 0.500000 0.045256 0.255212
O O10 0.500000 0.000000 0.000000
O O11 0.750000 0.624094 0.250000
O O12 0.500000 0.630488 0.158964
O O13 0.684975 0.589259 0.988820
O O14 0.500000 0.000000 0.500000
O O15 0.750000 0.778985 0.250000
O O16 0.000000 0.804658 0.339024
O O17 0.750000 0.457371 0.250000
O O18 0.500000 0.459324 0.157754
O O19 0.693778 0.500000 0.000000
#
# Coordination Sequence:
#
# PCOD8221168 Si02
#       7
#     8   8   4   8   4   8   8
#     4  11  23  42  64  90 121 156 197 243 292 351
#     4  10  22  39  58  87 121 155 196 244 294 349
#     4  12  24  42  64  88 124 156 194 246 289 348
#     4  10  21  37  58  84 116 154 200 250 299 357
#     4  12  26  42  64  94 120 160 200 238 297 350
#     4  10  22  40  63  89 118 153 193 237 288 347
#     4  10  21  36  55  83 117 154 199 249 300 359
#
# _framework density 19.097845
#
# number of rings (size 3 to 8) (size 9 to 14) (size 15 to 20)
#    0.000    1.500    0.833    4.000    3.500    3.667 
#    0.000    0.000    0.000    0.000    0.000    0.000 
#    0.000    0.000    0.000    0.000    0.000    0.000 
#
# Total GULP energy -595305.388043 kJ/mol
# GULP energy per Si atom -12402.195584 kJ/mol
# Density = 1.905438 g / cm^3
# Si number density = 19.097845 Si / 1000 Ang^3
#
#
#
# Elastic Constant Matrix: (Units=GPa)
#
#
# Indices 1 2 3 4 5 6 
#
# 1 144.7434 51.0887 87.2298 0.0000 0.0000 0.0000
# 2 51.0887 99.0926 54.1163 0.0000 0.0000 0.0000
# 3 87.2298 54.1163 155.8182 0.0000 0.0000 0.0000
# 4 0.0000 0.0000 0.0000 22.9839 0.0000 0.0000
# 5 0.0000 0.0000 0.0000 0.0000 45.6951 0.0000
# 6 0.0000 0.0000 0.0000 0.0000 0.0000 25.1749
#
#
#
# Elastic Compliance Matrix: (Units=1/GPa)
#
#
# Indices 1 2 3 4 5 6 
#
# 1 0.011047 -0.002861 -0.005191 0.000000 0.000000 0.000000
# 2 -0.002861 0.013194 -0.002981 0.000000 0.000000 0.000000
# 3 -0.005191 -0.002981 0.010359 0.000000 0.000000 0.000000
# 4 0.000000 0.000000 0.000000 0.043509 0.000000 0.000000
# 5 0.000000 0.000000 0.000000 0.000000 0.021884 0.000000
# 6 0.000000 0.000000 0.000000 0.000000 0.000000 0.039722
#
#
# Mechanical properties :
#
#
# Convention : Reuss Voigt Hill
#
# Bulk Modulus (GPa) = 79.77416 87.16931 83.47173
# Shear Modulus (GPa) = 30.12815 32.58539 31.35677
#
# Velocity S-wave (km/s) = 3.97617 4.13514 4.05643
# Velocity P-wave (km/s) = 7.93359 8.27900 8.10813
#
# Compressibility (1/GPa) = 0.01253539
#
# Stress axis : x y z
#
# Youngs Moduli (GPa) = 90.52610 75.78976 96.53578
#
# Poissons Ratio (x) = 0.21680 0.50108
# Poissons Ratio (y) = 0.25895 0.28778
# Poissons Ratio (z) = 0.46988 0.22594
#
# Static dielectric constant tensor:
#      x y z
#    x 3.621790 0.000000 0.000000 
#    y 0.000000 3.650980 0.000000 
#    z 0.000000 0.000000 3.512090 
# 
# 
# High freq. dielectric constant tensor:
#      x y z
#    x 1.755590 0.000000 0.000000 
#    y 0.000000 1.762800 0.000000 
#    z 0.000000 0.000000 1.743510 
# 
# From -- ./inp_files/6833.got.cif
#   From: 2010.03.12/outbox.cif.g09.slc.cpg/sg53_4_cif.got.tgz:6833.got - 2010.04.16 14:36:59.
