data_PCOD8221610
_publ_section_title
;
Structure prediction by ZEFSAII (Michael W. Deem and Ramdas Pophale) SiO2 
 PCOD8221610
Probable space group: P M N A
;
_chemical_formula_sum "Si O2"
_cell_formula_units_Z 56
_cell_length_a 14.386846
_cell_length_b 16.629788
_cell_length_c 11.195278
_cell_angle_alpha 90.000000
_cell_angle_beta 90.000000
_cell_angle_gamma 90.000000
_cell_volume 2678.472489
_symmetry_space_group_name_H-M "P M N A"
_symmetry_group_IT_number 53
_symmetry_cell_setting 'orthorhombic'
loop_
_space_group_symop_operation_xyz
x,y,z
1/2-x,-y,1/2+z
x,-y,-z
1/2-x,y,1/2-z
-x,-y,-z
1/2+x,y,1/2-z
-x,y,z
1/2+x,-y,1/2+z
loop_
_atom_site_type_symbol
_atom_site_label
_atom_site_fract_x
_atom_site_fract_y
_atom_site_fract_z
Si Si1 0.104050 0.301836 0.114473
Si Si2 0.610136 0.792503 0.157983
Si Si3 0.896963 0.662332 0.513950
Si Si4 0.741205 0.446757 0.385968
Si Si5 0.605741 0.181101 0.574524
Si Si6 0.720353 0.905682 0.987228
Si Si7 0.895739 0.813850 0.686034
O O1 0.168992 0.376334 0.139059
O O2 0.135112 0.221250 0.185951
O O3 0.000000 0.327956 0.152084
O O4 0.109926 0.271592 0.978679
O O5 0.500000 0.801104 0.141986
O O6 0.640036 0.703005 0.110259
O O7 0.642757 0.804996 0.292645
O O8 0.656567 0.864177 0.085694
O O9 0.837140 0.589106 0.564553
O O10 0.895861 0.736146 0.603273
O O11 0.000000 0.626507 0.497199
O O12 0.704887 0.500000 0.500000
O O13 0.750000 0.487128 0.250000
O O14 0.500000 0.147334 0.568855
O O15 0.672228 0.119190 0.504962
O O16 0.679207 0.879629 0.857711
O O17 0.711618 0.000000 0.000000
O O18 0.000000 0.851758 0.691133
#
# Coordination Sequence:
#
# PCOD8221610 Si02
#       7
#     8   8   8   8   8   8   8
#     4  10  21  41  67  88 114 162 216 259 306 376
#     4   9  19  38  63  89 116 152 205 259 308 366
#     4   9  18  37  66  89 111 156 208 249 294 364
#     4  12  26  40  60  93 133 167 202 263 330 388
#     4  10  22  39  59  86 120 161 202 249 313 377
#     4  11  22  35  57  89 123 160 203 258 312 363
#     4   9  18  36  64  90 110 150 210 257 296 356
#
# _framework density 20.907437999999999
#
# number of rings (size 3 to 8) (size 9 to 14) (size 15 to 20)
#    0.000    2.000    1.429    3.429    0.000    3.143 
#    5.143    0.000    0.000    0.000    0.000    0.000 
#    0.000    0.000    0.000    0.000    0.000    0.000 
#
# Total GULP energy -693825.278938 kJ/mol
# GULP energy per Si atom -12389.737124 kJ/mol
# Density = 2.085985 g / cm^3
# Si number density = 20.907438 Si / 1000 Ang^3
#
#
#
# Elastic Constant Matrix: (Units=GPa)
#
#
# Indices 1 2 3 4 5 6 
#
# 1 84.2252 31.9145 38.1468 0.0000 0.0000 0.0000
# 2 31.9145 47.1310 31.2006 0.0000 0.0000 0.0000
# 3 38.1468 31.2006 105.5606 0.0000 0.0000 0.0000
# 4 0.0000 0.0000 0.0000 15.1443 0.0000 0.0000
# 5 0.0000 0.0000 0.0000 0.0000 18.8671 0.0000
# 6 0.0000 0.0000 0.0000 0.0000 0.0000 10.0798
#
#
#
# Elastic Compliance Matrix: (Units=1/GPa)
#
#
# Indices 1 2 3 4 5 6 
#
# 1 0.016891 -0.009196 -0.003386 0.000000 0.000000 0.000000
# 2 -0.009196 0.031386 -0.005953 0.000000 0.000000 0.000000
# 3 -0.003386 -0.005953 0.012456 0.000000 0.000000 0.000000
# 4 0.000000 0.000000 0.000000 0.066031 0.000000 0.000000
# 5 0.000000 0.000000 0.000000 0.000000 0.053002 0.000000
# 6 0.000000 0.000000 0.000000 0.000000 0.000000 0.099208
#
#
# Mechanical properties :
#
#
# Convention : Reuss Voigt Hill
#
# Bulk Modulus (GPa) = 42.26144 48.82674 45.54409
# Shear Modulus (GPa) = 15.43525 17.86189 16.64857
#
# Velocity S-wave (km/s) = 2.72005 2.92607 2.82494
# Velocity P-wave (km/s) = 5.48839 5.90087 5.69836
#
# Compressibility (1/GPa) = 0.02366223
#
# Stress axis : x y z
#
# Youngs Moduli (GPa) = 59.20280 31.86148 80.27971
#
# Poissons Ratio (x) = 0.29301 0.27181
# Poissons Ratio (y) = 0.54445 0.47794
# Poissons Ratio (z) = 0.20045 0.18969
#
# Static dielectric constant tensor:
#      x y z
#    x 4.024310 0.000000 0.000000 
#    y 0.000000 3.458580 0.000000 
#    z 0.000000 0.000000 4.834930 
# 
# 
# High freq. dielectric constant tensor:
#      x y z
#    x 1.831480 0.000000 0.000000 
#    y 0.000000 1.770990 0.000000 
#    z 0.000000 0.000000 1.835610 
# 
# From -- ./inp_files/16032.got.cif
#   From: 2010.03.12/outbox.cif.g09.slc.cpg/sg53_9_cif.got.tgz:16032.got - 2010.04.16 14:36:59.
