data_PCOD8221723
_publ_section_title
;
Structure prediction by ZEFSAII (Michael W. Deem and Ramdas Pophale) SiO2 
 PCOD8221723
Probable space group: P M N A
;
_chemical_formula_sum "Si O2"
_cell_formula_units_Z 40
_cell_length_a 22.783682
_cell_length_b 9.659477
_cell_length_c 8.631954
_cell_angle_alpha 90.000000
_cell_angle_beta 90.000000
_cell_angle_gamma 90.000000
_cell_volume 1899.707076
_symmetry_space_group_name_H-M "P M N A"
_symmetry_group_IT_number 53
_symmetry_cell_setting 'orthorhombic'
loop_
_space_group_symop_operation_xyz
x,y,z
1/2-x,-y,1/2+z
x,-y,-z
1/2-x,y,1/2-z
-x,-y,-z
1/2+x,y,1/2-z
-x,y,z
1/2+x,-y,1/2+z
loop_
_atom_site_type_symbol
_atom_site_label
_atom_site_fract_x
_atom_site_fract_y
_atom_site_fract_z
Si Si1 0.239338 0.858121 0.068660
Si Si2 0.666390 0.353657 0.948180
Si Si3 0.604864 0.157859 0.473333
Si Si4 0.890843 0.584833 0.145781
Si Si5 0.933226 0.678136 0.686381
O O1 0.250000 0.862696 0.250000
O O2 0.282677 0.746489 0.995081
O O3 0.173476 0.829554 0.012279
O O4 0.262412 0.000000 0.000000
O O5 0.659087 0.356639 0.761373
O O6 0.690285 0.500000 0.000000
O O7 0.604454 0.316937 0.029528
O O8 0.574459 0.277290 0.582119
O O9 0.591646 0.200541 0.297214
O O10 0.581821 0.000000 0.500000
O O11 0.931743 0.475910 0.237694
O O12 0.862902 0.500000 0.000000
O O13 0.000000 0.712076 0.642504
#
# Coordination Sequence:
#
# PCOD8221723 Si02
#       5
#     8   8   8   8   8
#     4  11  24  41  65  96 129 167 203 255 323 388
#     4  10  22  39  63  95 128 163 210 264 312 379
#     4  10  22  39  63  93 127 163 212 258 313 387
#     4   9  19  38  61  90 121 161 208 253 315 373
#     4  10  23  41  63  91 126 169 213 261 318 373
#
# _framework density 21.055879000000001
#
# number of rings (size 3 to 8) (size 9 to 14) (size 15 to 20)
#    0.000    2.000    2.000    0.000    5.600   10.000 
#    0.000    0.000    0.000    1.800    0.000    0.000 
#    0.000    0.000    0.000    0.000    0.000    0.000 
#
# Total GULP energy -495610.727763 kJ/mol
# GULP energy per Si atom -12390.268194 kJ/mol
# Density = 2.100795 g / cm^3
# Si number density = 21.055879 Si / 1000 Ang^3
#
#
#
# Elastic Constant Matrix: (Units=GPa)
#
#
# Indices 1 2 3 4 5 6 
#
# 1 99.4863 31.5048 28.6199 0.0000 0.0000 0.0000
# 2 31.5048 144.3026 38.5662 0.0000 0.0000 0.0000
# 3 28.6199 38.5662 90.6449 0.0000 0.0000 0.0000
# 4 0.0000 0.0000 0.0000 30.3159 0.0000 0.0000
# 5 0.0000 0.0000 0.0000 0.0000 13.1747 0.0000
# 6 0.0000 0.0000 0.0000 0.0000 0.0000 19.4325
#
#
#
# Elastic Compliance Matrix: (Units=1/GPa)
#
#
# Indices 1 2 3 4 5 6 
#
# 1 0.011425 -0.001727 -0.002873 0.000000 0.000000 0.000000
# 2 -0.001727 0.008080 -0.002893 0.000000 0.000000 0.000000
# 3 -0.002873 -0.002893 0.013170 0.000000 0.000000 0.000000
# 4 0.000000 0.000000 0.000000 0.032986 0.000000 0.000000
# 5 0.000000 0.000000 0.000000 0.000000 0.075903 0.000000
# 6 0.000000 0.000000 0.000000 0.000000 0.000000 0.051460
#
#
# Mechanical properties :
#
#
# Convention : Reuss Voigt Hill
#
# Bulk Modulus (GPa) = 56.52627 59.09063 57.80845
# Shear Modulus (GPa) = 23.37494 28.30080 25.83787
#
# Velocity S-wave (km/s) = 3.33549 3.67015 3.50681
# Velocity P-wave (km/s) = 6.46050 6.78857 6.62656
#
# Compressibility (1/GPa) = 0.01769089
#
# Stress axis : x y z
#
# Youngs Moduli (GPa) = 87.52899 123.76383 75.93161
#
# Poissons Ratio (x) = 0.21369 0.21812
# Poissons Ratio (y) = 0.15113 0.21964
# Poissons Ratio (z) = 0.25144 0.35800
#
# Static dielectric constant tensor:
#      x y z
#    x 3.393280 0.000000 0.000000 
#    y 0.000000 4.156060 0.000000 
#    z 0.000000 0.000000 4.066280 
# 
# 
# High freq. dielectric constant tensor:
#      x y z
#    x 1.791010 0.000000 0.000000 
#    y 0.000000 1.842130 0.000000 
#    z 0.000000 0.000000 1.830480 
# 
# From -- ./inp_files/12264.got.cif
#   From: 2010.03.12/outbox.cif.g09.slc.cpg/sg53_7_cif.got.tgz:12264.got - 2010.04.16 14:36:59.
