data_PCOD8221352
_publ_section_title
;
Structure prediction by ZEFSAII (Michael W. Deem and Ramdas Pophale) SiO2 
 PCOD8221352
Probable space group: P M N A
;
_chemical_formula_sum "Si O2"
_cell_formula_units_Z 48
_cell_length_a 18.251866
_cell_length_b 9.037132
_cell_length_c 14.119790
_cell_angle_alpha 90.000000
_cell_angle_beta 90.000000
_cell_angle_gamma 90.000000
_cell_volume 2328.982016
_symmetry_space_group_name_H-M "P M N A"
_symmetry_group_IT_number 53
_symmetry_cell_setting 'orthorhombic'
loop_
_space_group_symop_operation_xyz
x,y,z
1/2-x,-y,1/2+z
x,-y,-z
1/2-x,y,1/2-z
-x,-y,-z
1/2+x,y,1/2-z
-x,y,z
1/2+x,-y,1/2+z
loop_
_atom_site_type_symbol
_atom_site_label
_atom_site_fract_x
_atom_site_fract_y
_atom_site_fract_z
Si Si1 0.080432 0.158998 0.459652
Si Si2 0.334102 0.610169 0.081419
Si Si3 0.828750 0.378471 0.916819
Si Si4 0.918384 0.092720 0.906695
Si Si5 0.413655 0.861763 0.749774
Si Si6 0.914058 0.529827 0.755291
O O1 0.127065 0.247326 0.536937
O O2 0.119239 0.136786 0.356922
O O3 0.000000 0.236571 0.446527
O O4 0.067371 0.000000 0.500000
O O5 0.253746 0.651740 0.121025
O O6 0.384865 0.519245 0.152899
O O7 0.313234 0.500000 0.000000
O O8 0.863447 0.220215 0.941658
O O9 0.876819 0.423523 0.828485
O O10 0.836678 0.500000 0.000000
O O11 0.000000 0.151368 0.876681
O O12 0.883800 0.990583 0.820772
O O13 0.929325 0.000000 0.000000
O O14 0.500000 0.885031 0.755319
O O15 0.393742 0.697200 0.713575
O O16 0.000000 0.504245 0.755172
#
# Coordination Sequence:
#
# PCOD8221352 Si02
#       6
#     8   8   8   8   8   8
#     4  10  21  37  61  92 126 159 206 260 315 377
#     4  11  23  41  63  89 128 171 205 257 320 391
#     4  11  25  41  62  91 130 169 209 259 311 383
#     4  10  21  39  64  91 124 163 210 261 310 366
#     4   9  19  36  61  94 122 155 203 261 318 367
#     4  11  22  39  66  93 121 159 215 266 316 377
#
# _framework density 20.609863000000001
#
# number of rings (size 3 to 8) (size 9 to 14) (size 15 to 20)
#    0.000    1.667    1.667    2.500    2.333    4.000 
#    0.000    0.000    0.000    0.000    0.000    0.000 
#    0.000    0.000    0.000    0.000    0.000    0.000 
#
# Total GULP energy -594683.593736 kJ/mol
# GULP energy per Si atom -12389.241536 kJ/mol
# Density = 2.056295 g / cm^3
# Si number density = 20.609863 Si / 1000 Ang^3
#
#
#
# Elastic Constant Matrix: (Units=GPa)
#
#
# Indices 1 2 3 4 5 6 
#
# 1 116.9244 53.0727 34.4406 0.0000 0.0000 0.0000
# 2 53.0727 106.4772 29.6814 0.0000 0.0000 0.0000
# 3 34.4406 29.6814 85.7948 0.0000 0.0000 0.0000
# 4 0.0000 0.0000 0.0000 44.7432 0.0000 0.0000
# 5 0.0000 0.0000 0.0000 0.0000 28.2770 0.0000
# 6 0.0000 0.0000 0.0000 0.0000 0.0000 30.7477
#
#
#
# Elastic Compliance Matrix: (Units=1/GPa)
#
#
# Indices 1 2 3 4 5 6 
#
# 1 0.011697 -0.005004 -0.002964 0.000000 0.000000 0.000000
# 2 -0.005004 0.012535 -0.002328 0.000000 0.000000 0.000000
# 3 -0.002964 -0.002328 0.013651 0.000000 0.000000 0.000000
# 4 0.000000 0.000000 0.000000 0.022350 0.000000 0.000000
# 5 0.000000 0.000000 0.000000 0.000000 0.035364 0.000000
# 6 0.000000 0.000000 0.000000 0.000000 0.000000 0.032523
#
#
# Mechanical properties :
#
#
# Convention : Reuss Voigt Hill
#
# Bulk Modulus (GPa) = 57.83485 60.39841 59.11663
# Shear Modulus (GPa) = 32.36761 33.55370 32.96066
#
# Velocity S-wave (km/s) = 3.96724 4.03928 4.00342
# Velocity P-wave (km/s) = 7.00771 7.15007 7.07925
#
# Compressibility (1/GPa) = 0.01729061
#
# Stress axis : x y z
#
# Youngs Moduli (GPa) = 85.49185 79.77835 73.25457
#
# Poissons Ratio (x) = 0.39921 0.21715
# Poissons Ratio (y) = 0.42780 0.17052
# Poissons Ratio (z) = 0.25343 0.18571
#
# Static dielectric constant tensor:
#      x y z
#    x 3.767410 0.000000 0.000000 
#    y 0.000000 3.759930 0.000000 
#    z 0.000000 0.000000 3.828500 
# 
# 
# High freq. dielectric constant tensor:
#      x y z
#    x 1.788720 0.000000 0.000000 
#    y 0.000000 1.811380 0.000000 
#    z 0.000000 0.000000 1.814440 
# 
# From -- ./inp_files/23677.got.cif
#   From: 2010.03.12/outbox.cif.g09.slc.cpg/sg53_12_cif.got.tgz:23677.got - 2010.04.16 14:36:59.
