data_PCOD8221867
_publ_section_title
;
Structure prediction by ZEFSAII (Michael W. Deem and Ramdas Pophale) SiO2 
 PCOD8221867
Probable space group: P M N A
;
_chemical_formula_sum "Si O2"
_cell_formula_units_Z 56
_cell_length_a 8.996188
_cell_length_b 22.523357
_cell_length_c 14.024679
_cell_angle_alpha 90.000000
_cell_angle_beta 90.000000
_cell_angle_gamma 90.000000
_cell_volume 2841.741522
_symmetry_space_group_name_H-M "P M N A"
_symmetry_group_IT_number 53
_symmetry_cell_setting 'orthorhombic'
loop_
_space_group_symop_operation_xyz
x,y,z
1/2-x,-y,1/2+z
x,-y,-z
1/2-x,y,1/2-z
-x,-y,-z
1/2+x,y,1/2-z
-x,y,z
1/2+x,-y,1/2+z
loop_
_atom_site_type_symbol
_atom_site_label
_atom_site_fract_x
_atom_site_fract_y
_atom_site_fract_z
Si Si1 0.332089 0.200633 0.535631
Si Si2 0.831179 0.906388 0.164682
Si Si3 0.325963 0.142833 0.346038
Si Si4 0.326559 0.530803 0.649827
Si Si5 0.824394 0.698341 0.353454
Si Si6 0.325176 0.410404 0.545803
Si Si7 0.166994 0.979296 0.607414
O O1 0.500000 0.224179 0.554784
O O2 0.316197 0.132624 0.570108
O O3 0.297978 0.195396 0.423204
O O4 0.216261 0.241927 0.590067
O O5 0.750000 0.869996 0.250000
O O6 0.000000 0.918323 0.191659
O O7 0.750243 0.969278 0.162991
O O8 0.250000 0.166330 0.250000
O O9 0.500000 0.132156 0.330733
O O10 0.254670 0.081369 0.379022
O O11 0.250000 0.547190 0.750000
O O12 0.500000 0.534689 0.668805
O O13 0.282801 0.465135 0.614501
O O14 0.282060 0.576057 0.564531
O O15 0.750000 0.696308 0.250000
O O16 0.770491 0.644614 0.419177
O O17 0.000000 0.695052 0.339245
O O18 0.500000 0.396365 0.553394
O O19 0.000000 0.970815 0.646875
O O20 0.164356 0.000000 0.500000
#
# Coordination Sequence:
#
# PCOD8221867 Si02
#       7
#     8   8   8   8   8   8   8
#     4  10  23  42  62  83 111 148 189 237 287 336
#     4  11  22  37  57  82 111 143 181 225 281 340
#     4  11  23  41  63  86 113 147 188 234 288 347
#     4   9  18  33  57  88 123 163 201 245 294 343
#     4  12  25  40  62  89 118 153 194 239 289 344
#     4   9  19  37  58  85 123 162 202 244 292 344
#     4  11  22  36  57  84 113 146 183 227 281 340
#
# _framework density 19.706226000000001
#
# number of rings (size 3 to 8) (size 9 to 14) (size 15 to 20)
#    0.000    1.571    1.429    4.714    0.000    6.286 
#    0.000    2.143    0.000    0.000    0.000    0.000 
#    0.000    0.000    0.000    0.000    0.000    0.000 
#
# Total GULP energy -694275.462091 kJ/mol
# GULP energy per Si atom -12397.776109 kJ/mol
# Density = 1.966137 g / cm^3
# Si number density = 19.706226 Si / 1000 Ang^3
#
#
#
# Elastic Constant Matrix: (Units=GPa)
#
#
# Indices 1 2 3 4 5 6 
#
# 1 138.3853 50.4719 68.2258 0.0000 0.0000 0.0000
# 2 50.4719 82.2326 45.2254 0.0000 0.0000 0.0000
# 3 68.2258 45.2254 144.3936 0.0000 0.0000 0.0000
# 4 0.0000 0.0000 0.0000 26.3258 0.0000 0.0000
# 5 0.0000 0.0000 0.0000 0.0000 37.0632 0.0000
# 6 0.0000 0.0000 0.0000 0.0000 0.0000 32.7785
#
#
#
# Elastic Compliance Matrix: (Units=1/GPa)
#
#
# Indices 1 2 3 4 5 6 
#
# 1 0.010672 -0.004563 -0.003613 0.000000 0.000000 0.000000
# 2 -0.004563 0.016642 -0.003057 0.000000 0.000000 0.000000
# 3 -0.003613 -0.003057 0.009590 0.000000 0.000000 0.000000
# 4 0.000000 0.000000 0.000000 0.037985 0.000000 0.000000
# 5 0.000000 0.000000 0.000000 0.000000 0.026981 0.000000
# 6 0.000000 0.000000 0.000000 0.000000 0.000000 0.030508
#
#
# Mechanical properties :
#
#
# Convention : Reuss Voigt Hill
#
# Bulk Modulus (GPa) = 69.25807 76.98419 73.12113
# Shear Modulus (GPa) = 31.31724 32.63939 31.97831
#
# Velocity S-wave (km/s) = 3.99081 4.07418 4.03271
# Velocity P-wave (km/s) = 7.51379 7.82832 7.67267
#
# Compressibility (1/GPa) = 0.01443875
#
# Stress axis : x y z
#
# Youngs Moduli (GPa) = 93.70545 60.08835 104.27391
#
# Poissons Ratio (x) = 0.27417 0.37677
# Poissons Ratio (y) = 0.42756 0.31872
# Poissons Ratio (z) = 0.33858 0.18366
#
# Static dielectric constant tensor:
#      x y z
#    x 3.644630 0.000000 0.000000 
#    y 0.000000 3.381510 0.000000 
#    z 0.000000 0.000000 3.890400 
# 
# 
# High freq. dielectric constant tensor:
#      x y z
#    x 1.772020 0.000000 0.000000 
#    y 0.000000 1.746420 0.000000 
#    z 0.000000 0.000000 1.787610 
# 
# From -- ./inp_files/20509.got.cif
#   From: 2010.03.12/outbox.cif.g09.slc.cpg/sg53_11_cif.got.tgz:20509.got - 2010.04.16 14:36:59.
