data_PCOD8221758
_publ_section_title
;
Structure prediction by ZEFSAII (Michael W. Deem and Ramdas Pophale) SiO2 
 PCOD8221758
Probable space group: P M N A
;
_chemical_formula_sum "Si O2"
_cell_formula_units_Z 32
_cell_length_a 10.443861
_cell_length_b 7.402361
_cell_length_c 17.985475
_cell_angle_alpha 90.000000
_cell_angle_beta 90.000000
_cell_angle_gamma 90.000000
_cell_volume 1390.443212
_symmetry_space_group_name_H-M "P M N A"
_symmetry_group_IT_number 53
_symmetry_cell_setting 'orthorhombic'
loop_
_space_group_symop_operation_xyz
x,y,z
1/2-x,-y,1/2+z
x,-y,-z
1/2-x,y,1/2-z
-x,-y,-z
1/2+x,y,1/2-z
-x,y,z
1/2+x,-y,1/2+z
loop_
_atom_site_type_symbol
_atom_site_label
_atom_site_fract_x
_atom_site_fract_y
_atom_site_fract_z
Si Si1 0.862663 0.943532 0.694077
Si Si2 0.716832 0.321915 0.833086
Si Si3 0.143239 0.661288 0.573127
Si Si4 0.145431 0.796521 0.028932
O O1 0.750000 0.897362 0.750000
O O2 0.831671 0.843500 0.617930
O O3 0.000000 0.876008 0.726500
O O4 0.879536 0.155047 0.676823
O O5 0.750000 0.389755 0.750000
O O6 0.652136 0.489828 0.873184
O O7 0.834508 0.235714 0.882182
O O8 0.250674 0.661639 0.508918
O O9 0.000000 0.662625 0.537551
O O10 0.000000 0.738701 0.008749
O O11 0.168986 0.000000 0.000000
#
# Coordination Sequence:
#
# PCOD8221758 Si02
#       4
#     8   8   8   8
#     4  10  22  40  63  96 137 181 226 281 338 401
#     4  11  24  43  70 102 139 181 229 284 345 410
#     4  11  24  43  69 101 136 178 229 284 342 409
#     4  11  25  47  73 102 138 184 233 284 344 409
#
# _framework density 23.014244000000001
#
# number of rings (size 3 to 8) (size 9 to 14) (size 15 to 20)
#    0.000    1.250    2.500    2.250    0.000   11.500 
#    0.000    0.000    0.000    0.000    0.000    0.000 
#    0.000    0.000    0.000    0.000    0.000    0.000 
#
# Total GULP energy -396486.472537 kJ/mol
# GULP energy per Si atom -12390.202267 kJ/mol
# Density = 2.296186 g / cm^3
# Si number density = 23.014244 Si / 1000 Ang^3
#
#
#
# Elastic Constant Matrix: (Units=GPa)
#
#
# Indices 1 2 3 4 5 6 
#
# 1 179.4393 21.9467 81.2953 0.0000 0.0000 0.0000
# 2 21.9467 52.4522 30.4785 0.0000 0.0000 0.0000
# 3 81.2953 30.4785 137.7474 0.0000 0.0000 0.0000
# 4 0.0000 0.0000 0.0000 35.7978 0.0000 0.0000
# 5 0.0000 0.0000 0.0000 0.0000 30.3920 0.0000
# 6 0.0000 0.0000 0.0000 0.0000 0.0000 66.9378
#
#
#
# Elastic Compliance Matrix: (Units=1/GPa)
#
#
# Indices 1 2 3 4 5 6 
#
# 1 0.007627 -0.000661 -0.004355 0.000000 0.000000 0.000000
# 2 -0.000661 0.021935 -0.004464 0.000000 0.000000 0.000000
# 3 -0.004355 -0.004464 0.010817 0.000000 0.000000 0.000000
# 4 0.000000 0.000000 0.000000 0.027935 0.000000 0.000000
# 5 0.000000 0.000000 0.000000 0.000000 0.032903 0.000000
# 6 0.000000 0.000000 0.000000 0.000000 0.000000 0.014939
#
#
# Mechanical properties :
#
#
# Convention : Reuss Voigt Hill
#
# Bulk Modulus (GPa) = 46.68306 70.78665 58.73485
# Shear Modulus (GPa) = 35.14810 42.35339 38.75074
#
# Velocity S-wave (km/s) = 3.91222 4.29454 4.10783
# Velocity P-wave (km/s) = 6.38246 7.44414 6.93365
#
# Compressibility (1/GPa) = 0.02142105
#
# Stress axis : x y z
#
# Youngs Moduli (GPa) = 131.11778 45.58914 92.44291
#
# Poissons Ratio (x) = 0.03012 0.40258
# Poissons Ratio (y) = 0.08661 0.41263
# Poissons Ratio (z) = 0.57101 0.20349
#
# Static dielectric constant tensor:
#      x y z
#    x 4.054880 0.000000 0.000000 
#    y 0.000000 4.215280 0.000000 
#    z 0.000000 0.000000 4.125920 
# 
# 
# High freq. dielectric constant tensor:
#      x y z
#    x 1.905150 0.000000 0.000000 
#    y 0.000000 1.926870 0.000000 
#    z 0.000000 0.000000 1.906320 
# 
# From -- ./inp_files/21355.got.cif
#   From: 2010.03.12/outbox.cif.g09.slc.cpg/sg53_11_cif.got.tgz:21355.got - 2010.04.16 14:36:59.
