data_PCOD8221888
_publ_section_title
;
Structure prediction by ZEFSAII (Michael W. Deem and Ramdas Pophale) SiO2 
 PCOD8221888
Probable space group: P M N A
;
_chemical_formula_sum "Si O2"
_cell_formula_units_Z 32
_cell_length_a 21.910799
_cell_length_b 7.915126
_cell_length_c 8.812584
_cell_angle_alpha 90.000000
_cell_angle_beta 90.000000
_cell_angle_gamma 90.000000
_cell_volume 1528.337669
_symmetry_space_group_name_H-M "P M N A"
_symmetry_group_IT_number 53
_symmetry_cell_setting 'orthorhombic'
loop_
_space_group_symop_operation_xyz
x,y,z
1/2-x,-y,1/2+z
x,-y,-z
1/2-x,y,1/2-z
-x,-y,-z
1/2+x,y,1/2-z
-x,y,z
1/2+x,-y,1/2+z
loop_
_atom_site_type_symbol
_atom_site_label
_atom_site_fract_x
_atom_site_fract_y
_atom_site_fract_z
Si Si1 0.184122 0.174875 0.322234
Si Si2 0.129712 0.497462 0.167516
Si Si3 0.000000 0.436053 0.255183
Si Si4 0.000000 0.759718 0.460976
Si Si5 0.130819 0.164029 0.644870
O O1 0.250000 0.149049 0.250000
O O2 0.159765 0.353805 0.267394
O O3 0.179147 0.183468 0.505835
O O4 0.145655 0.010499 0.266557
O O5 0.058776 0.449174 0.148943
O O6 0.139916 0.678667 0.243953
O O7 0.159103 0.500000 0.000000
O O8 0.000000 0.583035 0.377508
O O9 0.000000 0.265251 0.356434
O O10 0.938481 0.857678 0.414861
#
# Coordination Sequence:
#
# PCOD8221888 Si02
#       5
#     8   8   4   4   8
#     4  11  25  41  62  91 122 170 222 264 308 375
#     4  11  23  39  64  95 132 168 204 260 327 382
#     4   9  17  35  63  98 129 157 206 264 321 389
#     4   9  16  36  72  96 121 163 212 273 324 382
#     4  10  23  43  68  96 126 166 218 269 324 382
#
# _framework density 20.937781000000001
#
# number of rings (size 3 to 8) (size 9 to 14) (size 15 to 20)
#    0.000    1.750    2.500    1.125    0.000   11.000 
#    0.000    0.000    0.000    6.000    0.000    0.000 
#    0.000    0.000    0.000    0.000    0.000    0.000 
#
# Total GULP energy -396561.577160 kJ/mol
# GULP energy per Si atom -12392.549286 kJ/mol
# Density = 2.089013 g / cm^3
# Si number density = 20.937781 Si / 1000 Ang^3
#
#
#
# Elastic Constant Matrix: (Units=GPa)
#
#
# Indices 1 2 3 4 5 6 
#
# 1 95.2133 21.3691 16.0519 0.0000 0.0000 0.0000
# 2 21.3691 148.7718 33.7393 0.0000 0.0000 0.0000
# 3 16.0519 33.7393 89.4720 0.0000 0.0000 0.0000
# 4 0.0000 0.0000 0.0000 24.8935 0.0000 0.0000
# 5 0.0000 0.0000 0.0000 0.0000 20.2691 0.0000
# 6 0.0000 0.0000 0.0000 0.0000 0.0000 42.4537
#
#
#
# Elastic Compliance Matrix: (Units=1/GPa)
#
#
# Indices 1 2 3 4 5 6 
#
# 1 0.011036 -0.001242 -0.001511 0.000000 0.000000 0.000000
# 2 -0.001242 0.007490 -0.002602 0.000000 0.000000 0.000000
# 3 -0.001511 -0.002602 0.012429 0.000000 0.000000 0.000000
# 4 0.000000 0.000000 0.000000 0.040171 0.000000 0.000000
# 5 0.000000 0.000000 0.000000 0.000000 0.049336 0.000000
# 6 0.000000 0.000000 0.000000 0.000000 0.000000 0.023555
#
#
# Mechanical properties :
#
#
# Convention : Reuss Voigt Hill
#
# Bulk Modulus (GPa) = 49.39633 52.86418 51.13026
# Shear Modulus (GPa) = 30.96414 35.00970 32.98692
#
# Velocity S-wave (km/s) = 3.84977 4.09355 3.97353
# Velocity P-wave (km/s) = 6.58818 6.90260 6.74722
#
# Compressibility (1/GPa) = 0.02024442
#
# Stress axis : x y z
#
# Youngs Moduli (GPa) = 90.60923 133.50834 80.45770
#
# Poissons Ratio (x) = 0.16588 0.12161
# Poissons Ratio (y) = 0.11258 0.20932
# Poissons Ratio (z) = 0.13695 0.34733
#
# Static dielectric constant tensor:
#      x y z
#    x 4.044790 0.000000 0.000000 
#    y 0.000000 3.994670 0.000000 
#    z 0.000000 0.000000 3.574760 
# 
# 
# High freq. dielectric constant tensor:
#      x y z
#    x 1.814570 0.000000 0.000000 
#    y 0.000000 1.838030 0.000000 
#    z 0.000000 0.000000 1.802540 
# 
# From -- ./inp_files/10509.got.cif
#   From: 2010.03.12/outbox.cif.g09.slc.cpg/sg53_6_cif.got.tgz:10509.got - 2010.04.16 14:36:59.
