data_PCOD8221248
_publ_section_title
;
Structure prediction by ZEFSAII (Michael W. Deem and Ramdas Pophale) SiO2 
 PCOD8221248
Probable space group: P M N A
;
_chemical_formula_sum "Si O2"
_cell_formula_units_Z 48
_cell_length_a 8.739527
_cell_length_b 30.238441
_cell_length_c 9.370985
_cell_angle_alpha 90.000000
_cell_angle_beta 90.000000
_cell_angle_gamma 90.000000
_cell_volume 2476.467128
_symmetry_space_group_name_H-M "P M N A"
_symmetry_group_IT_number 53
_symmetry_cell_setting 'orthorhombic'
loop_
_space_group_symop_operation_xyz
x,y,z
1/2-x,-y,1/2+z
x,-y,-z
1/2-x,y,1/2-z
-x,-y,-z
1/2+x,y,1/2-z
-x,y,z
1/2+x,-y,1/2+z
loop_
_atom_site_type_symbol
_atom_site_label
_atom_site_fract_x
_atom_site_fract_y
_atom_site_fract_z
Si Si1 0.680588 0.958855 0.093113
Si Si2 0.180472 0.541614 0.904742
Si Si3 0.681116 0.630546 0.905576
Si Si4 0.677951 0.297898 0.601007
Si Si5 0.677820 0.804903 0.400448
Si Si6 0.680806 0.875728 0.904893
O O1 0.750000 0.959845 0.250000
O O2 0.500000 0.961367 0.109946
O O3 0.732436 0.914692 0.011212
O O4 0.741965 0.000000 0.000000
O O5 0.250000 0.533157 0.750000
O O6 0.253642 0.585565 0.977396
O O7 0.000000 0.548257 0.892127
O O8 0.225733 0.500000 0.000000
O O9 0.750000 0.633065 0.750000
O O10 0.500000 0.628650 0.900735
O O11 0.734278 0.674612 0.983025
O O12 0.750000 0.311998 0.750000
O O13 0.500000 0.309813 0.601073
O O14 0.706918 0.246514 0.569460
O O15 0.750000 0.819661 0.250000
O O16 0.500000 0.816806 0.394611
O O17 0.756631 0.830080 0.531069
O O18 0.750000 0.884754 0.750000
O O19 0.500000 0.872941 0.889435
#
# Coordination Sequence:
#
# PCOD8221248 Si02
#       6
#     8   8   8   8   8   8
#     4  10  22  39  59  85 115 149 189 232 281 335
#     4  10  21  37  57  81 110 144 184 229 276 330
#     4  11  22  37  58  82 112 148 185 229 279 332
#     4  10  21  38  59  84 113 146 186 230 278 332
#     4  10  21  38  60  84 113 148 186 231 280 333
#     4  11  23  38  58  84 115 150 190 235 282 335
#
# _framework density 19.382449999999999
#
# number of rings (size 3 to 8) (size 9 to 14) (size 15 to 20)
#    0.000    1.667    0.000    5.500    0.000    7.667 
#    0.000    1.667    0.000    0.000    0.000    0.000 
#    0.000    0.000    0.000    0.000    0.000    0.000 
#
# Total GULP energy -595376.397094 kJ/mol
# GULP energy per Si atom -12403.674939 kJ/mol
# Density = 1.933833 g / cm^3
# Si number density = 19.382450 Si / 1000 Ang^3
#
#
#
# Elastic Constant Matrix: (Units=GPa)
#
#
# Indices 1 2 3 4 5 6 
#
# 1 113.9411 60.6304 59.6223 0.0000 0.0000 0.0000
# 2 60.6304 109.8795 70.1894 0.0000 0.0000 0.0000
# 3 59.6223 70.1894 124.7098 0.0000 0.0000 0.0000
# 4 0.0000 0.0000 0.0000 41.6211 0.0000 0.0000
# 5 0.0000 0.0000 0.0000 0.0000 39.3292 0.0000
# 6 0.0000 0.0000 0.0000 0.0000 0.0000 26.7503
#
#
#
# Elastic Compliance Matrix: (Units=1/GPa)
#
#
# Indices 1 2 3 4 5 6 
#
# 1 0.013330 -0.005128 -0.003487 0.000000 0.000000 0.000000
# 2 -0.005128 0.016182 -0.006656 0.000000 0.000000 0.000000
# 3 -0.003487 -0.006656 0.013432 0.000000 0.000000 0.000000
# 4 0.000000 0.000000 0.000000 0.024026 0.000000 0.000000
# 5 0.000000 0.000000 0.000000 0.000000 0.025426 0.000000
# 6 0.000000 0.000000 0.000000 0.000000 0.000000 0.037383
#
#
# Mechanical properties :
#
#
# Convention : Reuss Voigt Hill
#
# Bulk Modulus (GPa) = 80.63056 81.04608 80.83832
# Shear Modulus (GPa) = 30.40355 32.07933 31.24144
#
# Velocity S-wave (km/s) = 3.96487 4.07267 4.01913
# Velocity P-wave (km/s) = 7.91520 8.00128 7.95835
#
# Compressibility (1/GPa) = 0.01240225
#
# Stress axis : x y z
#
# Youngs Moduli (GPa) = 75.02103 61.79603 74.45053
#
# Poissons Ratio (x) = 0.31689 0.25958
# Poissons Ratio (y) = 0.38470 0.49555
# Poissons Ratio (z) = 0.26157 0.41132
#
# Static dielectric constant tensor:
#      x y z
#    x 3.644070 0.000000 0.000000 
#    y 0.000000 3.839450 0.000000 
#    z 0.000000 0.000000 3.488480 
# 
# 
# High freq. dielectric constant tensor:
#      x y z
#    x 1.768810 0.000000 0.000000 
#    y 0.000000 1.769030 0.000000 
#    z 0.000000 0.000000 1.754000 
# 
# From -- ./inp_files/6683.got.cif
#   From: 2010.03.12/outbox.cif.g09.slc.cpg/sg53_4_cif.got.tgz:6683.got - 2010.04.16 14:36:59.
