data_PCOD8221129
_publ_section_title
;
Structure prediction by ZEFSAII (Michael W. Deem and Ramdas Pophale) SiO2 
 PCOD8221129
Probable space group: P M N A
;
_chemical_formula_sum "Si O2"
_cell_formula_units_Z 48
_cell_length_a 9.035254
_cell_length_b 30.741812
_cell_length_c 9.036244
_cell_angle_alpha 90.000000
_cell_angle_beta 90.000000
_cell_angle_gamma 90.000000
_cell_volume 2509.907855
_symmetry_space_group_name_H-M "P M N A"
_symmetry_group_IT_number 53
_symmetry_cell_setting 'orthorhombic'
loop_
_space_group_symop_operation_xyz
x,y,z
1/2-x,-y,1/2+z
x,-y,-z
1/2-x,y,1/2-z
-x,-y,-z
1/2+x,y,1/2-z
-x,y,z
1/2+x,-y,1/2+z
loop_
_atom_site_type_symbol
_atom_site_label
_atom_site_fract_x
_atom_site_fract_y
_atom_site_fract_z
Si Si1 0.827996 0.298007 0.594757
Si Si2 0.674390 0.617181 0.908791
Si Si3 0.329368 0.543110 0.404154
Si Si4 0.327632 0.960946 0.096482
Si Si5 0.174829 0.216213 0.406386
Si Si6 0.327785 0.864504 0.094392
O O1 0.750000 0.306278 0.750000
O O2 0.791102 0.336401 0.481084
O O3 0.772000 0.253479 0.519639
O O4 0.000000 0.295546 0.630160
O O5 0.750000 0.615134 0.750000
O O6 0.500000 0.608645 0.890902
O O7 0.743754 0.581283 0.014234
O O8 0.318538 0.500000 0.500000
O O9 0.250000 0.533562 0.250000
O O10 0.500000 0.556652 0.377802
O O11 0.250000 0.964873 0.250000
O O12 0.500000 0.968319 0.120920
O O13 0.294970 0.912903 0.029532
O O14 0.260007 0.000000 0.000000
O O15 0.250000 0.223867 0.250000
O O16 0.228012 0.170048 0.473291
O O17 0.000000 0.218080 0.382145
O O18 0.250000 0.856271 0.250000
O O19 0.500000 0.857845 0.125844
#
# Coordination Sequence:
#
# PCOD8221129 Si02
#       6
#     8   8   8   8   8   8
#     4  10  22  38  57  82 110 142 180 222 267 318
#     4  11  23  39  60  86 116 149 186 228 275 325
#     4  11  24  41  62  88 118 152 190 232 277 326
#     4   9  18  32  49  71 100 132 168 212 259 308
#     4  10  21  36  53  77 107 137 173 216 263 314
#     4   9  18  33  52  73  99 133 172 213 258 310
#
# _framework density 19.124207999999999
#
# number of rings (size 3 to 8) (size 9 to 14) (size 15 to 20)
#    0.000    2.000    0.000    3.000    0.000    7.667 
#    0.000    0.000    0.000    0.000    0.000    0.000 
#    0.000    0.000    0.000    0.000    0.000    0.000 
#
# Total GULP energy -595245.006092 kJ/mol
# GULP energy per Si atom -12400.937627 kJ/mol
# Density = 1.908068 g / cm^3
# Si number density = 19.124208 Si / 1000 Ang^3
#
#
#
# Elastic Constant Matrix: (Units=GPa)
#
#
# Indices 1 2 3 4 5 6 
#
# 1 71.1391 49.9913 53.4596 0.0000 0.0000 0.0000
# 2 49.9913 121.0339 44.3228 0.0000 0.0000 0.0000
# 3 53.4596 44.3228 110.2991 0.0000 0.0000 0.0000
# 4 0.0000 0.0000 0.0000 42.3942 0.0000 0.0000
# 5 0.0000 0.0000 0.0000 0.0000 36.0025 0.0000
# 6 0.0000 0.0000 0.0000 0.0000 0.0000 45.6491
#
#
#
# Elastic Compliance Matrix: (Units=1/GPa)
#
#
# Indices 1 2 3 4 5 6 
#
# 1 0.026771 -0.007394 -0.010004 0.000000 0.000000 0.000000
# 2 -0.007394 0.011730 -0.001130 0.000000 0.000000 0.000000
# 3 -0.010004 -0.001130 0.014369 0.000000 0.000000 0.000000
# 4 0.000000 0.000000 0.000000 0.023588 0.000000 0.000000
# 5 0.000000 0.000000 0.000000 0.000000 0.027776 0.000000
# 6 0.000000 0.000000 0.000000 0.000000 0.000000 0.021906
#
#
# Mechanical properties :
#
#
# Convention : Reuss Voigt Hill
#
# Bulk Modulus (GPa) = 63.23491 66.44664 64.84078
# Shear Modulus (GPa) = 29.67952 35.12237 32.40095
#
# Velocity S-wave (km/s) = 3.94373 4.29014 4.12058
# Velocity P-wave (km/s) = 7.33993 7.70458 7.52446
#
# Compressibility (1/GPa) = 0.01581405
#
# Stress axis : x y z
#
# Youngs Moduli (GPa) = 37.35450 85.25291 69.59397
#
# Poissons Ratio (x) = 0.63033 0.69622
# Poissons Ratio (y) = 0.27619 0.07864
# Poissons Ratio (z) = 0.37369 0.09633
#
# Static dielectric constant tensor:
#      x y z
#    x 3.548950 0.000000 0.000000 
#    y 0.000000 4.108080 0.000000 
#    z 0.000000 0.000000 3.274110 
# 
# 
# High freq. dielectric constant tensor:
#      x y z
#    x 1.742900 0.000000 0.000000 
#    y 0.000000 1.765240 0.000000 
#    z 0.000000 0.000000 1.745710 
# 
# From -- ./inp_files/6579.got.cif
#   From: 2010.03.12/outbox.cif.g09.slc.cpg/sg53_4_cif.got.tgz:6579.got - 2010.04.16 14:36:59.
