data_PCOD8221291
_publ_section_title
;
Structure prediction by ZEFSAII (Michael W. Deem and Ramdas Pophale) SiO2 
 PCOD8221291
Probable space group: P M N A
;
_chemical_formula_sum "Si O2"
_cell_formula_units_Z 40
_cell_length_a 8.667872
_cell_length_b 25.536433
_cell_length_c 9.109078
_cell_angle_alpha 90.000000
_cell_angle_beta 90.000000
_cell_angle_gamma 90.000000
_cell_volume 2016.262830
_symmetry_space_group_name_H-M "P M N A"
_symmetry_group_IT_number 53
_symmetry_cell_setting 'orthorhombic'
loop_
_space_group_symop_operation_xyz
x,y,z
1/2-x,-y,1/2+z
x,-y,-z
1/2-x,y,1/2-z
-x,-y,-z
1/2+x,y,1/2-z
-x,y,z
1/2+x,-y,1/2+z
loop_
_atom_site_type_symbol
_atom_site_label
_atom_site_fract_x
_atom_site_fract_y
_atom_site_fract_z
Si Si1 0.817615 0.341401 0.089217
Si Si2 0.817868 0.949386 0.089089
Si Si3 0.318276 0.550228 0.907023
Si Si4 0.679404 0.145206 0.089402
Si Si5 0.820211 0.248815 0.592810
O O1 0.750000 0.329120 0.250000
O O2 0.759217 0.397334 0.028172
O O3 0.000000 0.341457 0.102558
O O4 0.765132 0.298970 0.971798
O O5 0.750000 0.952575 0.250000
O O6 0.000000 0.947586 0.101048
O O7 0.761292 0.897714 0.009092
O O8 0.760377 0.000000 0.000000
O O9 0.250000 0.538248 0.750000
O O10 0.500000 0.559394 0.898867
O O11 0.271789 0.500000 0.000000
O O12 0.750000 0.145551 0.250000
O O13 0.500000 0.131621 0.099884
O O14 0.709777 0.201117 0.016791
O O15 0.750000 0.234240 0.750000
O O16 0.000000 0.261222 0.610107
#
# Coordination Sequence:
#
# PCOD8221291 Si02
#       5
#     8   8   8   8   8
#     4  11  22  38  61  86 116 154 195 241 292 348
#     4  11  24  41  63  91 124 161 201 247 297 351
#     4  10  21  37  58  84 115 151 193 240 290 347
#     4  11  24  41  64  91 121 158 199 245 295 351
#     4  11  24  41  61  88 120 154 195 242 294 350
#
# _framework density 19.838685000000002
#
# number of rings (size 3 to 8) (size 9 to 14) (size 15 to 20)
#    0.000    1.200    0.000    7.200    0.000   12.000 
#    0.000    2.000    0.000    0.000    0.000    0.000 
#    0.000    0.000    0.000    0.000    0.000    0.000 
#
# Total GULP energy -496204.692769 kJ/mol
# GULP energy per Si atom -12405.117319 kJ/mol
# Density = 1.979353 g / cm^3
# Si number density = 19.838685 Si / 1000 Ang^3
#
#
#
# Elastic Constant Matrix: (Units=GPa)
#
#
# Indices 1 2 3 4 5 6 
#
# 1 105.4775 57.9963 45.8309 0.0000 0.0000 0.0000
# 2 57.9963 119.3505 59.5760 0.0000 0.0000 0.0000
# 3 45.8309 59.5760 128.1850 0.0000 0.0000 0.0000
# 4 0.0000 0.0000 0.0000 70.3709 0.0000 0.0000
# 5 0.0000 0.0000 0.0000 0.0000 39.4435 0.0000
# 6 0.0000 0.0000 0.0000 0.0000 0.0000 35.6897
#
#
#
# Elastic Compliance Matrix: (Units=1/GPa)
#
#
# Indices 1 2 3 4 5 6 
#
# 1 0.013441 -0.005381 -0.002305 0.000000 0.000000 0.000000
# 2 -0.005381 0.013064 -0.004148 0.000000 0.000000 0.000000
# 3 -0.002305 -0.004148 0.010553 0.000000 0.000000 0.000000
# 4 0.000000 0.000000 0.000000 0.014210 0.000000 0.000000
# 5 0.000000 0.000000 0.000000 0.000000 0.025353 0.000000
# 6 0.000000 0.000000 0.000000 0.000000 0.000000 0.028019
#
#
# Mechanical properties :
#
#
# Convention : Reuss Voigt Hill
#
# Bulk Modulus (GPa) = 74.67767 75.53547 75.10657
# Shear Modulus (GPa) = 37.65901 41.74148 39.70024
#
# Velocity S-wave (km/s) = 4.36163 4.59196 4.47828
# Velocity P-wave (km/s) = 7.94288 8.14078 8.04244
#
# Compressibility (1/GPa) = 0.01339088
#
# Stress axis : x y z
#
# Youngs Moduli (GPa) = 74.40060 76.54717 94.75983
#
# Poissons Ratio (x) = 0.41189 0.21840
# Poissons Ratio (y) = 0.40034 0.39304
# Poissons Ratio (z) = 0.17147 0.31750
#
# Static dielectric constant tensor:
#      x y z
#    x 3.830670 0.000000 0.000000 
#    y 0.000000 3.921010 0.000000 
#    z 0.000000 0.000000 3.576020 
# 
# 
# High freq. dielectric constant tensor:
#      x y z
#    x 1.793870 0.000000 0.000000 
#    y 0.000000 1.792380 0.000000 
#    z 0.000000 0.000000 1.781090 
# 
# From -- ./inp_files/6291.got.cif
#   From: 2010.03.12/outbox.cif.g09.slc.cpg/sg53_4_cif.got.tgz:6291.got - 2010.04.16 14:36:59.
