data_PCOD8221945
_publ_section_title
;
Structure prediction by ZEFSAII (Michael W. Deem and Ramdas Pophale) SiO2 
 PCOD8221945
Probable space group: P M N A
;
_chemical_formula_sum "Si O2"
_cell_formula_units_Z 24
_cell_length_a 13.326645
_cell_length_b 6.862638
_cell_length_c 13.491466
_cell_angle_alpha 90.000000
_cell_angle_beta 90.000000
_cell_angle_gamma 90.000000
_cell_volume 1233.874710
_symmetry_space_group_name_H-M "P M N A"
_symmetry_group_IT_number 53
_symmetry_cell_setting 'orthorhombic'
loop_
_space_group_symop_operation_xyz
x,y,z
1/2-x,-y,1/2+z
x,-y,-z
1/2-x,y,1/2-z
-x,-y,-z
1/2+x,y,1/2-z
-x,y,z
1/2+x,-y,1/2+z
loop_
_atom_site_type_symbol
_atom_site_label
_atom_site_fract_x
_atom_site_fract_y
_atom_site_fract_z
Si Si1 0.000000 0.784276 0.041678
Si Si2 0.329627 0.500000 0.500000
Si Si3 0.000000 0.899594 0.606719
Si Si4 0.637675 0.449147 0.106838
Si Si5 0.500000 0.283307 0.773979
O O1 0.898405 0.690129 0.000403
O O2 0.000000 0.745376 0.157665
O O3 0.000000 0.000000 0.000000
O O4 0.258753 0.471519 0.402124
O O5 0.100231 0.771087 0.627437
O O6 0.000000 0.000000 0.500000
O O7 0.000000 0.066010 0.687251
O O8 0.598331 0.597840 0.190462
O O9 0.588584 0.500000 0.000000
#
# Coordination Sequence:
#
# PCOD8221945 Si02
#       5
#     4   4   4   8   4
#     4  11  26  43  58  81 126 176 202 242 305 370
#     4   9  22  45  62  76 122 159 208 253 304 358
#     4  11  15  30  61  97 125 143 188 257 316 356
#     4   9  19  36  63  91 114 157 197 262 318 335
#     4  11  21  36  61  96 124 153 205 252 303 376
#
# _framework density 19.45092
#
# number of rings (size 3 to 8) (size 9 to 14) (size 15 to 20)
#    1.000    1.000    3.333    1.000    0.000   10.667 
#    0.000    0.000    0.000    0.000    0.000    0.000 
#    0.000    0.000    0.000    0.000    0.000    0.000 
#
# Total GULP energy -297316.815268 kJ/mol
# GULP energy per Si atom -12388.200636 kJ/mol
# Density = 1.940665 g / cm^3
# Si number density = 19.450920 Si / 1000 Ang^3
#
#
#
# Elastic Constant Matrix: (Units=GPa)
#
#
# Indices 1 2 3 4 5 6 
#
# 1 175.7034 78.0479 39.4066 0.0000 0.0000 0.0000
# 2 78.0479 177.4424 47.6885 0.0000 0.0000 0.0000
# 3 39.4066 47.6885 96.2619 0.0000 0.0000 0.0000
# 4 0.0000 0.0000 0.0000 29.8679 0.0000 0.0000
# 5 0.0000 0.0000 0.0000 0.0000 10.1835 0.0000
# 6 0.0000 0.0000 0.0000 0.0000 0.0000 9.4716
#
#
#
# Elastic Compliance Matrix: (Units=1/GPa)
#
#
# Indices 1 2 3 4 5 6 
#
# 1 0.007283 -0.002771 -0.001609 0.000000 0.000000 0.000000
# 2 -0.002771 0.007556 -0.002609 0.000000 0.000000 0.000000
# 3 -0.001609 -0.002609 0.012339 0.000000 0.000000 0.000000
# 4 0.000000 0.000000 0.000000 0.033481 0.000000 0.000000
# 5 0.000000 0.000000 0.000000 0.000000 0.098198 0.000000
# 6 0.000000 0.000000 0.000000 0.000000 0.000000 0.105579
#
#
# Mechanical properties :
#
#
# Convention : Reuss Voigt Hill
#
# Bulk Modulus (GPa) = 75.75166 86.63265 81.19215
# Shear Modulus (GPa) = 17.67953 28.85558 23.26756
#
# Velocity S-wave (km/s) = 3.01812 3.85581 3.46239
# Velocity P-wave (km/s) = 7.15367 8.02863 7.60374
#
# Compressibility (1/GPa) = 0.01320103
#
# Stress axis : x y z
#
# Youngs Moduli (GPa) = 137.30320 132.35193 81.04257
#
# Poissons Ratio (x) = 0.36677 0.13037
# Poissons Ratio (y) = 0.38049 0.21141
# Poissons Ratio (z) = 0.22087 0.34526
#
# Static dielectric constant tensor:
#      x y z
#    x 3.500910 0.000000 0.000000 
#    y 0.000000 3.436330 0.000000 
#    z 0.000000 0.000000 3.549640 
# 
# 
# High freq. dielectric constant tensor:
#      x y z
#    x 1.757460 0.000000 0.000000 
#    y 0.000000 1.762630 0.000000 
#    z 0.000000 0.000000 1.738990 
# 
# From -- ./inp_files/22032.got.cif
#   From: 2010.03.12/outbox.cif.g09.slc.cpg/sg53_12_cif.got.tgz:22032.got - 2010.04.16 14:36:59.
