data_PCOD8221375
_publ_section_title
;
Structure prediction by ZEFSAII (Michael W. Deem and Ramdas Pophale) SiO2 
 PCOD8221375
Probable space group: P M N A
;
_chemical_formula_sum "Si O2"
_cell_formula_units_Z 56
_cell_length_a 9.184267
_cell_length_b 14.728528
_cell_length_c 20.098540
_cell_angle_alpha 90.000000
_cell_angle_beta 90.000000
_cell_angle_gamma 90.000000
_cell_volume 2718.744251
_symmetry_space_group_name_H-M "P M N A"
_symmetry_group_IT_number 53
_symmetry_cell_setting 'orthorhombic'
loop_
_space_group_symop_operation_xyz
x,y,z
1/2-x,-y,1/2+z
x,-y,-z
1/2-x,y,1/2-z
-x,-y,-z
1/2+x,y,1/2-z
-x,y,z
1/2+x,-y,1/2+z
loop_
_atom_site_type_symbol
_atom_site_label
_atom_site_fract_x
_atom_site_fract_y
_atom_site_fract_z
Si Si1 0.164230 0.988287 0.692475
Si Si2 0.162306 0.899032 0.003058
Si Si3 0.671595 0.646240 0.818645
Si Si4 0.328344 0.497267 0.924026
Si Si5 0.337953 0.180288 0.105224
Si Si6 0.825817 0.348355 0.682586
Si Si7 0.165622 0.163565 0.848196
O O1 0.250000 0.933064 0.750000
O O2 0.260508 0.077544 0.684963
O O3 0.000000 0.014351 0.712485
O O4 0.164599 0.923407 0.629400
O O5 0.241578 0.821564 0.960334
O O6 0.000000 0.910207 0.974297
O O7 0.164585 0.854478 0.074281
O O8 0.235780 0.000000 0.000000
O O9 0.750000 0.619696 0.750000
O O10 0.500000 0.635405 0.805918
O O11 0.724402 0.582843 0.879825
O O12 0.717641 0.748513 0.839556
O O13 0.500000 0.500352 0.931440
O O14 0.281529 0.408115 0.882045
O O15 0.261523 0.500000 0.000000
O O16 0.500000 0.210470 0.084409
O O17 0.750000 0.387572 0.750000
O O18 0.764993 0.248432 0.670020
O O19 0.000000 0.347048 0.692474
O O20 0.000000 0.177653 0.822064
#
# Coordination Sequence:
#
# PCOD8221375 Si02
#       7
#     8   8   8   8   8   8   8
#     4  11  22  36  54  81 115 153 197 243 292 345
#     4  10  21  38  58  82 115 158 199 244 302 354
#     4  10  21  39  63  91 122 157 199 245 297 355
#     4   9  20  39  64  93 122 156 197 243 297 357
#     4  10  22  36  57  87 117 153 198 245 290 350
#     4  11  23  40  65  92 121 159 200 248 302 356
#     4  11  23  39  59  84 118 156 198 245 297 357
#
# _framework density 20.597743999999999
#
# number of rings (size 3 to 8) (size 9 to 14) (size 15 to 20)
#    0.000    1.714    1.429    2.571    2.000    2.571 
#    0.000    0.714    0.000    2.143    0.000    0.000 
#    0.000    0.000    0.000    0.000    0.000    0.000 
#
# Total GULP energy -694051.651971 kJ/mol
# GULP energy per Si atom -12393.779499 kJ/mol
# Density = 2.055086 g / cm^3
# Si number density = 20.597744 Si / 1000 Ang^3
#
#
#
# Elastic Constant Matrix: (Units=GPa)
#
#
# Indices 1 2 3 4 5 6 
#
# 1 90.2321 30.9980 49.5834 0.0000 0.0000 0.0000
# 2 30.9980 98.2958 43.5729 0.0000 0.0000 0.0000
# 3 49.5834 43.5729 139.1980 0.0000 0.0000 0.0000
# 4 0.0000 0.0000 0.0000 32.5435 0.0000 0.0000
# 5 0.0000 0.0000 0.0000 0.0000 31.3357 0.0000
# 6 0.0000 0.0000 0.0000 0.0000 0.0000 19.6518
#
#
#
# Elastic Compliance Matrix: (Units=1/GPa)
#
#
# Indices 1 2 3 4 5 6 
#
# 1 0.014339 -0.002621 -0.004287 0.000000 0.000000 0.000000
# 2 -0.002621 0.012292 -0.002914 0.000000 0.000000 0.000000
# 3 -0.004287 -0.002914 0.009623 0.000000 0.000000 0.000000
# 4 0.000000 0.000000 0.000000 0.030728 0.000000 0.000000
# 5 0.000000 0.000000 0.000000 0.000000 0.031912 0.000000
# 6 0.000000 0.000000 0.000000 0.000000 0.000000 0.050886
#
#
# Mechanical properties :
#
#
# Convention : Reuss Voigt Hill
#
# Bulk Modulus (GPa) = 60.20797 64.00381 62.10589
# Shear Modulus (GPa) = 28.57776 30.27765 29.42771
#
# Velocity S-wave (km/s) = 3.72885 3.83815 3.78390
# Velocity P-wave (km/s) = 6.91614 7.12619 7.02195
#
# Compressibility (1/GPa) = 0.01660910
#
# Stress axis : x y z
#
# Youngs Moduli (GPa) = 69.74058 81.35546 103.91544
#
# Poissons Ratio (x) = 0.21327 0.44549
# Poissons Ratio (y) = 0.18282 0.30280
# Poissons Ratio (z) = 0.29898 0.23706
#
# Static dielectric constant tensor:
#      x y z
#    x 3.730740 0.000000 0.000000 
#    y 0.000000 3.724730 0.000000 
#    z 0.000000 0.000000 4.001410 
# 
# 
# High freq. dielectric constant tensor:
#      x y z
#    x 1.788940 0.000000 0.000000 
#    y 0.000000 1.805800 0.000000 
#    z 0.000000 0.000000 1.819220 
# 
# From -- ./inp_files/30756.got.cif
#   From: 2010.03.12/outbox.cif.g09.slc.cpg/sg53_16_cif.got.tgz:30756.got - 2010.04.16 14:36:59.
