data_PCOD8221915
_publ_section_title
;
Structure prediction by ZEFSAII (Michael W. Deem and Ramdas Pophale) SiO2 
 PCOD8221915
Probable space group: P M N A
;
_chemical_formula_sum "Si O2"
_cell_formula_units_Z 48
_cell_length_a 8.830163
_cell_length_b 10.153694
_cell_length_c 27.728573
_cell_angle_alpha 90.000000
_cell_angle_beta 90.000000
_cell_angle_gamma 90.000000
_cell_volume 2486.109834
_symmetry_space_group_name_H-M "P M N A"
_symmetry_group_IT_number 53
_symmetry_cell_setting 'orthorhombic'
loop_
_space_group_symop_operation_xyz
x,y,z
1/2-x,-y,1/2+z
x,-y,-z
1/2-x,y,1/2-z
-x,-y,-z
1/2+x,y,1/2-z
-x,y,z
1/2+x,-y,1/2+z
loop_
_atom_site_type_symbol
_atom_site_label
_atom_site_fract_x
_atom_site_fract_y
_atom_site_fract_z
Si Si1 0.821609 0.712253 0.843633
Si Si2 0.824481 0.365666 0.439332
Si Si3 0.678933 0.541688 0.199945
Si Si4 0.824798 0.669640 0.452917
Si Si5 0.322246 0.009880 0.301355
Si Si6 0.322721 0.238628 0.636543
O O1 0.778441 0.706076 0.899862
O O2 0.734695 0.603965 0.812545
O O3 0.766655 0.851837 0.822849
O O4 0.000000 0.691231 0.837731
O O5 0.782691 0.519074 0.441268
O O6 0.789844 0.299584 0.491097
O O7 0.000000 0.348523 0.425324
O O8 0.750000 0.590207 0.250000
O O9 0.500000 0.541238 0.204521
O O10 0.729323 0.640924 0.158585
O O11 0.722317 0.765672 0.419984
O O12 0.000000 0.696256 0.441676
O O13 0.250000 0.979828 0.250000
O O14 0.500000 0.009763 0.294022
O O15 0.272011 0.896937 0.338681
O O16 0.500000 0.265080 0.642915
#
# Coordination Sequence:
#
# PCOD8221915 Si02
#       6
#     8   8   8   8   8   8
#     4  11  22  38  59  86 116 150 192 237 287 343
#     4   9  18  34  57  86 119 152 189 235 285 338
#     4  12  24  38  57  84 115 146 188 241 289 339
#     4   9  18  34  57  86 119 152 189 235 285 338
#     4  10  24  42  59  82 115 153 194 237 285 342
#     4  11  22  38  59  86 116 150 192 237 287 343
#
# _framework density 19.307272000000001
#
# number of rings (size 3 to 8) (size 9 to 14) (size 15 to 20)
#    0.000    1.667    1.667    4.500    0.000    6.000 
#    0.000    2.500    0.000    5.000    0.000    0.000 
#    0.000    0.000    0.000    0.000    0.000    0.000 
#
# Total GULP energy -595385.922662 kJ/mol
# GULP energy per Si atom -12403.873389 kJ/mol
# Density = 1.926333 g / cm^3
# Si number density = 19.307272 Si / 1000 Ang^3
#
#
#
# Elastic Constant Matrix: (Units=GPa)
#
#
# Indices 1 2 3 4 5 6 
#
# 1 77.8473 23.9775 25.1533 0.0000 0.0000 0.0000
# 2 23.9775 64.4990 4.5353 0.0000 0.0000 0.0000
# 3 25.1533 4.5353 85.3746 0.0000 0.0000 0.0000
# 4 0.0000 0.0000 0.0000 20.5037 0.0000 0.0000
# 5 0.0000 0.0000 0.0000 0.0000 38.5017 0.0000
# 6 0.0000 0.0000 0.0000 0.0000 0.0000 13.1933
#
#
#
# Elastic Compliance Matrix: (Units=1/GPa)
#
#
# Indices 1 2 3 4 5 6 
#
# 1 0.016011 -0.005641 -0.004417 0.000000 0.000000 0.000000
# 2 -0.005641 0.017550 0.000730 0.000000 0.000000 0.000000
# 3 -0.004417 0.000730 0.012976 0.000000 0.000000 0.000000
# 4 0.000000 0.000000 0.000000 0.048772 0.000000 0.000000
# 5 0.000000 0.000000 0.000000 0.000000 0.025973 0.000000
# 6 0.000000 0.000000 0.000000 0.000000 0.000000 0.075796
#
#
# Mechanical properties :
#
#
# Convention : Reuss Voigt Hill
#
# Bulk Modulus (GPa) = 35.87006 37.22813 36.54909
# Shear Modulus (GPa) = 22.21949 26.04338 24.13143
#
# Velocity S-wave (km/s) = 3.39608 3.67671 3.53917
# Velocity P-wave (km/s) = 5.83066 6.11130 5.97263
#
# Compressibility (1/GPa) = 0.02787841
#
# Stress axis : x y z
#
# Youngs Moduli (GPa) = 62.45893 56.98018 77.06667
#
# Poissons Ratio (x) = 0.32144 0.34043
# Poissons Ratio (y) = 0.35235 -0.05624
# Poissons Ratio (z) = 0.27591 -0.04158
#
# Static dielectric constant tensor:
#      x y z
#    x 3.442380 0.000000 0.000000 
#    y 0.000000 3.461630 0.000000 
#    z 0.000000 0.000000 3.775000 
# 
# 
# High freq. dielectric constant tensor:
#      x y z
#    x 1.751000 0.000000 0.000000 
#    y 0.000000 1.732300 0.000000 
#    z 0.000000 0.000000 1.769180 
# 
# From -- ./inp_files/13013.got.cif
#   From: 2010.03.12/outbox.cif.g09.slc.cpg/sg53_7_cif.got.tgz:13013.got - 2010.04.16 14:36:59.
