data_PCOD8221820
_publ_section_title
;
Structure prediction by ZEFSAII (Michael W. Deem and Ramdas Pophale) SiO2 
 PCOD8221820
Probable space group: P M N A
;
_chemical_formula_sum "Si O2"
_cell_formula_units_Z 40
_cell_length_a 17.205701
_cell_length_b 12.722117
_cell_length_c 8.538446
_cell_angle_alpha 90.000000
_cell_angle_beta 90.000000
_cell_angle_gamma 90.000000
_cell_volume 1869.005558
_symmetry_space_group_name_H-M "P M N A"
_symmetry_group_IT_number 53
_symmetry_cell_setting 'orthorhombic'
loop_
_space_group_symop_operation_xyz
x,y,z
1/2-x,-y,1/2+z
x,-y,-z
1/2-x,y,1/2-z
-x,-y,-z
1/2+x,y,1/2-z
-x,y,z
1/2+x,-y,1/2+z
loop_
_atom_site_type_symbol
_atom_site_label
_atom_site_fract_x
_atom_site_fract_y
_atom_site_fract_z
Si Si1 0.662092 0.583626 0.202058
Si Si2 0.588124 0.832418 0.683126
Si Si3 0.912405 0.217333 0.824816
Si Si4 0.908668 0.375358 0.370937
Si Si5 0.169180 0.970403 0.320955
O O1 0.750000 0.556303 0.250000
O O2 0.637655 0.677461 0.315496
O O3 0.610602 0.479097 0.231458
O O4 0.647187 0.622551 0.023314
O O5 0.500000 0.860139 0.730082
O O6 0.597290 0.825409 0.498316
O O7 0.613874 0.725297 0.767918
O O8 0.643176 0.926375 0.730565
O O9 0.888918 0.127287 0.700854
O O10 0.000000 0.248347 0.784085
O O11 0.000000 0.375399 0.417789
O O12 0.250000 0.931398 0.250000
O O13 0.176760 0.000000 0.500000
#
# Coordination Sequence:
#
# PCOD8221820 Si02
#       5
#     8   8   8   8   8
#     4  11  23  38  61  93 125 160 207 260 312 362
#     4  10  23  41  63  90 121 160 204 250 300 364
#     4  11  23  41  64  91 125 162 204 252 305 369
#     4  10  22  43  66  89 124 171 215 252 306 380
#     4  12  25  41  63  90 122 159 201 253 310 366
#
# _framework density 21.401755000000001
#
# number of rings (size 3 to 8) (size 9 to 14) (size 15 to 20)
#    0.000    1.200    0.000    6.600    0.000   11.200 
#    0.000    3.000    0.000    0.000    0.000    0.000 
#    0.000    0.000    0.000    0.000    0.000    0.000 
#
# Total GULP energy -496109.365121 kJ/mol
# GULP energy per Si atom -12402.734128 kJ/mol
# Density = 2.135304 g / cm^3
# Si number density = 21.401755 Si / 1000 Ang^3
#
#
#
# Elastic Constant Matrix: (Units=GPa)
#
#
# Indices 1 2 3 4 5 6 
#
# 1 88.8357 29.8743 38.5568 0.0000 0.0000 0.0000
# 2 29.8743 103.8096 4.4744 0.0000 0.0000 0.0000
# 3 38.5568 4.4744 63.6715 0.0000 0.0000 0.0000
# 4 0.0000 0.0000 0.0000 32.0844 0.0000 0.0000
# 5 0.0000 0.0000 0.0000 0.0000 34.6659 0.0000
# 6 0.0000 0.0000 0.0000 0.0000 0.0000 23.0651
#
#
#
# Elastic Compliance Matrix: (Units=1/GPa)
#
#
# Indices 1 2 3 4 5 6 
#
# 1 0.017136 -0.004498 -0.010061 0.000000 0.000000 0.000000
# 2 -0.004498 0.010843 0.001962 0.000000 0.000000 0.000000
# 3 -0.010061 0.001962 0.021660 0.000000 0.000000 0.000000
# 4 0.000000 0.000000 0.000000 0.031168 0.000000 0.000000
# 5 0.000000 0.000000 0.000000 0.000000 0.028847 0.000000
# 6 0.000000 0.000000 0.000000 0.000000 0.000000 0.043356
#
#
# Mechanical properties :
#
#
# Convention : Reuss Voigt Hill
#
# Bulk Modulus (GPa) = 40.90767 44.68086 42.79426
# Shear Modulus (GPa) = 26.83113 30.19049 28.51081
#
# Velocity S-wave (km/s) = 3.54459 3.75994 3.65385
# Velocity P-wave (km/s) = 5.99231 6.30651 6.15142
#
# Compressibility (1/GPa) = 0.02444529
#
# Stress axis : x y z
#
# Youngs Moduli (GPa) = 58.35728 92.22695 46.16792
#
# Poissons Ratio (x) = 0.41481 0.46448
# Poissons Ratio (y) = 0.26247 -0.09057
# Poissons Ratio (z) = 0.58711 -0.18092
#
# Static dielectric constant tensor:
#      x y z
#    x 3.817450 0.000000 0.000000 
#    y 0.000000 4.048860 0.000000 
#    z 0.000000 0.000000 3.940690 
# 
# 
# High freq. dielectric constant tensor:
#      x y z
#    x 1.841590 0.000000 0.000000 
#    y 0.000000 1.859400 0.000000 
#    z 0.000000 0.000000 1.838990 
# 
# From -- ./inp_files/8416.got.cif
#   From: 2010.03.12/outbox.cif.g09.slc.cpg/sg53_5_cif.got.tgz:8416.got - 2010.04.16 14:36:59.
