data_PCOD8221341
_publ_section_title
;
Structure prediction by ZEFSAII (Michael W. Deem and Ramdas Pophale) SiO2 
 PCOD8221341
Probable space group: P M N A
;
_chemical_formula_sum "Si O2"
_cell_formula_units_Z 48
_cell_length_a 17.583460
_cell_length_b 14.990512
_cell_length_c 9.604422
_cell_angle_alpha 90.000000
_cell_angle_beta 90.000000
_cell_angle_gamma 90.000000
_cell_volume 2531.582227
_symmetry_space_group_name_H-M "P M N A"
_symmetry_group_IT_number 53
_symmetry_cell_setting 'orthorhombic'
loop_
_space_group_symop_operation_xyz
x,y,z
1/2-x,-y,1/2+z
x,-y,-z
1/2-x,y,1/2-z
-x,-y,-z
1/2+x,y,1/2-z
-x,y,z
1/2+x,-y,1/2+z
loop_
_atom_site_type_symbol
_atom_site_label
_atom_site_fract_x
_atom_site_fract_y
_atom_site_fract_z
Si Si1 0.141649 0.705076 0.169893
Si Si2 0.338059 0.341934 0.218968
Si Si3 0.700999 0.744727 0.046017
Si Si4 0.272214 0.086517 0.407194
Si Si5 0.415169 0.201522 0.417186
Si Si6 0.588258 0.510452 0.338577
O O1 0.153727 0.760646 0.312326
O O2 0.220210 0.694855 0.083718
O O3 0.109089 0.609077 0.210921
O O4 0.082815 0.758441 0.073525
O O5 0.250000 0.322819 0.250000
O O6 0.390369 0.278971 0.312185
O O7 0.361311 0.443653 0.246207
O O8 0.348766 0.317855 0.056270
O O9 0.716957 0.838354 0.970367
O O10 0.250000 0.063631 0.250000
O O11 0.359878 0.116984 0.409205
O O12 0.262109 0.000000 0.500000
O O13 0.500000 0.169686 0.378909
O O14 0.609471 0.500000 0.500000
O O15 0.500000 0.489694 0.312068
#
# Coordination Sequence:
#
# PCOD8221341 Si02
#       6
#     8   8   8   8   8   8
#     4  10  21  37  60  87 124 161 204 253 298 356
#     4  12  20  38  62  87 118 163 213 250 298 354
#     4  10  21  40  59  92 119 152 205 253 306 353
#     4  11  23  41  69  97 120 152 198 254 304 369
#     4  11  21  40  64  89 125 166 201 240 304 376
#     4  11  22  36  56  87 123 162 206 253 300 349
#
# _framework density 18.960474000000001
#
# number of rings (size 3 to 8) (size 9 to 14) (size 15 to 20)
#    0.000    1.167    6.667    1.000    7.000    1.000 
#    0.000    4.167    0.000    0.500    0.000    0.000 
#    0.000    0.000    0.000    0.000    0.000    0.000 
#
# Total GULP energy -595325.802153 kJ/mol
# GULP energy per Si atom -12402.620878 kJ/mol
# Density = 1.891732 g / cm^3
# Si number density = 18.960474 Si / 1000 Ang^3
#
#
#
# Elastic Constant Matrix: (Units=GPa)
#
#
# Indices 1 2 3 4 5 6 
#
# 1 79.4588 33.6165 49.6274 0.0000 0.0000 0.0000
# 2 33.6165 103.1444 53.9951 0.0000 0.0000 0.0000
# 3 49.6274 53.9951 139.8553 0.0000 0.0000 0.0000
# 4 0.0000 0.0000 0.0000 36.4274 0.0000 0.0000
# 5 0.0000 0.0000 0.0000 0.0000 20.5297 0.0000
# 6 0.0000 0.0000 0.0000 0.0000 0.0000 15.4127
#
#
#
# Elastic Compliance Matrix: (Units=1/GPa)
#
#
# Indices 1 2 3 4 5 6 
#
# 1 0.016861 -0.002962 -0.004840 0.000000 0.000000 0.000000
# 2 -0.002962 0.012671 -0.003841 0.000000 0.000000 0.000000
# 3 -0.004840 -0.003841 0.010351 0.000000 0.000000 0.000000
# 4 0.000000 0.000000 0.000000 0.027452 0.000000 0.000000
# 5 0.000000 0.000000 0.000000 0.000000 0.048710 0.000000
# 6 0.000000 0.000000 0.000000 0.000000 0.000000 0.064882
#
#
# Mechanical properties :
#
#
# Convention : Reuss Voigt Hill
#
# Bulk Modulus (GPa) = 60.24933 66.32628 63.28780
# Shear Modulus (GPa) = 23.83867 26.82192 25.33029
#
# Velocity S-wave (km/s) = 3.54966 3.76523 3.65903
# Velocity P-wave (km/s) = 6.97463 7.34574 7.16259
#
# Compressibility (1/GPa) = 0.01659770
#
# Stress axis : x y z
#
# Youngs Moduli (GPa) = 59.30915 78.91906 96.61351
#
# Poissons Ratio (x) = 0.23374 0.46757
# Poissons Ratio (y) = 0.17566 0.37110
# Poissons Ratio (z) = 0.28703 0.30314
#
# Static dielectric constant tensor:
#      x y z
#    x 3.450450 0.000000 0.000000 
#    y 0.000000 3.326360 0.000000 
#    z 0.000000 0.000000 3.736510 
# 
# 
# High freq. dielectric constant tensor:
#      x y z
#    x 1.722940 0.000000 0.000000 
#    y 0.000000 1.721840 0.000000 
#    z 0.000000 0.000000 1.747680 
# 
# From -- ./inp_files/10021.got.cif
#   From: 2010.03.12/outbox.cif.g09.slc.cpg/sg53_6_cif.got.tgz:10021.got - 2010.04.16 14:36:59.
