data_PCOD8221428
_publ_section_title
;
Structure prediction by ZEFSAII (Michael W. Deem and Ramdas Pophale) SiO2 
 PCOD8221428
Probable space group: P M N A
;
_chemical_formula_sum "Si O2"
_cell_formula_units_Z 40
_cell_length_a 14.098337
_cell_length_b 12.470564
_cell_length_c 11.467395
_cell_angle_alpha 90.000000
_cell_angle_beta 90.000000
_cell_angle_gamma 90.000000
_cell_volume 2016.131037
_symmetry_space_group_name_H-M "P M N A"
_symmetry_group_IT_number 53
_symmetry_cell_setting 'orthorhombic'
loop_
_space_group_symop_operation_xyz
x,y,z
1/2-x,-y,1/2+z
x,-y,-z
1/2-x,y,1/2-z
-x,-y,-z
1/2+x,y,1/2-z
-x,y,z
1/2+x,-y,1/2+z
loop_
_atom_site_type_symbol
_atom_site_label
_atom_site_fract_x
_atom_site_fract_y
_atom_site_fract_z
Si Si1 0.339064 0.379190 0.671370
Si Si2 0.237726 0.322777 0.068315
Si Si3 0.774502 0.890547 0.437949
Si Si4 0.108150 0.393177 0.262098
Si Si5 0.895592 0.152281 0.781017
O O1 0.250000 0.349784 0.750000
O O2 0.302387 0.392006 0.539126
O O3 0.390979 0.485902 0.713389
O O4 0.407458 0.277261 0.683928
O O5 0.155171 0.315400 0.165943
O O6 0.330109 0.384588 0.119642
O O7 0.265777 0.202498 0.033938
O O8 0.675123 0.906781 0.370258
O O9 0.858471 0.859016 0.350493
O O10 0.802990 0.000000 0.500000
O O11 0.000000 0.358376 0.286643
O O12 0.000000 0.099707 0.790218
#
# Coordination Sequence:
#
# PCOD8221428 Si02
#       5
#     8   8   8   8   8
#     4  11  19  39  62  86 118 161 195 239 286 353
#     4  10  22  40  60  81 123 156 198 242 292 354
#     4  10  22  41  62  84 115 156 195 249 304 341
#     4  11  24  37  59  92 124 158 192 237 297 354
#     4  10  21  38  61  89 115 149 202 245 288 354
#
# _framework density 19.839979
#
# number of rings (size 3 to 8) (size 9 to 14) (size 15 to 20)
#    0.000    1.600    6.000    1.200    0.000    9.600 
#    0.000    3.000    0.000    0.000    0.000    0.000 
#    0.000    0.000    0.000    0.000    0.000    0.000 
#
# Total GULP energy -495974.134851 kJ/mol
# GULP energy per Si atom -12399.353371 kJ/mol
# Density = 1.979482 g / cm^3
# Si number density = 19.839979 Si / 1000 Ang^3
#
#
#
# Elastic Constant Matrix: (Units=GPa)
#
#
# Indices 1 2 3 4 5 6 
#
# 1 148.6032 8.3531 49.4101 0.0000 0.0000 0.0000
# 2 8.3531 88.0950 43.8408 0.0000 0.0000 0.0000
# 3 49.4101 43.8408 111.2966 0.0000 0.0000 0.0000
# 4 0.0000 0.0000 0.0000 28.8390 0.0000 0.0000
# 5 0.0000 0.0000 0.0000 0.0000 11.4882 0.0000
# 6 0.0000 0.0000 0.0000 0.0000 0.0000 5.2571
#
#
#
# Elastic Compliance Matrix: (Units=1/GPa)
#
#
# Indices 1 2 3 4 5 6 
#
# 1 0.008005 0.001256 -0.004048 0.000000 0.000000 0.000000
# 2 0.001256 0.014316 -0.006197 0.000000 0.000000 0.000000
# 3 -0.004048 -0.006197 0.013223 0.000000 0.000000 0.000000
# 4 0.000000 0.000000 0.000000 0.034675 0.000000 0.000000
# 5 0.000000 0.000000 0.000000 0.000000 0.087046 0.000000
# 6 0.000000 0.000000 0.000000 0.000000 0.000000 0.190218
#
#
# Mechanical properties :
#
#
# Convention : Reuss Voigt Hill
#
# Bulk Modulus (GPa) = 56.93025 61.24476 59.08751
# Shear Modulus (GPa) = 13.46558 25.54293 19.50426
#
# Velocity S-wave (km/s) = 2.60803 3.59199 3.13881
# Velocity P-wave (km/s) = 6.15029 6.93827 6.55613
#
# Compressibility (1/GPa) = 0.01756535
#
# Stress axis : x y z
#
# Youngs Moduli (GPa) = 124.92488 69.85130 75.62467
#
# Poissons Ratio (x) = -0.08771 0.30615
# Poissons Ratio (y) = -0.15686 0.46862
# Poissons Ratio (z) = 0.50574 0.43285
#
# Static dielectric constant tensor:
#      x y z
#    x 3.537500 0.000000 0.000000 
#    y 0.000000 3.407410 0.000000 
#    z 0.000000 0.000000 3.783750 
# 
# 
# High freq. dielectric constant tensor:
#      x y z
#    x 1.766910 0.000000 0.000000 
#    y 0.000000 1.757360 0.000000 
#    z 0.000000 0.000000 1.781090 
# 
# From -- ./inp_files/15780.got.cif
#   From: 2010.03.12/outbox.cif.g09.slc.cpg/sg53_8_cif.got.tgz:15780.got - 2010.04.16 14:36:59.
