data_PCOD8221839
_publ_section_title
;
Structure prediction by ZEFSAII (Michael W. Deem and Ramdas Pophale) SiO2 
 PCOD8221839
Probable space group: P M N A
;
_chemical_formula_sum "Si O2"
_cell_formula_units_Z 40
_cell_length_a 28.655907
_cell_length_b 13.887334
_cell_length_c 5.212376
_cell_angle_alpha 90.000000
_cell_angle_beta 90.000000
_cell_angle_gamma 90.000000
_cell_volume 2074.286669
_symmetry_space_group_name_H-M "P M N A"
_symmetry_group_IT_number 53
_symmetry_cell_setting 'orthorhombic'
loop_
_space_group_symop_operation_xyz
x,y,z
1/2-x,-y,1/2+z
x,-y,-z
1/2-x,y,1/2-z
-x,-y,-z
1/2+x,y,1/2-z
-x,y,z
1/2+x,-y,1/2+z
loop_
_atom_site_type_symbol
_atom_site_label
_atom_site_fract_x
_atom_site_fract_y
_atom_site_fract_z
Si Si1 0.195967 0.439087 0.749532
Si Si2 0.448684 0.810996 0.520560
Si Si3 0.857294 0.245062 0.825299
Si Si4 0.412771 0.107190 0.967113
Si Si5 0.780082 0.110587 0.000747
O O1 0.183149 0.500000 0.500000
O O2 0.250000 0.408592 0.750000
O O3 0.165307 0.343892 0.738676
O O4 0.183204 0.500000 0.000000
O O5 0.500000 0.761193 0.513035
O O6 0.406238 0.734160 0.478265
O O7 0.445134 0.888603 0.288335
O O8 0.443609 0.864123 0.790303
O O9 0.868825 0.180198 0.572311
O O10 0.824163 0.181806 0.009542
O O11 0.392504 0.000000 0.000000
O O12 0.750000 0.134185 0.250000
O O13 0.750000 0.134071 0.750000
O O14 0.797513 0.000000 0.000000
#
# Coordination Sequence:
#
# PCOD8221839 Si02
#       5
#     8   8   8   8   8
#     4  10  23  42  65  91 117 149 200 255 306 365
#     4  10  23  39  59  89 124 164 207 251 297 354
#     4  10  25  38  65  86 123 161 197 251 304 356
#     4  10  23  36  58  90 123 165 205 245 293 354
#     4  10  23  37  55  85 124 163 199 236 287 364
#
# _framework density 19.283735
#
# number of rings (size 3 to 8) (size 9 to 14) (size 15 to 20)
#    1.200    0.800    0.000    1.800    8.400    5.600 
#    0.000    0.000    0.000    1.200    0.000    0.000 
#    0.000    0.000    0.000    0.000    0.000    0.000 
#
# Total GULP energy -495704.418023 kJ/mol
# GULP energy per Si atom -12392.610451 kJ/mol
# Density = 1.923984 g / cm^3
# Si number density = 19.283735 Si / 1000 Ang^3
#
#
#
# Elastic Constant Matrix: (Units=GPa)
#
#
# Indices 1 2 3 4 5 6 
#
# 1 144.9098 84.2412 50.4238 0.0000 0.0000 0.0000
# 2 84.2412 123.1812 46.2220 0.0000 0.0000 0.0000
# 3 50.4238 46.2220 152.8177 0.0000 0.0000 0.0000
# 4 0.0000 0.0000 0.0000 14.8054 0.0000 0.0000
# 5 0.0000 0.0000 0.0000 0.0000 13.5065 0.0000
# 6 0.0000 0.0000 0.0000 0.0000 0.0000 16.5328
#
#
#
# Elastic Compliance Matrix: (Units=1/GPa)
#
#
# Indices 1 2 3 4 5 6 
#
# 1 0.011808 -0.007460 -0.001640 0.000000 0.000000 0.000000
# 2 -0.007460 0.013871 -0.001734 0.000000 0.000000 0.000000
# 3 -0.001640 -0.001734 0.007609 0.000000 0.000000 0.000000
# 4 0.000000 0.000000 0.000000 0.067543 0.000000 0.000000
# 5 0.000000 0.000000 0.000000 0.000000 0.074039 0.000000
# 6 0.000000 0.000000 0.000000 0.000000 0.000000 0.060486
#
#
# Mechanical properties :
#
#
# Convention : Reuss Voigt Hill
#
# Bulk Modulus (GPa) = 86.05463 86.96474 86.50968
# Shear Modulus (GPa) = 19.16469 24.97038 22.06754
#
# Velocity S-wave (km/s) = 3.15592 3.60237 3.38651
# Velocity P-wave (km/s) = 7.61592 7.90557 7.76210
#
# Compressibility (1/GPa) = 0.01162053
#
# Stress axis : x y z
#
# Youngs Moduli (GPa) = 84.68621 72.09513 131.41912
#
# Poissons Ratio (x) = 0.53784 0.21551
# Poissons Ratio (y) = 0.63177 0.22786
# Poissons Ratio (z) = 0.13887 0.12500
#
# Static dielectric constant tensor:
#      x y z
#    x 3.472890 0.000000 0.000000 
#    y 0.000000 3.139980 0.000000 
#    z 0.000000 0.000000 3.625100 
# 
# 
# High freq. dielectric constant tensor:
#      x y z
#    x 1.747790 0.000000 0.000000 
#    y 0.000000 1.709430 0.000000 
#    z 0.000000 0.000000 1.768210 
# 
# From -- ./inp_files/4298.got.cif
#   From: 2010.03.12/outbox.cif.g09.slc.cpg/sg53_3_cif.got.tgz:4298.got - 2010.04.16 14:36:59.
