data_PCOD8221638
_publ_section_title
;
Structure prediction by ZEFSAII (Michael W. Deem and Ramdas Pophale) SiO2 
 PCOD8221638
Probable space group: P M N A
;
_chemical_formula_sum "Si O2"
_cell_formula_units_Z 64
_cell_length_a 15.241204
_cell_length_b 15.797187
_cell_length_c 12.490329
_cell_angle_alpha 90.000000
_cell_angle_beta 90.000000
_cell_angle_gamma 90.000000
_cell_volume 3007.273402
_symmetry_space_group_name_H-M "P M N A"
_symmetry_group_IT_number 53
_symmetry_cell_setting 'orthorhombic'
loop_
_space_group_symop_operation_xyz
x,y,z
1/2-x,-y,1/2+z
x,-y,-z
1/2-x,y,1/2-z
-x,-y,-z
1/2+x,y,1/2-z
-x,y,z
1/2+x,-y,1/2+z
loop_
_atom_site_type_symbol
_atom_site_label
_atom_site_fract_x
_atom_site_fract_y
_atom_site_fract_z
Si Si1 0.898988 0.098933 0.516101
Si Si2 0.906272 0.468876 0.385996
Si Si3 0.250073 0.360561 0.367983
Si Si4 0.098773 0.835312 0.030181
Si Si5 0.896239 0.811188 0.266913
Si Si6 0.903633 0.364975 0.986582
Si Si7 0.602573 0.376639 0.754335
Si Si8 0.748364 0.838436 0.628231
O O1 0.867953 0.127988 0.635055
O O2 0.841357 0.143706 0.426208
O O3 0.000000 0.125386 0.497621
O O4 0.885364 0.000000 0.500000
O O5 0.933889 0.500000 0.500000
O O6 0.844675 0.388318 0.410249
O O7 0.857031 0.545397 0.321803
O O8 0.000000 0.441895 0.330120
O O9 0.250000 0.398792 0.250000
O O10 0.330682 0.402115 0.433170
O O11 0.262511 0.261163 0.368117
O O12 0.134506 0.851107 0.152299
O O13 0.094139 0.735833 0.012422
O O14 0.000000 0.873669 0.013152
O O15 0.167195 0.876045 0.943506
O O16 0.856719 0.716128 0.285169
O O17 0.000000 0.802473 0.257376
O O18 0.878611 0.397002 0.869109
O O19 0.000000 0.399030 0.021032
O O20 0.500000 0.373291 0.780286
O O21 0.750000 0.875360 0.750000
#
# Coordination Sequence:
#
# PCOD8221638 Si02
#       8
#     8   8   8   8   8   8   8   8
#     4  10  22  40  62  89 122 156 189 237 296 351
#     4  10  22  36  51  76 113 151 187 234 287 336
#     4  10  22  37  54  79 113 149 192 235 279 343
#     4   8  15  32  59  90 118 144 186 245 295 341
#     4   8  15  31  60  91 114 143 190 241 294 355
#     4   8  15  32  58  82 106 138 182 240 293 334
#     4   8  15  31  56  83 107 139 188 241 288 335
#     4  10  22  39  57  85 119 159 202 235 282 354
#
# _framework density 21.281737
#
# number of rings (size 3 to 8) (size 9 to 14) (size 15 to 20)
#    0.000    3.000    0.000    1.500    1.750    3.000 
#    2.250    2.500    0.000    3.000    0.000    0.000 
#    0.000    0.000    0.000    0.000    0.000    0.000 
#
# Total GULP energy -792864.216427 kJ/mol
# GULP energy per Si atom -12388.503382 kJ/mol
# Density = 2.123330 g / cm^3
# Si number density = 21.281737 Si / 1000 Ang^3
#
#
#
# Elastic Constant Matrix: (Units=GPa)
#
#
# Indices 1 2 3 4 5 6 
#
# 1 104.6020 21.4587 68.2134 0.0000 0.0000 0.0000
# 2 21.4587 26.2530 33.2737 0.0000 0.0000 0.0000
# 3 68.2134 33.2737 161.6918 0.0000 0.0000 0.0000
# 4 0.0000 0.0000 0.0000 8.2214 0.0000 0.0000
# 5 0.0000 0.0000 0.0000 0.0000 31.7104 0.0000
# 6 0.0000 0.0000 0.0000 0.0000 0.0000 17.2652
#
#
#
# Elastic Compliance Matrix: (Units=1/GPa)
#
#
# Indices 1 2 3 4 5 6 
#
# 1 0.013701 -0.005240 -0.004702 0.000000 0.000000 0.000000
# 2 -0.005240 0.053535 -0.008806 0.000000 0.000000 0.000000
# 3 -0.004702 -0.008806 0.009980 0.000000 0.000000 0.000000
# 4 0.000000 0.000000 0.000000 0.121633 0.000000 0.000000
# 5 0.000000 0.000000 0.000000 0.000000 0.031535 0.000000
# 6 0.000000 0.000000 0.000000 0.000000 0.000000 0.057920
#
#
# Mechanical properties :
#
#
# Convention : Reuss Voigt Hill
#
# Bulk Modulus (GPa) = 25.17575 59.82650 42.50113
# Shear Modulus (GPa) = 14.74748 22.74613 18.74681
#
# Velocity S-wave (km/s) = 2.63528 3.27281 2.97119
# Velocity P-wave (km/s) = 4.59511 6.51571 5.63779
#
# Compressibility (1/GPa) = 0.03972076
#
# Stress axis : x y z
#
# Youngs Moduli (GPa) = 72.98641 18.67944 100.19666
#
# Poissons Ratio (x) = 0.09788 0.47111
# Poissons Ratio (y) = 0.38243 0.88234
# Poissons Ratio (z) = 0.34317 0.16449
#
# Static dielectric constant tensor:
#      x y z
#    x 4.172520 0.000000 0.000000 
#    y 0.000000 3.586950 0.000000 
#    z 0.000000 0.000000 4.166800 
# 
# 
# High freq. dielectric constant tensor:
#      x y z
#    x 1.829600 0.000000 0.000000 
#    y 0.000000 1.797460 0.000000 
#    z 0.000000 0.000000 1.839230 
# 
# From -- ./inp_files/16240.got.cif
#   From: 2010.03.12/outbox.cif.g09.slc.cpg/sg53_9_cif.got.tgz:16240.got - 2010.04.16 14:36:59.
