data_PCOD8221156
_publ_section_title
;
Structure prediction by ZEFSAII (Michael W. Deem and Ramdas Pophale) SiO2 
 PCOD8221156
Probable space group: P M N A
;
_chemical_formula_sum "Si O2"
_cell_formula_units_Z 32
_cell_length_a 23.073011
_cell_length_b 8.492578
_cell_length_c 8.225352
_cell_angle_alpha 90.000000
_cell_angle_beta 90.000000
_cell_angle_gamma 90.000000
_cell_volume 1611.752342
_symmetry_space_group_name_H-M "P M N A"
_symmetry_group_IT_number 53
_symmetry_cell_setting 'orthorhombic'
loop_
_space_group_symop_operation_xyz
x,y,z
1/2-x,-y,1/2+z
x,-y,-z
1/2-x,y,1/2-z
-x,-y,-z
1/2+x,y,1/2-z
-x,y,z
1/2+x,-y,1/2+z
loop_
_atom_site_type_symbol
_atom_site_label
_atom_site_fract_x
_atom_site_fract_y
_atom_site_fract_z
Si Si1 0.137206 0.096794 0.338403
Si Si2 0.285312 0.318794 0.973717
Si Si3 0.436854 0.176148 0.440207
Si Si4 0.668520 0.203543 0.653528
O O1 0.181825 0.237292 0.376585
O O2 0.081892 0.176123 0.250350
O O3 0.118670 0.000000 0.500000
O O4 0.165678 0.980103 0.205136
O O5 0.225636 0.223557 0.955118
O O6 0.325997 0.310172 0.814267
O O7 0.270934 0.500000 0.000000
O O8 0.500000 0.261020 0.454480
O O9 0.388311 0.260143 0.553468
O O10 0.444174 0.000000 0.500000
#
# Coordination Sequence:
#
# PCOD8221156 Si02
#       4
#     8   8   8   8
#     4   9  19  34  55  80 108 139 177 223 270 325
#     4  10  21  36  55  80 111 142 176 222 275 329
#     4   9  18  33  54  79 105 137 180 226 267 314
#     4   9  20  35  53  80 107 138 179 221 271 326
#
# _framework density 19.854165999999999
#
# number of rings (size 3 to 8) (size 9 to 14) (size 15 to 20)
#    0.000    2.750    0.000    0.000    0.000   22.500 
#    0.000    3.750    0.000    8.250    0.000    0.000 
#    0.000    0.000    0.000    0.000    0.000    0.000 
#
# Total GULP energy -396609.928523 kJ/mol
# GULP energy per Si atom -12394.060266 kJ/mol
# Density = 1.980898 g / cm^3
# Si number density = 19.854166 Si / 1000 Ang^3
#
#
#
# Elastic Constant Matrix: (Units=GPa)
#
#
# Indices 1 2 3 4 5 6 
#
# 1 176.3481 36.1468 85.3229 0.0000 0.0000 0.0000
# 2 36.1468 56.1102 26.9671 0.0000 0.0000 0.0000
# 3 85.3229 26.9671 99.9499 0.0000 0.0000 0.0000
# 4 0.0000 0.0000 0.0000 15.6778 0.0000 0.0000
# 5 0.0000 0.0000 0.0000 0.0000 13.2586 0.0000
# 6 0.0000 0.0000 0.0000 0.0000 0.0000 0.8487
#
#
#
# Elastic Compliance Matrix: (Units=1/GPa)
#
#
# Indices 1 2 3 4 5 6 
#
# 1 0.010002 -0.002688 -0.007813 0.000000 0.000000 0.000000
# 2 -0.002688 0.021200 -0.003425 0.000000 0.000000 0.000000
# 3 -0.007813 -0.003425 0.017598 0.000000 0.000000 0.000000
# 4 0.000000 0.000000 0.000000 0.063784 0.000000 0.000000
# 5 0.000000 0.000000 0.000000 0.000000 0.075423 0.000000
# 6 0.000000 0.000000 0.000000 0.000000 0.000000 1.178326
#
#
# Mechanical properties :
#
#
# Convention : Reuss Voigt Hill
#
# Bulk Modulus (GPa) = 47.73693 69.92021 58.82857
# Shear Modulus (GPa) = 3.56845 18.22178 10.89512
#
# Velocity S-wave (km/s) = 1.34210 3.03278 2.34510
# Velocity P-wave (km/s) = 5.14758 6.89616 6.08501
#
# Compressibility (1/GPa) = 0.02094814
#
# Stress axis : x y z
#
# Youngs Moduli (GPa) = 99.98349 47.16977 56.82329
#
# Poissons Ratio (x) = 0.12681 0.44394
# Poissons Ratio (y) = 0.26879 0.19462
# Poissons Ratio (z) = 0.78114 0.16156
#
# Static dielectric constant tensor:
#      x y z
#    x 3.952450 0.000000 0.000000 
#    y 0.000000 3.221140 0.000000 
#    z 0.000000 0.000000 3.878680 
# 
# 
# High freq. dielectric constant tensor:
#      x y z
#    x 1.764030 0.000000 0.000000 
#    y 0.000000 1.733250 0.000000 
#    z 0.000000 0.000000 1.787570 
# 
# From -- ./inp_files/11429.got.cif
#   From: 2010.03.12/outbox.cif.g09.slc.cpg/sg53_6_cif.got.tgz:11429.got - 2010.04.16 14:36:59.
