data_PCOD8221398
_publ_section_title
;
Structure prediction by ZEFSAII (Michael W. Deem and Ramdas Pophale) SiO2 
 PCOD8221398
Probable space group: P M N A
;
_chemical_formula_sum "Si O2"
_cell_formula_units_Z 32
_cell_length_a 17.545688
_cell_length_b 18.155448
_cell_length_c 4.997448
_cell_angle_alpha 90.000000
_cell_angle_beta 90.000000
_cell_angle_gamma 90.000000
_cell_volume 1591.936191
_symmetry_space_group_name_H-M "P M N A"
_symmetry_group_IT_number 53
_symmetry_cell_setting 'orthorhombic'
loop_
_space_group_symop_operation_xyz
x,y,z
1/2-x,-y,1/2+z
x,-y,-z
1/2-x,y,1/2-z
-x,-y,-z
1/2+x,y,1/2-z
-x,y,z
1/2+x,-y,1/2+z
loop_
_atom_site_type_symbol
_atom_site_label
_atom_site_fract_x
_atom_site_fract_y
_atom_site_fract_z
Si Si1 0.660033 0.726294 0.228013
Si Si2 0.910803 0.796402 0.763214
Si Si3 0.803765 0.578450 0.494688
Si Si4 0.837224 0.949609 0.753260
O O1 0.750000 0.737806 0.250000
O O2 0.624840 0.739475 0.521169
O O3 0.623641 0.785033 0.030631
O O4 0.641616 0.646167 0.093938
O O5 0.892531 0.881393 0.812135
O O6 0.000000 0.782098 0.762497
O O7 0.850067 0.500000 0.500000
O O8 0.750000 0.598912 0.750000
O O9 0.750000 0.561975 0.250000
O O10 0.750000 0.920978 0.750000
O O11 0.858349 0.000000 0.500000
O O12 0.852642 0.000000 0.000000
#
# Coordination Sequence:
#
# PCOD8221398 Si02
#       4
#     8   8   8   8
#     4  11  21  38  62  86 115 155 200 241 288 348
#     4  12  25  39  58  87 123 156 190 239 295 351
#     4   9  17  31  55  88 117 144 192 254 299 334
#     4  10  21  38  60  84 110 145 192 241 288 344
#
# _framework density 20.101308
#
# number of rings (size 3 to 8) (size 9 to 14) (size 15 to 20)
#    0.000    1.500    0.000    7.500    0.000    3.000 
#    0.000    0.000    0.000    4.500    0.000    0.000 
#    0.000    0.000    0.000    0.000    0.000    0.000 
#
# Total GULP energy -396457.852738 kJ/mol
# GULP energy per Si atom -12389.307898 kJ/mol
# Density = 2.005556 g / cm^3
# Si number density = 20.101308 Si / 1000 Ang^3
#
#
#
# Elastic Constant Matrix: (Units=GPa)
#
#
# Indices 1 2 3 4 5 6 
#
# 1 105.3557 35.7805 32.6443 0.0000 0.0000 0.0000
# 2 35.7805 109.3421 23.7695 0.0000 0.0000 0.0000
# 3 32.6443 23.7695 111.7277 0.0000 0.0000 0.0000
# 4 0.0000 0.0000 0.0000 47.4422 0.0000 0.0000
# 5 0.0000 0.0000 0.0000 0.0000 19.7527 0.0000
# 6 0.0000 0.0000 0.0000 0.0000 0.0000 69.7878
#
#
#
# Elastic Compliance Matrix: (Units=1/GPa)
#
#
# Indices 1 2 3 4 5 6 
#
# 1 0.011384 -0.003148 -0.002656 0.000000 0.000000 0.000000
# 2 -0.003148 0.010459 -0.001306 0.000000 0.000000 0.000000
# 3 -0.002656 -0.001306 0.010004 0.000000 0.000000 0.000000
# 4 0.000000 0.000000 0.000000 0.021078 0.000000 0.000000
# 5 0.000000 0.000000 0.000000 0.000000 0.050626 0.000000
# 6 0.000000 0.000000 0.000000 0.000000 0.000000 0.014329
#
#
# Mechanical properties :
#
#
# Convention : Reuss Voigt Hill
#
# Bulk Modulus (GPa) = 56.72737 56.75713 56.74225
# Shear Modulus (GPa) = 36.23817 43.01195 39.62506
#
# Velocity S-wave (km/s) = 4.25052 4.63077 4.44471
# Velocity P-wave (km/s) = 7.23680 7.54247 7.39121
#
# Compressibility (1/GPa) = 0.01762817
#
# Stress axis : x y z
#
# Youngs Moduli (GPa) = 87.84459 95.60739 99.95781
#
# Poissons Ratio (x) = 0.30094 0.26553
# Poissons Ratio (y) = 0.27651 0.13050
# Poissons Ratio (z) = 0.23335 0.12482
#
# Static dielectric constant tensor:
#      x y z
#    x 3.128950 0.000000 0.000000 
#    y 0.000000 4.118220 0.000000 
#    z 0.000000 0.000000 4.051010 
# 
# 
# High freq. dielectric constant tensor:
#      x y z
#    x 1.734690 0.000000 0.000000 
#    y 0.000000 1.804650 0.000000 
#    z 0.000000 0.000000 1.812820 
# 
# From -- ./inp_files/1178.got.cif
#   From: 2010.03.12/outbox.cif.g09.slc.cpg/sg53_1_cif.got.tgz:1178.got - 2010.04.16 14:36:59.
