data_PCOD8221223
_publ_section_title
;
Structure prediction by ZEFSAII (Michael W. Deem and Ramdas Pophale) SiO2 
 PCOD8221223
Probable space group: P M N A
;
_chemical_formula_sum "Si O2"
_cell_formula_units_Z 64
_cell_length_a 8.991285
_cell_length_b 16.762412
_cell_length_c 25.554875
_cell_angle_alpha 90.000000
_cell_angle_beta 90.000000
_cell_angle_gamma 90.000000
_cell_volume 3851.518921
_symmetry_space_group_name_H-M "P M N A"
_symmetry_group_IT_number 53
_symmetry_cell_setting 'orthorhombic'
loop_
_space_group_symop_operation_xyz
x,y,z
1/2-x,-y,1/2+z
x,-y,-z
1/2-x,y,1/2-z
-x,-y,-z
1/2+x,y,1/2-z
-x,y,z
1/2+x,-y,1/2+z
loop_
_atom_site_type_symbol
_atom_site_label
_atom_site_fract_x
_atom_site_fract_y
_atom_site_fract_z
Si Si1 0.669947 0.905541 0.000000
Si Si2 0.668247 0.500000 0.937787
Si Si3 0.827821 0.655796 0.059418
Si Si4 0.826814 0.092366 0.304543
Si Si5 0.675003 0.172351 0.401483
Si Si6 0.675003 0.827649 0.401483
Si Si7 0.672179 0.655796 0.559418
Si Si8 0.173186 0.092366 0.695457
O O1 0.500000 0.874764 0.000000
O O2 0.752548 0.875063 0.948858
O O3 0.752548 0.875063 0.051142
O O4 0.675176 0.000000 0.000000
O O5 0.500000 0.500000 0.918805
O O6 0.743413 0.419775 0.915410
O O7 0.743413 0.580225 0.915410
O O8 0.686404 0.500000 0.000000
O O9 0.792323 0.733669 0.093393
O O10 0.000000 0.634190 0.060132
O O11 0.774514 0.672853 1.000000
O O12 0.750000 0.113279 0.250000
O O13 0.747873 0.145578 0.347741
O O14 0.000000 0.114262 0.301230
O O15 0.803793 0.000000 0.319180
O O16 0.500000 0.154125 0.401529
O O17 0.707677 0.266331 0.406607
O O18 0.500000 0.845875 0.401529
O O19 0.747873 0.854422 0.347741
O O20 0.500000 0.634190 0.560132
O O21 0.250000 0.113279 0.750000
O O22 0.000000 0.114262 0.698770
#
# Coordination Sequence:
#
# PCOD8221223 Si02
#       8
#     8   8   8   8   8   8   8   8
#     4  11  23  35  47  68 101 138 171 205 250 303
#     4   9  17  27  43  69  96 127 166 203 243 288
#     4   9  17  31  47  67  98 134 167 200 243 296
#     4  10  21  37  55  75  99 130 170 215 260 301
#     4  11  21  34  52  75 101 133 171 209 252 301
#     4  11  21  34  52  75 101 133 171 209 252 301
#     4   9  17  31  47  67  98 134 167 200 243 296
#     4  10  21  37  55  75  99 130 170 215 260 301
#
# _framework density 16.616821999999999
#
# number of rings (size 3 to 8) (size 9 to 14) (size 15 to 20)
#    0.000    2.000    1.250    3.000    0.000    9.000 
#    0.000    0.000    0.000    0.000    0.000    0.875 
#    0.000    0.000    0.000    0.000    0.000    0.000 
#
# Total GULP energy -793733.630050 kJ/mol
# GULP energy per Si atom -12402.087970 kJ/mol
# Density = 1.657900 g / cm^3
# Si number density = 16.616822 Si / 1000 Ang^3
#
#
#
# Elastic Constant Matrix: (Units=GPa)
#
#
# Indices 1 2 3 4 5 6 
#
# 1 129.0308 78.9555 64.9929 0.0000 0.0000 0.0000
# 2 78.9555 115.5282 64.4533 0.0000 0.0000 0.0000
# 3 64.9929 64.4533 98.8511 0.0000 0.0000 0.0000
# 4 0.0000 0.0000 0.0000 -77.3855 0.0000 0.0000
# 5 0.0000 0.0000 0.0000 0.0000 310.9144 0.0000
# 6 0.0000 0.0000 0.0000 0.0000 0.0000 27.9233
#
#
#
# Elastic Compliance Matrix: (Units=1/GPa)
#
#
# Indices 1 2 3 4 5 6 
#
# 1 0.014685 -0.007308 -0.004890 0.000000 0.000000 0.000000
# 2 -0.007308 0.017242 -0.006437 0.000000 0.000000 0.000000
# 3 -0.004890 -0.006437 0.017529 0.000000 0.000000 0.000000
# 4 0.000000 0.000000 0.000000 -0.012922 0.000000 0.000000
# 5 0.000000 0.000000 0.000000 0.000000 0.003216 0.000000
# 6 0.000000 0.000000 0.000000 0.000000 0.000000 0.035812
#
#
# Mechanical properties :
#
#
# Convention : Reuss Voigt Hill
#
# Bulk Modulus (GPa) = 82.06977 84.46816 83.26896
# Shear Modulus (GPa) = 42.77376 61.29101 52.03239
#
# Velocity S-wave (km/s) = 5.07909 6.07988 5.60188
# Velocity P-wave (km/s) = 9.15931 10.01149 9.59487
#
# Compressibility (1/GPa) = 0.01218476
#
# Stress axis : x y z
#
# Youngs Moduli (GPa) = 68.09595 57.99901 57.04957
#
# Poissons Ratio (x) = 0.42386 0.27899
# Poissons Ratio (y) = 0.49765 0.36723
# Poissons Ratio (z) = 0.33301 0.37334
#
# Static dielectric constant tensor:
#      x y z
#    x 3.318220 0.000000 0.000000 
#    y 0.000000 3.221540 0.000000 
#    z 0.000000 0.000000 2.896720 
# 
# 
# High freq. dielectric constant tensor:
#      x y z
#    x 1.657780 0.000000 0.000000 
#    y 0.000000 1.644000 0.000000 
#    z 0.000000 0.000000 1.607070 
# 
# From -- ./inp_files/34194.got.cif
#   From: 2010.03.12/outbox.cif.g09.slc.cpg/sg53_18_cif.got.tgz:34194.got - 2010.04.16 14:36:59.
