data_PCOD8221397
_publ_section_title
;
Structure prediction by ZEFSAII (Michael W. Deem and Ramdas Pophale) SiO2 
 PCOD8221397
Probable space group: P M N A
;
_chemical_formula_sum "Si O2"
_cell_formula_units_Z 32
_cell_length_a 16.631162
_cell_length_b 19.061034
_cell_length_c 5.012751
_cell_angle_alpha 90.000000
_cell_angle_beta 90.000000
_cell_angle_gamma 90.000000
_cell_volume 1589.077880
_symmetry_space_group_name_H-M "P M N A"
_symmetry_group_IT_number 53
_symmetry_cell_setting 'orthorhombic'
loop_
_space_group_symop_operation_xyz
x,y,z
1/2-x,-y,1/2+z
x,-y,-z
1/2-x,y,1/2-z
-x,-y,-z
1/2+x,y,1/2-z
-x,y,z
1/2+x,-y,1/2+z
loop_
_atom_site_type_symbol
_atom_site_label
_atom_site_fract_x
_atom_site_fract_y
_atom_site_fract_z
Si Si1 0.092336 0.706614 0.860331
Si Si2 0.341544 0.221686 0.850227
Si Si3 0.194561 0.420835 0.001255
Si Si4 0.806540 0.074991 0.501423
O O1 0.143491 0.726055 0.597455
O O2 0.119974 0.632060 0.981685
O O3 0.000000 0.701777 0.774064
O O4 0.101865 0.763191 0.097343
O O5 0.250000 0.229523 0.750000
O O6 0.362921 0.142880 0.953575
O O7 0.250000 0.408385 0.250000
O O8 0.159842 0.500000 0.000000
O O9 0.250000 0.403661 0.750000
O O10 0.750000 0.089954 0.250000
O O11 0.855052 0.000000 0.500000
O O12 0.750000 0.065852 0.750000
#
# Coordination Sequence:
#
# PCOD8221397 Si02
#       4
#     8   8   8   8
#     4  12  24  37  56  84 118 149 182 228 278 330
#     4  11  21  37  60  83 110 148 191 231 274 328
#     4  10  21  38  60  83 108 143 187 230 273 327
#     4   9  17  30  52  83 110 135 180 239 283 316
#
# _framework density 20.137467000000001
#
# number of rings (size 3 to 8) (size 9 to 14) (size 15 to 20)
#    0.000    1.500    0.000    8.250    0.000    0.500 
#    0.000    0.000    0.000   12.000    0.000    0.000 
#    0.000    0.000    0.000    0.000    0.000    0.000 
#
# Total GULP energy -396619.656907 kJ/mol
# GULP energy per Si atom -12394.364278 kJ/mol
# Density = 2.009163 g / cm^3
# Si number density = 20.137467 Si / 1000 Ang^3
#
#
#
# Elastic Constant Matrix: (Units=GPa)
#
#
# Indices 1 2 3 4 5 6 
#
# 1 77.2607 60.9868 32.2670 0.0000 0.0000 0.0000
# 2 60.9868 151.5584 44.6102 0.0000 0.0000 0.0000
# 3 32.2670 44.6102 146.8298 0.0000 0.0000 0.0000
# 4 0.0000 0.0000 0.0000 33.4103 0.0000 0.0000
# 5 0.0000 0.0000 0.0000 0.0000 26.4943 0.0000
# 6 0.0000 0.0000 0.0000 0.0000 0.0000 7.9473
#
#
#
# Elastic Compliance Matrix: (Units=1/GPa)
#
#
# Indices 1 2 3 4 5 6 
#
# 1 0.019536 -0.007246 -0.002092 0.000000 0.000000 0.000000
# 2 -0.007246 0.009933 -0.001426 0.000000 0.000000 0.000000
# 3 -0.002092 -0.001426 0.007703 0.000000 0.000000 0.000000
# 4 0.000000 0.000000 0.000000 0.029931 0.000000 0.000000
# 5 0.000000 0.000000 0.000000 0.000000 0.037744 0.000000
# 6 0.000000 0.000000 0.000000 0.000000 0.000000 0.125829
#
#
# Mechanical properties :
#
#
# Convention : Reuss Voigt Hill
#
# Bulk Modulus (GPa) = 63.91109 72.37521 68.14315
# Shear Modulus (GPa) = 19.42355 29.42271 24.42313
#
# Velocity S-wave (km/s) = 3.10909 3.82657 3.48634
# Velocity P-wave (km/s) = 6.68542 7.45266 7.07944
#
# Compressibility (1/GPa) = 0.01564674
#
# Stress axis : x y z
#
# Youngs Moduli (GPa) = 51.18683 100.67057 129.81163
#
# Poissons Ratio (x) = 0.72942 0.27155
# Poissons Ratio (y) = 0.37088 0.18507
# Poissons Ratio (z) = 0.10708 0.14353
#
# Static dielectric constant tensor:
#      x y z
#    x 3.083700 0.000000 0.000000 
#    y 0.000000 4.306970 0.000000 
#    z 0.000000 0.000000 3.872820 
# 
# 
# High freq. dielectric constant tensor:
#      x y z
#    x 1.723460 0.000000 0.000000 
#    y 0.000000 1.810240 0.000000 
#    z 0.000000 0.000000 1.817010 
# 
# From -- ./inp_files/1266.got.cif
#   From: 2010.03.12/outbox.cif.g09.slc.cpg/sg53_1_cif.got.tgz:1266.got - 2010.04.16 14:36:59.
