data_PCOD8221518
_publ_section_title
;
Structure prediction by ZEFSAII (Michael W. Deem and Ramdas Pophale) SiO2 
 PCOD8221518
Probable space group: P M N A
;
_chemical_formula_sum "Si O2"
_cell_formula_units_Z 44
_cell_length_a 15.456566
_cell_length_b 16.623094
_cell_length_c 8.662036
_cell_angle_alpha 90.000000
_cell_angle_beta 90.000000
_cell_angle_gamma 90.000000
_cell_volume 2225.588445
_symmetry_space_group_name_H-M "P M N A"
_symmetry_group_IT_number 53
_symmetry_cell_setting 'orthorhombic'
loop_
_space_group_symop_operation_xyz
x,y,z
1/2-x,-y,1/2+z
x,-y,-z
1/2-x,y,1/2-z
-x,-y,-z
1/2+x,y,1/2-z
-x,y,z
1/2+x,-y,1/2+z
loop_
_atom_site_type_symbol
_atom_site_label
_atom_site_fract_x
_atom_site_fract_y
_atom_site_fract_z
Si Si1 0.818653 0.932265 0.886668
Si Si2 0.750000 0.343628 0.250000
Si Si3 0.871842 0.266223 0.662426
Si Si4 0.500000 0.966578 0.763930
Si Si5 0.904588 0.410039 0.444587
Si Si6 0.000000 0.133544 0.562313
Si Si7 0.188258 0.240019 0.977392
O O1 0.750000 0.919368 0.750000
O O2 0.913328 0.959478 0.834637
O O3 0.831369 0.851260 0.981845
O O4 0.779573 0.000000 0.000000
O O5 0.823390 0.396166 0.332462
O O6 0.691748 0.291238 0.366294
O O7 0.905033 0.349615 0.590407
O O8 0.775683 0.250387 0.613113
O O9 0.882778 0.269971 0.850043
O O10 0.917599 0.188181 0.593328
O O11 0.500000 0.054836 0.834159
O O12 0.500000 0.893612 0.885050
O O13 0.892101 0.500000 0.500000
O O14 0.000000 0.400795 0.364336
#
# Coordination Sequence:
#
# PCOD8221518 Si02
#       7
#     8   4   8   4   8   4   8
#     4  12  26  41  62  89 127 167 215 273 323 376
#     4  10  22  42  64  96 130 166 206 268 320 378
#     4  10  21  39  64  89 123 169 208 259 315 388
#     4  11  27  40  60  92 125 163 224 267 326 376
#     4  10  22  42  68  98 129 167 213 259 323 393
#     4  11  22  40  63  86 122 165 215 263 327 381
#     4  10  22  39  61  90 125 164 220 250 322 384
#
# _framework density 19.770053000000001
#
# number of rings (size 3 to 8) (size 9 to 14) (size 15 to 20)
#    0.000    1.455    1.818    2.455   10.182    3.636 
#    1.636    0.000    0.000    2.727    0.000    0.000 
#    0.000    0.000    0.000    0.000    0.000    0.000 
#
# Total GULP energy -545312.591256 kJ/mol
# GULP energy per Si atom -12393.467983 kJ/mol
# Density = 1.972506 g / cm^3
# Si number density = 19.770053 Si / 1000 Ang^3
#
#
#
# Elastic Constant Matrix: (Units=GPa)
#
#
# Indices 1 2 3 4 5 6 
#
# 1 79.0194 39.0598 29.0880 0.0000 0.0000 0.0000
# 2 39.0598 139.2807 57.9672 0.0000 0.0000 0.0000
# 3 29.0880 57.9672 111.0332 0.0000 0.0000 0.0000
# 4 0.0000 0.0000 0.0000 72.5148 0.0000 0.0000
# 5 0.0000 0.0000 0.0000 0.0000 30.8465 0.0000
# 6 0.0000 0.0000 0.0000 0.0000 0.0000 32.2658
#
#
#
# Elastic Compliance Matrix: (Units=1/GPa)
#
#
# Indices 1 2 3 4 5 6 
#
# 1 0.015112 -0.003309 -0.002231 0.000000 0.000000 0.000000
# 2 -0.003309 0.009898 -0.004300 0.000000 0.000000 0.000000
# 3 -0.002231 -0.004300 0.011836 0.000000 0.000000 0.000000
# 4 0.000000 0.000000 0.000000 0.013790 0.000000 0.000000
# 5 0.000000 0.000000 0.000000 0.000000 0.032419 0.000000
# 6 0.000000 0.000000 0.000000 0.000000 0.000000 0.030993
#
#
# Mechanical properties :
#
#
# Convention : Reuss Voigt Hill
#
# Bulk Modulus (GPa) = 58.26201 64.61815 61.44008
# Shear Modulus (GPa) = 35.85501 40.67330 38.26415
#
# Velocity S-wave (km/s) = 4.26326 4.54069 4.40416
# Velocity P-wave (km/s) = 7.33264 7.76185 7.55030
#
# Compressibility (1/GPa) = 0.01716384
#
# Stress axis : x y z
#
# Youngs Moduli (GPa) = 66.17089 101.03494 84.48878
#
# Poissons Ratio (x) = 0.33437 0.18852
# Poissons Ratio (y) = 0.21899 0.36332
# Poissons Ratio (z) = 0.14765 0.43447
#
# Static dielectric constant tensor:
#      x y z
#    x 3.797790 0.000000 0.000000 
#    y 0.000000 3.485750 0.000000 
#    z 0.000000 0.000000 4.378120 
# 
# 
# High freq. dielectric constant tensor:
#      x y z
#    x 1.779780 0.000000 0.000000 
#    y 0.000000 1.775960 0.000000 
#    z 0.000000 0.000000 1.775650 
# 
# From -- ./inp_files/9870.got.cif
#   From: 2010.03.12/outbox.cif.g09.slc.cpg/sg53_5_cif.got.tgz:9870.got - 2010.04.16 14:36:59.
