data_PCOD8221007
_publ_section_title
;
Structure prediction by ZEFSAII (Michael W. Deem and Ramdas Pophale) SiO2 
 PCOD8221007
Probable space group: P M N A
;
_chemical_formula_sum "Si O2"
_cell_formula_units_Z 40
_cell_length_a 18.215691
_cell_length_b 10.378316
_cell_length_c 10.552171
_cell_angle_alpha 90.000000
_cell_angle_beta 90.000000
_cell_angle_gamma 90.000000
_cell_volume 1994.868906
_symmetry_space_group_name_H-M "P M N A"
_symmetry_group_IT_number 53
_symmetry_cell_setting 'orthorhombic'
loop_
_space_group_symop_operation_xyz
x,y,z
1/2-x,-y,1/2+z
x,-y,-z
1/2-x,y,1/2-z
-x,-y,-z
1/2+x,y,1/2-z
-x,y,z
1/2+x,-y,1/2+z
loop_
_atom_site_type_symbol
_atom_site_label
_atom_site_fract_x
_atom_site_fract_y
_atom_site_fract_z
Si Si1 0.915560 0.733793 0.227149
Si Si2 0.812571 0.514059 0.143310
Si Si3 0.415973 0.646370 0.989842
Si Si4 0.917689 0.010512 0.148918
Si Si5 0.336469 0.255157 0.246578
O O1 0.867976 0.633754 0.145903
O O2 0.907516 0.711207 0.375180
O O3 0.885294 0.877494 0.203929
O O4 0.000000 0.720974 0.181704
O O5 0.750000 0.534368 0.250000
O O6 0.858034 0.384035 0.175497
O O7 0.780030 0.500000 0.000000
O O8 0.500000 0.649010 0.940825
O O9 0.365103 0.728385 0.896326
O O10 0.387676 0.500000 0.000000
O O11 0.000000 0.032380 0.200444
O O12 0.869497 0.129559 0.191135
O O13 0.916600 0.000000 0.000000
O O14 0.250000 0.237539 0.250000
#
# Coordination Sequence:
#
# PCOD8221007 Si02
#       5
#     8   8   8   8   8
#     4  10  22  40  67  96 123 164 217 264 321 380
#     4  11  25  40  64  93 130 170 212 263 320 385
#     4  10  20  39  66  96 129 165 209 268 323 376
#     4  10  22  43  63  85 123 166 212 264 316 373
#     4  11  24  38  61  92 129 165 212 257 319 386
#
# _framework density 20.051442999999999
#
# number of rings (size 3 to 8) (size 9 to 14) (size 15 to 20)
#    0.000    1.600    2.000    1.800    5.600    2.800 
#    3.600    3.000    0.000    0.000    0.000    0.000 
#    0.000    0.000    0.000    0.000    0.000    0.000 
#
# Total GULP energy -496060.950196 kJ/mol
# GULP energy per Si atom -12401.523755 kJ/mol
# Density = 2.000581 g / cm^3
# Si number density = 20.051443 Si / 1000 Ang^3
#
#
#
# Elastic Constant Matrix: (Units=GPa)
#
#
# Indices 1 2 3 4 5 6 
#
# 1 85.9134 45.8359 27.8779 0.0000 0.0000 0.0000
# 2 45.8359 147.4347 14.9152 0.0000 0.0000 0.0000
# 3 27.8779 14.9152 83.1933 0.0000 0.0000 0.0000
# 4 0.0000 0.0000 0.0000 33.8665 0.0000 0.0000
# 5 0.0000 0.0000 0.0000 0.0000 7.9409 0.0000
# 6 0.0000 0.0000 0.0000 0.0000 0.0000 36.0210
#
#
#
# Elastic Compliance Matrix: (Units=1/GPa)
#
#
# Indices 1 2 3 4 5 6 
#
# 1 0.015373 -0.004337 -0.004374 0.000000 0.000000 0.000000
# 2 -0.004337 0.008131 -0.000005 0.000000 0.000000 0.000000
# 3 -0.004374 -0.000005 0.013487 0.000000 0.000000 0.000000
# 4 0.000000 0.000000 0.000000 0.029528 0.000000 0.000000
# 5 0.000000 0.000000 0.000000 0.000000 0.125931 0.000000
# 6 0.000000 0.000000 0.000000 0.000000 0.000000 0.027762
#
#
# Mechanical properties :
#
#
# Convention : Reuss Voigt Hill
#
# Bulk Modulus (GPa) = 51.12374 54.86660 52.99517
# Shear Modulus (GPa) = 20.47827 30.75982 25.61904
#
# Velocity S-wave (km/s) = 3.19922 3.92094 3.57832
# Velocity P-wave (km/s) = 6.26086 6.92247 6.59996
#
# Compressibility (1/GPa) = 0.01956039
#
# Stress axis : x y z
#
# Youngs Moduli (GPa) = 65.05098 122.98069 74.14719
#
# Poissons Ratio (x) = 0.53333 0.32431
# Poissons Ratio (y) = 0.28211 0.00034
# Poissons Ratio (z) = 0.28452 0.00057
#
# Static dielectric constant tensor:
#      x y z
#    x 3.638030 0.000000 0.000000 
#    y 0.000000 3.753320 0.000000 
#    z 0.000000 0.000000 4.032160 
# 
# 
# High freq. dielectric constant tensor:
#      x y z
#    x 1.775400 0.000000 0.000000 
#    y 0.000000 1.791940 0.000000 
#    z 0.000000 0.000000 1.787990 
# 
# From -- ./inp_files/16704.got.cif
#   From: 2010.03.12/outbox.cif.g09.slc.cpg/sg53_9_cif.got.tgz:16704.got - 2010.04.16 14:36:59.
