data_PCOD8221323
_publ_section_title
;
Structure prediction by ZEFSAII (Michael W. Deem and Ramdas Pophale) SiO2 
 PCOD8221323
Probable space group: P M N A
;
_chemical_formula_sum "Si O2"
_cell_formula_units_Z 64
_cell_length_a 8.736857
_cell_length_b 11.978149
_cell_length_c 30.958684
_cell_angle_alpha 90.000000
_cell_angle_beta 90.000000
_cell_angle_gamma 90.000000
_cell_volume 3239.868847
_symmetry_space_group_name_H-M "P M N A"
_symmetry_group_IT_number 53
_symmetry_cell_setting 'orthorhombic'
loop_
_space_group_symop_operation_xyz
x,y,z
1/2-x,-y,1/2+z
x,-y,-z
1/2-x,y,1/2-z
-x,-y,-z
1/2+x,y,1/2-z
-x,y,z
1/2+x,-y,1/2+z
loop_
_atom_site_type_symbol
_atom_site_label
_atom_site_fract_x
_atom_site_fract_y
_atom_site_fract_z
Si Si1 0.680281 0.514815 0.049094
Si Si2 0.823227 0.244958 0.581664
Si Si3 0.180689 0.027150 0.953043
Si Si4 0.318422 0.515327 0.294353
Si Si5 0.181516 0.626728 0.876168
Si Si6 0.817852 0.120889 0.124966
Si Si7 0.821184 0.749079 0.317507
Si Si8 0.681925 0.019736 0.706631
O O1 0.500000 0.498469 0.053982
O O2 0.732738 0.636810 0.063799
O O3 0.760253 0.423693 0.079041
O O4 0.735218 0.500000 0.000000
O O5 0.789697 0.242270 0.632007
O O6 0.000000 0.222828 0.570921
O O7 0.721853 0.152941 0.558509
O O8 0.248232 0.940652 0.917701
O O9 0.000000 0.015095 0.954045
O O10 0.251198 0.000000 0.000000
O O11 0.250000 0.464329 0.250000
O O12 0.500000 0.511752 0.292031
O O13 0.256864 0.442614 0.334874
O O14 0.262286 0.641497 0.298778
O O15 0.244806 0.753009 0.873032
O O16 0.000000 0.625215 0.876697
O O17 0.757806 0.053702 0.166617
O O18 0.000000 0.120062 0.124290
O O19 0.000000 0.741281 0.306515
O O20 0.748270 0.856090 0.295318
O O21 0.750000 0.963604 0.750000
O O22 0.500000 0.023841 0.708182
#
# Coordination Sequence:
#
# PCOD8221323 Si02
#       8
#     8   8   8   8   8   8   8   8
#     4  10  22  40  60  86 120 155 191 236 291 342
#     4  10  21  37  59  86 119 153 188 236 287 339
#     4  10  21  37  60  88 116 151 193 236 284 340
#     4  11  23  38  59  86 115 150 191 236 289 345
#     4  10  22  40  61  85 114 151 195 240 286 339
#     4   9  20  39  58  81 116 151 186 235 286 333
#     4  11  21  37  60  86 118 152 191 237 287 341
#     4  11  22  38  60  85 117 152 190 237 288 343
#
# _framework density 19.753886999999999
#
# number of rings (size 3 to 8) (size 9 to 14) (size 15 to 20)
#    0.000    1.750    2.500    1.500    1.750    2.500 
#    0.000    1.875    0.000    0.000    0.000    0.000 
#    0.000    0.000    0.000    0.000    0.000    0.000 
#
# Total GULP energy -793809.025283 kJ/mol
# GULP energy per Si atom -12403.266020 kJ/mol
# Density = 1.970893 g / cm^3
# Si number density = 19.753887 Si / 1000 Ang^3
#
#
#
# Elastic Constant Matrix: (Units=GPa)
#
#
# Indices 1 2 3 4 5 6 
#
# 1 35.4580 14.4101 33.3644 0.0000 0.0000 0.0000
# 2 14.4101 132.2090 71.6844 0.0000 0.0000 0.0000
# 3 33.3644 71.6844 160.3785 0.0000 0.0000 0.0000
# 4 0.0000 0.0000 0.0000 39.4265 0.0000 0.0000
# 5 0.0000 0.0000 0.0000 0.0000 24.6570 0.0000
# 6 0.0000 0.0000 0.0000 0.0000 0.0000 80.0605
#
#
#
# Elastic Compliance Matrix: (Units=1/GPa)
#
#
# Indices 1 2 3 4 5 6 
#
# 1 0.035070 0.000176 -0.007374 0.000000 0.000000 0.000000
# 2 0.000176 0.009984 -0.004499 0.000000 0.000000 0.000000
# 3 -0.007374 -0.004499 0.009780 0.000000 0.000000 0.000000
# 4 0.000000 0.000000 0.000000 0.025364 0.000000 0.000000
# 5 0.000000 0.000000 0.000000 0.000000 0.040556 0.000000
# 6 0.000000 0.000000 0.000000 0.000000 0.000000 0.012491
#
#
# Mechanical properties :
#
#
# Convention : Reuss Voigt Hill
#
# Bulk Modulus (GPa) = 31.80750 62.99593 47.40172
# Shear Modulus (GPa) = 29.91862 42.73458 36.32660
#
# Velocity S-wave (km/s) = 3.89597 4.65623 4.29296
# Velocity P-wave (km/s) = 6.03116 7.80173 6.97287
#
# Compressibility (1/GPa) = 0.03143913
#
# Stress axis : x y z
#
# Youngs Moduli (GPa) = 28.51447 100.15939 102.24525
#
# Poissons Ratio (x) = -0.01763 0.75400
# Poissons Ratio (y) = -0.00502 0.46002
# Poissons Ratio (z) = 0.21028 0.45064
#
# Static dielectric constant tensor:
#      x y z
#    x 3.350670 0.000000 0.000000 
#    y 0.000000 3.685550 0.000000 
#    z 0.000000 0.000000 3.961840 
# 
# 
# High freq. dielectric constant tensor:
#      x y z
#    x 1.750580 0.000000 0.000000 
#    y 0.000000 1.772690 0.000000 
#    z 0.000000 0.000000 1.791190 
# 
# From -- ./inp_files/38247.got.cif
#   From: 2010.03.12/outbox.cif.g09.slc.cpg/sg53_20_cif.got.tgz:38247.got - 2010.04.16 14:36:59.
