data_PCOD8221884
_publ_section_title
;
Structure prediction by ZEFSAII (Michael W. Deem and Ramdas Pophale) SiO2 
 PCOD8221884
Probable space group: P M N A
;
_chemical_formula_sum "Si O2"
_cell_formula_units_Z 40
_cell_length_a 18.678434
_cell_length_b 5.754032
_cell_length_c 17.246557
_cell_angle_alpha 90.000000
_cell_angle_beta 90.000000
_cell_angle_gamma 90.000000
_cell_volume 1853.596254
_symmetry_space_group_name_H-M "P M N A"
_symmetry_group_IT_number 53
_symmetry_cell_setting 'orthorhombic'
loop_
_space_group_symop_operation_xyz
x,y,z
1/2-x,-y,1/2+z
x,-y,-z
1/2-x,y,1/2-z
-x,-y,-z
1/2+x,y,1/2-z
-x,y,z
1/2+x,-y,1/2+z
loop_
_atom_site_type_symbol
_atom_site_label
_atom_site_fract_x
_atom_site_fract_y
_atom_site_fract_z
Si Si1 0.419261 0.556817 0.154318
Si Si2 0.580301 0.133387 0.694323
Si Si3 0.154878 0.741975 0.041159
Si Si4 0.820893 0.825918 0.713855
Si Si5 0.690200 0.150743 0.925614
O O1 0.500000 0.494189 0.128801
O O2 0.418822 0.684878 0.236070
O O3 0.371364 0.330454 0.161735
O O4 0.381756 0.700566 0.085894
O O5 0.500000 0.036448 0.681799
O O6 0.606895 0.260204 0.617587
O O7 0.632607 0.921261 0.714483
O O8 0.238510 0.699648 0.059185
O O9 0.129673 0.500000 0.000000
O O10 0.144633 0.000000 0.000000
O O11 0.750000 0.701849 0.750000
O O12 0.792308 0.019176 0.654595
O O13 0.672102 0.000000 0.000000
#
# Coordination Sequence:
#
# PCOD8221884 Si02
#       5
#     8   8   8   8   8
#     4  10  24  40  64  95 128 174 224 283 347 412
#     4  10  23  43  64  96 136 174 221 282 342 407
#     4  11  26  43  68 102 137 181 233 279 338 408
#     4  11  22  39  68  97 127 175 228 279 342 408
#     4  10  24  41  63  94 132 174 225 287 339 407
#
# _framework density 21.579674000000001
#
# number of rings (size 3 to 8) (size 9 to 14) (size 15 to 20)
#    0.000    1.600    2.000    0.600   11.200    2.000 
#    0.000    1.000    0.000    0.000    0.000    0.000 
#    0.000    0.000    0.000    0.000    0.000    0.000 
#
# Total GULP energy -495732.657557 kJ/mol
# GULP energy per Si atom -12393.316439 kJ/mol
# Density = 2.153056 g / cm^3
# Si number density = 21.579674 Si / 1000 Ang^3
#
#
#
# Elastic Constant Matrix: (Units=GPa)
#
#
# Indices 1 2 3 4 5 6 
#
# 1 136.2536 36.7687 51.8507 0.0000 0.0000 0.0000
# 2 36.7687 83.4588 26.0422 0.0000 0.0000 0.0000
# 3 51.8507 26.0422 99.7234 0.0000 0.0000 0.0000
# 4 0.0000 0.0000 0.0000 27.5555 0.0000 0.0000
# 5 0.0000 0.0000 0.0000 0.0000 29.8243 0.0000
# 6 0.0000 0.0000 0.0000 0.0000 0.0000 21.0885
#
#
#
# Elastic Compliance Matrix: (Units=1/GPa)
#
#
# Indices 1 2 3 4 5 6 
#
# 1 0.009779 -0.002963 -0.004311 0.000000 0.000000 0.000000
# 2 -0.002963 0.013943 -0.002100 0.000000 0.000000 0.000000
# 3 -0.004311 -0.002100 0.012818 0.000000 0.000000 0.000000
# 4 0.000000 0.000000 0.000000 0.036290 0.000000 0.000000
# 5 0.000000 0.000000 0.000000 0.000000 0.033530 0.000000
# 6 0.000000 0.000000 0.000000 0.000000 0.000000 0.047419
#
#
# Mechanical properties :
#
#
# Convention : Reuss Voigt Hill
#
# Bulk Modulus (GPa) = 56.20870 60.97324 58.59097
# Shear Modulus (GPa) = 28.01771 29.34528 28.68150
#
# Velocity S-wave (km/s) = 3.60715 3.69163 3.64963
# Velocity P-wave (km/s) = 6.59184 6.81814 6.70595
#
# Compressibility (1/GPa) = 0.01779084
#
# Stress axis : x y z
#
# Youngs Moduli (GPa) = 102.25570 71.72139 78.01725
#
# Poissons Ratio (x) = 0.21253 0.33633
# Poissons Ratio (y) = 0.30301 0.16386
# Poissons Ratio (z) = 0.44082 0.15064
#
# Static dielectric constant tensor:
#      x y z
#    x 4.139600 0.000000 0.000000 
#    y 0.000000 3.859280 0.000000 
#    z 0.000000 0.000000 3.859360 
# 
# 
# High freq. dielectric constant tensor:
#      x y z
#    x 1.859450 0.000000 0.000000 
#    y 0.000000 1.831390 0.000000 
#    z 0.000000 0.000000 1.852010 
# 
# From -- ./inp_files/28731.got.cif
#   From: 2010.03.12/outbox.cif.g09.slc.cpg/sg53_15_cif.got.tgz:28731.got - 2010.04.16 14:36:59.
