data_PCOD8221433
_publ_section_title
;
Structure prediction by ZEFSAII (Michael W. Deem and Ramdas Pophale) SiO2 
 PCOD8221433
Probable space group: P M N A
;
_chemical_formula_sum "Si O2"
_cell_formula_units_Z 64
_cell_length_a 8.885760
_cell_length_b 23.289762
_cell_length_c 15.471110
_cell_angle_alpha 90.000000
_cell_angle_beta 90.000000
_cell_angle_gamma 90.000000
_cell_volume 3201.703446
_symmetry_space_group_name_H-M "P M N A"
_symmetry_group_IT_number 53
_symmetry_cell_setting 'orthorhombic'
loop_
_space_group_symop_operation_xyz
x,y,z
1/2-x,-y,1/2+z
x,-y,-z
1/2-x,y,1/2-z
-x,-y,-z
1/2+x,y,1/2-z
-x,y,z
1/2+x,-y,1/2+z
loop_
_atom_site_type_symbol
_atom_site_label
_atom_site_fract_x
_atom_site_fract_y
_atom_site_fract_z
Si Si1 0.321814 0.060466 0.895335
Si Si2 0.326639 0.374040 0.505294
Si Si3 0.177587 0.934389 0.591175
Si Si4 0.822821 0.828947 0.164915
Si Si5 0.178179 0.184647 0.338454
Si Si6 0.172861 0.240703 0.001494
Si Si7 0.175819 0.574852 0.660480
Si Si8 0.175583 0.558678 0.339500
O O1 0.500000 0.070830 0.885835
O O2 0.231922 0.105110 0.836827
O O3 0.275721 0.995504 0.866555
O O4 0.264111 0.069707 0.993185
O O5 0.500000 0.393089 0.501839
O O6 0.308950 0.306879 0.522697
O O7 0.249592 0.388583 0.414992
O O8 0.245971 0.406739 0.582330
O O9 0.240386 0.880225 0.644883
O O10 0.000000 0.931189 0.586635
O O11 0.750000 0.799854 0.250000
O O12 0.000000 0.825684 0.173753
O O13 0.766077 0.795309 0.080207
O O14 0.250000 0.207671 0.250000
O O15 0.227079 0.226258 0.415588
O O16 0.000000 0.186426 0.330306
O O17 0.000000 0.225087 0.022010
O O18 0.250000 0.594761 0.750000
O O19 0.207538 0.508059 0.642960
O O20 0.000000 0.588445 0.664617
O O21 0.250000 0.578798 0.250000
O O22 0.000000 0.572128 0.334113
#
# Coordination Sequence:
#
# PCOD8221433 Si02
#       8
#     8   8   8   8   8   8   8   8
#     4   9  16  33  58  84 114 145 182 228 283 346
#     4  11  23  39  61  87 118 156 198 244 293 344
#     4   8  16  31  56  85 114 146 180 226 284 344
#     4  11  23  39  59  83 112 147 190 238 288 344
#     4  11  22  38  61  86 112 150 192 235 290 347
#     4  10  24  44  60  81 114 151 196 247 288 334
#     4  10  21  38  61  91 125 159 195 237 286 342
#     4  10  21  38  61  91 126 159 194 237 286 341
#
# _framework density 19.989360000000001
#
# number of rings (size 3 to 8) (size 9 to 14) (size 15 to 20)
#    0.000    2.000    1.250    3.000    0.000    6.000 
#    0.000    5.000    0.000    0.000    0.000    0.000 
#    0.000    0.000    0.000    0.000    0.000    0.000 
#
# Total GULP energy -793713.714590 kJ/mol
# GULP energy per Si atom -12401.776790 kJ/mol
# Density = 1.994386 g / cm^3
# Si number density = 19.989360 Si / 1000 Ang^3
#
#
#
# Elastic Constant Matrix: (Units=GPa)
#
#
# Indices 1 2 3 4 5 6 
#
# 1 83.4507 30.0642 44.0100 0.0000 0.0000 0.0000
# 2 30.0642 60.5034 29.7981 0.0000 0.0000 0.0000
# 3 44.0100 29.7981 121.5519 0.0000 0.0000 0.0000
# 4 0.0000 0.0000 0.0000 -3.5981 0.0000 0.0000
# 5 0.0000 0.0000 0.0000 0.0000 36.7614 0.0000
# 6 0.0000 0.0000 0.0000 0.0000 0.0000 32.3932
#
#
#
# Elastic Compliance Matrix: (Units=1/GPa)
#
#
# Indices 1 2 3 4 5 6 
#
# 1 0.016520 -0.005986 -0.004514 0.000000 0.000000 0.000000
# 2 -0.005986 0.020966 -0.002973 0.000000 0.000000 0.000000
# 3 -0.004514 -0.002973 0.010590 0.000000 0.000000 0.000000
# 4 0.000000 0.000000 0.000000 -0.277926 0.000000 0.000000
# 5 0.000000 0.000000 0.000000 0.000000 0.027202 0.000000
# 6 0.000000 0.000000 0.000000 0.000000 0.000000 0.030871
#
#
# Mechanical properties :
#
#
# Convention : Reuss Voigt Hill
#
# Bulk Modulus (GPa) = 47.32196 52.58339 49.95267
# Shear Modulus (GPa) = -36.28778 23.88688 -6.20045
#
# Velocity S-wave (km/s) = -4.26532 3.46060 -1.76312
# Velocity P-wave (km/s) = 0.72960 6.50619 4.57155
#
# Compressibility (1/GPa) = 0.02113184
#
# Stress axis : x y z
#
# Youngs Moduli (GPa) = 60.53216 47.69552 94.42824
#
# Poissons Ratio (x) = 0.28549 0.42625
# Poissons Ratio (y) = 0.36233 0.28070
# Poissons Ratio (z) = 0.27324 0.14178
#
# Static dielectric constant tensor:
#      x y z
#    x 3.529430 0.000000 0.000000 
#    y 0.000000 3.711710 0.000000 
#    z 0.000000 0.000000 3.725070 
# 
# 
# High freq. dielectric constant tensor:
#      x y z
#    x 1.773470 0.000000 0.000000 
#    y 0.000000 1.776830 0.000000 
#    z 0.000000 0.000000 1.787580 
# 
# From -- ./inp_files/20953.got.cif
#   From: 2010.03.12/outbox.cif.g09.slc.cpg/sg53_11_cif.got.tgz:20953.got - 2010.04.16 14:36:59.
