data_PCOD8221316
_publ_section_title
;
Structure prediction by ZEFSAII (Michael W. Deem and Ramdas Pophale) SiO2 
 PCOD8221316
Probable space group: P M N A
;
_chemical_formula_sum "Si O2"
_cell_formula_units_Z 48
_cell_length_a 8.909947
_cell_length_b 8.946125
_cell_length_c 30.641307
_cell_angle_alpha 90.000000
_cell_angle_beta 90.000000
_cell_angle_gamma 90.000000
_cell_volume 2442.403248
_symmetry_space_group_name_H-M "P M N A"
_symmetry_group_IT_number 53
_symmetry_cell_setting 'orthorhombic'
loop_
_space_group_symop_operation_xyz
x,y,z
1/2-x,-y,1/2+z
x,-y,-z
1/2-x,y,1/2-z
-x,-y,-z
1/2+x,y,1/2-z
-x,y,z
1/2+x,-y,1/2+z
loop_
_atom_site_type_symbol
_atom_site_label
_atom_site_fract_x
_atom_site_fract_y
_atom_site_fract_z
Si Si1 0.173283 0.397351 0.541179
Si Si2 0.823161 0.917787 0.204955
Si Si3 0.825723 0.927386 0.624523
Si Si4 0.672432 0.418057 0.126750
Si Si5 0.324300 0.576607 0.294665
Si Si6 0.825350 0.914183 0.044148
O O1 0.207310 0.500000 0.500000
O O2 0.215993 0.488283 0.584313
O O3 0.282430 0.257326 0.537924
O O4 0.000000 0.345316 0.541658
O O5 0.750000 0.972385 0.250000
O O6 0.775898 0.746859 0.194779
O O7 0.000000 0.935407 0.209058
O O8 0.764554 0.022898 0.166891
O O9 0.794316 0.753763 0.616020
O O10 0.000000 0.961685 0.632170
O O11 0.771882 0.017724 0.582751
O O12 0.500000 0.443113 0.139866
O O13 0.774287 0.469726 0.166560
O O14 0.250000 0.520371 0.250000
O O15 0.500000 0.563012 0.288477
O O16 0.000000 0.927541 0.056158
O O17 0.785488 0.000000 0.000000
#
# Coordination Sequence:
#
# PCOD8221316 Si02
#       6
#     8   8   8   8   8   8
#     4  10  21  39  63  88 115 150 192 236 282 337
#     4  10  21  38  60  87 117 151 193 238 287 343
#     4  11  23  39  60  85 115 153 194 237 286 340
#     4  10  22  38  57  84 116 149 189 235 283 336
#     4  10  21  37  59  84 112 148 189 234 284 338
#     4  11  24  40  59  86 119 153 190 235 287 342
#
# _framework density 19.652774000000001
#
# number of rings (size 3 to 8) (size 9 to 14) (size 15 to 20)
#    0.000    1.667    0.000    4.000    0.000   10.333 
#    0.000    0.000    0.000    0.000    0.000    0.000 
#    0.000    0.000    0.000    0.000    0.000    0.000 
#
# Total GULP energy -595526.594008 kJ/mol
# GULP energy per Si atom -12406.804042 kJ/mol
# Density = 1.960804 g / cm^3
# Si number density = 19.652774 Si / 1000 Ang^3
#
#
#
# Elastic Constant Matrix: (Units=GPa)
#
#
# Indices 1 2 3 4 5 6 
#
# 1 69.1136 35.2069 45.4629 0.0000 0.0000 0.0000
# 2 35.2069 95.7136 49.4385 0.0000 0.0000 0.0000
# 3 45.4629 49.4385 130.0746 0.0000 0.0000 0.0000
# 4 0.0000 0.0000 0.0000 35.8266 0.0000 0.0000
# 5 0.0000 0.0000 0.0000 0.0000 36.0175 0.0000
# 6 0.0000 0.0000 0.0000 0.0000 0.0000 65.4354
#
#
#
# Elastic Compliance Matrix: (Units=1/GPa)
#
#
# Indices 1 2 3 4 5 6 
#
# 1 0.020389 -0.004752 -0.005320 0.000000 0.000000 0.000000
# 2 -0.004752 0.014107 -0.003701 0.000000 0.000000 0.000000
# 3 -0.005320 -0.003701 0.010954 0.000000 0.000000 0.000000
# 4 0.000000 0.000000 0.000000 0.027912 0.000000 0.000000
# 5 0.000000 0.000000 0.000000 0.000000 0.027764 0.000000
# 6 0.000000 0.000000 0.000000 0.000000 0.000000 0.015282
#
#
# Mechanical properties :
#
#
# Convention : Reuss Voigt Hill
#
# Bulk Modulus (GPa) = 55.85222 61.67980 58.76601
# Shear Modulus (GPa) = 33.35024 38.44214 35.89619
#
# Velocity S-wave (km/s) = 4.12390 4.42754 4.27842
# Velocity P-wave (km/s) = 7.15239 7.58884 7.37384
#
# Compressibility (1/GPa) = 0.01790439
#
# Stress axis : x y z
#
# Youngs Moduli (GPa) = 49.04560 70.88459 91.29005
#
# Poissons Ratio (x) = 0.33683 0.48568
# Poissons Ratio (y) = 0.23306 0.33787
# Poissons Ratio (z) = 0.26093 0.26235
#
# Static dielectric constant tensor:
#      x y z
#    x 3.595970 0.000000 0.000000 
#    y 0.000000 3.626350 0.000000 
#    z 0.000000 0.000000 3.863700 
# 
# 
# High freq. dielectric constant tensor:
#      x y z
#    x 1.772000 0.000000 0.000000 
#    y 0.000000 1.770040 0.000000 
#    z 0.000000 0.000000 1.781310 
# 
# From -- ./inp_files/37668.got.cif
#   From: 2010.03.12/outbox.cif.g09.slc.cpg/sg53_19_cif.got.tgz:37668.got - 2010.04.16 14:36:59.
