data_PCOD8221580
_publ_section_title
;
Structure prediction by ZEFSAII (Michael W. Deem and Ramdas Pophale) SiO2 
 PCOD8221580
Probable space group: P M N A
;
_chemical_formula_sum "Si O2"
_cell_formula_units_Z 32
_cell_length_a 15.329091
_cell_length_b 16.958689
_cell_length_c 5.233837
_cell_angle_alpha 90.000000
_cell_angle_beta 90.000000
_cell_angle_gamma 90.000000
_cell_volume 1360.595002
_symmetry_space_group_name_H-M "P M N A"
_symmetry_group_IT_number 53
_symmetry_cell_setting 'orthorhombic'
loop_
_space_group_symop_operation_xyz
x,y,z
1/2-x,-y,1/2+z
x,-y,-z
1/2-x,y,1/2-z
-x,-y,-z
1/2+x,y,1/2-z
-x,y,z
1/2+x,-y,1/2+z
loop_
_atom_site_type_symbol
_atom_site_label
_atom_site_fract_x
_atom_site_fract_y
_atom_site_fract_z
Si Si1 0.855256 0.818690 0.754274
Si Si2 0.673566 0.590628 0.930207
Si Si3 0.845696 0.264292 0.743810
Si Si4 0.500000 0.052599 0.252527
Si Si5 0.000000 0.447814 0.247042
O O1 0.750000 0.833965 0.750000
O O2 0.891386 0.774830 0.501333
O O3 0.909557 0.898919 0.766784
O O4 0.887654 0.761578 0.987898
O O5 0.750000 0.626509 0.750000
O O6 0.587868 0.602950 0.755608
O O7 0.693661 0.500000 0.000000
O O8 0.660852 0.640568 0.192354
O O9 0.750000 0.227357 0.750000
O O10 0.500000 0.000000 0.500000
O O11 0.500000 0.000000 0.000000
O O12 0.000000 0.500000 0.500000
O O13 0.000000 0.500000 0.000000
#
# Coordination Sequence:
#
# PCOD8221580 Si02
#       5
#     8   8   8   4   4
#     4  10  23  43  66  94 136 175 210 261 321 391
#     4  11  22  38  64  93 130 176 231 296 343 377
#     4  10  21  40  64  93 128 176 226 265 322 396
#     4  12  26  44  72 108 133 162 215 262 318 403
#     4  10  24  40  54  82 120 160 214 278 349 411
#
# _framework density 23.519121999999999
#
# number of rings (size 3 to 8) (size 9 to 14) (size 15 to 20)
#    0.000    1.500    0.000    5.250    0.000    9.000 
#    0.000    0.000    0.000    6.000    0.000    0.000 
#    0.000    0.000    0.000    0.000    0.000    0.000 
#
# Total GULP energy -396468.842555 kJ/mol
# GULP energy per Si atom -12389.651330 kJ/mol
# Density = 2.346559 g / cm^3
# Si number density = 23.519122 Si / 1000 Ang^3
#
#
#
# Elastic Constant Matrix: (Units=GPa)
#
#
# Indices 1 2 3 4 5 6 
#
# 1 129.8347 35.8210 44.3040 0.0000 0.0000 0.0000
# 2 35.8210 154.2734 82.3804 0.0000 0.0000 0.0000
# 3 44.3040 82.3804 203.9906 0.0000 0.0000 0.0000
# 4 0.0000 0.0000 0.0000 57.9497 0.0000 0.0000
# 5 0.0000 0.0000 0.0000 0.0000 20.2518 0.0000
# 6 0.0000 0.0000 0.0000 0.0000 0.0000 12.2857
#
#
#
# Elastic Compliance Matrix: (Units=1/GPa)
#
#
# Indices 1 2 3 4 5 6 
#
# 1 0.008507 -0.001260 -0.001339 0.000000 0.000000 0.000000
# 2 -0.001260 0.008451 -0.003139 0.000000 0.000000 0.000000
# 3 -0.001339 -0.003139 0.006461 0.000000 0.000000 0.000000
# 4 0.000000 0.000000 0.000000 0.017256 0.000000 0.000000
# 5 0.000000 0.000000 0.000000 0.000000 0.049378 0.000000
# 6 0.000000 0.000000 0.000000 0.000000 0.000000 0.081396
#
#
# Mechanical properties :
#
#
# Convention : Reuss Voigt Hill
#
# Bulk Modulus (GPa) = 83.73772 90.34552 87.04162
# Shear Modulus (GPa) = 26.75150 39.80363 33.27757
#
# Velocity S-wave (km/s) = 3.37625 4.11834 3.76562
# Velocity P-wave (km/s) = 7.13303 7.81737 7.48303
#
# Compressibility (1/GPa) = 0.01194205
#
# Stress axis : x y z
#
# Youngs Moduli (GPa) = 117.55592 118.33052 154.78429
#
# Poissons Ratio (x) = 0.14914 0.20718
# Poissons Ratio (y) = 0.14817 0.48588
# Poissons Ratio (z) = 0.15735 0.37145
#
# Static dielectric constant tensor:
#      x y z
#    x 5.038660 0.000000 0.000000 
#    y 0.000000 3.958100 0.000000 
#    z 0.000000 0.000000 4.585300 
# 
# 
# High freq. dielectric constant tensor:
#      x y z
#    x 1.929170 0.000000 0.000000 
#    y 0.000000 1.907170 0.000000 
#    z 0.000000 0.000000 1.954980 
# 
# From -- ./inp_files/1985.got.cif
#   From: 2010.03.12/outbox.cif.g09.slc.cpg/sg53_1_cif.got.tgz:1985.got - 2010.04.16 14:36:59.
