data_PCOD8221139
_publ_section_title
;
Structure prediction by ZEFSAII (Michael W. Deem and Ramdas Pophale) SiO2 
 PCOD8221139
Probable space group: P M N A
;
_chemical_formula_sum "Si O2"
_cell_formula_units_Z 64
_cell_length_a 9.628541
_cell_length_b 17.314023
_cell_length_c 19.486868
_cell_angle_alpha 90.000000
_cell_angle_beta 90.000000
_cell_angle_gamma 90.000000
_cell_volume 3248.631997
_symmetry_space_group_name_H-M "P M N A"
_symmetry_group_IT_number 53
_symmetry_cell_setting 'orthorhombic'
loop_
_space_group_symop_operation_xyz
x,y,z
1/2-x,-y,1/2+z
x,-y,-z
1/2-x,y,1/2-z
-x,-y,-z
1/2+x,y,1/2-z
-x,y,z
1/2+x,-y,1/2+z
loop_
_atom_site_type_symbol
_atom_site_label
_atom_site_fract_x
_atom_site_fract_y
_atom_site_fract_z
Si Si1 0.662438 0.080714 0.466594
Si Si2 0.351021 0.654189 0.973741
Si Si3 0.160736 0.564295 0.397854
Si Si4 0.662653 0.718362 0.182311
Si Si5 0.849104 0.191205 0.554495
Si Si6 0.341725 0.535178 0.688574
Si Si7 0.345197 0.299286 0.354677
Si Si8 0.836258 0.131687 0.185189
O O1 0.500000 0.094874 0.475399
O O2 0.736743 0.146077 0.510415
O O3 0.701719 0.086108 0.385440
O O4 0.708869 0.000000 0.500000
O O5 0.500000 0.639477 0.936031
O O6 0.314693 0.580873 0.021436
O O7 0.371010 0.724491 0.024769
O O8 0.232637 0.672867 0.921235
O O9 0.206932 0.637123 0.351595
O O10 0.261893 0.492052 0.380266
O O11 0.000000 0.542243 0.384007
O O12 0.750000 0.732607 0.250000
O O13 0.500000 0.717722 0.200012
O O14 0.697914 0.791983 0.132794
O O15 0.000000 0.148256 0.552282
O O16 0.250000 0.499714 0.750000
O O17 0.500000 0.503511 0.690473
O O18 0.343592 0.628323 0.696979
O O19 0.500000 0.278653 0.379011
O O20 0.284302 0.220842 0.322164
O O21 0.750000 0.096854 0.250000
O O22 0.000000 0.125230 0.201661
#
# Coordination Sequence:
#
# PCOD8221139 Si02
#       8
#     8   8   8   8   8   8   8   8
#     4  10  21  38  61  88 116 147 182 222 271 330
#     4   9  18  33  55  80 105 139 181 225 274 330
#     4   9  19  35  52  73 105 142 184 233 282 335
#     4   9  18  32  51  77 107 141 186 234 277 328
#     4   9  18  34  55  81 111 142 181 226 270 323
#     4  11  23  36  50  71 101 139 184 234 286 339
#     4  10  21  36  54  78 108 141 183 232 279 331
#     4  10  21  38  60  86 115 148 187 229 274 328
#
# _framework density 19.700600000000001
#
# number of rings (size 3 to 8) (size 9 to 14) (size 15 to 20)
#    0.000    2.375    1.250    2.625    0.000    5.250 
#    0.000    5.625    0.000    3.000    0.000    0.000 
#    0.000    0.000    0.000    0.000    0.000    0.000 
#
# Total GULP energy -793145.970644 kJ/mol
# GULP energy per Si atom -12392.905791 kJ/mol
# Density = 1.965576 g / cm^3
# Si number density = 19.700600 Si / 1000 Ang^3
#
#
#
# Elastic Constant Matrix: (Units=GPa)
#
#
# Indices 1 2 3 4 5 6 
#
# 1 72.3412 17.7568 40.7677 0.0000 0.0000 0.0000
# 2 17.7568 61.1300 21.3225 0.0000 0.0000 0.0000
# 3 40.7677 21.3225 87.1897 0.0000 0.0000 0.0000
# 4 0.0000 0.0000 0.0000 17.6624 0.0000 0.0000
# 5 0.0000 0.0000 0.0000 0.0000 24.8329 0.0000
# 6 0.0000 0.0000 0.0000 0.0000 0.0000 3.8799
#
#
#
# Elastic Compliance Matrix: (Units=1/GPa)
#
#
# Indices 1 2 3 4 5 6 
#
# 1 0.019159 -0.002668 -0.008306 0.000000 0.000000 0.000000
# 2 -0.002668 0.018256 -0.003217 0.000000 0.000000 0.000000
# 3 -0.008306 -0.003217 0.016140 0.000000 0.000000 0.000000
# 4 0.000000 0.000000 0.000000 0.056617 0.000000 0.000000
# 5 0.000000 0.000000 0.000000 0.000000 0.040269 0.000000
# 6 0.000000 0.000000 0.000000 0.000000 0.000000 0.257741
#
#
# Mechanical properties :
#
#
# Convention : Reuss Voigt Hill
#
# Bulk Modulus (GPa) = 39.72581 42.26166 40.99374
# Shear Modulus (GPa) = 11.23711 18.66263 14.94987
#
# Velocity S-wave (km/s) = 2.39088 3.08118 2.75772
# Velocity P-wave (km/s) = 5.27545 5.84438 5.56719
#
# Compressibility (1/GPa) = 0.02517255
#
# Stress axis : x y z
#
# Youngs Moduli (GPa) = 52.19473 54.77746 61.95965
#
# Poissons Ratio (x) = 0.14615 0.51462
# Poissons Ratio (y) = 0.13926 0.19932
# Poissons Ratio (z) = 0.43352 0.17621
#
# Static dielectric constant tensor:
#      x y z
#    x 3.522130 0.000000 0.000000 
#    y 0.000000 3.531420 0.000000 
#    z 0.000000 0.000000 3.570050 
# 
# 
# High freq. dielectric constant tensor:
#      x y z
#    x 1.765070 0.000000 0.000000 
#    y 0.000000 1.746780 0.000000 
#    z 0.000000 0.000000 1.767750 
# 
# From -- ./inp_files/31218.got.cif
#   From: 2010.03.12/outbox.cif.g09.slc.cpg/sg53_16_cif.got.tgz:31218.got - 2010.04.16 14:36:59.
