data_PCOD8221616
_publ_section_title
;
Structure prediction by ZEFSAII (Michael W. Deem and Ramdas Pophale) SiO2 
 PCOD8221616
Probable space group: P M N A
;
_chemical_formula_sum "Si O2"
_cell_formula_units_Z 52
_cell_length_a 27.894478
_cell_length_b 5.511820
_cell_length_c 15.937582
_cell_angle_alpha 90.000000
_cell_angle_beta 90.000000
_cell_angle_gamma 90.000000
_cell_volume 2450.392741
_symmetry_space_group_name_H-M "P M N A"
_symmetry_group_IT_number 53
_symmetry_cell_setting 'orthorhombic'
loop_
_space_group_symop_operation_xyz
x,y,z
1/2-x,-y,1/2+z
x,-y,-z
1/2-x,y,1/2-z
-x,-y,-z
1/2+x,y,1/2-z
-x,y,z
1/2+x,-y,1/2+z
loop_
_atom_site_type_symbol
_atom_site_label
_atom_site_fract_x
_atom_site_fract_y
_atom_site_fract_z
Si Si1 0.127223 0.751663 0.547668
Si Si2 0.406590 0.000000 0.500000
Si Si3 0.706875 0.578256 0.694249
Si Si4 0.260266 0.248141 0.045583
Si Si5 0.115091 0.162309 0.266317
Si Si6 0.445098 0.369120 0.377061
Si Si7 0.132358 0.767047 0.149844
O O1 0.111191 0.500000 0.500000
O O2 0.183509 0.744350 0.565114
O O3 0.100881 0.781403 0.637746
O O4 0.112924 0.000000 0.500000
O O5 0.439478 0.220703 0.465055
O O6 0.369377 0.034053 0.576963
O O7 0.750000 0.471858 0.750000
O O8 0.730458 0.772438 0.631756
O O9 0.663003 0.685622 0.746960
O O10 0.683947 0.357925 0.642088
O O11 0.245844 0.500000 0.000000
O O12 0.246745 0.000000 0.000000
O O13 0.070234 0.221851 0.206384
O O14 0.126761 0.880179 0.244070
O O15 0.500000 0.446923 0.367815
O O16 0.412784 0.606207 0.377217
#
# Coordination Sequence:
#
# PCOD8221616 Si02
#       7
#     8   4   8   8   8   8   8
#     4  10  22  40  67  91 124 166 221 274 327 390
#     4  10  21  42  62  96 132 170 210 262 327 394
#     4  11  23  40  60  83 126 173 216 269 323 383
#     4  10  23  39  57  88 120 167 221 267 314 379
#     4  10  23  41  62  91 125 167 214 267 338 391
#     4  10  22  41  67  95 127 166 212 264 327 403
#     4  10  24  38  62  91 128 174 215 267 323 404
#
# _framework density 21.221087000000001
#
# number of rings (size 3 to 8) (size 9 to 14) (size 15 to 20)
#    0.000    1.846    1.538    0.692    6.462    9.231 
#    5.538    0.000    0.000    0.923    0.000    0.000 
#    0.000    0.000    0.000    0.000    0.000    0.000 
#
# Total GULP energy -644225.774434 kJ/mol
# GULP energy per Si atom -12388.957201 kJ/mol
# Density = 2.117279 g / cm^3
# Si number density = 21.221087 Si / 1000 Ang^3
#
#
#
# Elastic Constant Matrix: (Units=GPa)
#
#
# Indices 1 2 3 4 5 6 
#
# 1 94.0730 13.7877 20.5432 0.0000 0.0000 0.0000
# 2 13.7877 108.7042 36.9267 0.0000 0.0000 0.0000
# 3 20.5432 36.9267 132.1984 0.0000 0.0000 0.0000
# 4 0.0000 0.0000 0.0000 37.2772 0.0000 0.0000
# 5 0.0000 0.0000 0.0000 0.0000 17.0178 0.0000
# 6 0.0000 0.0000 0.0000 0.0000 0.0000 3.5926
#
#
#
# Elastic Compliance Matrix: (Units=1/GPa)
#
#
# Indices 1 2 3 4 5 6 
#
# 1 0.011084 -0.000907 -0.001469 0.000000 0.000000 0.000000
# 2 -0.000907 0.010238 -0.002719 0.000000 0.000000 0.000000
# 3 -0.001469 -0.002719 0.008552 0.000000 0.000000 0.000000
# 4 0.000000 0.000000 0.000000 0.026826 0.000000 0.000000
# 5 0.000000 0.000000 0.000000 0.000000 0.058762 0.000000
# 6 0.000000 0.000000 0.000000 0.000000 0.000000 0.278351
#
#
# Mechanical properties :
#
#
# Convention : Reuss Voigt Hill
#
# Bulk Modulus (GPa) = 50.80170 53.05453 51.92811
# Shear Modulus (GPa) = 12.17839 29.15873 20.66856
#
# Velocity S-wave (km/s) = 2.39818 3.71083 3.12422
# Velocity P-wave (km/s) = 5.62669 6.58904 6.12679
#
# Compressibility (1/GPa) = 0.01968438
#
# Stress axis : x y z
#
# Youngs Moduli (GPa) = 90.22213 97.67665 116.93010
#
# Poissons Ratio (x) = 0.08857 0.17178
# Poissons Ratio (y) = 0.08181 0.31791
# Poissons Ratio (z) = 0.13254 0.26556
#
# Static dielectric constant tensor:
#      x y z
#    x 3.484620 0.000000 0.000000 
#    y 0.000000 4.064600 0.000000 
#    z 0.000000 0.000000 3.887290 
# 
# 
# High freq. dielectric constant tensor:
#      x y z
#    x 1.801280 0.000000 0.000000 
#    y 0.000000 1.838330 0.000000 
#    z 0.000000 0.000000 1.832900 
# 
# From -- ./inp_files/25136.got.cif
#   From: 2010.03.12/outbox.cif.g09.slc.cpg/sg53_13_cif.got.tgz:25136.got - 2010.04.16 14:36:59.
