data_PCOD8221340
_publ_section_title
;
Structure prediction by ZEFSAII (Michael W. Deem and Ramdas Pophale) SiO2 
 PCOD8221340
Probable space group: P M N A
;
_chemical_formula_sum "Si O2"
_cell_formula_units_Z 40
_cell_length_a 10.338946
_cell_length_b 13.764097
_cell_length_c 13.461037
_cell_angle_alpha 90.000000
_cell_angle_beta 90.000000
_cell_angle_gamma 90.000000
_cell_volume 1915.589772
_symmetry_space_group_name_H-M "P M N A"
_symmetry_group_IT_number 53
_symmetry_cell_setting 'orthorhombic'
loop_
_space_group_symop_operation_xyz
x,y,z
1/2-x,-y,1/2+z
x,-y,-z
1/2-x,y,1/2-z
-x,-y,-z
1/2+x,y,1/2-z
-x,y,z
1/2+x,-y,1/2+z
loop_
_atom_site_type_symbol
_atom_site_label
_atom_site_fract_x
_atom_site_fract_y
_atom_site_fract_z
Si Si1 0.246474 0.290259 0.959047
Si Si2 0.500000 0.606022 0.545008
Si Si3 0.250000 0.617276 0.250000
Si Si4 0.250000 0.816407 0.750000
Si Si5 0.500000 0.476351 0.790842
Si Si6 0.000000 0.614677 0.487718
Si Si7 0.000000 0.683387 0.737262
Si Si8 0.348103 0.895800 0.548327
O O1 0.259895 0.311725 0.843375
O O2 0.372157 0.326232 0.020983
O O3 0.126590 0.341696 0.008621
O O4 0.225251 0.175759 0.973002
O O5 0.500000 0.500000 0.500000
O O6 0.500000 0.614006 0.664749
O O7 0.369315 0.543514 0.271025
O O8 0.126842 0.748498 0.726901
O O9 0.282562 0.885944 0.656992
O O10 0.500000 0.387026 0.867695
O O11 0.500000 0.589384 0.840133
O O12 0.000000 0.500000 0.500000
O O13 0.500000 0.870084 0.558486
O O14 0.326301 0.000000 0.500000
#
# Coordination Sequence:
#
# PCOD8221340 Si02
#       8
#     8   4   4   4   4   4   4   8
#     4  11  21  41  61  93 128 172 224 272 329 394
#     4  12  22  38  64  96 128 182 236 266 318 409
#     4  10  21  37  60  86 134 174 226 272 320 382
#     4  12  23  45  68 104 130 172 220 282 352 396
#     4  10  22  36  52  93 127 181 221 270 314 390
#     4  10  24  36  54  90 140 180 207 265 339 387
#     4  12  24  38  66  97 138 176 226 273 331 397
#     4  11  25  48  74 100 131 172 226 284 347 407
#
# _framework density 20.881297
#
# number of rings (size 3 to 8) (size 9 to 14) (size 15 to 20)
#    0.000    1.000    4.000    3.000    2.800    4.000 
#    0.000    2.000    0.000    0.000    0.000    0.000 
#    0.000    0.000    0.000    0.000    0.000    0.000 
#
# Total GULP energy -495749.217173 kJ/mol
# GULP energy per Si atom -12393.730429 kJ/mol
# Density = 2.083377 g / cm^3
# Si number density = 20.881297 Si / 1000 Ang^3
#
#
#
# Elastic Constant Matrix: (Units=GPa)
#
#
# Indices 1 2 3 4 5 6 
#
# 1 190.4773 84.8612 44.9732 0.0000 0.0000 0.0000
# 2 84.8612 154.6320 56.1163 0.0000 0.0000 0.0000
# 3 44.9732 56.1163 73.7986 0.0000 0.0000 0.0000
# 4 0.0000 0.0000 0.0000 41.1224 0.0000 0.0000
# 5 0.0000 0.0000 0.0000 0.0000 34.9468 0.0000
# 6 0.0000 0.0000 0.0000 0.0000 0.0000 32.8039
#
#
#
# Elastic Compliance Matrix: (Units=1/GPa)
#
#
# Indices 1 2 3 4 5 6 
#
# 1 0.007135 -0.003229 -0.001893 0.000000 0.000000 0.000000
# 2 -0.003229 0.010393 -0.005935 0.000000 0.000000 0.000000
# 3 -0.001893 -0.005935 0.019217 0.000000 0.000000 0.000000
# 4 0.000000 0.000000 0.000000 0.024318 0.000000 0.000000
# 5 0.000000 0.000000 0.000000 0.000000 0.028615 0.000000
# 6 0.000000 0.000000 0.000000 0.000000 0.000000 0.030484
#
#
# Mechanical properties :
#
#
# Convention : Reuss Voigt Hill
#
# Bulk Modulus (GPa) = 68.34666 87.86769 78.10717
# Shear Modulus (GPa) = 33.97822 37.30510 35.64166
#
# Velocity S-wave (km/s) = 4.03824 4.23132 4.13591
# Velocity P-wave (km/s) = 7.38548 8.12669 7.76493
#
# Compressibility (1/GPa) = 0.01463129
#
# Stress axis : x y z
#
# Youngs Moduli (GPa) = 140.14458 96.22082 52.03723
#
# Poissons Ratio (x) = 0.31069 0.09852
# Poissons Ratio (y) = 0.45251 0.30884
# Poissons Ratio (z) = 0.26532 0.57106
#
# Static dielectric constant tensor:
#      x y z
#    x 4.298280 0.000000 0.000000 
#    y 0.000000 4.386240 0.000000 
#    z 0.000000 0.000000 3.595040 
# 
# 
# High freq. dielectric constant tensor:
#      x y z
#    x 1.837920 0.000000 0.000000 
#    y 0.000000 1.803510 0.000000 
#    z 0.000000 0.000000 1.837620 
# 
# From -- ./inp_files/19974.got.cif
#   From: 2010.03.12/outbox.cif.g09.slc.cpg/sg53_10_cif.got.tgz:19974.got - 2010.04.16 14:36:59.
