data_PCOD8221066
_publ_section_title
;
Structure prediction by ZEFSAII (Michael W. Deem and Ramdas Pophale) SiO2 
 PCOD8221066
Probable space group: P M N A
;
_chemical_formula_sum "Si O2"
_cell_formula_units_Z 56
_cell_length_a 9.184578
_cell_length_b 13.689490
_cell_length_c 28.153307
_cell_angle_alpha 90.000000
_cell_angle_beta 90.000000
_cell_angle_gamma 90.000000
_cell_volume 3539.776908
_symmetry_space_group_name_H-M "P M N A"
_symmetry_group_IT_number 53
_symmetry_cell_setting 'orthorhombic'
loop_
_space_group_symop_operation_xyz
x,y,z
1/2-x,-y,1/2+z
x,-y,-z
1/2-x,y,1/2-z
-x,-y,-z
1/2+x,y,1/2-z
-x,y,z
1/2+x,-y,1/2+z
loop_
_atom_site_type_symbol
_atom_site_label
_atom_site_fract_x
_atom_site_fract_y
_atom_site_fract_z
Si Si1 0.828868 0.755469 0.297062
Si Si2 0.163729 0.890541 0.449022
Si Si3 0.172332 0.225584 0.463187
Si Si4 0.164736 0.307763 0.602245
Si Si5 0.172269 0.068348 0.392643
Si Si6 0.828636 0.980234 0.296563
Si Si7 0.169186 0.389358 0.985739
O O1 0.750000 0.714140 0.250000
O O2 0.783175 0.688468 0.342585
O O3 0.783151 0.868005 0.306110
O O4 0.000000 0.747881 0.288662
O O5 0.234279 0.851082 0.497711
O O6 0.169128 0.806558 0.409598
O O7 0.000000 0.919599 0.462081
O O8 0.242389 0.986951 0.428120
O O9 0.208697 0.177817 0.411669
O O10 0.254946 0.326888 0.472230
O O11 0.000000 0.244744 0.469837
O O12 0.265534 0.369826 0.566722
O O13 0.000000 0.347885 0.596926
O O14 0.000000 0.050678 0.392180
O O15 0.229642 0.049106 0.339526
O O16 0.750000 0.021220 0.250000
O O17 0.000000 0.990162 0.289321
O O18 0.000000 0.362839 0.984023
O O19 0.197395 0.500000 0.000000
#
# Coordination Sequence:
#
# PCOD8221066 Si02
#       7
#     8   8   8   8   8   8   8
#     4   9  16  26  41  64  92 122 153 182 212 249
#     4   8  12  21  38  62  88 112 141 174 207 244
#     4   9  17  27  45  68  85 108 146 184 215 253
#     4   9  16  28  47  68  88 116 154 187 213 250
#     4   9  14  23  41  64  88 116 148 180 211 247
#     4   9  16  26  40  59  88 122 155 183 208 245
#     4  10  21  35  48  63  87 116 143 178 232 286
#
# _framework density 15.820206000000001
#
# number of rings (size 3 to 8) (size 9 to 14) (size 15 to 20)
#    0.000    3.000    1.429    1.714    0.000    3.429 
#    0.000    0.714    0.000    6.857    0.000    1.000 
#    0.000    2.286    0.000    0.000    0.000    0.000 
#
# Total GULP energy -693807.096447 kJ/mol
# GULP energy per Si atom -12389.412437 kJ/mol
# Density = 1.578420 g / cm^3
# Si number density = 15.820206 Si / 1000 Ang^3
#
#
#
# Elastic Constant Matrix: (Units=GPa)
#
#
# Indices 1 2 3 4 5 6 
#
# 1 47.1266 36.4975 39.6161 0.0000 0.0000 0.0000
# 2 36.4975 70.1878 50.6576 0.0000 0.0000 0.0000
# 3 39.6161 50.6576 107.9326 0.0000 0.0000 0.0000
# 4 0.0000 0.0000 0.0000 17.9731 0.0000 0.0000
# 5 0.0000 0.0000 0.0000 0.0000 22.8776 0.0000
# 6 0.0000 0.0000 0.0000 0.0000 0.0000 13.8534
#
#
#
# Elastic Compliance Matrix: (Units=1/GPa)
#
#
# Indices 1 2 3 4 5 6 
#
# 1 0.038942 -0.015022 -0.007243 0.000000 0.000000 0.000000
# 2 -0.015022 0.027341 -0.007319 0.000000 0.000000 0.000000
# 3 -0.007243 -0.007319 0.015358 0.000000 0.000000 0.000000
# 4 0.000000 0.000000 0.000000 0.055639 0.000000 0.000000
# 5 0.000000 0.000000 0.000000 0.000000 0.043711 0.000000
# 6 0.000000 0.000000 0.000000 0.000000 0.000000 0.072185
#
#
# Mechanical properties :
#
#
# Convention : Reuss Voigt Hill
#
# Bulk Modulus (GPa) = 44.49539 53.19882 48.84711
# Shear Modulus (GPa) = 15.63304 17.50585 16.56944
#
# Velocity S-wave (km/s) = 3.14693 3.33009 3.23980
# Velocity P-wave (km/s) = 6.43358 6.96320 6.70362
#
# Compressibility (1/GPa) = 0.02247424
#
# Stress axis : x y z
#
# Youngs Moduli (GPa) = 25.67902 36.57481 65.11087
#
# Poissons Ratio (x) = 0.54944 0.47159
# Poissons Ratio (y) = 0.38576 0.47652
# Poissons Ratio (z) = 0.18599 0.26767
#
# Static dielectric constant tensor:
#      x y z
#    x 2.732630 0.000000 0.000000 
#    y 0.000000 2.740770 0.000000 
#    z 0.000000 0.000000 3.199280 
# 
# 
# High freq. dielectric constant tensor:
#      x y z
#    x 1.574690 0.000000 0.000000 
#    y 0.000000 1.567650 0.000000 
#    z 0.000000 0.000000 1.612430 
# 
# From -- ./inp_files/38370.got.cif
#   From: 2010.03.12/outbox.cif.g09.slc.cpg/sg53_20_cif.got.tgz:38370.got - 2010.04.16 14:36:59.
