data_PCOD8221474
_publ_section_title
;
Structure prediction by ZEFSAII (Michael W. Deem and Ramdas Pophale) SiO2 
 PCOD8221474
Probable space group: P M N A
;
_chemical_formula_sum "Si O2"
_cell_formula_units_Z 48
_cell_length_a 8.827196
_cell_length_b 9.782926
_cell_length_c 28.899954
_cell_angle_alpha 90.000000
_cell_angle_beta 90.000000
_cell_angle_gamma 90.000000
_cell_volume 2495.678800
_symmetry_space_group_name_H-M "P M N A"
_symmetry_group_IT_number 53
_symmetry_cell_setting 'orthorhombic'
loop_
_space_group_symop_operation_xyz
x,y,z
1/2-x,-y,1/2+z
x,-y,-z
1/2-x,y,1/2-z
-x,-y,-z
1/2+x,y,1/2-z
-x,y,z
1/2+x,-y,1/2+z
loop_
_atom_site_type_symbol
_atom_site_label
_atom_site_fract_x
_atom_site_fract_y
_atom_site_fract_z
Si Si1 0.680252 0.018913 0.800063
Si Si2 0.329209 0.148149 0.521406
Si Si3 0.177125 0.380591 0.468211
Si Si4 0.822264 0.735853 0.798478
Si Si5 0.675420 0.525832 0.622505
Si Si6 0.677821 0.786569 0.374763
O O1 0.750000 0.053906 0.750000
O O2 0.500000 0.012835 0.796034
O O3 0.727543 0.134661 0.836165
O O4 0.743521 0.873123 0.818001
O O5 0.500000 0.205865 0.516672
O O6 0.215500 0.237573 0.491517
O O7 0.282732 0.148640 0.575328
O O8 0.316275 0.000000 0.500000
O O9 0.247275 0.500000 0.500000
O O10 0.244028 0.389331 0.417367
O O11 0.000000 0.397186 0.463705
O O12 0.750000 0.694517 0.750000
O O13 0.789606 0.606378 0.830624
O O14 0.000000 0.765816 0.793113
O O15 0.500000 0.523950 0.610208
O O16 0.734426 0.370557 0.626381
O O17 0.500000 0.798629 0.363325
#
# Coordination Sequence:
#
# PCOD8221474 Si02
#       6
#     8   8   8   8   8   8
#     4  11  23  40  62  87 118 155 193 237 292 347
#     4  10  22  39  61  87 116 157 202 242 289 348
#     4  11  23  38  58  86 121 156 194 241 293 343
#     4  10  21  39  62  88 116 148 191 238 288 348
#     4  10  22  39  62  87 115 156 198 237 289 352
#     4  10  21  39  60  86 120 154 197 245 290 346
#
# _framework density 19.233245
#
# number of rings (size 3 to 8) (size 9 to 14) (size 15 to 20)
#    0.000    1.667    1.667    3.500    2.333    4.333 
#    0.000    1.667    0.000    0.000    0.000    0.000 
#    0.000    0.000    0.000    0.000    0.000    0.000 
#
# Total GULP energy -595362.422129 kJ/mol
# GULP energy per Si atom -12403.383794 kJ/mol
# Density = 1.918947 g / cm^3
# Si number density = 19.233245 Si / 1000 Ang^3
#
#
#
# Elastic Constant Matrix: (Units=GPa)
#
#
# Indices 1 2 3 4 5 6 
#
# 1 79.1790 38.8320 56.5668 0.0000 0.0000 0.0000
# 2 38.8320 101.6714 70.6619 0.0000 0.0000 0.0000
# 3 56.5668 70.6619 120.1682 0.0000 0.0000 0.0000
# 4 0.0000 0.0000 0.0000 32.4368 0.0000 0.0000
# 5 0.0000 0.0000 0.0000 0.0000 30.7097 0.0000
# 6 0.0000 0.0000 0.0000 0.0000 0.0000 21.5801
#
#
#
# Elastic Compliance Matrix: (Units=1/GPa)
#
#
# Indices 1 2 3 4 5 6 
#
# 1 0.019218 -0.001780 -0.008000 0.000000 0.000000 0.000000
# 2 -0.001780 0.016798 -0.009040 0.000000 0.000000 0.000000
# 3 -0.008000 -0.009040 0.017403 0.000000 0.000000 0.000000
# 4 0.000000 0.000000 0.000000 0.030829 0.000000 0.000000
# 5 0.000000 0.000000 0.000000 0.000000 0.032563 0.000000
# 6 0.000000 0.000000 0.000000 0.000000 0.000000 0.046339
#
#
# Mechanical properties :
#
#
# Convention : Reuss Voigt Hill
#
# Bulk Modulus (GPa) = 63.37239 70.34889 66.86064
# Shear Modulus (GPa) = 24.26608 25.94250 25.10429
#
# Velocity S-wave (km/s) = 3.55586 3.67664 3.61675
# Velocity P-wave (km/s) = 7.06256 7.39457 7.23047
#
# Compressibility (1/GPa) = 0.01577974
#
# Stress axis : x y z
#
# Youngs Moduli (GPa) = 52.03541 59.53023 57.46177
#
# Poissons Ratio (x) = 0.10598 0.45967
# Poissons Ratio (y) = 0.09264 0.51944
# Poissons Ratio (z) = 0.41626 0.53814
#
# Static dielectric constant tensor:
#      x y z
#    x 3.506660 0.000000 0.000000 
#    y 0.000000 3.569880 0.000000 
#    z 0.000000 0.000000 3.541440 
# 
# 
# High freq. dielectric constant tensor:
#      x y z
#    x 1.748020 0.000000 0.000000 
#    y 0.000000 1.754340 0.000000 
#    z 0.000000 0.000000 1.756500 
# 
# From -- ./inp_files/37712.got.cif
#   From: 2010.03.12/outbox.cif.g09.slc.cpg/sg53_19_cif.got.tgz:37712.got - 2010.04.16 14:36:59.
