data_PCOD8221165
_publ_section_title
;
Structure prediction by ZEFSAII (Michael W. Deem and Ramdas Pophale) SiO2 
 PCOD8221165
Probable space group: P M N A
;
_chemical_formula_sum "Si O2"
_cell_formula_units_Z 64
_cell_length_a 8.984826
_cell_length_b 23.520424
_cell_length_c 14.789585
_cell_angle_alpha 90.000000
_cell_angle_beta 90.000000
_cell_angle_gamma 90.000000
_cell_volume 3125.437403
_symmetry_space_group_name_H-M "P M N A"
_symmetry_group_IT_number 53
_symmetry_cell_setting 'orthorhombic'
loop_
_space_group_symop_operation_xyz
x,y,z
1/2-x,-y,1/2+z
x,-y,-z
1/2-x,y,1/2-z
-x,-y,-z
1/2+x,y,1/2-z
-x,y,z
1/2+x,-y,1/2+z
loop_
_atom_site_type_symbol
_atom_site_label
_atom_site_fract_x
_atom_site_fract_y
_atom_site_fract_z
Si Si1 0.161486 0.108067 0.332277
Si Si2 0.825383 0.065344 0.519363
Si Si3 0.674232 0.460217 0.659793
Si Si4 0.677954 0.751772 0.036269
Si Si5 0.661953 0.760083 0.833768
Si Si6 0.321453 0.147558 0.651303
Si Si7 0.674664 0.411641 0.340530
Si Si8 0.825360 0.361393 0.972621
O O1 0.250000 0.078418 0.250000
O O2 0.233842 0.098859 0.430633
O O3 0.144391 0.173911 0.311058
O O4 0.000000 0.077937 0.334364
O O5 0.730720 0.088858 0.603790
O O6 0.000000 0.076724 0.538363
O O7 0.790413 0.000000 0.500000
O O8 0.750000 0.436374 0.750000
O O9 0.500000 0.459541 0.676169
O O10 0.730104 0.524112 0.638023
O O11 0.718820 0.419384 0.577652
O O12 0.500000 0.760347 0.043278
O O13 0.759827 0.799478 0.094128
O O14 0.736915 0.754410 0.932402
O O15 0.729664 0.689817 0.071017
O O16 0.750000 0.731142 0.750000
O O17 0.500000 0.730777 0.836121
O O18 0.250000 0.150420 0.750000
O O19 0.500000 0.150029 0.657515
O O20 0.750000 0.387720 0.250000
O O21 0.500000 0.411825 0.326201
O O22 0.719926 0.370215 0.422534
O O23 0.000000 0.347849 0.961960
#
# Coordination Sequence:
#
# PCOD8221165 Si02
#       8
#     8   8   8   8   8   8   8   8
#     4   9  17  32  54  82 114 148 186 228 279 335
#     4  10  21  40  65  93 128 164 198 244 298 350
#     4   9  18  34  56  80 109 147 192 242 295 353
#     4  11  23  41  61  85 119 156 201 251 303 358
#     4   9  18  33  55  80 109 144 184 231 282 343
#     4  12  26  45  69  92 121 162 208 254 302 357
#     4   9  18  34  56  81 113 153 194 240 294 356
#     4  10  21  36  55  82 115 152 196 241 296 359
#
# _framework density 20.477134
#
# number of rings (size 3 to 8) (size 9 to 14) (size 15 to 20)
#    0.000    2.125    1.250    1.875    0.000    5.750 
#    0.000    5.000    0.000    3.750    0.000    0.000 
#    0.000    0.000    0.000    0.000    0.000    0.000 
#
# Total GULP energy -793383.648923 kJ/mol
# GULP energy per Si atom -12396.619514 kJ/mol
# Density = 2.043053 g / cm^3
# Si number density = 20.477134 Si / 1000 Ang^3
#
#
#
# Elastic Constant Matrix: (Units=GPa)
#
#
# Indices 1 2 3 4 5 6 
#
# 1 82.2727 37.9467 53.2879 0.0000 0.0000 0.0000
# 2 37.9467 87.5158 33.3706 0.0000 0.0000 0.0000
# 3 53.2879 33.3706 130.0524 0.0000 0.0000 0.0000
# 4 0.0000 0.0000 0.0000 8.2796 0.0000 0.0000
# 5 0.0000 0.0000 0.0000 0.0000 37.0542 0.0000
# 6 0.0000 0.0000 0.0000 0.0000 0.0000 18.6512
#
#
#
# Elastic Compliance Matrix: (Units=1/GPa)
#
#
# Indices 1 2 3 4 5 6 
#
# 1 0.018877 -0.005803 -0.006245 0.000000 0.000000 0.000000
# 2 -0.005803 0.014450 -0.001330 0.000000 0.000000 0.000000
# 3 -0.006245 -0.001330 0.010589 0.000000 0.000000 0.000000
# 4 0.000000 0.000000 0.000000 0.120778 0.000000 0.000000
# 5 0.000000 0.000000 0.000000 0.000000 0.026988 0.000000
# 6 0.000000 0.000000 0.000000 0.000000 0.000000 0.053616
#
#
# Mechanical properties :
#
#
# Convention : Reuss Voigt Hill
#
# Bulk Modulus (GPa) = 58.27980 61.00571 59.64275
# Shear Modulus (GPa) = 18.00021 24.47938 21.23979
#
# Velocity S-wave (km/s) = 2.96808 3.46128 3.22412
# Velocity P-wave (km/s) = 6.34576 6.76984 6.56123
#
# Compressibility (1/GPa) = 0.01715860
#
# Stress axis : x y z
#
# Youngs Moduli (GPa) = 52.97587 69.20442 94.43372
#
# Poissons Ratio (x) = 0.40162 0.58978
# Poissons Ratio (y) = 0.30744 0.12558
# Poissons Ratio (z) = 0.33085 0.09203
#
# Static dielectric constant tensor:
#      x y z
#    x 3.802230 0.000000 0.000000 
#    y 0.000000 3.629960 0.000000 
#    z 0.000000 0.000000 3.457080 
# 
# 
# High freq. dielectric constant tensor:
#      x y z
#    x 1.786560 0.000000 0.000000 
#    y 0.000000 1.796350 0.000000 
#    z 0.000000 0.000000 1.805920 
# 
# From -- ./inp_files/20939.got.cif
#   From: 2010.03.12/outbox.cif.g09.slc.cpg/sg53_11_cif.got.tgz:20939.got - 2010.04.16 14:36:59.
