data_PCOD8221061
_publ_section_title
;
Structure prediction by ZEFSAII (Michael W. Deem and Ramdas Pophale) SiO2 
 PCOD8221061
Probable space group: P M N A
;
_chemical_formula_sum "Si O2"
_cell_formula_units_Z 48
_cell_length_a 27.928858
_cell_length_b 11.492073
_cell_length_c 9.180131
_cell_angle_alpha 90.000000
_cell_angle_beta 90.000000
_cell_angle_gamma 90.000000
_cell_volume 2946.459206
_symmetry_space_group_name_H-M "P M N A"
_symmetry_group_IT_number 53
_symmetry_cell_setting 'orthorhombic'
loop_
_space_group_symop_operation_xyz
x,y,z
1/2-x,-y,1/2+z
x,-y,-z
1/2-x,y,1/2-z
-x,-y,-z
1/2+x,y,1/2-z
-x,y,z
1/2+x,-y,1/2+z
loop_
_atom_site_type_symbol
_atom_site_label
_atom_site_fract_x
_atom_site_fract_y
_atom_site_fract_z
Si Si1 0.845353 0.499022 0.163367
Si Si2 0.447043 0.304652 0.997713
Si Si3 0.702668 0.294449 0.837368
Si Si4 0.553591 0.499053 0.766471
Si Si5 0.139768 0.136634 0.500391
Si Si6 0.797228 0.707393 0.663516
O O1 0.826937 0.610382 0.249866
O O2 0.903295 0.498393 0.150895
O O3 0.826029 0.386987 0.245767
O O4 0.824776 0.500000 0.000000
O O5 0.500000 0.251864 0.013884
O O6 0.442724 0.376401 0.848825
O O7 0.436133 0.393552 0.127192
O O8 0.411957 0.195781 0.999791
O O9 0.750000 0.259152 0.750000
O O10 0.669352 0.179406 0.856188
O O11 0.715287 0.342038 0.000791
O O12 0.500000 0.510624 0.696417
O O13 0.169131 0.178399 0.356293
O O14 0.132995 0.000000 0.500000
O O15 0.750000 0.744918 0.750000
#
# Coordination Sequence:
#
# PCOD8221061 Si02
#       6
#     8   8   8   8   8   8
#     4  12  21  32  55  82 108 136 172 219 277 327
#     4   9  16  31  57  81 107 136 171 217 272 318
#     4  10  21  36  54  75 109 136 176 219 270 311
#     4   9  16  30  52  80 108 138 165 215 279 325
#     4  10  21  34  56  78 107 144 185 219 254 303
#     4  10  21  36  54  75 109 136 176 219 270 311
#
# _framework density 16.29074
#
# number of rings (size 3 to 8) (size 9 to 14) (size 15 to 20)
#    1.000    1.000    3.333    3.000    2.333    1.333 
#    0.000    0.000    0.000    0.000    0.000    0.000 
#    0.000    5.333    0.000    0.000    0.000    0.000 
#
# Total GULP energy -594663.621263 kJ/mol
# GULP energy per Si atom -12388.825443 kJ/mol
# Density = 1.625366 g / cm^3
# Si number density = 16.290740 Si / 1000 Ang^3
#
#
#
# Elastic Constant Matrix: (Units=GPa)
#
#
# Indices 1 2 3 4 5 6 
#
# 1 130.4819 58.5784 34.1697 0.0000 0.0000 0.0000
# 2 58.5784 127.7583 31.3733 0.0000 0.0000 0.0000
# 3 34.1697 31.3733 90.1982 0.0000 0.0000 0.0000
# 4 0.0000 0.0000 0.0000 3.0312 0.0000 0.0000
# 5 0.0000 0.0000 0.0000 0.0000 27.6597 0.0000
# 6 0.0000 0.0000 0.0000 0.0000 0.0000 12.6343
#
#
#
# Elastic Compliance Matrix: (Units=1/GPa)
#
#
# Indices 1 2 3 4 5 6 
#
# 1 0.010113 -0.004041 -0.002426 0.000000 0.000000 0.000000
# 2 -0.004041 0.010173 -0.002008 0.000000 0.000000 0.000000
# 3 -0.002426 -0.002008 0.012704 0.000000 0.000000 0.000000
# 4 0.000000 0.000000 0.000000 0.329907 0.000000 0.000000
# 5 0.000000 0.000000 0.000000 0.000000 0.036154 0.000000
# 6 0.000000 0.000000 0.000000 0.000000 0.000000 0.079150
#
#
# Mechanical properties :
#
#
# Convention : Reuss Voigt Hill
#
# Bulk Modulus (GPa) = 62.33820 66.29792 64.31806
# Shear Modulus (GPa) = 9.99007 23.61950 16.80478
#
# Velocity S-wave (km/s) = 2.47905 3.81185 3.21527
# Velocity P-wave (km/s) = 6.82227 7.75620 7.30418
#
# Compressibility (1/GPa) = 0.01604153
#
# Stress axis : x y z
#
# Youngs Moduli (GPa) = 98.87817 98.29640 78.71639
#
# Poissons Ratio (x) = 0.39726 0.19093
# Poissons Ratio (y) = 0.39961 0.15802
# Poissons Ratio (z) = 0.23983 0.19733
#
# Static dielectric constant tensor:
#      x y z
#    x 3.319730 0.000000 0.000000 
#    y 0.000000 2.689730 0.000000 
#    z 0.000000 0.000000 2.920750 
# 
# 
# High freq. dielectric constant tensor:
#      x y z
#    x 1.649410 0.000000 0.000000 
#    y 0.000000 1.594150 0.000000 
#    z 0.000000 0.000000 1.606870 
# 
# From -- ./inp_files/13134.got.cif
#   From: 2010.03.12/outbox.cif.g09.slc.cpg/sg53_7_cif.got.tgz:13134.got - 2010.04.16 14:36:59.
