data_PCOD8221119
_publ_section_title
;
Structure prediction by ZEFSAII (Michael W. Deem and Ramdas Pophale) SiO2 
 PCOD8221119
Probable space group: P M N A
;
_chemical_formula_sum "Si O2"
_cell_formula_units_Z 40
_cell_length_a 18.020441
_cell_length_b 14.478316
_cell_length_c 8.144299
_cell_angle_alpha 90.000000
_cell_angle_beta 90.000000
_cell_angle_gamma 90.000000
_cell_volume 2124.893537
_symmetry_space_group_name_H-M "P M N A"
_symmetry_group_IT_number 53
_symmetry_cell_setting 'orthorhombic'
loop_
_space_group_symop_operation_xyz
x,y,z
1/2-x,-y,1/2+z
x,-y,-z
1/2-x,y,1/2-z
-x,-y,-z
1/2+x,y,1/2-z
-x,y,z
1/2+x,-y,1/2+z
loop_
_atom_site_type_symbol
_atom_site_label
_atom_site_fract_x
_atom_site_fract_y
_atom_site_fract_z
Si Si1 0.685367 0.571216 0.637579
Si Si2 0.293873 0.261422 0.579306
Si Si3 0.706566 0.094440 0.911707
Si Si4 0.587769 0.763158 0.180322
Si Si5 0.913008 0.402124 0.432988
O O1 0.655488 0.500000 0.500000
O O2 0.750000 0.525682 0.750000
O O3 0.722881 0.657337 0.546050
O O4 0.619331 0.610108 0.750072
O O5 0.250000 0.274472 0.750000
O O6 0.262640 0.166715 0.495922
O O7 0.380678 0.258817 0.635689
O O8 0.750000 0.064386 0.750000
O O9 0.626894 0.143294 0.882373
O O10 0.688531 0.000000 0.000000
O O11 0.500000 0.778045 0.191553
O O12 0.609577 0.679843 0.056387
O O13 0.882585 0.500000 0.500000
O O14 0.000000 0.405162 0.410782
#
# Coordination Sequence:
#
# PCOD8221119 Si02
#       5
#     8   8   8   8   8
#     4  12  22  32  51  77 105 135 173 214 251 293
#     4   9  19  35  52  73 102 135 170 207 253 304
#     4   9  19  34  53  75 100 132 167 204 255 309
#     4   9  18  35  56  76 101 133 171 213 252 295
#     4  10  21  36  52  73 104 139 171 204 249 304
#
# _framework density 18.824473000000001
#
# number of rings (size 3 to 8) (size 9 to 14) (size 15 to 20)
#    0.000    2.600    0.000    4.800    0.000    4.000 
#    0.000    0.000    0.000    9.600    0.000    0.000 
#    0.000    0.000    0.000    0.000    0.000    0.000 
#
# Total GULP energy -495625.361205 kJ/mol
# GULP energy per Si atom -12390.634030 kJ/mol
# Density = 1.878163 g / cm^3
# Si number density = 18.824473 Si / 1000 Ang^3
#
#
#
# Elastic Constant Matrix: (Units=GPa)
#
#
# Indices 1 2 3 4 5 6 
#
# 1 87.3988 27.6443 26.8633 0.0000 0.0000 0.0000
# 2 27.6443 97.9914 27.5771 0.0000 0.0000 0.0000
# 3 26.8633 27.5771 50.8345 0.0000 0.0000 0.0000
# 4 0.0000 0.0000 0.0000 28.6008 0.0000 0.0000
# 5 0.0000 0.0000 0.0000 0.0000 26.7655 0.0000
# 6 0.0000 0.0000 0.0000 0.0000 0.0000 14.4373
#
#
#
# Elastic Compliance Matrix: (Units=1/GPa)
#
#
# Indices 1 2 3 4 5 6 
#
# 1 0.014056 -0.002213 -0.006227 0.000000 0.000000 0.000000
# 2 -0.002213 0.012392 -0.005553 0.000000 0.000000 0.000000
# 3 -0.006227 -0.005553 0.025975 0.000000 0.000000 0.000000
# 4 0.000000 0.000000 0.000000 0.034964 0.000000 0.000000
# 5 0.000000 0.000000 0.000000 0.000000 0.037361 0.000000
# 6 0.000000 0.000000 0.000000 0.000000 0.000000 0.069265
#
#
# Mechanical properties :
#
#
# Convention : Reuss Voigt Hill
#
# Bulk Modulus (GPa) = 40.92280 44.48823 42.70551
# Shear Modulus (GPa) = 21.72541 24.23672 22.98106
#
# Velocity S-wave (km/s) = 3.40090 3.59208 3.49780
# Velocity P-wave (km/s) = 6.09982 6.39442 6.24886
#
# Compressibility (1/GPa) = 0.02443626
#
# Stress axis : x y z
#
# Youngs Moduli (GPa) = 71.14523 80.69712 38.49854
#
# Poissons Ratio (x) = 0.17856 0.23974
# Poissons Ratio (y) = 0.15743 0.21379
# Poissons Ratio (z) = 0.44304 0.44813
#
# Static dielectric constant tensor:
#      x y z
#    x 3.510140 0.000000 0.000000 
#    y 0.000000 3.541350 0.000000 
#    z 0.000000 0.000000 3.460480 
# 
# 
# High freq. dielectric constant tensor:
#      x y z
#    x 1.733530 0.000000 0.000000 
#    y 0.000000 1.728410 0.000000 
#    z 0.000000 0.000000 1.717260 
# 
# From -- ./inp_files/9802.got.cif
#   From: 2010.03.12/outbox.cif.g09.slc.cpg/sg53_5_cif.got.tgz:9802.got - 2010.04.16 14:36:59.
