data_PCOD8221093
_publ_section_title
;
Structure prediction by ZEFSAII (Michael W. Deem and Ramdas Pophale) SiO2 
 PCOD8221093
Probable space group: P M N A
;
_chemical_formula_sum "Si O2"
_cell_formula_units_Z 32
_cell_length_a 12.883552
_cell_length_b 5.094072
_cell_length_c 25.899701
_cell_angle_alpha 90.000000
_cell_angle_beta 90.000000
_cell_angle_gamma 90.000000
_cell_volume 1699.790682
_symmetry_space_group_name_H-M "P M N A"
_symmetry_group_IT_number 53
_symmetry_cell_setting 'orthorhombic'
loop_
_space_group_symop_operation_xyz
x,y,z
1/2-x,-y,1/2+z
x,-y,-z
1/2-x,y,1/2-z
-x,-y,-z
1/2+x,y,1/2-z
-x,y,z
1/2+x,-y,1/2+z
loop_
_atom_site_type_symbol
_atom_site_label
_atom_site_fract_x
_atom_site_fract_y
_atom_site_fract_z
Si Si1 0.379278 0.041716 0.897331
Si Si2 0.720588 0.007809 0.691545
Si Si3 0.279188 0.456892 0.058792
Si Si4 0.879299 0.490921 0.147695
O O1 0.500000 0.995258 0.888565
O O2 0.325828 0.020267 0.841542
O O3 0.333726 0.824451 0.935997
O O4 0.360668 0.325129 0.922330
O O5 0.750000 0.063710 0.750000
O O6 0.667181 0.724798 0.686573
O O7 0.639226 0.224806 0.672272
O O8 0.173977 0.468954 0.091809
O O9 0.246440 0.500000 0.000000
O O10 0.000000 0.442529 0.139277
#
# Coordination Sequence:
#
# PCOD8221093 Si02
#       4
#     8   8   8   8
#     4  10  21  35  53  79 108 139 178 220 263 316
#     4  10  21  38  56  80 110 140 177 220 264 314
#     4  10  21  36  54  78 108 140 177 220 264 314
#     4  10  21  37  57  81 108 139 178 220 263 314
#
# _framework density 18.825847
#
# number of rings (size 3 to 8) (size 9 to 14) (size 15 to 20)
#    0.000    2.000    0.000    3.000    0.000    5.500 
#    0.000    0.000    0.000    9.000    0.000    0.000 
#    0.000    0.000    0.000    0.000    0.000    0.000 
#
# Total GULP energy -396989.561768 kJ/mol
# GULP energy per Si atom -12405.923805 kJ/mol
# Density = 1.878300 g / cm^3
# Si number density = 18.825847 Si / 1000 Ang^3
#
#
#
# Elastic Constant Matrix: (Units=GPa)
#
#
# Indices 1 2 3 4 5 6 
#
# 1 115.7230 7.1373 52.8810 0.0000 0.0000 0.0000
# 2 7.1373 65.7921 14.1676 0.0000 0.0000 0.0000
# 3 52.8810 14.1676 105.4286 0.0000 0.0000 0.0000
# 4 0.0000 0.0000 0.0000 18.7736 0.0000 0.0000
# 5 0.0000 0.0000 0.0000 0.0000 7.6936 0.0000
# 6 0.0000 0.0000 0.0000 0.0000 0.0000 15.2839
#
#
#
# Elastic Compliance Matrix: (Units=1/GPa)
#
#
# Indices 1 2 3 4 5 6 
#
# 1 0.011211 -0.000005 -0.005622 0.000000 0.000000 0.000000
# 2 -0.000005 0.015652 -0.002101 0.000000 0.000000 0.000000
# 3 -0.005622 -0.002101 0.012587 0.000000 0.000000 0.000000
# 4 0.000000 0.000000 0.000000 0.053266 0.000000 0.000000
# 5 0.000000 0.000000 0.000000 0.000000 0.129978 0.000000
# 6 0.000000 0.000000 0.000000 0.000000 0.000000 0.065428
#
#
# Mechanical properties :
#
#
# Convention : Reuss Voigt Hill
#
# Bulk Modulus (GPa) = 41.67770 48.36838 45.02304
# Shear Modulus (GPa) = 16.04732 22.53408 19.29070
#
# Velocity S-wave (km/s) = 2.92277 3.46349 3.20455
# Velocity P-wave (km/s) = 5.79454 6.46085 6.13675
#
# Compressibility (1/GPa) = 0.02399365
#
# Stress axis : x y z
#
# Youngs Moduli (GPa) = 89.19893 63.88825 79.44398
#
# Poissons Ratio (x) = 0.00035 0.44667
# Poissons Ratio (y) = 0.00049 0.16688
# Poissons Ratio (z) = 0.50152 0.13421
#
# Static dielectric constant tensor:
#      x y z
#    x 3.286150 0.000000 0.000000 
#    y 0.000000 3.728720 0.000000 
#    z 0.000000 0.000000 3.332640 
# 
# 
# High freq. dielectric constant tensor:
#      x y z
#    x 1.725270 0.000000 0.000000 
#    y 0.000000 1.754210 0.000000 
#    z 0.000000 0.000000 1.728210 
# 
# From -- ./inp_files/34638.got.cif
#   From: 2010.03.12/outbox.cif.g09.slc.cpg/sg53_18_cif.got.tgz:34638.got - 2010.04.16 14:36:59.
