data_PCOD8221178
_publ_section_title
;
Structure prediction by ZEFSAII (Michael W. Deem and Ramdas Pophale) SiO2 
 PCOD8221178
Probable space group: P M N A
;
_chemical_formula_sum "Si O2"
_cell_formula_units_Z 48
_cell_length_a 8.777555
_cell_length_b 30.864239
_cell_length_c 9.065681
_cell_angle_alpha 90.000000
_cell_angle_beta 90.000000
_cell_angle_gamma 90.000000
_cell_volume 2456.006806
_symmetry_space_group_name_H-M "P M N A"
_symmetry_group_IT_number 53
_symmetry_cell_setting 'orthorhombic'
loop_
_space_group_symop_operation_xyz
x,y,z
1/2-x,-y,1/2+z
x,-y,-z
1/2-x,y,1/2-z
-x,-y,-z
1/2+x,y,1/2-z
-x,y,z
1/2+x,-y,1/2+z
loop_
_atom_site_type_symbol
_atom_site_label
_atom_site_fract_x
_atom_site_fract_y
_atom_site_fract_z
Si Si1 0.319741 0.541855 0.910496
Si Si2 0.178173 0.870668 0.908189
Si Si3 0.678292 0.785866 0.410355
Si Si4 0.680411 0.291106 0.090394
Si Si5 0.179567 0.375196 0.589866
Si Si6 0.180348 0.041445 0.408801
O O1 0.250000 0.540553 0.750000
O O2 0.500000 0.542472 0.895052
O O3 0.262953 0.500000 0.000000
O O4 0.259421 0.584388 0.994831
O O5 0.250000 0.858729 0.750000
O O6 0.251992 0.914221 0.976888
O O7 0.000000 0.877974 0.883100
O O8 0.211752 0.833305 0.025720
O O9 0.750000 0.781507 0.250000
O O10 0.500000 0.775890 0.399759
O O11 0.754750 0.752435 0.521128
O O12 0.750000 0.298697 0.250000
O O13 0.500000 0.287342 0.104170
O O14 0.731419 0.331171 0.989133
O O15 0.250000 0.377038 0.750000
O O16 0.000000 0.377567 0.606781
O O17 0.250000 0.034734 0.250000
O O18 0.000000 0.045351 0.401409
O O19 0.234433 0.000000 0.500000
#
# Coordination Sequence:
#
# PCOD8221178 Si02
#       6
#     8   8   8   8   8   8
#     4  10  21  37  57  83 114 148 189 234 281 335
#     4  10  21  37  58  82 109 144 184 227 275 328
#     4  11  24  40  59  85 115 148 187 232 282 334
#     4  11  23  39  60  85 114 149 189 232 280 336
#     4  10  22  38  57  84 115 148 188 233 281 335
#     4  10  21  36  56  82 111 145 184 226 273 326
#
# _framework density 19.543918999999999
#
# number of rings (size 3 to 8) (size 9 to 14) (size 15 to 20)
#    0.000    1.667    0.000    5.000    0.000    9.667 
#    0.000    3.333    0.000    0.000    0.000    0.000 
#    0.000    0.000    0.000    0.000    0.000    0.000 
#
# Total GULP energy -595382.692657 kJ/mol
# GULP energy per Si atom -12403.806097 kJ/mol
# Density = 1.949944 g / cm^3
# Si number density = 19.543919 Si / 1000 Ang^3
#
#
#
# Elastic Constant Matrix: (Units=GPa)
#
#
# Indices 1 2 3 4 5 6 
#
# 1 75.3576 53.4600 45.1080 0.0000 0.0000 0.0000
# 2 53.4600 145.7292 68.4384 0.0000 0.0000 0.0000
# 3 45.1080 68.4384 139.8386 0.0000 0.0000 0.0000
# 4 0.0000 0.0000 0.0000 44.0229 0.0000 0.0000
# 5 0.0000 0.0000 0.0000 0.0000 34.8276 0.0000
# 6 0.0000 0.0000 0.0000 0.0000 0.0000 13.6192
#
#
#
# Elastic Compliance Matrix: (Units=1/GPa)
#
#
# Indices 1 2 3 4 5 6 
#
# 1 0.019219 -0.005374 -0.003569 0.000000 0.000000 0.000000
# 2 -0.005374 0.010413 -0.003362 0.000000 0.000000 0.000000
# 3 -0.003569 -0.003362 0.009948 0.000000 0.000000 0.000000
# 4 0.000000 0.000000 0.000000 0.022715 0.000000 0.000000
# 5 0.000000 0.000000 0.000000 0.000000 0.028713 0.000000
# 6 0.000000 0.000000 0.000000 0.000000 0.000000 0.073426
#
#
# Mechanical properties :
#
#
# Convention : Reuss Voigt Hill
#
# Bulk Modulus (GPa) = 66.80996 77.21537 72.01267
# Shear Modulus (GPa) = 25.76851 31.42188 28.59519
#
# Velocity S-wave (km/s) = 3.63504 4.01403 3.82923
# Velocity P-wave (km/s) = 7.20256 7.81522 7.51514
#
# Compressibility (1/GPa) = 0.01496783
#
# Stress axis : x y z
#
# Youngs Moduli (GPa) = 52.03137 96.03712 100.52144
#
# Poissons Ratio (x) = 0.51612 0.35880
# Poissons Ratio (y) = 0.27962 0.33800
# Poissons Ratio (z) = 0.18572 0.32292
#
# Static dielectric constant tensor:
#      x y z
#    x 3.618020 0.000000 0.000000 
#    y 0.000000 4.078120 0.000000 
#    z 0.000000 0.000000 3.544540 
# 
# 
# High freq. dielectric constant tensor:
#      x y z
#    x 1.767780 0.000000 0.000000 
#    y 0.000000 1.782790 0.000000 
#    z 0.000000 0.000000 1.767270 
# 
# From -- ./inp_files/6756.got.cif
#   From: 2010.03.12/outbox.cif.g09.slc.cpg/sg53_4_cif.got.tgz:6756.got - 2010.04.16 14:36:59.
