data_PCOD8221387
_publ_section_title
;
Structure prediction by ZEFSAII (Michael W. Deem and Ramdas Pophale) SiO2 
 PCOD8221387
Probable space group: P M N A
;
_chemical_formula_sum "Si O2"
_cell_formula_units_Z 64
_cell_length_a 9.165049
_cell_length_b 12.207097
_cell_length_c 28.857458
_cell_angle_alpha 90.000000
_cell_angle_beta 90.000000
_cell_angle_gamma 90.000000
_cell_volume 3228.533217
_symmetry_space_group_name_H-M "P M N A"
_symmetry_group_IT_number 53
_symmetry_cell_setting 'orthorhombic'
loop_
_space_group_symop_operation_xyz
x,y,z
1/2-x,-y,1/2+z
x,-y,-z
1/2-x,y,1/2-z
-x,-y,-z
1/2+x,y,1/2-z
-x,y,z
1/2+x,-y,1/2+z
loop_
_atom_site_type_symbol
_atom_site_label
_atom_site_fract_x
_atom_site_fract_y
_atom_site_fract_z
Si Si1 0.169385 0.677144 0.362598
Si Si2 0.329863 0.767838 0.940616
Si Si3 0.661499 0.962196 0.663475
Si Si4 0.331653 0.013279 0.924379
Si Si5 0.828369 0.239462 0.540459
Si Si6 0.170058 0.718927 0.846791
Si Si7 0.835806 0.180353 0.793919
Si Si8 0.172434 0.524280 0.702281
O O1 0.209342 0.675779 0.417668
O O2 0.263768 0.773679 0.340394
O O3 0.207449 0.562315 0.338427
O O4 0.000000 0.706289 0.355678
O O5 0.500000 0.744087 0.928772
O O6 0.302597 0.897659 0.949451
O O7 0.232262 0.720017 0.899217
O O8 0.276970 0.715043 0.989872
O O9 0.500000 0.966070 0.640711
O O10 0.777650 0.005150 0.627601
O O11 0.693836 0.836960 0.677864
O O12 0.668641 0.047242 0.706300
O O13 0.500000 0.039409 0.920491
O O14 0.258772 0.118603 0.949558
O O15 0.000000 0.225402 0.535273
O O16 0.260359 0.638058 0.814480
O O17 0.000000 0.685141 0.848487
O O18 0.750000 0.227203 0.750000
O O19 0.000000 0.224664 0.790357
O O20 0.250000 0.487202 0.750000
O O21 0.000000 0.537005 0.710864
#
# Coordination Sequence:
#
# PCOD8221387 Si02
#       8
#     8   8   8   8   8   8   8   8
#     4  10  21  38  59  84 113 146 186 232 280 332
#     4   9  17  30  52  84 117 152 192 232 275 327
#     4   9  19  34  51  77 111 145 179 223 276 332
#     4   9  15  26  49  78 111 150 189 227 265 317
#     4   9  16  29  52  82 116 151 190 230 273 327
#     4  10  21  39  60  82 114 149 188 237 284 332
#     4  11  22  35  53  78 110 144 179 222 278 341
#     4  11  24  42  64  86 107 138 186 237 288 340
#
# _framework density 19.823243999999999
#
# number of rings (size 3 to 8) (size 9 to 14) (size 15 to 20)
#    0.000    2.250    1.250    1.875    0.000    5.000 
#    0.000    3.125    0.000    6.750    0.000    0.000 
#    0.000    0.000    0.000    0.000    0.000    0.000 
#
# Total GULP energy -793073.021854 kJ/mol
# GULP energy per Si atom -12391.765966 kJ/mol
# Density = 1.977813 g / cm^3
# Si number density = 19.823244 Si / 1000 Ang^3
#
#
#
# Elastic Constant Matrix: (Units=GPa)
#
#
# Indices 1 2 3 4 5 6 
#
# 1 63.3100 27.1667 29.8083 0.0000 0.0000 0.0000
# 2 27.1667 63.2850 14.6743 0.0000 0.0000 0.0000
# 3 29.8083 14.6743 67.4377 0.0000 0.0000 0.0000
# 4 0.0000 0.0000 0.0000 21.6080 0.0000 0.0000
# 5 0.0000 0.0000 0.0000 0.0000 22.6456 0.0000
# 6 0.0000 0.0000 0.0000 0.0000 0.0000 -2.8685
#
#
#
# Elastic Compliance Matrix: (Units=1/GPa)
#
#
# Indices 1 2 3 4 5 6 
#
# 1 0.023247 -0.008000 -0.008534 0.000000 0.000000 0.000000
# 2 -0.008000 0.019394 -0.000684 0.000000 0.000000 0.000000
# 3 -0.008534 -0.000684 0.018750 0.000000 0.000000 0.000000
# 4 0.000000 0.000000 0.000000 0.046279 0.000000 0.000000
# 5 0.000000 0.000000 0.000000 0.000000 0.044159 0.000000
# 6 0.000000 0.000000 0.000000 0.000000 0.000000 -0.348611
#
#
# Mechanical properties :
#
#
# Convention : Reuss Voigt Hill
#
# Bulk Modulus (GPa) = 37.10113 37.48123 37.29118
# Shear Modulus (GPa) = -32.60289 16.43590 -8.08349
#
# Velocity S-wave (km/s) = -4.05986 2.88257 -2.02154
# Velocity P-wave (km/s) = 1.79445 5.47976 3.66112
#
# Compressibility (1/GPa) = 0.02695336
#
# Stress axis : x y z
#
# Youngs Moduli (GPa) = 43.01721 51.56115 53.33433
#
# Poissons Ratio (x) = 0.41250 0.45518
# Poissons Ratio (y) = 0.34415 0.03648
# Poissons Ratio (z) = 0.36713 0.03527
#
# Static dielectric constant tensor:
#      x y z
#    x 3.505260 0.000000 0.000000 
#    y 0.000000 3.527630 0.000000 
#    z 0.000000 0.000000 3.730570 
# 
# 
# High freq. dielectric constant tensor:
#      x y z
#    x 1.757340 0.000000 0.000000 
#    y 0.000000 1.759670 0.000000 
#    z 0.000000 0.000000 1.770950 
# 
# From -- ./inp_files/38130.got.cif
#   From: 2010.03.12/outbox.cif.g09.slc.cpg/sg53_20_cif.got.tgz:38130.got - 2010.04.16 14:36:59.
