data_PCOD8221057
_publ_section_title
;
Structure prediction by ZEFSAII (Michael W. Deem and Ramdas Pophale) SiO2 
 PCOD8221057
Probable space group: P M N A
;
_chemical_formula_sum "Si O2"
_cell_formula_units_Z 56
_cell_length_a 14.048231
_cell_length_b 15.423685
_cell_length_c 11.861506
_cell_angle_alpha 90.000000
_cell_angle_beta 90.000000
_cell_angle_gamma 90.000000
_cell_volume 2570.097622
_symmetry_space_group_name_H-M "P M N A"
_symmetry_group_IT_number 53
_symmetry_cell_setting 'orthorhombic'
loop_
_space_group_symop_operation_xyz
x,y,z
1/2-x,-y,1/2+z
x,-y,-z
1/2-x,y,1/2-z
-x,-y,-z
1/2+x,y,1/2-z
-x,y,z
1/2+x,-y,1/2+z
loop_
_atom_site_type_symbol
_atom_site_label
_atom_site_fract_x
_atom_site_fract_y
_atom_site_fract_z
Si Si1 0.888905 0.536637 0.168774
Si Si2 0.604938 0.035955 0.374410
Si Si3 0.608929 0.769565 0.069423
Si Si4 0.389293 0.431473 0.911862
Si Si5 0.611005 0.363121 0.453816
Si Si6 0.611137 0.146452 0.693371
Si Si7 0.791577 0.190940 0.037851
O O1 0.840207 0.554301 0.289869
O O2 0.874862 0.436192 0.140236
O O3 0.000000 0.560055 0.172687
O O4 0.846353 0.600265 0.072590
O O5 0.500000 0.069503 0.338185
O O6 0.678679 0.115842 0.374093
O O7 0.600085 0.000000 0.500000
O O8 0.637717 0.956308 0.293587
O O9 0.500000 0.796541 0.044843
O O10 0.624991 0.667516 0.052621
O O11 0.639642 0.801692 0.194152
O O12 0.677107 0.814351 0.976735
O O13 0.500000 0.454639 0.900790
O O14 0.342484 0.500000 0.000000
O O15 0.500000 0.337483 0.464901
O O16 0.672683 0.281799 0.411659
O O17 0.500000 0.155814 0.667969
O O18 0.663631 0.186630 0.586697
#
# Coordination Sequence:
#
# PCOD8221057 Si02
#       7
#     8   8   8   8   8   8   8
#     4   8  15  28  46  73 108 144 180 227 293 347
#     4   8  15  28  49  80 110 136 164 213 285 348
#     4  10  21  34  50  78 111 150 199 236 270 326
#     4   9  17  32  53  74 102 151 203 239 271 319
#     4   9  16  27  47  77 114 144 173 228 296 355
#     4   9  17  31  52  81 114 140 175 230 288 347
#     4  11  18  28  50  80 111 138 182 224 289 346
#
# _framework density 21.789054
#
# number of rings (size 3 to 8) (size 9 to 14) (size 15 to 20)
#    0.000    2.857    0.000    4.286    0.000    2.286 
#    2.571    0.000    0.000    3.857   22.286    0.000 
#    0.000    0.000    0.000    0.000    0.000    0.000 
#
# Total GULP energy -694113.114455 kJ/mol
# GULP energy per Si atom -12394.877044 kJ/mol
# Density = 2.173946 g / cm^3
# Si number density = 21.789054 Si / 1000 Ang^3
#
#
#
# Elastic Constant Matrix: (Units=GPa)
#
#
# Indices 1 2 3 4 5 6 
#
# 1 53.0859 23.7201 9.2825 0.0000 0.0000 0.0000
# 2 23.7201 115.5428 18.6334 0.0000 0.0000 0.0000
# 3 9.2825 18.6334 39.0605 0.0000 0.0000 0.0000
# 4 0.0000 0.0000 0.0000 31.5636 0.0000 0.0000
# 5 0.0000 0.0000 0.0000 0.0000 12.7185 0.0000
# 6 0.0000 0.0000 0.0000 0.0000 0.0000 8.3808
#
#
#
# Elastic Compliance Matrix: (Units=1/GPa)
#
#
# Indices 1 2 3 4 5 6 
#
# 1 0.021101 -0.003817 -0.003194 0.000000 0.000000 0.000000
# 2 -0.003817 0.010067 -0.003895 0.000000 0.000000 0.000000
# 3 -0.003194 -0.003895 0.028218 0.000000 0.000000 0.000000
# 4 0.000000 0.000000 0.000000 0.031682 0.000000 0.000000
# 5 0.000000 0.000000 0.000000 0.000000 0.078625 0.000000
# 6 0.000000 0.000000 0.000000 0.000000 0.000000 0.119321
#
#
# Mechanical properties :
#
#
# Convention : Reuss Voigt Hill
#
# Bulk Modulus (GPa) = 26.61363 34.55124 30.58244
# Shear Modulus (GPa) = 15.46306 20.93613 18.19960
#
# Velocity S-wave (km/s) = 2.66686 3.10313 2.89323
# Velocity P-wave (km/s) = 4.66085 5.36011 5.02267
#
# Compressibility (1/GPa) = 0.03757473
#
# Stress axis : x y z
#
# Youngs Moduli (GPa) = 47.39035 99.33914 35.43785
#
# Poissons Ratio (x) = 0.37917 0.11318
# Poissons Ratio (y) = 0.18088 0.13803
# Poissons Ratio (z) = 0.15136 0.38693
#
# Static dielectric constant tensor:
#      x y z
#    x 3.851710 0.000000 0.000000 
#    y 0.000000 4.076260 0.000000 
#    z 0.000000 0.000000 3.793760 
# 
# 
# High freq. dielectric constant tensor:
#      x y z
#    x 1.851760 0.000000 0.000000 
#    y 0.000000 1.856430 0.000000 
#    z 0.000000 0.000000 1.812460 
# 
# From -- ./inp_files/16052.got.cif
#   From: 2010.03.12/outbox.cif.g09.slc.cpg/sg53_9_cif.got.tgz:16052.got - 2010.04.16 14:36:59.
