data_PCOD8221012
_publ_section_title
;
Structure prediction by ZEFSAII (Michael W. Deem and Ramdas Pophale) SiO2 
 PCOD8221012
Probable space group: P M N A
;
_chemical_formula_sum "Si O2"
_cell_formula_units_Z 44
_cell_length_a 13.769755
_cell_length_b 9.096339
_cell_length_c 18.249607
_cell_angle_alpha 90.000000
_cell_angle_beta 90.000000
_cell_angle_gamma 90.000000
_cell_volume 2285.842835
_symmetry_space_group_name_H-M "P M N A"
_symmetry_group_IT_number 53
_symmetry_cell_setting 'orthorhombic'
loop_
_space_group_symop_operation_xyz
x,y,z
1/2-x,-y,1/2+z
x,-y,-z
1/2-x,y,1/2-z
-x,-y,-z
1/2+x,y,1/2-z
-x,y,z
1/2+x,-y,1/2+z
loop_
_atom_site_type_symbol
_atom_site_label
_atom_site_fract_x
_atom_site_fract_y
_atom_site_fract_z
Si Si1 0.760612 0.600509 0.570188
Si Si2 0.606327 0.165864 0.828950
Si Si3 0.389646 0.171188 0.993677
Si Si4 0.891516 0.283821 0.178934
Si Si5 0.849784 0.475421 0.710480
Si Si6 0.750000 0.050444 0.250000
O O1 0.738611 0.500000 0.500000
O O2 0.814429 0.749200 0.546750
O O3 0.658064 0.638482 0.608804
O O4 0.833716 0.520559 0.626128
O O5 0.500000 0.088372 0.825978
O O6 0.632820 0.216475 0.910610
O O7 0.598214 0.317500 0.783233
O O8 0.686578 0.052107 0.802295
O O9 0.500000 0.213410 0.015837
O O10 0.371223 0.000000 0.000000
O O11 0.906579 0.397146 0.246279
O O12 0.822414 0.149431 0.202161
O O13 0.000000 0.228145 0.157443
O O14 0.750000 0.451938 0.750000
#
# Coordination Sequence:
#
# PCOD8221012 Si02
#       6
#     8   8   8   8   8   4
#     4  11  21  39  64  89 121 163 197 255 311 361
#     4  11  22  36  60  89 118 157 199 247 303 362
#     4  10  22  36  54  87 124 156 193 242 306 368
#     4  11  24  42  64  90 119 162 213 252 300 365
#     4  10  20  40  60  87 120 158 202 251 300 356
#     4  12  22  40  62  86 128 164 200 250 306 360
#
# _framework density 19.248918
#
# number of rings (size 3 to 8) (size 9 to 14) (size 15 to 20)
#    0.000    1.273    5.455    2.182    0.000    2.182 
#    0.000    0.000    0.000    6.000    0.000    0.000 
#    0.000    0.000    0.000    0.000    0.000    0.000 
#
# Total GULP energy -545443.739150 kJ/mol
# GULP energy per Si atom -12396.448617 kJ/mol
# Density = 1.920511 g / cm^3
# Si number density = 19.248918 Si / 1000 Ang^3
#
#
#
# Elastic Constant Matrix: (Units=GPa)
#
#
# Indices 1 2 3 4 5 6 
#
# 1 129.6452 48.7213 49.1345 0.0000 0.0000 0.0000
# 2 48.7213 108.2775 43.9888 0.0000 0.0000 0.0000
# 3 49.1345 43.9888 97.0608 0.0000 0.0000 0.0000
# 4 0.0000 0.0000 0.0000 21.6924 0.0000 0.0000
# 5 0.0000 0.0000 0.0000 0.0000 39.0020 0.0000
# 6 0.0000 0.0000 0.0000 0.0000 0.0000 -22.0969
#
#
#
# Elastic Compliance Matrix: (Units=1/GPa)
#
#
# Indices 1 2 3 4 5 6 
#
# 1 0.010325 -0.003092 -0.003826 0.000000 0.000000 0.000000
# 2 -0.003092 0.012246 -0.003985 0.000000 0.000000 0.000000
# 3 -0.003826 -0.003985 0.014045 0.000000 0.000000 0.000000
# 4 0.000000 0.000000 0.000000 0.046099 0.000000 0.000000
# 5 0.000000 0.000000 0.000000 0.000000 0.025640 0.000000
# 6 0.000000 0.000000 0.000000 0.000000 0.000000 -0.045255
#
#
# Mechanical properties :
#
#
# Convention : Reuss Voigt Hill
#
# Bulk Modulus (GPa) = 67.51324 68.74140 68.12732
# Shear Modulus (GPa) = 55.65386 20.59542 38.12464
#
# Velocity S-wave (km/s) = 5.38289 3.27456 4.45524
# Velocity P-wave (km/s) = 8.58976 7.07717 7.86989
#
# Compressibility (1/GPa) = 0.01481191
#
# Stress axis : x y z
#
# Youngs Moduli (GPa) = 96.85097 81.66244 71.19808
#
# Poissons Ratio (x) = 0.25248 0.27238
# Poissons Ratio (y) = 0.29944 0.28370
# Poissons Ratio (z) = 0.37051 0.32540
#
# Static dielectric constant tensor:
#      x y z
#    x 3.510590 0.000000 0.000000 
#    y 0.000000 3.675250 0.000000 
#    z 0.000000 0.000000 6.252490 
# 
# 
# High freq. dielectric constant tensor:
#      x y z
#    x 1.746050 0.000000 0.000000 
#    y 0.000000 1.757080 0.000000 
#    z 0.000000 0.000000 1.745690 
# 
# From -- ./inp_files/28160.got.cif
#   From: 2010.03.12/outbox.cif.g09.slc.cpg/sg53_15_cif.got.tgz:28160.got - 2010.04.16 14:36:59.
