data_PCOD8221493
_publ_section_title
;
Structure prediction by ZEFSAII (Michael W. Deem and Ramdas Pophale) SiO2 
 PCOD8221493
Probable space group: P M N A
;
_chemical_formula_sum "Si O2"
_cell_formula_units_Z 48
_cell_length_a 8.801619
_cell_length_b 16.580067
_cell_length_c 15.746455
_cell_angle_alpha 90.000000
_cell_angle_beta 90.000000
_cell_angle_gamma 90.000000
_cell_volume 2297.902739
_symmetry_space_group_name_H-M "P M N A"
_symmetry_group_IT_number 53
_symmetry_cell_setting 'orthorhombic'
loop_
_space_group_symop_operation_xyz
x,y,z
1/2-x,-y,1/2+z
x,-y,-z
1/2-x,y,1/2-z
-x,-y,-z
1/2+x,y,1/2-z
-x,y,z
1/2+x,-y,1/2+z
loop_
_atom_site_type_symbol
_atom_site_label
_atom_site_fract_x
_atom_site_fract_y
_atom_site_fract_z
Si Si1 0.329268 0.346699 0.895857
Si Si2 0.178201 0.505749 0.841028
Si Si3 0.675946 0.825822 0.164538
Si Si4 0.673768 0.341584 0.089768
Si Si5 0.179917 0.813656 0.838471
Si Si6 0.824248 0.094876 0.493467
O O1 0.500000 0.379440 0.878385
O O2 0.210240 0.416222 0.874765
O O3 0.292967 0.269955 0.837624
O O4 0.315440 0.315509 0.992012
O O5 0.250000 0.520159 0.750000
O O6 0.251568 0.570333 0.904321
O O7 0.000000 0.519295 0.836635
O O8 0.750000 0.861473 0.250000
O O9 0.500000 0.846941 0.168817
O O10 0.744196 0.867667 0.080350
O O11 0.500000 0.344512 0.121311
O O12 0.764157 0.277554 0.146066
O O13 0.250000 0.845249 0.750000
O O14 0.231532 0.872799 0.913341
O O15 0.000000 0.814321 0.831824
O O16 0.000000 0.120536 0.481313
O O17 0.804270 0.000000 0.500000
#
# Coordination Sequence:
#
# PCOD8221493 Si02
#       6
#     8   8   8   8   8   8
#     4  10  21  39  62  87 120 163 210 260 316 373
#     4  12  25  39  56  85 123 163 213 262 314 371
#     4  10  21  39  63  94 127 166 210 258 315 376
#     4  11  22  41  65  89 123 164 212 262 320 378
#     4  12  25  42  67  97 132 171 217 266 321 383
#     4  10  22  44  70  96 130 170 212 263 322 383
#
# _framework density 20.888612999999999
#
# number of rings (size 3 to 8) (size 9 to 14) (size 15 to 20)
#    0.000    1.167    1.667    5.000    0.000    7.000 
#    0.000    1.667    0.000    0.000    0.000    0.000 
#    0.000    0.000    0.000    0.000    0.000    0.000 
#
# Total GULP energy -595474.545696 kJ/mol
# GULP energy per Si atom -12405.719702 kJ/mol
# Density = 2.084107 g / cm^3
# Si number density = 20.888613 Si / 1000 Ang^3
#
#
#
# Elastic Constant Matrix: (Units=GPa)
#
#
# Indices 1 2 3 4 5 6 
#
# 1 139.1969 38.5400 55.3164 0.0000 0.0000 0.0000
# 2 38.5400 66.3214 29.1306 0.0000 0.0000 0.0000
# 3 55.3164 29.1306 130.8933 0.0000 0.0000 0.0000
# 4 0.0000 0.0000 0.0000 20.9013 0.0000 0.0000
# 5 0.0000 0.0000 0.0000 0.0000 35.7610 0.0000
# 6 0.0000 0.0000 0.0000 0.0000 0.0000 11.0195
#
#
#
# Elastic Compliance Matrix: (Units=1/GPa)
#
#
# Indices 1 2 3 4 5 6 
#
# 1 0.009586 -0.004202 -0.003116 0.000000 0.000000 0.000000
# 2 -0.004202 0.018553 -0.002353 0.000000 0.000000 0.000000
# 3 -0.003116 -0.002353 0.009480 0.000000 0.000000 0.000000
# 4 0.000000 0.000000 0.000000 0.047844 0.000000 0.000000
# 5 0.000000 0.000000 0.000000 0.000000 0.027963 0.000000
# 6 0.000000 0.000000 0.000000 0.000000 0.000000 0.090748
#
#
# Mechanical properties :
#
#
# Convention : Reuss Voigt Hill
#
# Bulk Modulus (GPa) = 54.71229 64.70951 59.71090
# Shear Modulus (GPa) = 21.77612 27.76468 24.77040
#
# Velocity S-wave (km/s) = 3.23226 3.64974 3.44733
# Velocity P-wave (km/s) = 6.33871 6.98616 6.67030
#
# Compressibility (1/GPa) = 0.01827743
#
# Stress axis : x y z
#
# Youngs Moduli (GPa) = 104.32269 53.89830 105.48133
#
# Poissons Ratio (x) = 0.22647 0.32866
# Poissons Ratio (y) = 0.43833 0.24824
# Poissons Ratio (z) = 0.32505 0.12685
#
# Static dielectric constant tensor:
#      x y z
#    x 3.737180 0.000000 0.000000 
#    y 0.000000 3.662360 0.000000 
#    z 0.000000 0.000000 3.910090 
# 
# 
# High freq. dielectric constant tensor:
#      x y z
#    x 1.812060 0.000000 0.000000 
#    y 0.000000 1.815820 0.000000 
#    z 0.000000 0.000000 1.833040 
# 
# From -- ./inp_files/20160.got.cif
#   From: 2010.03.12/outbox.cif.g09.slc.cpg/sg53_11_cif.got.tgz:20160.got - 2010.04.16 14:36:59.
