data_PCOD8221654
_publ_section_title
;
Structure prediction by ZEFSAII (Michael W. Deem and Ramdas Pophale) SiO2 
 PCOD8221654
Probable space group: P M N A
;
_chemical_formula_sum "Si O2"
_cell_formula_units_Z 64
_cell_length_a 18.106192
_cell_length_b 12.423423
_cell_length_c 14.213690
_cell_angle_alpha 90.000000
_cell_angle_beta 90.000000
_cell_angle_gamma 90.000000
_cell_volume 3197.239967
_symmetry_space_group_name_H-M "P M N A"
_symmetry_group_IT_number 53
_symmetry_cell_setting 'orthorhombic'
loop_
_space_group_symop_operation_xyz
x,y,z
1/2-x,-y,1/2+z
x,-y,-z
1/2-x,y,1/2-z
-x,-y,-z
1/2+x,y,1/2-z
-x,y,z
1/2+x,-y,1/2+z
loop_
_atom_site_type_symbol
_atom_site_label
_atom_site_fract_x
_atom_site_fract_y
_atom_site_fract_z
Si Si1 0.133499 0.671281 0.524789
Si Si2 0.413754 0.150338 0.640393
Si Si3 0.414242 0.521127 0.142386
Si Si4 0.087336 0.927835 0.780691
Si Si5 0.831196 0.660188 0.213711
Si Si6 0.794349 0.620968 0.005880
Si Si7 0.086080 0.758809 0.936128
Si Si8 0.586240 0.091225 0.070338
O O1 0.117781 0.596837 0.616039
O O2 0.095464 0.609921 0.438442
O O3 0.220786 0.691426 0.509086
O O4 0.098609 0.788845 0.532058
O O5 0.500000 0.157397 0.657641
O O6 0.378447 0.230584 0.717386
O O7 0.395389 0.173908 0.530979
O O8 0.382013 0.033127 0.666182
O O9 0.500000 0.508697 0.167692
O O10 0.369203 0.561921 0.232109
O O11 0.109026 0.825931 0.844334
O O12 0.121441 0.918577 0.675396
O O13 0.000000 0.934672 0.774464
O O14 0.750000 0.684890 0.250000
O O15 0.830632 0.628183 0.106515
O O16 0.766094 0.500000 0.000000
O O17 0.859562 0.655119 0.933654
O O18 0.000000 0.723513 0.933929
O O19 0.500000 0.069093 0.078361
O O20 0.620444 0.000000 0.000000
#
# Coordination Sequence:
#
# PCOD8221654 Si02
#       8
#     8   8   8   8   8   8   8   8
#     4  11  21  41  60  86 122 158 203 247 302 367
#     4   9  18  33  58  85 113 151 202 253 297 360
#     4  11  22  38  66  91 113 156 207 254 295 354
#     4   9  18  35  57  84 115 156 202 249 306 359
#     4  11  21  36  55  86 121 152 194 250 310 363
#     4  11  22  40  60  84 120 159 193 247 317 363
#     4   9  19  36  59  85 114 153 202 250 299 367
#     4  10  22  37  57  86 122 160 200 253 312 368
#
# _framework density 20.017265999999999
#
# number of rings (size 3 to 8) (size 9 to 14) (size 15 to 20)
#    0.000    1.875    2.500    2.250    1.750    3.250 
#    0.000    6.875    0.000    0.000    0.000    0.000 
#    0.000    0.000    0.000    0.000    0.000    0.000 
#
# Total GULP energy -793379.298667 kJ/mol
# GULP energy per Si atom -12396.551542 kJ/mol
# Density = 1.997171 g / cm^3
# Si number density = 20.017266 Si / 1000 Ang^3
#
#
#
# Elastic Constant Matrix: (Units=GPa)
#
#
# Indices 1 2 3 4 5 6 
#
# 1 73.8406 19.4353 33.3950 0.0000 0.0000 0.0000
# 2 19.4353 98.7384 43.9313 0.0000 0.0000 0.0000
# 3 33.3950 43.9313 102.4952 0.0000 0.0000 0.0000
# 4 0.0000 0.0000 0.0000 -217.2932 0.0000 0.0000
# 5 0.0000 0.0000 0.0000 0.0000 19.0010 0.0000
# 6 0.0000 0.0000 0.0000 0.0000 0.0000 22.9866
#
#
#
# Elastic Compliance Matrix: (Units=1/GPa)
#
#
# Indices 1 2 3 4 5 6 
#
# 1 0.015966 -0.001023 -0.004764 0.000000 0.000000 0.000000
# 2 -0.001023 0.012580 -0.005059 0.000000 0.000000 0.000000
# 3 -0.004764 -0.005059 0.013477 0.000000 0.000000 0.000000
# 4 0.000000 0.000000 0.000000 -0.004602 0.000000 0.000000
# 5 0.000000 0.000000 0.000000 0.000000 0.052629 0.000000
# 6 0.000000 0.000000 0.000000 0.000000 0.000000 0.043504
#
#
# Mechanical properties :
#
#
# Convention : Reuss Voigt Hill
#
# Bulk Modulus (GPa) = 49.18304 52.06638 50.62471
# Shear Modulus (GPa) = 30.86008 -23.17361 3.84324
#
# Velocity S-wave (km/s) = 3.93067 -3.40616 1.38713
# Velocity P-wave (km/s) = 6.72487 3.25545 5.28308
#
# Compressibility (1/GPa) = 0.02033221
#
# Stress axis : x y z
#
# Youngs Moduli (GPa) = 62.63155 79.49201 74.20154
#
# Poissons Ratio (x) = 0.08135 0.35346
# Poissons Ratio (y) = 0.06409 0.37535
# Poissons Ratio (z) = 0.29835 0.40211
#
# Static dielectric constant tensor:
#      x y z
#    x 3.497040 0.000000 0.000000 
#    y 0.000000 4.324370 0.000000 
#    z 0.000000 0.000000 3.929170 
# 
# 
# High freq. dielectric constant tensor:
#      x y z
#    x 1.766940 0.000000 0.000000 
#    y 0.000000 1.778470 0.000000 
#    z 0.000000 0.000000 1.782500 
# 
# From -- ./inp_files/23912.got.cif
#   From: 2010.03.12/outbox.cif.g09.slc.cpg/sg53_12_cif.got.tgz:23912.got - 2010.04.16 14:36:59.
