data_PCOD8221008
_publ_section_title
;
Structure prediction by ZEFSAII (Michael W. Deem and Ramdas Pophale) SiO2 
 PCOD8221008
Probable space group: P M N A
;
_chemical_formula_sum "Si O2"
_cell_formula_units_Z 40
_cell_length_a 13.458599
_cell_length_b 14.112257
_cell_length_c 10.004374
_cell_angle_alpha 90.000000
_cell_angle_beta 90.000000
_cell_angle_gamma 90.000000
_cell_volume 1900.142839
_symmetry_space_group_name_H-M "P M N A"
_symmetry_group_IT_number 53
_symmetry_cell_setting 'orthorhombic'
loop_
_space_group_symop_operation_xyz
x,y,z
1/2-x,-y,1/2+z
x,-y,-z
1/2-x,y,1/2-z
-x,-y,-z
1/2+x,y,1/2-z
-x,y,z
1/2+x,-y,1/2+z
loop_
_atom_site_type_symbol
_atom_site_label
_atom_site_fract_x
_atom_site_fract_y
_atom_site_fract_z
Si Si1 0.892405 0.129765 0.172742
Si Si2 0.500000 0.592022 0.098952
Si Si3 0.000000 0.528117 0.848069
Si Si4 0.807300 0.900169 0.547502
Si Si5 0.669477 0.330185 0.363008
Si Si6 0.297381 0.293092 0.896868
O O1 0.804872 0.074950 0.096504
O O2 0.874450 0.135233 0.331203
O O3 0.896972 0.237004 0.119238
O O4 0.000000 0.082264 0.143736
O O5 0.500000 0.561665 0.253078
O O6 0.403460 0.657201 0.081856
O O7 0.500000 0.500000 0.000000
O O8 0.899439 0.584455 0.816692
O O9 0.000000 0.500000 0.000000
O O10 0.807742 0.818526 0.434404
O O11 0.852936 0.000000 0.500000
O O12 0.750000 0.309532 0.250000
O O13 0.723203 0.349245 0.504256
O O14 0.250000 0.302190 0.750000
#
# Coordination Sequence:
#
# PCOD8221008 Si02
#       6
#     8   4   4   8   8   8
#     4  10  20  39  68  94 122 166 228 255 311 391
#     4  12  28  44  67  98 128 170 223 272 323 396
#     4  12  26  40  66  96 127 165 224 272 318 394
#     4  10  23  41  64  97 132 169 216 268 318 385
#     4  11  21  41  68  92 124 176 214 266 318 386
#     4  11  25  44  64  95 138 172 205 275 338 377
#
# _framework density 21.051048000000002
#
# number of rings (size 3 to 8) (size 9 to 14) (size 15 to 20)
#    0.000    1.200    5.000    2.400    4.200    5.600 
#    1.800    0.000    0.000    0.000    0.000    0.000 
#    0.000    0.000    0.000    0.000    0.000    0.000 
#
# Total GULP energy -495857.721985 kJ/mol
# GULP energy per Si atom -12396.443050 kJ/mol
# Density = 2.100314 g / cm^3
# Si number density = 21.051048 Si / 1000 Ang^3
#
#
#
# Elastic Constant Matrix: (Units=GPa)
#
#
# Indices 1 2 3 4 5 6 
#
# 1 134.0642 38.6713 38.4133 0.0000 0.0000 0.0000
# 2 38.6713 85.8068 24.0362 0.0000 0.0000 0.0000
# 3 38.4133 24.0362 120.3835 0.0000 0.0000 0.0000
# 4 0.0000 0.0000 0.0000 21.4214 0.0000 0.0000
# 5 0.0000 0.0000 0.0000 0.0000 19.9803 0.0000
# 6 0.0000 0.0000 0.0000 0.0000 0.0000 12.9240
#
#
#
# Elastic Compliance Matrix: (Units=1/GPa)
#
#
# Indices 1 2 3 4 5 6 
#
# 1 0.009096 -0.003481 -0.002207 0.000000 0.000000 0.000000
# 2 -0.003481 0.013677 -0.001620 0.000000 0.000000 0.000000
# 3 -0.002207 -0.001620 0.009335 0.000000 0.000000 0.000000
# 4 0.000000 0.000000 0.000000 0.046682 0.000000 0.000000
# 5 0.000000 0.000000 0.000000 0.000000 0.050049 0.000000
# 6 0.000000 0.000000 0.000000 0.000000 0.000000 0.077376
#
#
# Mechanical properties :
#
#
# Convention : Reuss Voigt Hill
#
# Bulk Modulus (GPa) = 57.17417 60.27734 58.72576
# Shear Modulus (GPa) = 22.05940 26.80738 24.43339
#
# Velocity S-wave (km/s) = 3.24064 3.57241 3.41056
# Velocity P-wave (km/s) = 6.42036 6.76108 6.59292
#
# Compressibility (1/GPa) = 0.01749041
#
# Stress axis : x y z
#
# Youngs Moduli (GPa) = 109.94251 73.11731 107.12855
#
# Poissons Ratio (x) = 0.25451 0.23647
# Poissons Ratio (y) = 0.38270 0.17355
# Poissons Ratio (z) = 0.24268 0.11845
#
# Static dielectric constant tensor:
#      x y z
#    x 3.032510 0.000000 0.000000 
#    y 0.000000 3.938030 0.000000 
#    z 0.000000 0.000000 3.805000 
# 
# 
# High freq. dielectric constant tensor:
#      x y z
#    x 1.835110 0.000000 0.000000 
#    y 0.000000 1.814440 0.000000 
#    z 0.000000 0.000000 1.827380 
# 
# From -- ./inp_files/8485.got.cif
#   From: 2010.03.12/outbox.cif.g09.slc.cpg/sg53_5_cif.got.tgz:8485.got - 2010.04.16 14:36:59.
