data_PCOD8221607
_publ_section_title
;
Structure prediction by ZEFSAII (Michael W. Deem and Ramdas Pophale) SiO2 
 PCOD8221607
Probable space group: P M N A
;
_chemical_formula_sum "Si O2"
_cell_formula_units_Z 64
_cell_length_a 15.071692
_cell_length_b 9.845751
_cell_length_c 21.860553
_cell_angle_alpha 90.000000
_cell_angle_beta 90.000000
_cell_angle_gamma 90.000000
_cell_volume 3243.933948
_symmetry_space_group_name_H-M "P M N A"
_symmetry_group_IT_number 53
_symmetry_cell_setting 'orthorhombic'
loop_
_space_group_symop_operation_xyz
x,y,z
1/2-x,-y,1/2+z
x,-y,-z
1/2-x,y,1/2-z
-x,-y,-z
1/2+x,y,1/2-z
-x,y,z
1/2+x,-y,1/2+z
loop_
_atom_site_type_symbol
_atom_site_label
_atom_site_fract_x
_atom_site_fract_y
_atom_site_fract_z
Si Si1 0.235453 0.882011 0.043774
Si Si2 0.896835 0.050122 0.622105
Si Si3 0.745389 0.629070 0.959916
Si Si4 0.398467 0.784897 0.362673
Si Si5 0.150618 0.442005 0.258917
Si Si6 0.103552 0.737583 0.273905
Si Si7 0.598114 0.527114 0.622530
Si Si8 0.599538 0.738303 0.868952
O O1 0.336697 0.909704 0.064413
O O2 0.167797 0.882082 0.100610
O O3 0.229426 0.743283 0.007639
O O4 0.201830 0.000000 0.000000
O O5 0.869154 0.150079 0.676972
O O6 0.000000 0.069554 0.604151
O O7 0.875522 0.895942 0.641805
O O8 0.829961 0.607406 0.916516
O O9 0.662571 0.669110 0.918368
O O10 0.718413 0.500000 0.000000
O O11 0.500000 0.833901 0.371400
O O12 0.369078 0.795487 0.292087
O O13 0.386199 0.632270 0.386801
O O14 0.250000 0.390771 0.250000
O O15 0.152246 0.594525 0.287572
O O16 0.101053 0.437443 0.194279
O O17 0.103135 0.338280 0.304417
O O18 0.000000 0.703792 0.274928
O O19 0.500000 0.567669 0.598832
O O20 0.500000 0.727496 0.895011
#
# Coordination Sequence:
#
# PCOD8221607 Si02
#       8
#     8   8   8   8   8   8   8   8
#     4  12  25  42  62  89 125 163 214 259 303 366
#     4  10  24  44  66  89 124 170 206 250 314 375
#     4  12  25  42  63  93 122 161 220 261 302 367
#     4   9  20  40  65  92 124 162 204 256 310 368
#     4  11  21  37  67  99 129 156 198 261 320 367
#     4   9  20  39  64  96 122 157 208 249 307 378
#     4  10  21  41  66  93 126 166 205 252 317 378
#     4  11  24  45  65  91 130 165 204 260 317 373
#
# _framework density 19.729132
#
# number of rings (size 3 to 8) (size 9 to 14) (size 15 to 20)
#    0.000    1.500    3.750    1.875    5.250    2.000 
#    4.500    0.000    0.000    0.000    0.000    0.000 
#    0.000    0.000    0.000    0.000    0.000    0.000 
#
# Total GULP energy -793799.476233 kJ/mol
# GULP energy per Si atom -12403.116816 kJ/mol
# Density = 1.968423 g / cm^3
# Si number density = 19.729132 Si / 1000 Ang^3
#
#
#
# Elastic Constant Matrix: (Units=GPa)
#
#
# Indices 1 2 3 4 5 6 
#
# 1 89.4244 26.3739 27.3314 0.0000 0.0000 0.0000
# 2 26.3739 98.2123 41.5864 0.0000 0.0000 0.0000
# 3 27.3314 41.5864 78.9204 0.0000 0.0000 0.0000
# 4 0.0000 0.0000 0.0000 34.9418 0.0000 0.0000
# 5 0.0000 0.0000 0.0000 0.0000 22.6806 0.0000
# 6 0.0000 0.0000 0.0000 0.0000 0.0000 27.3580
#
#
#
# Elastic Compliance Matrix: (Units=1/GPa)
#
#
# Indices 1 2 3 4 5 6 
#
# 1 0.012807 -0.002010 -0.003376 0.000000 0.000000 0.000000
# 2 -0.002010 0.013422 -0.006376 0.000000 0.000000 0.000000
# 3 -0.003376 -0.006376 0.017200 0.000000 0.000000 0.000000
# 4 0.000000 0.000000 0.000000 0.028619 0.000000 0.000000
# 5 0.000000 0.000000 0.000000 0.000000 0.044090 0.000000
# 6 0.000000 0.000000 0.000000 0.000000 0.000000 0.036552
#
#
# Mechanical properties :
#
#
# Convention : Reuss Voigt Hill
#
# Bulk Modulus (GPa) = 50.24037 50.79339 50.51688
# Shear Modulus (GPa) = 27.34468 28.41378 27.87923
#
# Velocity S-wave (km/s) = 3.72695 3.79911 3.76320
# Velocity P-wave (km/s) = 6.63630 6.71160 6.67406
#
# Compressibility (1/GPa) = 0.01990431
#
# Stress axis : x y z
#
# Youngs Moduli (GPa) = 78.08056 74.50631 58.13837
#
# Poissons Ratio (x) = 0.14973 0.19630
# Poissons Ratio (y) = 0.15691 0.37072
# Poissons Ratio (z) = 0.26364 0.47509
#
# Static dielectric constant tensor:
#      x y z
#    x 3.622910 0.000000 0.000000 
#    y 0.000000 3.541210 0.000000 
#    z 0.000000 0.000000 3.610240 
# 
# 
# High freq. dielectric constant tensor:
#      x y z
#    x 1.779570 0.000000 0.000000 
#    y 0.000000 1.761470 0.000000 
#    z 0.000000 0.000000 1.771610 
# 
# From -- ./inp_files/35355.got.cif
#   From: 2010.03.12/outbox.cif.g09.slc.cpg/sg53_18_cif.got.tgz:35355.got - 2010.04.16 14:36:59.
